MODEL 1
REMARK VINA RESULT:      -9.5      0.000      0.000
REMARK  4 active torsions:
REMARK  status: ('A' for Active; 'I' for Inactive)
REMARK    1  A    between atoms: C_3  and  N_4 
REMARK    2  A    between atoms: C_11  and  C_12 
REMARK       I    between atoms: C_12  and  N_13 
REMARK    3  A    between atoms: N_13  and  C_14 
REMARK    4  A    between atoms: C_19  and  O_20 
ROOT
HETATM    1  C   UNL     1      -0.777   6.483 -30.610  1.00  0.00     0.036 A 
HETATM    2  C   UNL     1      -1.633   5.393 -30.754  1.00  0.00     0.049 A 
HETATM    3  C   UNL     1      -2.195   5.076 -32.008  1.00  0.00     0.063 A 
HETATM    4  C   UNL     1      -1.908   5.861 -33.141  1.00  0.00     0.075 A 
HETATM    5  N   UNL     1      -2.407   5.682 -34.449  1.00  0.00    -0.226 NA
HETATM    6  C   UNL     1      -3.646   5.364 -34.625  1.00  0.00     0.161 C 
HETATM    7  C   UNL     1      -4.677   5.096 -33.547  1.00  0.00     0.164 C 
HETATM    8  N   UNL     1      -4.183   3.915 -32.854  1.00  0.00    -0.336 N 
HETATM    9  C   UNL     1      -3.064   3.871 -32.056  1.00  0.00     0.257 C 
HETATM   10  O   UNL     1      -2.771   2.884 -31.387  1.00  0.00    -0.267 OA
HETATM   11  C   UNL     1      -6.072   4.696 -34.021  1.00  0.00     0.035 C 
HETATM   12  C   UNL     1      -5.987   3.177 -34.156  1.00  0.00     0.022 C 
HETATM   13  C   UNL     1      -5.074   2.782 -33.004  1.00  0.00     0.127 C 
HETATM   14  C   UNL     1      -1.009   6.923 -32.986  1.00  0.00     0.035 A 
HETATM   15  C   UNL     1      -0.446   7.229 -31.744  1.00  0.00     0.032 A 
ENDROOT
BRANCH   1  16
HETATM   16  N   UNL     1      -0.225   6.910 -29.385  1.00  0.00    -0.323 N 
HETATM   17  C   UNL     1      -0.828   7.704 -28.424  1.00  0.00     0.256 C 
HETATM   18  O   UNL     1      -1.988   8.101 -28.440  1.00  0.00    -0.267 OA
HETATM   19  H   UNL     1       0.727   6.620 -29.218  1.00  0.00     0.169 HD
BRANCH  17  20
HETATM   20  C   UNL     1       0.043   8.115 -27.277  1.00  0.00     0.033 A 
HETATM   21  C   UNL     1       1.403   7.811 -27.213  1.00  0.00     0.019 A 
HETATM   22  C   UNL     1       2.170   8.248 -26.129  1.00  0.00     0.031 A 
HETATM   23  C   UNL     1       1.605   9.022 -25.096  1.00  0.00     0.044 A 
HETATM   24  C   UNL     1       0.228   9.327 -25.141  1.00  0.00    -0.034 A 
HETATM   25  C   UNL     1      -0.526  10.073 -24.073  1.00  0.00     0.050 C 
HETATM   26  C   UNL     1      -0.527   8.879 -26.247  1.00  0.00     0.026 A 
BRANCH  23  27
HETATM   27  N   UNL     1       2.481   9.474 -24.060  1.00  0.00    -0.332 N 
HETATM   28  C   UNL     1       2.963  10.752 -23.863  1.00  0.00     0.096 A 
HETATM   29  C   UNL     1       3.801  10.762 -22.768  1.00  0.00     0.019 A 
HETATM   30  C   UNL     1       3.860   9.445 -22.276  1.00  0.00     0.019 A 
HETATM   31  C   UNL     1       3.062   8.672 -23.091  1.00  0.00     0.096 A 
ENDBRANCH  23  27
ENDBRANCH  17  20
ENDBRANCH   1  16
BRANCH   6  32
HETATM   32  O   UNL     1      -4.060   5.258 -35.894  1.00  0.00    -0.346 OA
HETATM   33  H   UNL     1      -3.265   5.163 -36.447  1.00  0.00     0.219 HD
ENDBRANCH   6  32
TORSDOF 4
ENDMDL
MODEL 2
REMARK VINA RESULT:      -9.0      5.162     12.712
REMARK  4 active torsions:
REMARK  status: ('A' for Active; 'I' for Inactive)
REMARK    1  A    between atoms: C_3  and  N_4 
REMARK    2  A    between atoms: C_11  and  C_12 
REMARK       I    between atoms: C_12  and  N_13 
REMARK    3  A    between atoms: N_13  and  C_14 
REMARK    4  A    between atoms: C_19  and  O_20 
ROOT
HETATM    1  C   UNL     1      -5.894   2.804 -32.593  1.00  0.00     0.036 A 
HETATM    2  C   UNL     1      -5.295   3.937 -33.143  1.00  0.00     0.049 A 
HETATM    3  C   UNL     1      -3.956   4.263 -32.845  1.00  0.00     0.063 A 
HETATM    4  C   UNL     1      -3.198   3.455 -31.976  1.00  0.00     0.075 A 
HETATM    5  N   UNL     1      -1.862   3.662 -31.570  1.00  0.00    -0.226 NA
HETATM    6  C   UNL     1      -1.457   4.853 -31.281  1.00  0.00     0.161 C 
HETATM    7  C   UNL     1      -2.262   6.134 -31.375  1.00  0.00     0.164 C 
HETATM    8  N   UNL     1      -2.557   6.277 -32.793  1.00  0.00    -0.336 N 
HETATM    9  C   UNL     1      -3.407   5.471 -33.515  1.00  0.00     0.257 C 
HETATM   10  O   UNL     1      -3.725   5.719 -34.674  1.00  0.00    -0.267 OA
HETATM   11  C   UNL     1      -1.534   7.426 -31.012  1.00  0.00     0.035 C 
HETATM   12  C   UNL     1      -0.898   7.865 -32.330  1.00  0.00     0.022 C 
HETATM   13  C   UNL     1      -1.935   7.454 -33.364  1.00  0.00     0.127 C 
HETATM   14  C   UNL     1      -3.802   2.296 -31.472  1.00  0.00     0.035 A 
HETATM   15  C   UNL     1      -5.126   1.970 -31.778  1.00  0.00     0.032 A 
ENDROOT
BRANCH   1  16
HETATM   16  N   UNL     1      -7.243   2.441 -32.785  1.00  0.00    -0.323 N 
HETATM   17  C   UNL     1      -7.780   1.739 -33.851  1.00  0.00     0.256 C 
HETATM   18  O   UNL     1      -7.150   1.235 -34.774  1.00  0.00    -0.267 OA
HETATM   19  H   UNL     1      -7.880   2.762 -32.071  1.00  0.00     0.169 HD
BRANCH  17  20
HETATM   20  C   UNL     1      -9.273   1.611 -33.862  1.00  0.00     0.033 A 
HETATM   21  C   UNL     1      -9.944   0.527 -33.296  1.00  0.00     0.019 A 
HETATM   22  C   UNL     1     -11.341   0.481 -33.313  1.00  0.00     0.031 A 
HETATM   23  C   UNL     1     -12.103   1.527 -33.869  1.00  0.00     0.044 A 
HETATM   24  C   UNL     1     -11.438   2.625 -34.456  1.00  0.00    -0.034 A 
HETATM   25  C   UNL     1     -12.116   3.771 -35.156  1.00  0.00     0.050 C 
HETATM   26  C   UNL     1     -10.026   2.653 -34.424  1.00  0.00     0.026 A 
BRANCH  23  27
HETATM   27  N   UNL     1     -13.526   1.419 -33.786  1.00  0.00    -0.332 N 
HETATM   28  C   UNL     1     -14.356   1.948 -32.818  1.00  0.00     0.096 A 
HETATM   29  C   UNL     1     -15.660   1.593 -33.087  1.00  0.00     0.019 A 
HETATM   30  C   UNL     1     -15.644   0.799 -34.250  1.00  0.00     0.019 A 
HETATM   31  C   UNL     1     -14.330   0.691 -34.648  1.00  0.00     0.096 A 
ENDBRANCH  23  27
ENDBRANCH  17  20
ENDBRANCH   1  16
BRANCH   6  32
HETATM   32  O   UNL     1      -0.193   4.967 -30.857  1.00  0.00    -0.346 OA
HETATM   33  H   UNL     1       0.103   5.867 -31.077  1.00  0.00     0.219 HD
ENDBRANCH   6  32
TORSDOF 4
ENDMDL
MODEL 3
REMARK VINA RESULT:      -8.7      3.819     11.258
REMARK  4 active torsions:
REMARK  status: ('A' for Active; 'I' for Inactive)
REMARK    1  A    between atoms: C_3  and  N_4 
REMARK    2  A    between atoms: C_11  and  C_12 
REMARK       I    between atoms: C_12  and  N_13 
REMARK    3  A    between atoms: N_13  and  C_14 
REMARK    4  A    between atoms: C_19  and  O_20 
ROOT
HETATM    1  C   UNL     1      -2.976   4.464 -31.501  1.00  0.00     0.036 A 
HETATM    2  C   UNL     1      -3.724   5.487 -30.919  1.00  0.00     0.049 A 
HETATM    3  C   UNL     1      -3.090   6.608 -30.346  1.00  0.00     0.063 A 
HETATM    4  C   UNL     1      -1.686   6.714 -30.341  1.00  0.00     0.075 A 
HETATM    5  N   UNL     1      -0.912   7.759 -29.792  1.00  0.00    -0.226 NA
HETATM    6  C   UNL     1      -1.242   8.271 -28.653  1.00  0.00     0.161 C 
HETATM    7  C   UNL     1      -2.448   7.907 -27.810  1.00  0.00     0.164 C 
HETATM    8  N   UNL     1      -3.593   8.284 -28.626  1.00  0.00    -0.336 N 
HETATM    9  C   UNL     1      -3.983   7.657 -29.786  1.00  0.00     0.257 C 
HETATM   10  O   UNL     1      -5.033   7.928 -30.360  1.00  0.00    -0.267 OA
HETATM   11  C   UNL     1      -2.637   8.694 -26.514  1.00  0.00     0.035 C 
HETATM   12  C   UNL     1      -3.451   9.912 -26.946  1.00  0.00     0.022 C 
HETATM   13  C   UNL     1      -4.369   9.346 -28.019  1.00  0.00     0.127 C 
HETATM   14  C   UNL     1      -0.955   5.700 -30.973  1.00  0.00     0.035 A 
HETATM   15  C   UNL     1      -1.587   4.595 -31.549  1.00  0.00     0.032 A 
ENDROOT
BRANCH   1  16
HETATM   16  N   UNL     1      -3.524   3.280 -32.037  1.00  0.00    -0.323 N 
HETATM   17  C   UNL     1      -4.434   2.428 -31.433  1.00  0.00     0.256 C 
HETATM   18  O   UNL     1      -4.987   2.610 -30.355  1.00  0.00    -0.267 OA
HETATM   19  H   UNL     1      -3.181   3.023 -32.950  1.00  0.00     0.169 HD
BRANCH  17  20
HETATM   20  C   UNL     1      -4.740   1.167 -32.180  1.00  0.00     0.033 A 
HETATM   21  C   UNL     1      -4.207  -0.072 -31.825  1.00  0.00     0.019 A 
HETATM   22  C   UNL     1      -4.554  -1.219 -32.546  1.00  0.00     0.031 A 
HETATM   23  C   UNL     1      -5.464  -1.162 -33.619  1.00  0.00     0.044 A 
HETATM   24  C   UNL     1      -6.003   0.086 -33.998  1.00  0.00    -0.034 A 
HETATM   25  C   UNL     1      -6.921   0.311 -35.170  1.00  0.00     0.050 C 
HETATM   26  C   UNL     1      -5.641   1.231 -33.254  1.00  0.00     0.026 A 
BRANCH  23  27
HETATM   27  N   UNL     1      -5.806  -2.395 -34.257  1.00  0.00    -0.332 N 
HETATM   28  C   UNL     1      -7.042  -3.006 -34.302  1.00  0.00     0.096 A 
HETATM   29  C   UNL     1      -6.942  -4.195 -34.992  1.00  0.00     0.019 A 
HETATM   30  C   UNL     1      -5.595  -4.343 -35.374  1.00  0.00     0.019 A 
HETATM   31  C   UNL     1      -4.917  -3.243 -34.899  1.00  0.00     0.096 A 
ENDBRANCH  23  27
ENDBRANCH  17  20
ENDBRANCH   1  16
BRANCH   6  32
HETATM   32  O   UNL     1      -0.435   9.224 -28.172  1.00  0.00    -0.346 OA
HETATM   33  H   UNL     1      -0.589   9.270 -27.212  1.00  0.00     0.219 HD
ENDBRANCH   6  32
TORSDOF 4
ENDMDL
MODEL 4
REMARK VINA RESULT:      -8.7      2.426     10.828
REMARK  4 active torsions:
REMARK  status: ('A' for Active; 'I' for Inactive)
REMARK    1  A    between atoms: C_3  and  N_4 
REMARK    2  A    between atoms: C_11  and  C_12 
REMARK       I    between atoms: C_12  and  N_13 
REMARK    3  A    between atoms: N_13  and  C_14 
REMARK    4  A    between atoms: C_19  and  O_20 
ROOT
HETATM    1  C   UNL     1      -1.591   6.161 -30.296  1.00  0.00     0.036 A 
HETATM    2  C   UNL     1      -1.925   7.398 -29.745  1.00  0.00     0.049 A 
HETATM    3  C   UNL     1      -0.972   8.152 -29.031  1.00  0.00     0.063 A 
HETATM    4  C   UNL     1       0.337   7.667 -28.850  1.00  0.00     0.075 A 
HETATM    5  N   UNL     1       1.388   8.294 -28.147  1.00  0.00    -0.226 NA
HETATM    6  C   UNL     1       1.145   8.889 -27.027  1.00  0.00     0.161 C 
HETATM    7  C   UNL     1      -0.206   9.051 -26.360  1.00  0.00     0.164 C 
HETATM    8  N   UNL     1      -0.973   9.874 -27.283  1.00  0.00    -0.336 N 
HETATM    9  C   UNL     1      -1.425   9.473 -28.519  1.00  0.00     0.257 C 
HETATM   10  O   UNL     1      -2.183  10.158 -29.198  1.00  0.00    -0.267 OA
HETATM   11  C   UNL     1      -0.230   9.837 -25.051  1.00  0.00     0.035 C 
HETATM   12  C   UNL     1      -0.407  11.286 -25.501  1.00  0.00     0.022 C 
HETATM   13  C   UNL     1      -1.321  11.158 -26.710  1.00  0.00     0.127 C 
HETATM   14  C   UNL     1       0.667   6.446 -29.451  1.00  0.00     0.035 A 
HETATM   15  C   UNL     1      -0.277   5.705 -30.167  1.00  0.00     0.032 A 
ENDROOT
BRANCH   1  16
HETATM   16  N   UNL     1      -2.497   5.314 -30.966  1.00  0.00    -0.323 N 
HETATM   17  C   UNL     1      -2.743   5.257 -32.328  1.00  0.00     0.256 C 
HETATM   18  O   UNL     1      -2.144   5.881 -33.196  1.00  0.00    -0.267 OA
HETATM   19  H   UNL     1      -3.041   4.708 -30.369  1.00  0.00     0.169 HD
BRANCH  17  20
HETATM   20  C   UNL     1      -3.861   4.354 -32.751  1.00  0.00     0.033 A 
HETATM   21  C   UNL     1      -4.806   4.718 -33.710  1.00  0.00     0.019 A 
HETATM   22  C   UNL     1      -5.810   3.818 -34.084  1.00  0.00     0.031 A 
HETATM   23  C   UNL     1      -5.877   2.525 -33.530  1.00  0.00     0.044 A 
HETATM   24  C   UNL     1      -4.935   2.147 -32.550  1.00  0.00    -0.034 A 
HETATM   25  C   UNL     1      -4.932   0.833 -31.816  1.00  0.00     0.050 C 
HETATM   26  C   UNL     1      -3.928   3.070 -32.191  1.00  0.00     0.026 A 
BRANCH  23  27
HETATM   27  N   UNL     1      -6.901   1.655 -34.018  1.00  0.00    -0.332 N 
HETATM   28  C   UNL     1      -6.793   0.699 -35.008  1.00  0.00     0.096 A 
HETATM   29  C   UNL     1      -8.018   0.095 -35.198  1.00  0.00     0.019 A 
HETATM   30  C   UNL     1      -8.926   0.706 -34.313  1.00  0.00     0.019 A 
HETATM   31  C   UNL     1      -8.227   1.668 -33.617  1.00  0.00     0.096 A 
ENDBRANCH  23  27
ENDBRANCH  17  20
ENDBRANCH   1  16
BRANCH   6  32
HETATM   32  O   UNL     1       2.198   9.419 -26.393  1.00  0.00    -0.346 OA
HETATM   33  H   UNL     1       2.876   9.599 -27.067  1.00  0.00     0.219 HD
ENDBRANCH   6  32
TORSDOF 4
ENDMDL
MODEL 5
REMARK VINA RESULT:      -8.6      5.608     12.659
REMARK  4 active torsions:
REMARK  status: ('A' for Active; 'I' for Inactive)
REMARK    1  A    between atoms: C_3  and  N_4 
REMARK    2  A    between atoms: C_11  and  C_12 
REMARK       I    between atoms: C_12  and  N_13 
REMARK    3  A    between atoms: N_13  and  C_14 
REMARK    4  A    between atoms: C_19  and  O_20 
ROOT
HETATM    1  C   UNL     1      -6.833   3.234 -32.050  1.00  0.00     0.036 A 
HETATM    2  C   UNL     1      -6.121   4.113 -32.865  1.00  0.00     0.049 A 
HETATM    3  C   UNL     1      -4.719   4.217 -32.763  1.00  0.00     0.063 A 
HETATM    4  C   UNL     1      -4.008   3.441 -31.828  1.00  0.00     0.075 A 
HETATM    5  N   UNL     1      -2.615   3.450 -31.598  1.00  0.00    -0.226 NA
HETATM    6  C   UNL     1      -1.974   4.571 -31.587  1.00  0.00     0.161 C 
HETATM    7  C   UNL     1      -2.548   5.947 -31.855  1.00  0.00     0.164 C 
HETATM    8  N   UNL     1      -2.994   5.895 -33.240  1.00  0.00    -0.336 N 
HETATM    9  C   UNL     1      -4.057   5.158 -33.706  1.00  0.00     0.257 C 
HETATM   10  O   UNL     1      -4.474   5.256 -34.856  1.00  0.00    -0.267 OA
HETATM   11  C   UNL     1      -1.564   7.115 -31.823  1.00  0.00     0.035 C 
HETATM   12  C   UNL     1      -1.036   7.183 -33.254  1.00  0.00     0.022 C 
HETATM   13  C   UNL     1      -2.254   6.810 -34.086  1.00  0.00     0.127 C 
HETATM   14  C   UNL     1      -4.735   2.530 -31.052  1.00  0.00     0.035 A 
HETATM   15  C   UNL     1      -6.124   2.421 -31.162  1.00  0.00     0.032 A 
ENDROOT
BRANCH   1  16
HETATM   16  N   UNL     1      -8.238   3.114 -32.039  1.00  0.00    -0.323 N 
HETATM   17  C   UNL     1      -9.059   2.767 -33.099  1.00  0.00     0.256 C 
HETATM   18  O   UNL     1      -8.689   2.417 -34.213  1.00  0.00    -0.267 OA
HETATM   19  H   UNL     1      -8.681   3.340 -31.161  1.00  0.00     0.169 HD
BRANCH  17  20
HETATM   20  C   UNL     1     -10.531   2.851 -32.837  1.00  0.00     0.033 A 
HETATM   21  C   UNL     1     -11.077   3.650 -31.832  1.00  0.00     0.019 A 
HETATM   22  C   UNL     1     -12.463   3.707 -31.656  1.00  0.00     0.031 A 
HETATM   23  C   UNL     1     -13.339   2.992 -32.495  1.00  0.00     0.044 A 
HETATM   24  C   UNL     1     -12.801   2.171 -33.510  1.00  0.00    -0.034 A 
HETATM   25  C   UNL     1     -13.607   1.291 -34.426  1.00  0.00     0.050 C 
HETATM   26  C   UNL     1     -11.398   2.130 -33.672  1.00  0.00     0.026 A 
BRANCH  23  27
HETATM   27  N   UNL     1     -14.742   3.161 -32.278  1.00  0.00    -0.332 N 
HETATM   28  C   UNL     1     -15.707   2.178 -32.202  1.00  0.00     0.096 A 
HETATM   29  C   UNL     1     -16.941   2.761 -32.010  1.00  0.00     0.019 A 
HETATM   30  C   UNL     1     -16.745   4.155 -31.985  1.00  0.00     0.019 A 
HETATM   31  C   UNL     1     -15.398   4.377 -32.170  1.00  0.00     0.096 A 
ENDBRANCH  23  27
ENDBRANCH  17  20
ENDBRANCH   1  16
BRANCH   6  32
HETATM   32  O   UNL     1      -0.665   4.506 -31.314  1.00  0.00    -0.346 OA
HETATM   33  H   UNL     1      -0.510   5.057 -30.528  1.00  0.00     0.219 HD
ENDBRANCH   6  32
TORSDOF 4
ENDMDL
MODEL 6
REMARK VINA RESULT:      -8.5      3.234      5.395
REMARK  4 active torsions:
REMARK  status: ('A' for Active; 'I' for Inactive)
REMARK    1  A    between atoms: C_3  and  N_4 
REMARK    2  A    between atoms: C_11  and  C_12 
REMARK       I    between atoms: C_12  and  N_13 
REMARK    3  A    between atoms: N_13  and  C_14 
REMARK    4  A    between atoms: C_19  and  O_20 
ROOT
HETATM    1  C   UNL     1      -5.822   4.327 -30.265  1.00  0.00     0.036 A 
HETATM    2  C   UNL     1      -5.734   3.824 -31.562  1.00  0.00     0.049 A 
HETATM    3  C   UNL     1      -6.756   3.010 -32.092  1.00  0.00     0.063 A 
HETATM    4  C   UNL     1      -7.885   2.681 -31.316  1.00  0.00     0.075 A 
HETATM    5  N   UNL     1      -8.972   1.866 -31.699  1.00  0.00    -0.226 NA
HETATM    6  C   UNL     1      -8.758   0.783 -32.369  1.00  0.00     0.161 C 
HETATM    7  C   UNL     1      -7.421   0.274 -32.867  1.00  0.00     0.164 C 
HETATM    8  N   UNL     1      -6.976   1.281 -33.818  1.00  0.00    -0.336 N 
HETATM    9  C   UNL     1      -6.579   2.558 -33.497  1.00  0.00     0.257 C 
HETATM   10  O   UNL     1      -6.084   3.322 -34.321  1.00  0.00    -0.267 OA
HETATM   11  C   UNL     1      -7.443  -1.021 -33.677  1.00  0.00     0.035 C 
HETATM   12  C   UNL     1      -7.666  -0.547 -35.111  1.00  0.00     0.022 C 
HETATM   13  C   UNL     1      -6.885   0.757 -35.166  1.00  0.00     0.127 C 
HETATM   14  C   UNL     1      -7.977   3.235 -30.034  1.00  0.00     0.035 A 
HETATM   15  C   UNL     1      -6.967   4.049 -29.515  1.00  0.00     0.032 A 
ENDROOT
BRANCH   1  16
HETATM   16  N   UNL     1      -4.818   5.091 -29.635  1.00  0.00    -0.323 N 
HETATM   17  C   UNL     1      -4.516   6.425 -29.855  1.00  0.00     0.256 C 
HETATM   18  O   UNL     1      -5.136   7.195 -30.579  1.00  0.00    -0.267 OA
HETATM   19  H   UNL     1      -4.244   4.587 -28.975  1.00  0.00     0.169 HD
BRANCH  17  20
HETATM   20  C   UNL     1      -3.306   6.946 -29.142  1.00  0.00     0.033 A 
HETATM   21  C   UNL     1      -3.360   7.491 -27.859  1.00  0.00     0.019 A 
HETATM   22  C   UNL     1      -2.189   7.934 -27.234  1.00  0.00     0.031 A 
HETATM   23  C   UNL     1      -0.934   7.817 -27.863  1.00  0.00     0.044 A 
HETATM   24  C   UNL     1      -0.866   7.278 -29.166  1.00  0.00    -0.034 A 
HETATM   25  C   UNL     1       0.389   7.166 -29.989  1.00  0.00     0.050 C 
HETATM   26  C   UNL     1      -2.060   6.834 -29.776  1.00  0.00     0.026 A 
BRANCH  23  27
HETATM   27  N   UNL     1       0.213   8.240 -27.123  1.00  0.00    -0.332 N 
HETATM   28  C   UNL     1       1.132   7.447 -26.467  1.00  0.00     0.096 A 
HETATM   29  C   UNL     1       2.072   8.246 -25.852  1.00  0.00     0.019 A 
HETATM   30  C   UNL     1       1.717   9.583 -26.113  1.00  0.00     0.019 A 
HETATM   31  C   UNL     1       0.570   9.556 -26.874  1.00  0.00     0.096 A 
ENDBRANCH  23  27
ENDBRANCH  17  20
ENDBRANCH   1  16
BRANCH   6  32
HETATM   32  O   UNL     1      -9.832   0.037 -32.655  1.00  0.00    -0.346 OA
HETATM   33  H   UNL     1      -9.536  -0.676 -33.246  1.00  0.00     0.219 HD
ENDBRANCH   6  32
TORSDOF 4
ENDMDL
MODEL 7
REMARK VINA RESULT:      -8.5      2.191      3.383
REMARK  4 active torsions:
REMARK  status: ('A' for Active; 'I' for Inactive)
REMARK    1  A    between atoms: C_3  and  N_4 
REMARK    2  A    between atoms: C_11  and  C_12 
REMARK       I    between atoms: C_12  and  N_13 
REMARK    3  A    between atoms: N_13  and  C_14 
REMARK    4  A    between atoms: C_19  and  O_20 
ROOT
HETATM    1  C   UNL     1      -3.317   5.169 -31.299  1.00  0.00     0.036 A 
HETATM    2  C   UNL     1      -3.303   3.778 -31.389  1.00  0.00     0.049 A 
HETATM    3  C   UNL     1      -4.169   3.103 -32.273  1.00  0.00     0.063 A 
HETATM    4  C   UNL     1      -5.075   3.821 -33.078  1.00  0.00     0.075 A 
HETATM    5  N   UNL     1      -6.011   3.288 -33.989  1.00  0.00    -0.226 NA
HETATM    6  C   UNL     1      -6.682   2.230 -33.675  1.00  0.00     0.161 C 
HETATM    7  C   UNL     1      -6.549   1.416 -32.404  1.00  0.00     0.164 C 
HETATM    8  N   UNL     1      -5.196   0.882 -32.451  1.00  0.00    -0.336 N 
HETATM    9  C   UNL     1      -4.044   1.622 -32.317  1.00  0.00     0.257 C 
HETATM   10  O   UNL     1      -2.935   1.105 -32.227  1.00  0.00    -0.267 OA
HETATM   11  C   UNL     1      -7.436   0.177 -32.292  1.00  0.00     0.035 C 
HETATM   12  C   UNL     1      -6.604  -0.924 -32.947  1.00  0.00     0.022 C 
HETATM   13  C   UNL     1      -5.182  -0.564 -32.545  1.00  0.00     0.127 C 
HETATM   14  C   UNL     1      -5.041   5.219 -33.007  1.00  0.00     0.035 A 
HETATM   15  C   UNL     1      -4.174   5.886 -32.137  1.00  0.00     0.032 A 
ENDROOT
BRANCH   1  16
HETATM   16  N   UNL     1      -2.534   5.919 -30.397  1.00  0.00    -0.323 N 
HETATM   17  C   UNL     1      -1.200   6.267 -30.531  1.00  0.00     0.256 C 
HETATM   18  O   UNL     1      -0.494   6.052 -31.509  1.00  0.00    -0.267 OA
HETATM   19  H   UNL     1      -3.005   6.200 -29.550  1.00  0.00     0.169 HD
BRANCH  17  20
HETATM   20  C   UNL     1      -0.584   6.954 -29.352  1.00  0.00     0.033 A 
HETATM   21  C   UNL     1       0.693   7.516 -29.385  1.00  0.00     0.019 A 
HETATM   22  C   UNL     1       1.201   8.170 -28.258  1.00  0.00     0.031 A 
HETATM   23  C   UNL     1       0.438   8.303 -27.082  1.00  0.00     0.044 A 
HETATM   24  C   UNL     1      -0.850   7.730 -27.029  1.00  0.00    -0.034 A 
HETATM   25  C   UNL     1      -1.744   7.724 -25.818  1.00  0.00     0.050 C 
HETATM   26  C   UNL     1      -1.346   7.078 -28.180  1.00  0.00     0.026 A 
BRANCH  23  27
HETATM   27  N   UNL     1       1.019   9.041 -26.003  1.00  0.00    -0.332 N 
HETATM   28  C   UNL     1       1.931   8.592 -25.070  1.00  0.00     0.096 A 
HETATM   29  C   UNL     1       2.217   9.607 -24.183  1.00  0.00     0.019 A 
HETATM   30  C   UNL     1       1.443  10.721 -24.560  1.00  0.00     0.019 A 
HETATM   31  C   UNL     1       0.706  10.347 -25.662  1.00  0.00     0.096 A 
ENDBRANCH  23  27
ENDBRANCH  17  20
ENDBRANCH   1  16
BRANCH   6  32
HETATM   32  O   UNL     1      -7.586   1.810 -34.569  1.00  0.00    -0.346 OA
HETATM   33  H   UNL     1      -8.086   1.088 -34.151  1.00  0.00     0.219 HD
ENDBRANCH   6  32
TORSDOF 4
ENDMDL
MODEL 8
REMARK VINA RESULT:      -8.4      4.151     11.364
REMARK  4 active torsions:
REMARK  status: ('A' for Active; 'I' for Inactive)
REMARK    1  A    between atoms: C_3  and  N_4 
REMARK    2  A    between atoms: C_11  and  C_12 
REMARK       I    between atoms: C_12  and  N_13 
REMARK    3  A    between atoms: N_13  and  C_14 
REMARK    4  A    between atoms: C_19  and  O_20 
ROOT
HETATM    1  C   UNL     1      -5.014   4.669 -31.045  1.00  0.00     0.036 A 
HETATM    2  C   UNL     1      -5.055   5.016 -29.695  1.00  0.00     0.049 A 
HETATM    3  C   UNL     1      -4.886   6.356 -29.288  1.00  0.00     0.063 A 
HETATM    4  C   UNL     1      -4.663   7.371 -30.238  1.00  0.00     0.075 A 
HETATM    5  N   UNL     1      -4.458   8.744 -29.984  1.00  0.00    -0.226 NA
HETATM    6  C   UNL     1      -3.714   9.109 -28.994  1.00  0.00     0.161 C 
HETATM    7  C   UNL     1      -3.037   8.203 -27.985  1.00  0.00     0.164 C 
HETATM    8  N   UNL     1      -4.134   7.552 -27.283  1.00  0.00    -0.336 N 
HETATM    9  C   UNL     1      -4.985   6.619 -27.828  1.00  0.00     0.257 C 
HETATM   10  O   UNL     1      -5.805   6.002 -27.155  1.00  0.00    -0.267 OA
HETATM   11  C   UNL     1      -2.241   8.890 -26.877  1.00  0.00     0.035 C 
HETATM   12  C   UNL     1      -3.279   9.139 -25.785  1.00  0.00     0.022 C 
HETATM   13  C   UNL     1      -4.175   7.913 -25.881  1.00  0.00     0.127 C 
HETATM   14  C   UNL     1      -4.674   7.010 -31.591  1.00  0.00     0.035 A 
HETATM   15  C   UNL     1      -4.851   5.683 -31.992  1.00  0.00     0.032 A 
ENDROOT
BRANCH   1  16
HETATM   16  N   UNL     1      -5.107   3.350 -31.534  1.00  0.00    -0.323 N 
HETATM   17  C   UNL     1      -4.093   2.409 -31.610  1.00  0.00     0.256 C 
HETATM   18  O   UNL     1      -2.954   2.541 -31.179  1.00  0.00    -0.267 OA
HETATM   19  H   UNL     1      -6.013   3.088 -31.893  1.00  0.00     0.169 HD
BRANCH  17  20
HETATM   20  C   UNL     1      -4.444   1.128 -32.301  1.00  0.00     0.033 A 
HETATM   21  C   UNL     1      -3.840  -0.090 -31.989  1.00  0.00     0.019 A 
HETATM   22  C   UNL     1      -4.232  -1.258 -32.651  1.00  0.00     0.031 A 
HETATM   23  C   UNL     1      -5.254  -1.244 -33.620  1.00  0.00     0.044 A 
HETATM   24  C   UNL     1      -5.867  -0.017 -33.954  1.00  0.00    -0.034 A 
HETATM   25  C   UNL     1      -6.913   0.164 -35.021  1.00  0.00     0.050 C 
HETATM   26  C   UNL     1      -5.459   1.150 -33.270  1.00  0.00     0.026 A 
BRANCH  23  27
HETATM   27  N   UNL     1      -5.628  -2.496 -34.198  1.00  0.00    -0.332 N 
HETATM   28  C   UNL     1      -6.900  -2.936 -34.506  1.00  0.00     0.096 A 
HETATM   29  C   UNL     1      -6.831  -4.212 -35.023  1.00  0.00     0.019 A 
HETATM   30  C   UNL     1      -5.476  -4.590 -35.021  1.00  0.00     0.019 A 
HETATM   31  C   UNL     1      -4.762  -3.536 -34.496  1.00  0.00     0.096 A 
ENDBRANCH  23  27
ENDBRANCH  17  20
ENDBRANCH   1  16
BRANCH   6  32
HETATM   32  O   UNL     1      -3.526  10.426 -28.843  1.00  0.00    -0.346 OA
HETATM   33  H   UNL     1      -4.405  10.830 -28.745  1.00  0.00     0.219 HD
ENDBRANCH   6  32
TORSDOF 4
ENDMDL
MODEL 9
REMARK VINA RESULT:      -8.4      4.929     11.167
REMARK  4 active torsions:
REMARK  status: ('A' for Active; 'I' for Inactive)
REMARK    1  A    between atoms: C_3  and  N_4 
REMARK    2  A    between atoms: C_11  and  C_12 
REMARK       I    between atoms: C_12  and  N_13 
REMARK    3  A    between atoms: N_13  and  C_14 
REMARK    4  A    between atoms: C_19  and  O_20 
ROOT
HETATM    1  C   UNL     1      -4.069   4.723 -32.562  1.00  0.00     0.036 A 
HETATM    2  C   UNL     1      -4.902   5.663 -31.957  1.00  0.00     0.049 A 
HETATM    3  C   UNL     1      -4.463   6.986 -31.742  1.00  0.00     0.063 A 
HETATM    4  C   UNL     1      -3.168   7.382 -32.127  1.00  0.00     0.075 A 
HETATM    5  N   UNL     1      -2.583   8.656 -31.961  1.00  0.00    -0.226 NA
HETATM    6  C   UNL     1      -2.769   9.309 -30.862  1.00  0.00     0.161 C 
HETATM    7  C   UNL     1      -3.622   8.881 -29.685  1.00  0.00     0.164 C 
HETATM    8  N   UNL     1      -4.978   8.834 -30.214  1.00  0.00    -0.336 N 
HETATM    9  C   UNL     1      -5.445   7.915 -31.124  1.00  0.00     0.257 C 
HETATM   10  O   UNL     1      -6.631   7.836 -31.432  1.00  0.00    -0.267 OA
HETATM   11  C   UNL     1      -3.711   9.858 -28.515  1.00  0.00     0.035 C 
HETATM   12  C   UNL     1      -4.884  10.763 -28.888  1.00  0.00     0.022 C 
HETATM   13  C   UNL     1      -5.843   9.810 -29.584  1.00  0.00     0.127 C 
HETATM   14  C   UNL     1      -2.364   6.437 -32.775  1.00  0.00     0.035 A 
HETATM   15  C   UNL     1      -2.805   5.130 -32.996  1.00  0.00     0.032 A 
ENDROOT
BRANCH   1  16
HETATM   16  N   UNL     1      -4.402   3.367 -32.754  1.00  0.00    -0.323 N 
HETATM   17  C   UNL     1      -3.843   2.267 -32.124  1.00  0.00     0.256 C 
HETATM   18  O   UNL     1      -3.017   2.297 -31.219  1.00  0.00    -0.267 OA
HETATM   19  H   UNL     1      -5.107   3.193 -33.455  1.00  0.00     0.169 HD
BRANCH  17  20
HETATM   20  C   UNL     1      -4.296   0.930 -32.623  1.00  0.00     0.033 A 
HETATM   21  C   UNL     1      -5.347   0.776 -33.528  1.00  0.00     0.019 A 
HETATM   22  C   UNL     1      -5.704  -0.499 -33.979  1.00  0.00     0.031 A 
HETATM   23  C   UNL     1      -5.004  -1.647 -33.560  1.00  0.00     0.044 A 
HETATM   24  C   UNL     1      -3.947  -1.508 -32.635  1.00  0.00    -0.034 A 
HETATM   25  C   UNL     1      -3.166  -2.649 -32.039  1.00  0.00     0.050 C 
HETATM   26  C   UNL     1      -3.601  -0.211 -32.196  1.00  0.00     0.026 A 
BRANCH  23  27
HETATM   27  N   UNL     1      -5.402  -2.900 -34.122  1.00  0.00    -0.332 N 
HETATM   28  C   UNL     1      -4.624  -4.024 -34.310  1.00  0.00     0.096 A 
HETATM   29  C   UNL     1      -5.380  -5.011 -34.906  1.00  0.00     0.019 A 
HETATM   30  C   UNL     1      -6.667  -4.480 -35.116  1.00  0.00     0.019 A 
HETATM   31  C   UNL     1      -6.652  -3.185 -34.647  1.00  0.00     0.096 A 
ENDBRANCH  23  27
ENDBRANCH  17  20
ENDBRANCH   1  16
BRANCH   6  32
HETATM   32  O   UNL     1      -2.145  10.489 -30.757  1.00  0.00    -0.346 OA
HETATM   33  H   UNL     1      -2.789  11.175 -31.002  1.00  0.00     0.219 HD
ENDBRANCH   6  32
TORSDOF 4
ENDMDL
MODEL 10
REMARK VINA RESULT:      -8.2      3.965     11.834
REMARK  4 active torsions:
REMARK  status: ('A' for Active; 'I' for Inactive)
REMARK    1  A    between atoms: C_3  and  N_4 
REMARK    2  A    between atoms: C_11  and  C_12 
REMARK       I    between atoms: C_12  and  N_13 
REMARK    3  A    between atoms: N_13  and  C_14 
REMARK    4  A    between atoms: C_19  and  O_20 
ROOT
HETATM    1  C   UNL     1      -4.938   4.970 -32.587  1.00  0.00     0.036 A 
HETATM    2  C   UNL     1      -4.522   5.573 -31.401  1.00  0.00     0.049 A 
HETATM    3  C   UNL     1      -3.239   6.147 -31.293  1.00  0.00     0.063 A 
HETATM    4  C   UNL     1      -2.345   6.114 -32.381  1.00  0.00     0.075 A 
HETATM    5  N   UNL     1      -1.030   6.625 -32.418  1.00  0.00    -0.226 NA
HETATM    6  C   UNL     1      -0.251   6.464 -31.401  1.00  0.00     0.161 C 
HETATM    7  C   UNL     1      -0.603   5.806 -30.083  1.00  0.00     0.164 C 
HETATM    8  N   UNL     1      -1.634   6.660 -29.510  1.00  0.00    -0.336 N 
HETATM    9  C   UNL     1      -2.913   6.797 -29.996  1.00  0.00     0.257 C 
HETATM   10  O   UNL     1      -3.782   7.423 -29.397  1.00  0.00    -0.267 OA
HETATM   11  C   UNL     1       0.493   5.778 -29.019  1.00  0.00     0.035 C 
HETATM   12  C   UNL     1       0.309   7.100 -28.276  1.00  0.00     0.022 C 
HETATM   13  C   UNL     1      -1.201   7.286 -28.278  1.00  0.00     0.127 C 
HETATM   14  C   UNL     1      -2.798   5.547 -33.578  1.00  0.00     0.035 A 
HETATM   15  C   UNL     1      -4.075   4.987 -33.685  1.00  0.00     0.032 A 
ENDROOT
BRANCH   1  16
HETATM   16  N   UNL     1      -6.175   4.316 -32.760  1.00  0.00    -0.323 N 
HETATM   17  C   UNL     1      -6.404   2.950 -32.802  1.00  0.00     0.256 C 
HETATM   18  O   UNL     1      -5.571   2.073 -32.607  1.00  0.00    -0.267 OA
HETATM   19  H   UNL     1      -6.968   4.925 -32.897  1.00  0.00     0.169 HD
BRANCH  17  20
HETATM   20  C   UNL     1      -7.804   2.534 -33.135  1.00  0.00     0.033 A 
HETATM   21  C   UNL     1      -8.095   1.508 -34.034  1.00  0.00     0.019 A 
HETATM   22  C   UNL     1      -9.423   1.147 -34.280  1.00  0.00     0.031 A 
HETATM   23  C   UNL     1     -10.491   1.781 -33.616  1.00  0.00     0.044 A 
HETATM   24  C   UNL     1     -10.212   2.829 -32.712  1.00  0.00    -0.034 A 
HETATM   25  C   UNL     1     -11.250   3.648 -31.993  1.00  0.00     0.050 C 
HETATM   26  C   UNL     1      -8.864   3.175 -32.475  1.00  0.00     0.026 A 
BRANCH  23  27
HETATM   27  N   UNL     1     -11.810   1.303 -33.887  1.00  0.00    -0.332 N 
HETATM   28  C   UNL     1     -12.824   1.960 -34.554  1.00  0.00     0.096 A 
HETATM   29  C   UNL     1     -13.949   1.164 -34.579  1.00  0.00     0.019 A 
HETATM   30  C   UNL     1     -13.636  -0.022 -33.888  1.00  0.00     0.019 A 
HETATM   31  C   UNL     1     -12.332   0.093 -33.458  1.00  0.00     0.096 A 
ENDBRANCH  23  27
ENDBRANCH  17  20
ENDBRANCH   1  16
BRANCH   6  32
HETATM   32  O   UNL     1       0.997   6.933 -31.526  1.00  0.00    -0.346 OA
HETATM   33  H   UNL     1       1.427   6.836 -30.659  1.00  0.00     0.219 HD
ENDBRANCH   6  32
TORSDOF 4
ENDMDL
