MODEL 1
REMARK VINA RESULT:      -8.3      0.000      0.000
REMARK  5 active torsions:
REMARK  status: ('A' for Active; 'I' for Inactive)
REMARK    1  A    between atoms: C_2  and  O_3 
REMARK    2  A    between atoms: O_3  and  C_4 
REMARK    3  A    between atoms: C_5  and  C_6 
REMARK       I    between atoms: C_6  and  N_7 
REMARK    4  A    between atoms: N_7  and  N_8 
REMARK    5  A    between atoms: C_9  and  C_10 
ROOT
HETATM    1  C   UNL     1      -9.887   1.534 -33.841  1.00  0.00     0.274 C 
HETATM    2  N   UNL     1      -9.169   0.796 -34.769  1.00  0.00    -0.243 N 
HETATM    3  O   UNL     1      -9.860   1.362 -32.625  1.00  0.00    -0.266 OA
HETATM    4  H   UNL     1      -9.254   1.012 -35.758  1.00  0.00     0.192 HD
ENDROOT
BRANCH   2   5
HETATM    5  N   UNL     1      -8.226  -0.090 -34.332  1.00  0.00    -0.183 NA
HETATM    6  C   UNL     1      -7.037   0.057 -34.815  1.00  0.00     0.152 C 
BRANCH   6   7
HETATM    7  C   UNL     1      -5.974  -0.807 -34.340  1.00  0.00     0.011 A 
HETATM    8  C   UNL     1      -5.865  -2.228 -34.481  1.00  0.00     0.004 A 
HETATM    9  C   UNL     1      -4.651  -2.613 -33.907  1.00  0.00     0.043 A 
HETATM   10  C   UNL     1      -6.676  -3.228 -35.061  1.00  0.00     0.014 A 
HETATM   11  C   UNL     1      -4.206  -3.942 -33.886  1.00  0.00     0.030 A 
HETATM   12  N   UNL     1      -4.052  -1.475 -33.422  1.00  0.00    -0.364 N 
HETATM   13  C   UNL     1      -5.027  -4.909 -34.470  1.00  0.00     0.002 A 
HETATM   14  C   UNL     1      -6.245  -4.561 -35.047  1.00  0.00     0.001 A 
HETATM   15  H   UNL     1      -3.155  -1.450 -32.957  1.00  0.00     0.165 HD
HETATM   16  C   UNL     1      -4.834  -0.385 -33.679  1.00  0.00     0.102 A 
ENDBRANCH   6   7
ENDBRANCH   2   5
BRANCH   1  17
HETATM   17  C   UNL     1     -10.666   2.681 -34.392  1.00  0.00     0.067 A 
HETATM   18  C   UNL     1     -11.866   2.546 -35.106  1.00  0.00     0.084 A 
HETATM   19  C   UNL     1     -12.474   3.686 -35.652  1.00  0.00     0.038 A 
HETATM   20  C   UNL     1     -11.920   4.953 -35.448  1.00  0.00     0.003 A 
HETATM   21  C   UNL     1     -10.753   5.092 -34.704  1.00  0.00     0.001 A 
HETATM   22  C   UNL     1     -10.129   3.961 -34.178  1.00  0.00     0.020 A 
BRANCH  18  23
HETATM   23  O   UNL     1     -12.395   1.291 -35.286  1.00  0.00    -0.350 OA
BRANCH  23  24
HETATM   24  C   UNL     1     -13.560   1.031 -34.491  1.00  0.00     0.171 C 
HETATM   25  C   UNL     1     -13.304  -0.210 -33.658  1.00  0.00     0.034 C 
ENDBRANCH  23  24
ENDBRANCH  18  23
ENDBRANCH   1  17
TORSDOF 5
ENDMDL
MODEL 2
REMARK VINA RESULT:      -7.9      1.124      2.524
REMARK  5 active torsions:
REMARK  status: ('A' for Active; 'I' for Inactive)
REMARK    1  A    between atoms: C_2  and  O_3 
REMARK    2  A    between atoms: O_3  and  C_4 
REMARK    3  A    between atoms: C_5  and  C_6 
REMARK       I    between atoms: C_6  and  N_7 
REMARK    4  A    between atoms: N_7  and  N_8 
REMARK    5  A    between atoms: C_9  and  C_10 
ROOT
HETATM    1  C   UNL     1      -9.990   0.942 -34.015  1.00  0.00     0.274 C 
HETATM    2  N   UNL     1      -8.859   0.713 -34.783  1.00  0.00    -0.243 N 
HETATM    3  O   UNL     1     -10.337   0.268 -33.048  1.00  0.00    -0.266 OA
HETATM    4  H   UNL     1      -8.650   1.326 -35.565  1.00  0.00     0.192 HD
ENDROOT
BRANCH   2   5
HETATM    5  N   UNL     1      -7.950  -0.220 -34.373  1.00  0.00    -0.183 NA
HETATM    6  C   UNL     1      -6.709   0.043 -34.620  1.00  0.00     0.152 C 
BRANCH   6   7
HETATM    7  C   UNL     1      -5.689  -0.873 -34.148  1.00  0.00     0.011 A 
HETATM    8  C   UNL     1      -5.615  -2.288 -34.352  1.00  0.00     0.004 A 
HETATM    9  C   UNL     1      -4.434  -2.735 -33.754  1.00  0.00     0.043 A 
HETATM   10  C   UNL     1      -6.431  -3.236 -35.007  1.00  0.00     0.014 A 
HETATM   11  C   UNL     1      -4.027  -4.075 -33.780  1.00  0.00     0.030 A 
HETATM   12  N   UNL     1      -3.822  -1.638 -33.195  1.00  0.00    -0.364 N 
HETATM   13  C   UNL     1      -4.853  -4.990 -34.438  1.00  0.00     0.002 A 
HETATM   14  C   UNL     1      -6.038  -4.580 -35.041  1.00  0.00     0.001 A 
HETATM   15  H   UNL     1      -2.942  -1.661 -32.697  1.00  0.00     0.165 HD
HETATM   16  C   UNL     1      -4.563  -0.515 -33.428  1.00  0.00     0.102 A 
ENDBRANCH   6   7
ENDBRANCH   2   5
BRANCH   1  17
HETATM   17  C   UNL     1     -10.767   2.167 -34.359  1.00  0.00     0.067 A 
HETATM   18  C   UNL     1     -10.400   3.465 -33.973  1.00  0.00     0.084 A 
HETATM   19  C   UNL     1     -11.248   4.540 -34.279  1.00  0.00     0.038 A 
HETATM   20  C   UNL     1     -12.425   4.331 -35.003  1.00  0.00     0.003 A 
HETATM   21  C   UNL     1     -12.769   3.051 -35.422  1.00  0.00     0.001 A 
HETATM   22  C   UNL     1     -11.944   1.974 -35.102  1.00  0.00     0.020 A 
BRANCH  18  23
HETATM   23  O   UNL     1      -9.234   3.645 -33.270  1.00  0.00    -0.350 OA
BRANCH  23  24
HETATM   24  C   UNL     1      -8.277   4.483 -33.933  1.00  0.00     0.171 C 
HETATM   25  C   UNL     1      -6.908   3.844 -33.800  1.00  0.00     0.034 C 
ENDBRANCH  23  24
ENDBRANCH  18  23
ENDBRANCH   1  17
TORSDOF 5
ENDMDL
MODEL 3
REMARK VINA RESULT:      -7.9      6.308      8.301
REMARK  5 active torsions:
REMARK  status: ('A' for Active; 'I' for Inactive)
REMARK    1  A    between atoms: C_2  and  O_3 
REMARK    2  A    between atoms: O_3  and  C_4 
REMARK    3  A    between atoms: C_5  and  C_6 
REMARK       I    between atoms: C_6  and  N_7 
REMARK    4  A    between atoms: N_7  and  N_8 
REMARK    5  A    between atoms: C_9  and  C_10 
ROOT
HETATM    1  C   UNL     1      -1.721   4.849 -31.008  1.00  0.00     0.274 C 
HETATM    2  N   UNL     1      -2.870   4.084 -31.131  1.00  0.00    -0.243 N 
HETATM    3  O   UNL     1      -0.572   4.418 -31.084  1.00  0.00    -0.266 OA
HETATM    4  H   UNL     1      -3.780   4.528 -31.055  1.00  0.00     0.192 HD
ENDROOT
BRANCH   2   5
HETATM    5  N   UNL     1      -2.767   2.781 -31.526  1.00  0.00    -0.183 NA
HETATM    6  C   UNL     1      -3.807   2.040 -31.331  1.00  0.00     0.152 C 
BRANCH   6   7
HETATM    7  C   UNL     1      -3.789   0.666 -31.792  1.00  0.00     0.011 A 
HETATM    8  C   UNL     1      -4.654   0.047 -32.750  1.00  0.00     0.004 A 
HETATM    9  C   UNL     1      -4.228  -1.274 -32.907  1.00  0.00     0.043 A 
HETATM   10  C   UNL     1      -5.753   0.489 -33.519  1.00  0.00     0.014 A 
HETATM   11  C   UNL     1      -4.840  -2.171 -33.792  1.00  0.00     0.030 A 
HETATM   12  N   UNL     1      -3.156  -1.457 -32.066  1.00  0.00    -0.364 N 
HETATM   13  C   UNL     1      -5.923  -1.706 -34.541  1.00  0.00     0.002 A 
HETATM   14  C   UNL     1      -6.376  -0.397 -34.408  1.00  0.00     0.001 A 
HETATM   15  H   UNL     1      -2.638  -2.321 -31.972  1.00  0.00     0.165 HD
HETATM   16  C   UNL     1      -2.881  -0.300 -31.395  1.00  0.00     0.102 A 
ENDBRANCH   6   7
ENDBRANCH   2   5
BRANCH   1  17
HETATM   17  C   UNL     1      -1.934   6.318 -30.872  1.00  0.00     0.067 A 
HETATM   18  C   UNL     1      -2.514   7.124 -31.863  1.00  0.00     0.084 A 
HETATM   19  C   UNL     1      -2.591   8.510 -31.665  1.00  0.00     0.038 A 
HETATM   20  C   UNL     1      -2.140   9.084 -30.473  1.00  0.00     0.003 A 
HETATM   21  C   UNL     1      -1.604   8.281 -29.472  1.00  0.00     0.001 A 
HETATM   22  C   UNL     1      -1.501   6.904 -29.671  1.00  0.00     0.020 A 
BRANCH  18  23
HETATM   23  O   UNL     1      -2.957   6.536 -33.023  1.00  0.00    -0.350 OA
BRANCH  23  24
HETATM   24  C   UNL     1      -2.114   6.777 -34.157  1.00  0.00     0.171 C 
HETATM   25  C   UNL     1      -1.509   5.456 -34.594  1.00  0.00     0.034 C 
ENDBRANCH  23  24
ENDBRANCH  18  23
ENDBRANCH   1  17
TORSDOF 5
ENDMDL
MODEL 4
REMARK VINA RESULT:      -7.8      4.312      8.387
REMARK  5 active torsions:
REMARK  status: ('A' for Active; 'I' for Inactive)
REMARK    1  A    between atoms: C_2  and  O_3 
REMARK    2  A    between atoms: O_3  and  C_4 
REMARK    3  A    between atoms: C_5  and  C_6 
REMARK       I    between atoms: C_6  and  N_7 
REMARK    4  A    between atoms: N_7  and  N_8 
REMARK    5  A    between atoms: C_9  and  C_10 
ROOT
HETATM    1  C   UNL     1      -6.291  -0.515 -34.290  1.00  0.00     0.274 C 
HETATM    2  N   UNL     1      -5.962   0.127 -33.107  1.00  0.00    -0.243 N 
HETATM    3  O   UNL     1      -6.747   0.035 -35.290  1.00  0.00    -0.266 OA
HETATM    4  H   UNL     1      -5.588  -0.412 -32.331  1.00  0.00     0.192 HD
ENDROOT
BRANCH   2   5
HETATM    5  N   UNL     1      -5.978   1.491 -33.059  1.00  0.00    -0.183 NA
HETATM    6  C   UNL     1      -4.870   2.065 -32.721  1.00  0.00     0.152 C 
BRANCH   6   7
HETATM    7  C   UNL     1      -4.800   3.513 -32.719  1.00  0.00     0.011 A 
HETATM    8  C   UNL     1      -3.629   4.337 -32.713  1.00  0.00     0.004 A 
HETATM    9  C   UNL     1      -4.054   5.667 -32.760  1.00  0.00     0.043 A 
HETATM   10  C   UNL     1      -2.241   4.081 -32.690  1.00  0.00     0.014 A 
HETATM   11  C   UNL     1      -3.165   6.749 -32.790  1.00  0.00     0.030 A 
HETATM   12  N   UNL     1      -5.429   5.654 -32.778  1.00  0.00    -0.364 N 
HETATM   13  C   UNL     1      -1.798   6.466 -32.770  1.00  0.00     0.002 A 
HETATM   14  C   UNL     1      -1.340   5.153 -32.719  1.00  0.00     0.001 A 
HETATM   15  H   UNL     1      -6.012   6.478 -32.818  1.00  0.00     0.165 HD
HETATM   16  C   UNL     1      -5.887   4.367 -32.758  1.00  0.00     0.102 A 
ENDBRANCH   6   7
ENDBRANCH   2   5
BRANCH   1  17
HETATM   17  C   UNL     1      -5.959  -1.967 -34.352  1.00  0.00     0.067 A 
HETATM   18  C   UNL     1      -4.716  -2.507 -33.990  1.00  0.00     0.084 A 
HETATM   19  C   UNL     1      -4.483  -3.879 -34.165  1.00  0.00     0.038 A 
HETATM   20  C   UNL     1      -5.493  -4.714 -34.651  1.00  0.00     0.003 A 
HETATM   21  C   UNL     1      -6.740  -4.187 -34.971  1.00  0.00     0.001 A 
HETATM   22  C   UNL     1      -6.972  -2.820 -34.822  1.00  0.00     0.020 A 
BRANCH  18  23
HETATM   23  O   UNL     1      -3.742  -1.667 -33.506  1.00  0.00    -0.350 OA
BRANCH  23  24
HETATM   24  C   UNL     1      -3.344  -1.951 -32.158  1.00  0.00     0.171 C 
HETATM   25  C   UNL     1      -2.649  -0.726 -31.596  1.00  0.00     0.034 C 
ENDBRANCH  23  24
ENDBRANCH  18  23
ENDBRANCH   1  17
TORSDOF 5
ENDMDL
MODEL 5
REMARK VINA RESULT:      -7.8      2.232      7.966
REMARK  5 active torsions:
REMARK  status: ('A' for Active; 'I' for Inactive)
REMARK    1  A    between atoms: C_2  and  O_3 
REMARK    2  A    between atoms: O_3  and  C_4 
REMARK    3  A    between atoms: C_5  and  C_6 
REMARK       I    between atoms: C_6  and  N_7 
REMARK    4  A    between atoms: N_7  and  N_8 
REMARK    5  A    between atoms: C_9  and  C_10 
ROOT
HETATM    1  C   UNL     1      -6.222   0.036 -33.879  1.00  0.00     0.274 C 
HETATM    2  N   UNL     1      -7.451  -0.605 -33.916  1.00  0.00    -0.243 N 
HETATM    3  O   UNL     1      -6.015   1.190 -34.244  1.00  0.00    -0.266 OA
HETATM    4  H   UNL     1      -7.527  -1.564 -33.591  1.00  0.00     0.192 HD
ENDROOT
BRANCH   2   5
HETATM    5  N   UNL     1      -8.571   0.114 -34.221  1.00  0.00    -0.183 NA
HETATM    6  C   UNL     1      -9.294   0.498 -33.222  1.00  0.00     0.152 C 
BRANCH   6   7
HETATM    7  C   UNL     1     -10.458   1.324 -33.472  1.00  0.00     0.011 A 
HETATM    8  C   UNL     1     -11.825   0.910 -33.577  1.00  0.00     0.004 A 
HETATM    9  C   UNL     1     -12.595   2.058 -33.778  1.00  0.00     0.043 A 
HETATM   10  C   UNL     1     -12.489  -0.333 -33.503  1.00  0.00     0.014 A 
HETATM   11  C   UNL     1     -13.990   2.027 -33.903  1.00  0.00     0.030 A 
HETATM   12  N   UNL     1     -11.731   3.127 -33.809  1.00  0.00    -0.364 N 
HETATM   13  C   UNL     1     -14.620   0.784 -33.822  1.00  0.00     0.002 A 
HETATM   14  C   UNL     1     -13.884  -0.381 -33.627  1.00  0.00     0.001 A 
HETATM   15  H   UNL     1     -12.010   4.090 -33.936  1.00  0.00     0.165 HD
HETATM   16  C   UNL     1     -10.447   2.699 -33.623  1.00  0.00     0.102 A 
ENDBRANCH   6   7
ENDBRANCH   2   5
BRANCH   1  17
HETATM   17  C   UNL     1      -5.111  -0.734 -33.251  1.00  0.00     0.067 A 
HETATM   18  C   UNL     1      -4.695  -2.005 -33.676  1.00  0.00     0.084 A 
HETATM   19  C   UNL     1      -3.694  -2.677 -32.960  1.00  0.00     0.038 A 
HETATM   20  C   UNL     1      -3.078  -2.071 -31.861  1.00  0.00     0.003 A 
HETATM   21  C   UNL     1      -3.460  -0.793 -31.464  1.00  0.00     0.001 A 
HETATM   22  C   UNL     1      -4.472  -0.129 -32.155  1.00  0.00     0.020 A 
BRANCH  18  23
HETATM   23  O   UNL     1      -5.310  -2.576 -34.763  1.00  0.00    -0.350 OA
BRANCH  23  24
HETATM   24  C   UNL     1      -5.359  -4.009 -34.719  1.00  0.00     0.171 C 
HETATM   25  C   UNL     1      -6.715  -4.456 -35.229  1.00  0.00     0.034 C 
ENDBRANCH  23  24
ENDBRANCH  18  23
ENDBRANCH   1  17
TORSDOF 5
ENDMDL
MODEL 6
REMARK VINA RESULT:      -7.8      2.265      8.331
REMARK  5 active torsions:
REMARK  status: ('A' for Active; 'I' for Inactive)
REMARK    1  A    between atoms: C_2  and  O_3 
REMARK    2  A    between atoms: O_3  and  C_4 
REMARK    3  A    between atoms: C_5  and  C_6 
REMARK       I    between atoms: C_6  and  N_7 
REMARK    4  A    between atoms: N_7  and  N_8 
REMARK    5  A    between atoms: C_9  and  C_10 
ROOT
HETATM    1  C   UNL     1      -7.018  -0.531 -33.428  1.00  0.00     0.274 C 
HETATM    2  N   UNL     1      -7.737   0.141 -34.403  1.00  0.00    -0.243 N 
HETATM    3  O   UNL     1      -7.019  -0.254 -32.231  1.00  0.00    -0.266 OA
HETATM    4  H   UNL     1      -7.675  -0.161 -35.371  1.00  0.00     0.192 HD
ENDROOT
BRANCH   2   5
HETATM    5  N   UNL     1      -8.651   1.084 -34.029  1.00  0.00    -0.183 NA
HETATM    6  C   UNL     1      -9.888   0.710 -34.021  1.00  0.00     0.152 C 
BRANCH   6   7
HETATM    7  C   UNL     1     -10.901   1.641 -33.566  1.00  0.00     0.011 A 
HETATM    8  C   UNL     1     -12.320   1.450 -33.530  1.00  0.00     0.004 A 
HETATM    9  C   UNL     1     -12.883   2.600 -32.973  1.00  0.00     0.043 A 
HETATM   10  C   UNL     1     -13.184   0.397 -33.902  1.00  0.00     0.014 A 
HETATM   11  C   UNL     1     -14.260   2.750 -32.766  1.00  0.00     0.030 A 
HETATM   12  N   UNL     1     -11.850   3.464 -32.695  1.00  0.00    -0.364 N 
HETATM   13  C   UNL     1     -15.091   1.692 -33.140  1.00  0.00     0.002 A 
HETATM   14  C   UNL     1     -14.564   0.532 -33.702  1.00  0.00     0.001 A 
HETATM   15  H   UNL     1     -11.960   4.379 -32.278  1.00  0.00     0.165 HD
HETATM   16  C   UNL     1     -10.657   2.898 -33.042  1.00  0.00     0.102 A 
ENDBRANCH   6   7
ENDBRANCH   2   5
BRANCH   1  17
HETATM   17  C   UNL     1      -6.275  -1.739 -33.889  1.00  0.00     0.067 A 
HETATM   18  C   UNL     1      -4.881  -1.882 -33.814  1.00  0.00     0.084 A 
HETATM   19  C   UNL     1      -4.277  -3.026 -34.355  1.00  0.00     0.038 A 
HETATM   20  C   UNL     1      -5.055  -4.040 -34.921  1.00  0.00     0.003 A 
HETATM   21  C   UNL     1      -6.440  -3.918 -34.959  1.00  0.00     0.001 A 
HETATM   22  C   UNL     1      -7.047  -2.773 -34.445  1.00  0.00     0.020 A 
BRANCH  18  23
HETATM   23  O   UNL     1      -4.140  -0.876 -33.245  1.00  0.00    -0.350 OA
BRANCH  23  24
HETATM   24  C   UNL     1      -3.520  -1.239 -32.004  1.00  0.00     0.171 C 
HETATM   25  C   UNL     1      -3.485  -0.015 -31.110  1.00  0.00     0.034 C 
ENDBRANCH  23  24
ENDBRANCH  18  23
ENDBRANCH   1  17
TORSDOF 5
ENDMDL
MODEL 7
REMARK VINA RESULT:      -7.7      5.528      8.653
REMARK  5 active torsions:
REMARK  status: ('A' for Active; 'I' for Inactive)
REMARK    1  A    between atoms: C_2  and  O_3 
REMARK    2  A    between atoms: O_3  and  C_4 
REMARK    3  A    between atoms: C_5  and  C_6 
REMARK       I    between atoms: C_6  and  N_7 
REMARK    4  A    between atoms: N_7  and  N_8 
REMARK    5  A    between atoms: C_9  and  C_10 
ROOT
HETATM    1  C   UNL     1      -4.083   0.223 -32.041  1.00  0.00     0.274 C 
HETATM    2  N   UNL     1      -3.483   1.360 -32.557  1.00  0.00    -0.243 N 
HETATM    3  O   UNL     1      -4.231  -0.019 -30.846  1.00  0.00    -0.266 OA
HETATM    4  H   UNL     1      -3.406   1.475 -33.563  1.00  0.00     0.192 HD
ENDROOT
BRANCH   2   5
HETATM    5  N   UNL     1      -3.162   2.387 -31.716  1.00  0.00    -0.183 NA
HETATM    6  C   UNL     1      -3.214   3.576 -32.220  1.00  0.00     0.152 C 
BRANCH   6   7
HETATM    7  C   UNL     1      -2.954   4.715 -31.361  1.00  0.00     0.011 A 
HETATM    8  C   UNL     1      -1.704   5.373 -31.126  1.00  0.00     0.004 A 
HETATM    9  C   UNL     1      -1.950   6.444 -30.265  1.00  0.00     0.043 A 
HETATM   10  C   UNL     1      -0.382   5.172 -31.580  1.00  0.00     0.014 A 
HETATM   11  C   UNL     1      -0.948   7.323 -29.837  1.00  0.00     0.030 A 
HETATM   12  N   UNL     1      -3.294   6.430 -29.974  1.00  0.00    -0.364 N 
HETATM   13  C   UNL     1       0.350   7.103 -30.304  1.00  0.00     0.002 A 
HETATM   14  C   UNL     1       0.632   6.043 -31.161  1.00  0.00     0.001 A 
HETATM   15  H   UNL     1      -3.761   7.097 -29.374  1.00  0.00     0.165 HD
HETATM   16  C   UNL     1      -3.907   5.401 -30.629  1.00  0.00     0.102 A 
ENDBRANCH   6   7
ENDBRANCH   2   5
BRANCH   1  17
HETATM   17  C   UNL     1      -4.671  -0.709 -33.046  1.00  0.00     0.067 A 
HETATM   18  C   UNL     1      -5.830  -0.437 -33.788  1.00  0.00     0.084 A 
HETATM   19  C   UNL     1      -6.345  -1.420 -34.646  1.00  0.00     0.038 A 
HETATM   20  C   UNL     1      -5.686  -2.643 -34.800  1.00  0.00     0.003 A 
HETATM   21  C   UNL     1      -4.514  -2.898 -34.097  1.00  0.00     0.001 A 
HETATM   22  C   UNL     1      -4.009  -1.936 -33.223  1.00  0.00     0.020 A 
BRANCH  18  23
HETATM   23  O   UNL     1      -6.454   0.776 -33.624  1.00  0.00    -0.350 OA
BRANCH  23  24
HETATM   24  C   UNL     1      -7.848   0.675 -33.303  1.00  0.00     0.171 C 
HETATM   25  C   UNL     1      -7.985   0.559 -31.797  1.00  0.00     0.034 C 
ENDBRANCH  23  24
ENDBRANCH  18  23
ENDBRANCH   1  17
TORSDOF 5
ENDMDL
MODEL 8
REMARK VINA RESULT:      -7.6      5.801      8.222
REMARK  5 active torsions:
REMARK  status: ('A' for Active; 'I' for Inactive)
REMARK    1  A    between atoms: C_2  and  O_3 
REMARK    2  A    between atoms: O_3  and  C_4 
REMARK    3  A    between atoms: C_5  and  C_6 
REMARK       I    between atoms: C_6  and  N_7 
REMARK    4  A    between atoms: N_7  and  N_8 
REMARK    5  A    between atoms: C_9  and  C_10 
ROOT
HETATM    1  C   UNL     1      -2.414   4.368 -32.102  1.00  0.00     0.274 C 
HETATM    2  N   UNL     1      -3.360   3.690 -31.350  1.00  0.00    -0.243 N 
HETATM    3  O   UNL     1      -2.309   4.311 -33.325  1.00  0.00    -0.266 OA
HETATM    4  H   UNL     1      -3.372   3.800 -30.340  1.00  0.00     0.192 HD
ENDROOT
BRANCH   2   5
HETATM    5  N   UNL     1      -4.369   3.026 -31.986  1.00  0.00    -0.183 NA
HETATM    6  C   UNL     1      -4.229   1.746 -32.100  1.00  0.00     0.152 C 
BRANCH   6   7
HETATM    7  C   UNL     1      -5.297   0.973 -32.702  1.00  0.00     0.011 A 
HETATM    8  C   UNL     1      -5.211  -0.320 -33.314  1.00  0.00     0.004 A 
HETATM    9  C   UNL     1      -6.501  -0.682 -33.709  1.00  0.00     0.043 A 
HETATM   10  C   UNL     1      -4.160  -1.230 -33.554  1.00  0.00     0.014 A 
HETATM   11  C   UNL     1      -6.793  -1.904 -34.327  1.00  0.00     0.030 A 
HETATM   12  N   UNL     1      -7.337   0.355 -33.366  1.00  0.00    -0.364 N 
HETATM   13  C   UNL     1      -5.734  -2.787 -34.549  1.00  0.00     0.002 A 
HETATM   14  C   UNL     1      -4.436  -2.457 -34.172  1.00  0.00     0.001 A 
HETATM   15  H   UNL     1      -8.335   0.368 -33.528  1.00  0.00     0.165 HD
HETATM   16  C   UNL     1      -6.627   1.351 -32.758  1.00  0.00     0.102 A 
ENDBRANCH   6   7
ENDBRANCH   2   5
BRANCH   1  17
HETATM   17  C   UNL     1      -1.537   5.306 -31.344  1.00  0.00     0.067 A 
HETATM   18  C   UNL     1      -2.013   6.306 -30.483  1.00  0.00     0.084 A 
HETATM   19  C   UNL     1      -1.103   7.188 -29.883  1.00  0.00     0.038 A 
HETATM   20  C   UNL     1       0.271   7.048 -30.101  1.00  0.00     0.003 A 
HETATM   21  C   UNL     1       0.747   6.031 -30.922  1.00  0.00     0.001 A 
HETATM   22  C   UNL     1      -0.153   5.164 -31.541  1.00  0.00     0.020 A 
BRANCH  18  23
HETATM   23  O   UNL     1      -3.367   6.417 -30.278  1.00  0.00    -0.350 OA
BRANCH  23  24
HETATM   24  C   UNL     1      -3.983   7.475 -31.026  1.00  0.00     0.171 C 
HETATM   25  C   UNL     1      -5.152   6.896 -31.799  1.00  0.00     0.034 C 
ENDBRANCH  23  24
ENDBRANCH  18  23
ENDBRANCH   1  17
TORSDOF 5
ENDMDL
MODEL 9
REMARK VINA RESULT:      -7.5      4.130      8.427
REMARK  5 active torsions:
REMARK  status: ('A' for Active; 'I' for Inactive)
REMARK    1  A    between atoms: C_2  and  O_3 
REMARK    2  A    between atoms: O_3  and  C_4 
REMARK    3  A    between atoms: C_5  and  C_6 
REMARK       I    between atoms: C_6  and  N_7 
REMARK    4  A    between atoms: N_7  and  N_8 
REMARK    5  A    between atoms: C_9  and  C_10 
ROOT
HETATM    1  C   UNL     1      -6.442  -0.828 -34.291  1.00  0.00     0.274 C 
HETATM    2  N   UNL     1      -6.416  -0.197 -33.058  1.00  0.00    -0.243 N 
HETATM    3  O   UNL     1      -6.784  -0.303 -35.348  1.00  0.00    -0.266 OA
HETATM    4  H   UNL     1      -6.115  -0.712 -32.236  1.00  0.00     0.192 HD
ENDROOT
BRANCH   2   5
HETATM    5  N   UNL     1      -6.623   1.151 -32.992  1.00  0.00    -0.183 NA
HETATM    6  C   UNL     1      -5.565   1.892 -32.946  1.00  0.00     0.152 C 
BRANCH   6   7
HETATM    7  C   UNL     1      -5.715   3.333 -32.946  1.00  0.00     0.011 A 
HETATM    8  C   UNL     1      -5.673   4.222 -31.824  1.00  0.00     0.004 A 
HETATM    9  C   UNL     1      -5.819   5.522 -32.315  1.00  0.00     0.043 A 
HETATM   10  C   UNL     1      -5.506   4.050 -30.433  1.00  0.00     0.014 A 
HETATM   11  C   UNL     1      -5.804   6.654 -31.489  1.00  0.00     0.030 A 
HETATM   12  N   UNL     1      -5.960   5.427 -33.679  1.00  0.00    -0.364 N 
HETATM   13  C   UNL     1      -5.633   6.453 -30.118  1.00  0.00     0.002 A 
HETATM   14  C   UNL     1      -5.488   5.172 -29.594  1.00  0.00     0.001 A 
HETATM   15  H   UNL     1      -6.078   6.215 -34.302  1.00  0.00     0.165 HD
HETATM   16  C   UNL     1      -5.894   4.120 -34.070  1.00  0.00     0.102 A 
ENDBRANCH   6   7
ENDBRANCH   2   5
BRANCH   1  17
HETATM   17  C   UNL     1      -5.913  -2.222 -34.315  1.00  0.00     0.067 A 
HETATM   18  C   UNL     1      -4.615  -2.578 -33.917  1.00  0.00     0.084 A 
HETATM   19  C   UNL     1      -4.192  -3.907 -34.059  1.00  0.00     0.038 A 
HETATM   20  C   UNL     1      -5.066  -4.882 -34.548  1.00  0.00     0.003 A 
HETATM   21  C   UNL     1      -6.366  -4.539 -34.904  1.00  0.00     0.001 A 
HETATM   22  C   UNL     1      -6.787  -3.214 -34.789  1.00  0.00     0.020 A 
BRANCH  18  23
HETATM   23  O   UNL     1      -3.778  -1.603 -33.431  1.00  0.00    -0.350 OA
BRANCH  23  24
HETATM   24  C   UNL     1      -3.344  -1.827 -32.083  1.00  0.00     0.171 C 
HETATM   25  C   UNL     1      -3.095  -0.480 -31.431  1.00  0.00     0.034 C 
ENDBRANCH  23  24
ENDBRANCH  18  23
ENDBRANCH   1  17
TORSDOF 5
ENDMDL
MODEL 10
REMARK VINA RESULT:      -7.4      3.273      8.442
REMARK  5 active torsions:
REMARK  status: ('A' for Active; 'I' for Inactive)
REMARK    1  A    between atoms: C_2  and  O_3 
REMARK    2  A    between atoms: O_3  and  C_4 
REMARK    3  A    between atoms: C_5  and  C_6 
REMARK       I    between atoms: C_6  and  N_7 
REMARK    4  A    between atoms: N_7  and  N_8 
REMARK    5  A    between atoms: C_9  and  C_10 
ROOT
HETATM    1  C   UNL     1      -6.996  -0.920 -34.106  1.00  0.00     0.274 C 
HETATM    2  N   UNL     1      -7.189  -0.447 -32.819  1.00  0.00    -0.243 N 
HETATM    3  O   UNL     1      -7.341  -0.340 -35.133  1.00  0.00    -0.266 OA
HETATM    4  H   UNL     1      -6.868  -0.998 -32.027  1.00  0.00     0.192 HD
ENDROOT
BRANCH   2   5
HETATM    5  N   UNL     1      -7.646   0.827 -32.635  1.00  0.00    -0.183 NA
HETATM    6  C   UNL     1      -8.742   0.949 -31.961  1.00  0.00     0.152 C 
BRANCH   6   7
HETATM    7  C   UNL     1      -9.244   2.278 -31.671  1.00  0.00     0.011 A 
HETATM    8  C   UNL     1      -8.692   3.251 -30.777  1.00  0.00     0.004 A 
HETATM    9  C   UNL     1      -9.490   4.395 -30.861  1.00  0.00     0.043 A 
HETATM   10  C   UNL     1      -7.576   3.278 -29.914  1.00  0.00     0.014 A 
HETATM   11  C   UNL     1      -9.227   5.561 -30.131  1.00  0.00     0.030 A 
HETATM   12  N   UNL     1     -10.496   4.124 -31.758  1.00  0.00    -0.364 N 
HETATM   13  C   UNL     1      -8.114   5.561 -29.288  1.00  0.00     0.002 A 
HETATM   14  C   UNL     1      -7.300   4.438 -29.177  1.00  0.00     0.001 A 
HETATM   15  H   UNL     1     -11.223   4.775 -32.023  1.00  0.00     0.165 HD
HETATM   16  C   UNL     1     -10.356   2.859 -32.254  1.00  0.00     0.102 A 
ENDBRANCH   6   7
ENDBRANCH   2   5
BRANCH   1  17
HETATM   17  C   UNL     1      -6.219  -2.188 -34.219  1.00  0.00     0.067 A 
HETATM   18  C   UNL     1      -4.844  -2.293 -33.960  1.00  0.00     0.084 A 
HETATM   19  C   UNL     1      -4.194  -3.517 -34.179  1.00  0.00     0.038 A 
HETATM   20  C   UNL     1      -4.914  -4.637 -34.605  1.00  0.00     0.003 A 
HETATM   21  C   UNL     1      -6.285  -4.544 -34.822  1.00  0.00     0.001 A 
HETATM   22  C   UNL     1      -6.934  -3.325 -34.630  1.00  0.00     0.020 A 
BRANCH  18  23
HETATM   23  O   UNL     1      -4.161  -1.180 -33.534  1.00  0.00    -0.350 OA
BRANCH  23  24
HETATM   24  C   UNL     1      -3.413  -1.383 -32.327  1.00  0.00     0.171 C 
HETATM   25  C   UNL     1      -3.901  -0.390 -31.290  1.00  0.00     0.034 C 
ENDBRANCH  23  24
ENDBRANCH  18  23
ENDBRANCH   1  17
TORSDOF 5
ENDMDL
