MODEL 1
REMARK VINA RESULT:      -7.4      0.000      0.000
REMARK  8 active torsions:
REMARK  status: ('A' for Active; 'I' for Inactive)
REMARK    1  A    between atoms: C_2  and  S_3 
REMARK    2  A    between atoms: S_3  and  C_4 
REMARK    3  A    between atoms: C_4  and  C_5 
REMARK    4  A    between atoms: C_5  and  N_6 
REMARK       I    between atoms: N_6  and  C_7 
REMARK    5  A    between atoms: N_6  and  C_22 
REMARK    6  A    between atoms: C_7  and  C_8 
REMARK    7  A    between atoms: C_12  and  C_13 
REMARK    8  A    between atoms: C_16  and  O_17 
ROOT
HETATM    1  C   UNL     1      -6.342   1.794 -32.955  1.00  0.00     0.120 A 
HETATM    2  N   UNL     1      -6.741   1.759 -34.263  1.00  0.00    -0.272 N 
HETATM    3  H   UNL     1      -7.083   2.540 -34.814  1.00  0.00     0.189 HD
HETATM    4  N   UNL     1      -6.667   0.549 -34.833  1.00  0.00    -0.174 NA
HETATM    5  C   UNL     1      -6.108  -0.233 -33.895  1.00  0.00     0.089 A 
HETATM    6  C   UNL     1      -5.866   0.522 -32.712  1.00  0.00     0.071 A 
ENDROOT
BRANCH   1   7
HETATM    7  C   UNL     1      -6.367   3.027 -32.209  1.00  0.00     0.272 C 
HETATM    8  N   UNL     1      -5.373   4.010 -32.405  1.00  0.00    -0.341 N 
HETATM    9  O   UNL     1      -7.256   3.193 -31.374  1.00  0.00    -0.266 OA
BRANCH   8  10
HETATM   10  C   UNL     1      -5.541   5.229 -31.597  1.00  0.00     0.136 C 
BRANCH  10  11
HETATM   11  C   UNL     1      -6.313   6.308 -32.364  1.00  0.00     0.093 C 
BRANCH  11  12
HETATM   12  S   UNL     1      -6.220   7.914 -31.508  1.00  0.00    -0.168 SA
BRANCH  12  13
HETATM   13  C   UNL     1      -4.623   7.672 -30.669  1.00  0.00     0.069 C 
HETATM   14  C   UNL     1      -3.613   8.694 -31.159  1.00  0.00     0.016 C 
ENDBRANCH  12  13
ENDBRANCH  11  12
ENDBRANCH  10  11
ENDBRANCH   8  10
BRANCH   8  15
HETATM   15  C   UNL     1      -4.104   3.782 -33.148  1.00  0.00     0.087 C 
HETATM   16  C   UNL     1      -3.651   4.896 -34.119  1.00  0.00     0.025 C 
HETATM   17  C   UNL     1      -2.701   5.958 -33.557  1.00  0.00     0.002 C 
HETATM   18  C   UNL     1      -1.613   5.375 -32.666  1.00  0.00     0.000 C 
HETATM   19  C   UNL     1      -2.196   4.469 -31.591  1.00  0.00     0.002 C 
HETATM   20  C   UNL     1      -2.970   3.317 -32.218  1.00  0.00     0.025 C 
ENDBRANCH   8  15
ENDBRANCH   1   7
BRANCH   5  21
HETATM   21  C   UNL     1      -5.809  -1.647 -34.150  1.00  0.00    -0.005 A 
HETATM   22  C   UNL     1      -4.523  -2.155 -33.905  1.00  0.00     0.016 A 
HETATM   23  C   UNL     1      -4.223  -3.501 -34.136  1.00  0.00     0.037 A 
HETATM   24  C   UNL     1      -5.215  -4.346 -34.619  1.00  0.00     0.065 A 
HETATM   25  C   UNL     1      -6.493  -3.867 -34.875  1.00  0.00     0.037 A 
HETATM   26  C   UNL     1      -6.791  -2.520 -34.641  1.00  0.00     0.016 A 
BRANCH  24  27
HETATM   27  O   UNL     1      -4.971  -5.664 -34.859  1.00  0.00    -0.361 OA
HETATM   28  H   UNL     1      -4.009  -5.805 -34.859  1.00  0.00     0.217 HD
ENDBRANCH  24  27
ENDBRANCH   5  21
TORSDOF 8
ENDMDL
MODEL 2
REMARK VINA RESULT:      -7.4      1.825      2.333
REMARK  8 active torsions:
REMARK  status: ('A' for Active; 'I' for Inactive)
REMARK    1  A    between atoms: C_2  and  S_3 
REMARK    2  A    between atoms: S_3  and  C_4 
REMARK    3  A    between atoms: C_4  and  C_5 
REMARK    4  A    between atoms: C_5  and  N_6 
REMARK       I    between atoms: N_6  and  C_7 
REMARK    5  A    between atoms: N_6  and  C_22 
REMARK    6  A    between atoms: C_7  and  C_8 
REMARK    7  A    between atoms: C_12  and  C_13 
REMARK    8  A    between atoms: C_16  and  O_17 
ROOT
HETATM    1  C   UNL     1      -4.398   1.984 -31.619  1.00  0.00     0.120 A 
HETATM    2  N   UNL     1      -3.416   1.112 -31.235  1.00  0.00    -0.272 N 
HETATM    3  H   UNL     1      -2.678   1.288 -30.560  1.00  0.00     0.189 HD
HETATM    4  N   UNL     1      -3.463  -0.080 -31.846  1.00  0.00    -0.174 NA
HETATM    5  C   UNL     1      -4.575  -0.032 -32.596  1.00  0.00     0.089 A 
HETATM    6  C   UNL     1      -5.202   1.239 -32.456  1.00  0.00     0.071 A 
ENDROOT
BRANCH   1   7
HETATM    7  C   UNL     1      -4.475   3.305 -31.048  1.00  0.00     0.272 C 
HETATM    8  N   UNL     1      -3.665   4.352 -31.537  1.00  0.00    -0.341 N 
HETATM    9  O   UNL     1      -5.241   3.495 -30.103  1.00  0.00    -0.266 OA
BRANCH   8  10
HETATM   10  C   UNL     1      -3.871   5.653 -30.880  1.00  0.00     0.136 C 
BRANCH  10  11
HETATM   11  C   UNL     1      -4.757   6.574 -31.727  1.00  0.00     0.093 C 
BRANCH  11  12
HETATM   12  S   UNL     1      -6.438   6.687 -31.032  1.00  0.00    -0.168 SA
BRANCH  12  13
HETATM   13  C   UNL     1      -7.282   5.582 -32.207  1.00  0.00     0.069 C 
HETATM   14  C   UNL     1      -6.455   5.432 -33.471  1.00  0.00     0.016 C 
ENDBRANCH  12  13
ENDBRANCH  11  12
ENDBRANCH  10  11
ENDBRANCH   8  10
BRANCH   8  15
HETATM   15  C   UNL     1      -2.505   4.156 -32.449  1.00  0.00     0.087 C 
HETATM   16  C   UNL     1      -2.735   4.450 -33.950  1.00  0.00     0.025 C 
HETATM   17  C   UNL     1      -2.409   5.865 -34.435  1.00  0.00     0.002 C 
HETATM   18  C   UNL     1      -1.119   6.417 -33.845  1.00  0.00     0.000 C 
HETATM   19  C   UNL     1      -1.098   6.288 -32.328  1.00  0.00     0.002 C 
HETATM   20  C   UNL     1      -1.231   4.830 -31.909  1.00  0.00     0.025 C 
ENDBRANCH   8  15
ENDBRANCH   1   7
BRANCH   5  21
HETATM   21  C   UNL     1      -5.014  -1.181 -33.395  1.00  0.00    -0.005 A 
HETATM   22  C   UNL     1      -4.106  -2.198 -33.734  1.00  0.00     0.016 A 
HETATM   23  C   UNL     1      -4.510  -3.303 -34.489  1.00  0.00     0.037 A 
HETATM   24  C   UNL     1      -5.830  -3.392 -34.912  1.00  0.00     0.065 A 
HETATM   25  C   UNL     1      -6.746  -2.397 -34.596  1.00  0.00     0.037 A 
HETATM   26  C   UNL     1      -6.340  -1.294 -33.839  1.00  0.00     0.016 A 
BRANCH  24  27
HETATM   27  O   UNL     1      -6.270  -4.450 -35.650  1.00  0.00    -0.361 OA
HETATM   28  H   UNL     1      -5.902  -4.374 -36.547  1.00  0.00     0.217 HD
ENDBRANCH  24  27
ENDBRANCH   5  21
TORSDOF 8
ENDMDL
MODEL 3
REMARK VINA RESULT:      -7.2      2.486      4.222
REMARK  8 active torsions:
REMARK  status: ('A' for Active; 'I' for Inactive)
REMARK    1  A    between atoms: C_2  and  S_3 
REMARK    2  A    between atoms: S_3  and  C_4 
REMARK    3  A    between atoms: C_4  and  C_5 
REMARK    4  A    between atoms: C_5  and  N_6 
REMARK       I    between atoms: N_6  and  C_7 
REMARK    5  A    between atoms: N_6  and  C_22 
REMARK    6  A    between atoms: C_7  and  C_8 
REMARK    7  A    between atoms: C_12  and  C_13 
REMARK    8  A    between atoms: C_16  and  O_17 
ROOT
HETATM    1  C   UNL     1      -6.768   1.571 -34.148  1.00  0.00     0.120 A 
HETATM    2  N   UNL     1      -7.646   1.076 -35.072  1.00  0.00    -0.272 N 
HETATM    3  H   UNL     1      -8.347   1.601 -35.587  1.00  0.00     0.189 HD
HETATM    4  N   UNL     1      -7.544  -0.244 -35.282  1.00  0.00    -0.174 NA
HETATM    5  C   UNL     1      -6.494  -0.625 -34.536  1.00  0.00     0.089 A 
HETATM    6  C   UNL     1      -5.966   0.494 -33.832  1.00  0.00     0.071 A 
ENDROOT
BRANCH   1   7
HETATM    7  C   UNL     1      -6.760   2.974 -33.816  1.00  0.00     0.272 C 
HETATM    8  N   UNL     1      -7.629   3.489 -32.830  1.00  0.00    -0.341 N 
HETATM    9  O   UNL     1      -6.000   3.721 -34.433  1.00  0.00    -0.266 OA
BRANCH   8  10
HETATM   10  C   UNL     1      -7.490   4.932 -32.576  1.00  0.00     0.136 C 
BRANCH  10  11
HETATM   11  C   UNL     1      -6.349   5.221 -31.593  1.00  0.00     0.093 C 
BRANCH  11  12
HETATM   12  S   UNL     1      -6.917   6.280 -30.224  1.00  0.00    -0.168 SA
BRANCH  12  13
HETATM   13  C   UNL     1      -6.655   5.105 -28.858  1.00  0.00     0.069 C 
HETATM   14  C   UNL     1      -5.975   5.801 -27.693  1.00  0.00     0.016 C 
ENDBRANCH  12  13
ENDBRANCH  11  12
ENDBRANCH  10  11
ENDBRANCH   8  10
BRANCH   8  15
HETATM   15  C   UNL     1      -8.781   2.741 -32.258  1.00  0.00     0.087 C 
HETATM   16  C   UNL     1      -9.054   2.925 -30.747  1.00  0.00     0.025 C 
HETATM   17  C   UNL     1     -10.043   4.025 -30.352  1.00  0.00     0.002 C 
HETATM   18  C   UNL     1     -11.267   4.081 -31.255  1.00  0.00     0.000 C 
HETATM   19  C   UNL     1     -10.875   4.133 -32.725  1.00  0.00     0.002 C 
HETATM   20  C   UNL     1     -10.053   2.909 -33.108  1.00  0.00     0.025 C 
ENDBRANCH   8  15
ENDBRANCH   1   7
BRANCH   5  21
HETATM   21  C   UNL     1      -6.020  -2.013 -34.529  1.00  0.00    -0.005 A 
HETATM   22  C   UNL     1      -6.893  -3.063 -34.858  1.00  0.00     0.016 A 
HETATM   23  C   UNL     1      -6.454  -4.391 -34.863  1.00  0.00     0.037 A 
HETATM   24  C   UNL     1      -5.135  -4.673 -34.532  1.00  0.00     0.065 A 
HETATM   25  C   UNL     1      -4.253  -3.653 -34.196  1.00  0.00     0.037 A 
HETATM   26  C   UNL     1      -4.694  -2.326 -34.194  1.00  0.00     0.016 A 
BRANCH  24  27
HETATM   27  O   UNL     1      -4.661  -5.950 -34.522  1.00  0.00    -0.361 OA
HETATM   28  H   UNL     1      -3.852  -5.974 -33.985  1.00  0.00     0.217 HD
ENDBRANCH  24  27
ENDBRANCH   5  21
TORSDOF 8
ENDMDL
MODEL 4
REMARK VINA RESULT:      -7.2      3.577      4.930
REMARK  8 active torsions:
REMARK  status: ('A' for Active; 'I' for Inactive)
REMARK    1  A    between atoms: C_2  and  S_3 
REMARK    2  A    between atoms: S_3  and  C_4 
REMARK    3  A    between atoms: C_4  and  C_5 
REMARK    4  A    between atoms: C_5  and  N_6 
REMARK       I    between atoms: N_6  and  C_7 
REMARK    5  A    between atoms: N_6  and  C_22 
REMARK    6  A    between atoms: C_7  and  C_8 
REMARK    7  A    between atoms: C_12  and  C_13 
REMARK    8  A    between atoms: C_16  and  O_17 
ROOT
HETATM    1  C   UNL     1      -8.824   0.502 -33.953  1.00  0.00     0.120 A 
HETATM    2  N   UNL     1      -8.207   0.718 -35.154  1.00  0.00    -0.272 N 
HETATM    3  H   UNL     1      -8.376   1.488 -35.794  1.00  0.00     0.189 HD
HETATM    4  N   UNL     1      -7.300  -0.211 -35.486  1.00  0.00    -0.174 NA
HETATM    5  C   UNL     1      -7.246  -1.027 -34.421  1.00  0.00     0.089 A 
HETATM    6  C   UNL     1      -8.169  -0.593 -33.427  1.00  0.00     0.071 A 
ENDROOT
BRANCH   1   7
HETATM    7  C   UNL     1      -9.823   1.418 -33.462  1.00  0.00     0.272 C 
HETATM    8  N   UNL     1      -9.452   2.650 -32.883  1.00  0.00    -0.341 N 
HETATM    9  O   UNL     1     -11.008   1.089 -33.529  1.00  0.00    -0.266 OA
BRANCH   8  10
HETATM   10  C   UNL     1     -10.579   3.496 -32.454  1.00  0.00     0.136 C 
BRANCH  10  11
HETATM   11  C   UNL     1     -11.029   4.440 -33.573  1.00  0.00     0.093 C 
BRANCH  11  12
HETATM   12  S   UNL     1     -12.844   4.442 -33.739  1.00  0.00    -0.168 SA
BRANCH  12  13
HETATM   13  C   UNL     1     -13.242   3.450 -32.266  1.00  0.00     0.069 C 
HETATM   14  C   UNL     1     -14.539   3.935 -31.643  1.00  0.00     0.016 C 
ENDBRANCH  12  13
ENDBRANCH  11  12
ENDBRANCH  10  11
ENDBRANCH   8  10
BRANCH   8  15
HETATM   15  C   UNL     1      -8.064   3.000 -32.477  1.00  0.00     0.087 C 
HETATM   16  C   UNL     1      -7.639   4.479 -32.637  1.00  0.00     0.025 C 
HETATM   17  C   UNL     1      -7.832   5.388 -31.421  1.00  0.00     0.002 C 
HETATM   18  C   UNL     1      -7.435   4.725 -30.109  1.00  0.00     0.000 C 
HETATM   19  C   UNL     1      -8.099   3.365 -29.947  1.00  0.00     0.002 C 
HETATM   20  C   UNL     1      -7.712   2.436 -31.090  1.00  0.00     0.025 C 
ENDBRANCH   8  15
ENDBRANCH   1   7
BRANCH   5  21
HETATM   21  C   UNL     1      -6.321  -2.164 -34.369  1.00  0.00    -0.005 A 
HETATM   22  C   UNL     1      -6.734  -3.435 -34.802  1.00  0.00     0.016 A 
HETATM   23  C   UNL     1      -5.862  -4.528 -34.767  1.00  0.00     0.037 A 
HETATM   24  C   UNL     1      -4.569  -4.351 -34.292  1.00  0.00     0.065 A 
HETATM   25  C   UNL     1      -4.138  -3.106 -33.852  1.00  0.00     0.037 A 
HETATM   26  C   UNL     1      -5.010  -2.014 -33.890  1.00  0.00     0.016 A 
BRANCH  24  27
HETATM   27  O   UNL     1      -3.684  -5.386 -34.237  1.00  0.00    -0.361 OA
HETATM   28  H   UNL     1      -2.873  -5.074 -33.802  1.00  0.00     0.217 HD
ENDBRANCH  24  27
ENDBRANCH   5  21
TORSDOF 8
ENDMDL
MODEL 5
REMARK VINA RESULT:      -7.1      1.483      1.645
REMARK  8 active torsions:
REMARK  status: ('A' for Active; 'I' for Inactive)
REMARK    1  A    between atoms: C_2  and  S_3 
REMARK    2  A    between atoms: S_3  and  C_4 
REMARK    3  A    between atoms: C_4  and  C_5 
REMARK    4  A    between atoms: C_5  and  N_6 
REMARK       I    between atoms: N_6  and  C_7 
REMARK    5  A    between atoms: N_6  and  C_22 
REMARK    6  A    between atoms: C_7  and  C_8 
REMARK    7  A    between atoms: C_12  and  C_13 
REMARK    8  A    between atoms: C_16  and  O_17 
ROOT
HETATM    1  C   UNL     1      -5.265   2.101 -32.171  1.00  0.00     0.120 A 
HETATM    2  N   UNL     1      -4.413   1.339 -31.419  1.00  0.00    -0.272 N 
HETATM    3  H   UNL     1      -3.868   1.647 -30.619  1.00  0.00     0.189 HD
HETATM    4  N   UNL     1      -4.307   0.065 -31.821  1.00  0.00    -0.174 NA
HETATM    5  C   UNL     1      -5.194  -0.049 -32.821  1.00  0.00     0.089 A 
HETATM    6  C   UNL     1      -5.834   1.203 -33.050  1.00  0.00     0.071 A 
ENDROOT
BRANCH   1   7
HETATM    7  C   UNL     1      -5.481   3.491 -31.859  1.00  0.00     0.272 C 
HETATM    8  N   UNL     1      -4.874   4.507 -32.629  1.00  0.00    -0.341 N 
HETATM    9  O   UNL     1      -6.181   3.776 -30.888  1.00  0.00    -0.266 OA
BRANCH   8  10
HETATM   10  C   UNL     1      -5.207   5.879 -32.214  1.00  0.00     0.136 C 
BRANCH  10  11
HETATM   11  C   UNL     1      -4.353   6.328 -31.024  1.00  0.00     0.093 C 
BRANCH  11  12
HETATM   12  S   UNL     1      -3.828   8.063 -31.212  1.00  0.00    -0.168 SA
BRANCH  12  13
HETATM   13  C   UNL     1      -3.174   8.323 -29.533  1.00  0.00     0.069 C 
HETATM   14  C   UNL     1      -1.666   8.489 -29.578  1.00  0.00     0.016 C 
ENDBRANCH  12  13
ENDBRANCH  11  12
ENDBRANCH  10  11
ENDBRANCH   8  10
BRANCH   8  15
HETATM   15  C   UNL     1      -3.782   4.272 -33.612  1.00  0.00     0.087 C 
HETATM   16  C   UNL     1      -3.515   5.393 -34.643  1.00  0.00     0.025 C 
HETATM   17  C   UNL     1      -2.458   6.437 -34.271  1.00  0.00     0.002 C 
HETATM   18  C   UNL     1      -1.223   5.831 -33.620  1.00  0.00     0.000 C 
HETATM   19  C   UNL     1      -1.593   4.919 -32.459  1.00  0.00     0.002 C 
HETATM   20  C   UNL     1      -2.492   3.783 -32.930  1.00  0.00     0.025 C 
ENDBRANCH   8  15
ENDBRANCH   1   7
BRANCH   5  21
HETATM   21  C   UNL     1      -5.420  -1.326 -33.508  1.00  0.00    -0.005 A 
HETATM   22  C   UNL     1      -4.362  -2.232 -33.686  1.00  0.00     0.016 A 
HETATM   23  C   UNL     1      -4.562  -3.457 -34.331  1.00  0.00     0.037 A 
HETATM   24  C   UNL     1      -5.827  -3.776 -34.806  1.00  0.00     0.065 A 
HETATM   25  C   UNL     1      -6.889  -2.895 -34.649  1.00  0.00     0.037 A 
HETATM   26  C   UNL     1      -6.687  -1.672 -34.001  1.00  0.00     0.016 A 
BRANCH  24  27
HETATM   27  O   UNL     1      -6.071  -4.957 -35.442  1.00  0.00    -0.361 OA
HETATM   28  H   UNL     1      -5.295  -5.180 -35.984  1.00  0.00     0.217 HD
ENDBRANCH  24  27
ENDBRANCH   5  21
TORSDOF 8
ENDMDL
MODEL 6
REMARK VINA RESULT:      -6.9      4.135      6.062
REMARK  8 active torsions:
REMARK  status: ('A' for Active; 'I' for Inactive)
REMARK    1  A    between atoms: C_2  and  S_3 
REMARK    2  A    between atoms: S_3  and  C_4 
REMARK    3  A    between atoms: C_4  and  C_5 
REMARK    4  A    between atoms: C_5  and  N_6 
REMARK       I    between atoms: N_6  and  C_7 
REMARK    5  A    between atoms: N_6  and  C_22 
REMARK    6  A    between atoms: C_7  and  C_8 
REMARK    7  A    between atoms: C_12  and  C_13 
REMARK    8  A    between atoms: C_16  and  O_17 
ROOT
HETATM    1  C   UNL     1      -7.405   1.855 -32.954  1.00  0.00     0.120 A 
HETATM    2  N   UNL     1      -6.052   1.982 -33.108  1.00  0.00    -0.272 N 
HETATM    3  H   UNL     1      -5.498   2.816 -32.941  1.00  0.00     0.189 HD
HETATM    4  N   UNL     1      -5.436   0.872 -33.536  1.00  0.00    -0.174 NA
HETATM    5  C   UNL     1      -6.404  -0.058 -33.578  1.00  0.00     0.089 A 
HETATM    6  C   UNL     1      -7.649   0.518 -33.193  1.00  0.00     0.071 A 
ENDROOT
BRANCH   1   7
HETATM    7  C   UNL     1      -8.204   2.965 -32.500  1.00  0.00     0.272 C 
HETATM    8  N   UNL     1      -9.495   3.189 -33.024  1.00  0.00    -0.341 N 
HETATM    9  O   UNL     1      -7.724   3.735 -31.668  1.00  0.00    -0.266 OA
BRANCH   8  10
HETATM   10  C   UNL     1     -10.205   4.342 -32.447  1.00  0.00     0.136 C 
BRANCH  10  11
HETATM   11  C   UNL     1     -11.154   3.911 -31.323  1.00  0.00     0.093 C 
BRANCH  11  12
HETATM   12  S   UNL     1     -12.636   4.970 -31.275  1.00  0.00    -0.168 SA
BRANCH  12  13
HETATM   13  C   UNL     1     -13.892   3.658 -31.158  1.00  0.00     0.069 C 
HETATM   14  C   UNL     1     -15.067   3.976 -32.064  1.00  0.00     0.016 C 
ENDBRANCH  12  13
ENDBRANCH  11  12
ENDBRANCH  10  11
ENDBRANCH   8  10
BRANCH   8  15
HETATM   15  C   UNL     1     -10.035   2.514 -34.236  1.00  0.00     0.087 C 
HETATM   16  C   UNL     1     -10.939   1.281 -34.007  1.00  0.00     0.025 C 
HETATM   17  C   UNL     1     -12.447   1.535 -33.925  1.00  0.00     0.002 C 
HETATM   18  C   UNL     1     -12.941   2.533 -34.963  1.00  0.00     0.000 C 
HETATM   19  C   UNL     1     -12.120   3.815 -34.943  1.00  0.00     0.002 C 
HETATM   20  C   UNL     1     -10.652   3.519 -35.224  1.00  0.00     0.025 C 
ENDBRANCH   8  15
ENDBRANCH   1   7
BRANCH   5  21
HETATM   21  C   UNL     1      -6.122  -1.446 -33.959  1.00  0.00    -0.005 A 
HETATM   22  C   UNL     1      -7.168  -2.308 -34.326  1.00  0.00     0.016 A 
HETATM   23  C   UNL     1      -6.915  -3.631 -34.700  1.00  0.00     0.037 A 
HETATM   24  C   UNL     1      -5.607  -4.099 -34.702  1.00  0.00     0.065 A 
HETATM   25  C   UNL     1      -4.555  -3.269 -34.337  1.00  0.00     0.037 A 
HETATM   26  C   UNL     1      -4.810  -1.945 -33.966  1.00  0.00     0.016 A 
BRANCH  24  27
HETATM   27  O   UNL     1      -5.311  -5.381 -35.057  1.00  0.00    -0.361 OA
HETATM   28  H   UNL     1      -6.107  -5.926 -34.934  1.00  0.00     0.217 HD
ENDBRANCH  24  27
ENDBRANCH   5  21
TORSDOF 8
ENDMDL
MODEL 7
REMARK VINA RESULT:      -6.8      2.329      3.630
REMARK  8 active torsions:
REMARK  status: ('A' for Active; 'I' for Inactive)
REMARK    1  A    between atoms: C_2  and  S_3 
REMARK    2  A    between atoms: S_3  and  C_4 
REMARK    3  A    between atoms: C_4  and  C_5 
REMARK    4  A    between atoms: C_5  and  N_6 
REMARK       I    between atoms: N_6  and  C_7 
REMARK    5  A    between atoms: N_6  and  C_22 
REMARK    6  A    between atoms: C_7  and  C_8 
REMARK    7  A    between atoms: C_12  and  C_13 
REMARK    8  A    between atoms: C_16  and  O_17 
ROOT
HETATM    1  C   UNL     1      -3.512   1.510 -32.200  1.00  0.00     0.120 A 
HETATM    2  N   UNL     1      -3.380   0.809 -31.032  1.00  0.00    -0.272 N 
HETATM    3  H   UNL     1      -3.219   1.195 -30.107  1.00  0.00     0.189 HD
HETATM    4  N   UNL     1      -3.466  -0.521 -31.171  1.00  0.00    -0.174 NA
HETATM    5  C   UNL     1      -3.761  -0.707 -32.468  1.00  0.00     0.089 A 
HETATM    6  C   UNL     1      -3.825   0.548 -33.138  1.00  0.00     0.071 A 
ENDROOT
BRANCH   1   7
HETATM    7  C   UNL     1      -3.441   2.949 -32.208  1.00  0.00     0.272 C 
HETATM    8  N   UNL     1      -4.607   3.731 -32.072  1.00  0.00    -0.341 N 
HETATM    9  O   UNL     1      -2.343   3.484 -32.368  1.00  0.00    -0.266 OA
BRANCH   8  10
HETATM   10  C   UNL     1      -4.380   5.186 -32.068  1.00  0.00     0.136 C 
BRANCH  10  11
HETATM   11  C   UNL     1      -4.005   5.691 -30.671  1.00  0.00     0.093 C 
BRANCH  11  12
HETATM   12  S   UNL     1      -2.836   7.086 -30.771  1.00  0.00    -0.168 SA
BRANCH  12  13
HETATM   13  C   UNL     1      -1.319   6.190 -30.315  1.00  0.00     0.069 C 
HETATM   14  C   UNL     1      -0.105   6.880 -30.910  1.00  0.00     0.016 C 
ENDBRANCH  12  13
ENDBRANCH  11  12
ENDBRANCH  10  11
ENDBRANCH   8  10
BRANCH   8  15
HETATM   15  C   UNL     1      -5.992   3.197 -32.184  1.00  0.00     0.087 C 
HETATM   16  C   UNL     1      -6.977   3.560 -31.049  1.00  0.00     0.025 C 
HETATM   17  C   UNL     1      -7.837   4.811 -31.255  1.00  0.00     0.002 C 
HETATM   18  C   UNL     1      -8.385   4.933 -32.670  1.00  0.00     0.000 C 
HETATM   19  C   UNL     1      -7.283   4.791 -33.710  1.00  0.00     0.002 C 
HETATM   20  C   UNL     1      -6.590   3.441 -33.580  1.00  0.00     0.025 C 
ENDBRANCH   8  15
ENDBRANCH   1   7
BRANCH   5  21
HETATM   21  C   UNL     1      -3.989  -2.047 -33.020  1.00  0.00    -0.005 A 
HETATM   22  C   UNL     1      -4.881  -2.232 -34.088  1.00  0.00     0.016 A 
HETATM   23  C   UNL     1      -5.103  -3.502 -34.632  1.00  0.00     0.037 A 
HETATM   24  C   UNL     1      -4.432  -4.596 -34.101  1.00  0.00     0.065 A 
HETATM   25  C   UNL     1      -3.549  -4.440 -33.040  1.00  0.00     0.037 A 
HETATM   26  C   UNL     1      -3.326  -3.170 -32.500  1.00  0.00     0.016 A 
BRANCH  24  27
HETATM   27  O   UNL     1      -4.616  -5.852 -34.595  1.00  0.00    -0.361 OA
HETATM   28  H   UNL     1      -5.414  -5.850 -35.150  1.00  0.00     0.217 HD
ENDBRANCH  24  27
ENDBRANCH   5  21
TORSDOF 8
ENDMDL
MODEL 8
REMARK VINA RESULT:      -6.6     16.337     18.163
REMARK  8 active torsions:
REMARK  status: ('A' for Active; 'I' for Inactive)
REMARK    1  A    between atoms: C_2  and  S_3 
REMARK    2  A    between atoms: S_3  and  C_4 
REMARK    3  A    between atoms: C_4  and  C_5 
REMARK    4  A    between atoms: C_5  and  N_6 
REMARK       I    between atoms: N_6  and  C_7 
REMARK    5  A    between atoms: N_6  and  C_22 
REMARK    6  A    between atoms: C_7  and  C_8 
REMARK    7  A    between atoms: C_12  and  C_13 
REMARK    8  A    between atoms: C_16  and  O_17 
ROOT
HETATM    1  C   UNL     1      -4.954 -12.489 -39.021  1.00  0.00     0.120 A 
HETATM    2  N   UNL     1      -5.084 -11.773 -40.180  1.00  0.00    -0.272 N 
HETATM    3  H   UNL     1      -4.357 -11.244 -40.651  1.00  0.00     0.189 HD
HETATM    4  N   UNL     1      -6.315 -11.791 -40.708  1.00  0.00    -0.174 NA
HETATM    5  C   UNL     1      -7.009 -12.628 -39.919  1.00  0.00     0.089 A 
HETATM    6  C   UNL     1      -6.178 -13.106 -38.866  1.00  0.00     0.071 A 
ENDROOT
BRANCH   1   7
HETATM    7  C   UNL     1      -3.687 -12.561 -38.337  1.00  0.00     0.272 C 
HETATM    8  N   UNL     1      -2.577 -13.194 -38.937  1.00  0.00    -0.341 N 
HETATM    9  O   UNL     1      -3.601 -12.088 -37.204  1.00  0.00    -0.266 OA
BRANCH   8  10
HETATM   10  C   UNL     1      -1.343 -13.166 -38.136  1.00  0.00     0.136 C 
BRANCH  10  11
HETATM   11  C   UNL     1      -1.434 -14.112 -36.933  1.00  0.00     0.093 C 
BRANCH  11  12
HETATM   12  S   UNL     1      -0.044 -15.291 -36.920  1.00  0.00    -0.168 SA
BRANCH  12  13
HETATM   13  C   UNL     1      -0.573 -16.304 -35.504  1.00  0.00     0.069 C 
HETATM   14  C   UNL     1      -0.214 -15.611 -34.201  1.00  0.00     0.016 C 
ENDBRANCH  12  13
ENDBRANCH  11  12
ENDBRANCH  10  11
ENDBRANCH   8  10
BRANCH   8  15
HETATM   15  C   UNL     1      -2.658 -14.055 -40.148  1.00  0.00     0.087 C 
HETATM   16  C   UNL     1      -1.349 -14.273 -40.942  1.00  0.00     0.025 C 
HETATM   17  C   UNL     1      -0.513 -15.502 -40.573  1.00  0.00     0.002 C 
HETATM   18  C   UNL     1      -1.356 -16.747 -40.334  1.00  0.00     0.000 C 
HETATM   19  C   UNL     1      -2.485 -16.478 -39.349  1.00  0.00     0.002 C 
HETATM   20  C   UNL     1      -3.399 -15.374 -39.866  1.00  0.00     0.025 C 
ENDBRANCH   8  15
ENDBRANCH   1   7
BRANCH   5  21
HETATM   21  C   UNL     1      -8.412 -12.959 -40.194  1.00  0.00    -0.005 A 
HETATM   22  C   UNL     1      -8.762 -14.239 -40.651  1.00  0.00     0.016 A 
HETATM   23  C   UNL     1     -10.095 -14.573 -40.910  1.00  0.00     0.037 A 
HETATM   24  C   UNL     1     -11.086 -13.619 -40.715  1.00  0.00     0.065 A 
HETATM   25  C   UNL     1     -10.765 -12.343 -40.270  1.00  0.00     0.037 A 
HETATM   26  C   UNL     1      -9.431 -12.012 -40.009  1.00  0.00     0.016 A 
BRANCH  24  27
HETATM   27  O   UNL     1     -12.398 -13.896 -40.955  1.00  0.00    -0.361 OA
HETATM   28  H   UNL     1     -12.932 -13.142 -40.653  1.00  0.00     0.217 HD
ENDBRANCH  24  27
ENDBRANCH   5  21
TORSDOF 8
ENDMDL
MODEL 9
REMARK VINA RESULT:      -6.5      5.888     10.834
REMARK  8 active torsions:
REMARK  status: ('A' for Active; 'I' for Inactive)
REMARK    1  A    between atoms: C_2  and  S_3 
REMARK    2  A    between atoms: S_3  and  C_4 
REMARK    3  A    between atoms: C_4  and  C_5 
REMARK    4  A    between atoms: C_5  and  N_6 
REMARK       I    between atoms: N_6  and  C_7 
REMARK    5  A    between atoms: N_6  and  C_22 
REMARK    6  A    between atoms: C_7  and  C_8 
REMARK    7  A    between atoms: C_12  and  C_13 
REMARK    8  A    between atoms: C_16  and  O_17 
ROOT
HETATM    1  C   UNL     1      -1.880   7.299 -28.153  1.00  0.00     0.120 A 
HETATM    2  N   UNL     1      -1.050   6.290 -27.749  1.00  0.00    -0.272 N 
HETATM    3  H   UNL     1      -1.124   5.307 -27.995  1.00  0.00     0.189 HD
HETATM    4  N   UNL     1      -0.058   6.679 -26.937  1.00  0.00    -0.174 NA
HETATM    5  C   UNL     1      -0.177   8.015 -26.874  1.00  0.00     0.089 A 
HETATM    6  C   UNL     1      -1.294   8.442 -27.648  1.00  0.00     0.071 A 
ENDROOT
BRANCH   1   7
HETATM    7  C   UNL     1      -2.993   7.033 -29.029  1.00  0.00     0.272 C 
HETATM    8  N   UNL     1      -2.783   6.574 -30.346  1.00  0.00    -0.341 N 
HETATM    9  O   UNL     1      -4.133   7.245 -28.614  1.00  0.00    -0.266 OA
BRANCH   8  10
HETATM   10  C   UNL     1      -4.012   6.316 -31.115  1.00  0.00     0.136 C 
BRANCH  10  11
HETATM   11  C   UNL     1      -4.539   4.898 -30.871  1.00  0.00     0.093 C 
BRANCH  11  12
HETATM   12  S   UNL     1      -5.657   4.375 -32.211  1.00  0.00    -0.168 SA
BRANCH  12  13
HETATM   13  C   UNL     1      -5.186   5.624 -33.448  1.00  0.00     0.069 C 
HETATM   14  C   UNL     1      -4.625   4.949 -34.687  1.00  0.00     0.016 C 
ENDBRANCH  12  13
ENDBRANCH  11  12
ENDBRANCH  10  11
ENDBRANCH   8  10
BRANCH   8  15
HETATM   15  C   UNL     1      -1.464   6.583 -31.036  1.00  0.00     0.087 C 
HETATM   16  C   UNL     1      -0.990   5.250 -31.660  1.00  0.00     0.025 C 
HETATM   17  C   UNL     1      -1.344   5.011 -33.130  1.00  0.00     0.002 C 
HETATM   18  C   UNL     1      -1.161   6.249 -33.998  1.00  0.00     0.000 C 
HETATM   19  C   UNL     1      -1.869   7.458 -33.404  1.00  0.00     0.002 C 
HETATM   20  C   UNL     1      -1.335   7.766 -32.011  1.00  0.00     0.025 C 
ENDBRANCH   8  15
ENDBRANCH   1   7
BRANCH   5  21
HETATM   21  C   UNL     1       0.768   8.836 -26.109  1.00  0.00    -0.005 A 
HETATM   22  C   UNL     1       1.911   8.255 -25.536  1.00  0.00     0.016 A 
HETATM   23  C   UNL     1       2.825   9.025 -24.811  1.00  0.00     0.037 A 
HETATM   24  C   UNL     1       2.594  10.386 -24.652  1.00  0.00     0.065 A 
HETATM   25  C   UNL     1       1.468  10.983 -25.203  1.00  0.00     0.037 A 
HETATM   26  C   UNL     1       0.556  10.212 -25.930  1.00  0.00     0.016 A 
BRANCH  24  27
HETATM   27  O   UNL     1       3.455  11.177 -23.953  1.00  0.00    -0.361 OA
HETATM   28  H   UNL     1       2.941  11.714 -23.327  1.00  0.00     0.217 HD
ENDBRANCH  24  27
ENDBRANCH   5  21
TORSDOF 8
ENDMDL
MODEL 10
REMARK VINA RESULT:      -6.3     16.573     18.428
REMARK  8 active torsions:
REMARK  status: ('A' for Active; 'I' for Inactive)
REMARK    1  A    between atoms: C_2  and  S_3 
REMARK    2  A    between atoms: S_3  and  C_4 
REMARK    3  A    between atoms: C_4  and  C_5 
REMARK    4  A    between atoms: C_5  and  N_6 
REMARK       I    between atoms: N_6  and  C_7 
REMARK    5  A    between atoms: N_6  and  C_22 
REMARK    6  A    between atoms: C_7  and  C_8 
REMARK    7  A    between atoms: C_12  and  C_13 
REMARK    8  A    between atoms: C_16  and  O_17 
ROOT
HETATM    1  C   UNL     1      -5.029 -12.963 -38.397  1.00  0.00     0.120 A 
HETATM    2  N   UNL     1      -5.763 -12.784 -37.257  1.00  0.00    -0.272 N 
HETATM    3  H   UNL     1      -5.404 -12.577 -36.330  1.00  0.00     0.189 HD
HETATM    4  N   UNL     1      -7.086 -12.916 -37.422  1.00  0.00    -0.174 NA
HETATM    5  C   UNL     1      -7.245 -13.096 -38.743  1.00  0.00     0.089 A 
HETATM    6  C   UNL     1      -5.976 -13.104 -39.390  1.00  0.00     0.071 A 
ENDROOT
BRANCH   1   7
HETATM    7  C   UNL     1      -3.592 -12.853 -38.374  1.00  0.00     0.272 C 
HETATM    8  N   UNL     1      -2.781 -14.004 -38.282  1.00  0.00    -0.341 N 
HETATM    9  O   UNL     1      -3.086 -11.731 -38.405  1.00  0.00    -0.266 OA
BRANCH   8  10
HETATM   10  C   UNL     1      -1.332 -13.742 -38.298  1.00  0.00     0.136 C 
BRANCH  10  11
HETATM   11  C   UNL     1      -0.788 -13.690 -39.730  1.00  0.00     0.093 C 
BRANCH  11  12
HETATM   12  S   UNL     1       0.528 -14.926 -39.977  1.00  0.00    -0.168 SA
BRANCH  12  13
HETATM   13  C   UNL     1       1.353 -14.757 -38.364  1.00  0.00     0.069 C 
HETATM   14  C   UNL     1       1.838 -16.111 -37.878  1.00  0.00     0.016 C 
ENDBRANCH  12  13
ENDBRANCH  11  12
ENDBRANCH  10  11
ENDBRANCH   8  10
BRANCH   8  15
HETATM   15  C   UNL     1      -3.286 -15.359 -37.931  1.00  0.00     0.087 C 
HETATM   16  C   UNL     1      -3.046 -16.485 -38.962  1.00  0.00     0.025 C 
HETATM   17  C   UNL     1      -1.773 -17.318 -38.792  1.00  0.00     0.002 C 
HETATM   18  C   UNL     1      -1.484 -17.679 -37.342  1.00  0.00     0.000 C 
HETATM   19  C   UNL     1      -1.516 -16.451 -36.443  1.00  0.00     0.002 C 
HETATM   20  C   UNL     1      -2.878 -15.772 -36.506  1.00  0.00     0.025 C 
ENDBRANCH   8  15
ENDBRANCH   1   7
BRANCH   5  21
HETATM   21  C   UNL     1      -8.575 -13.236 -39.346  1.00  0.00    -0.005 A 
HETATM   22  C   UNL     1      -9.130 -14.509 -39.553  1.00  0.00     0.016 A 
HETATM   23  C   UNL     1     -10.400 -14.659 -40.119  1.00  0.00     0.037 A 
HETATM   24  C   UNL     1     -11.120 -13.528 -40.486  1.00  0.00     0.065 A 
HETATM   25  C   UNL     1     -10.590 -12.258 -40.298  1.00  0.00     0.037 A 
HETATM   26  C   UNL     1      -9.321 -12.110 -39.729  1.00  0.00     0.016 A 
BRANCH  24  27
HETATM   27  O   UNL     1     -12.360 -13.623 -41.041  1.00  0.00    -0.361 OA
HETATM   28  H   UNL     1     -12.945 -14.077 -40.412  1.00  0.00     0.217 HD
ENDBRANCH  24  27
ENDBRANCH   5  21
TORSDOF 8
ENDMDL
