MODEL 1
REMARK VINA RESULT:      -7.9      0.000      0.000
REMARK  7 active torsions:
REMARK  status: ('A' for Active; 'I' for Inactive)
REMARK    1  A    between atoms: C_4  and  C_5 
REMARK    2  A    between atoms: C_10  and  C_11 
REMARK       I    between atoms: C_11  and  N_12 
REMARK    3  A    between atoms: N_12  and  C_13 
REMARK    4  A    between atoms: C_13  and  C_14 
REMARK    5  A    between atoms: C_14  and  C_15 
REMARK    6  A    between atoms: C_15  and  N_16 
REMARK    7  A    between atoms: C_26  and  C_27 
ROOT
HETATM    1  C   UNL     1      -6.626  -0.460 -32.171  1.00  0.00     0.125 C 
HETATM    2  N   UNL     1      -5.604   0.535 -31.828  1.00  0.00    -0.365 N 
HETATM    3  C   UNL     1      -5.559   1.742 -32.442  1.00  0.00     0.141 A 
HETATM    4  N   UNL     1      -6.573   2.154 -33.268  1.00  0.00    -0.238 N 
HETATM    5  N   UNL     1      -6.349   3.352 -33.837  1.00  0.00    -0.163 NA
HETATM    6  C   UNL     1      -5.187   3.771 -33.284  1.00  0.00     0.165 A 
HETATM    7  C   UNL     1      -4.658   2.777 -32.427  1.00  0.00     0.092 A 
HETATM    8 BR   UNL     1      -3.064   2.866 -31.450  1.00  0.00    -0.044 Br
HETATM    9  C   UNL     1      -7.740   1.344 -33.585  1.00  0.00     0.221 C 
HETATM   10  C   UNL     1      -7.941   0.271 -32.500  1.00  0.00     0.067 C 
HETATM   11  H   UNL     1      -4.770   0.150 -31.382  1.00  0.00     0.162 HD
ENDROOT
BRANCH   6  12
HETATM   12  C   UNL     1      -4.676   5.111 -33.594  1.00  0.00     0.273 C 
HETATM   13  N   UNL     1      -3.405   5.102 -34.132  1.00  0.00    -0.355 N 
HETATM   14  H   UNL     1      -2.965   4.180 -34.186  1.00  0.00     0.162 HD
HETATM   15  O   UNL     1      -5.307   6.163 -33.474  1.00  0.00    -0.266 OA
BRANCH  13  16
HETATM   16  C   UNL     1      -2.663   6.293 -34.464  1.00  0.00     0.124 C 
BRANCH  16  17
HETATM   17  C   UNL     1      -1.321   6.394 -33.740  1.00  0.00     0.047 C 
BRANCH  17  18
HETATM   18  C   UNL     1      -1.227   7.398 -32.590  1.00  0.00     0.236 C 
BRANCH  18  19
HETATM   19  N   UNL     1      -0.331   6.960 -31.463  1.00  0.00    -0.067 N 
HETATM   20  H   UNL     1       0.638   7.253 -31.711  1.00  0.00     0.280 HD
HETATM   21  C   UNL     1      -0.686   7.532 -30.102  1.00  0.00     0.261 C 
HETATM   22  C   UNL     1       0.291   7.009 -29.043  1.00  0.00     0.195 C 
HETATM   23  O   UNL     1       0.297   5.578 -29.009  1.00  0.00    -0.388 OA
HETATM   24  C   UNL     1       0.717   5.030 -30.263  1.00  0.00     0.195 C 
HETATM   25  C   UNL     1      -0.247   5.435 -31.383  1.00  0.00     0.261 C 
ENDBRANCH  18  19
ENDBRANCH  17  18
ENDBRANCH  16  17
ENDBRANCH  13  16
ENDBRANCH   6  12
BRANCH   9  26
HETATM   26  C   UNL     1      -8.991   2.187 -33.709  1.00  0.00     0.409 C 
HETATM   27  F   UNL     1      -9.093   3.099 -32.715  1.00  0.00    -0.169 F 
HETATM   28  F   UNL     1      -9.069   2.845 -34.886  1.00  0.00    -0.169 F 
HETATM   29  F   UNL     1     -10.095   1.401 -33.637  1.00  0.00    -0.169 F 
ENDBRANCH   9  26
BRANCH   1  30
HETATM   30  C   UNL     1      -6.232  -1.426 -33.266  1.00  0.00     0.005 A 
HETATM   31  S   UNL     1      -4.566  -1.753 -33.545  1.00  0.00    -0.104 SA
HETATM   32  C   UNL     1      -4.920  -2.843 -34.811  1.00  0.00     0.050 A 
HETATM   33  C   UNL     1      -6.273  -2.953 -35.033  1.00  0.00     0.008 A 
HETATM   34  C   UNL     1      -7.030  -2.133 -34.147  1.00  0.00     0.017 A 
ENDBRANCH   1  30
TORSDOF 7
ENDMDL
MODEL 2
REMARK VINA RESULT:      -7.8      4.255      8.677
REMARK  7 active torsions:
REMARK  status: ('A' for Active; 'I' for Inactive)
REMARK    1  A    between atoms: C_4  and  C_5 
REMARK    2  A    between atoms: C_10  and  C_11 
REMARK       I    between atoms: C_11  and  N_12 
REMARK    3  A    between atoms: N_12  and  C_13 
REMARK    4  A    between atoms: C_13  and  C_14 
REMARK    5  A    between atoms: C_14  and  C_15 
REMARK    6  A    between atoms: C_15  and  N_16 
REMARK    7  A    between atoms: C_26  and  C_27 
ROOT
HETATM    1  C   UNL     1      -2.703   5.858 -30.812  1.00  0.00     0.125 C 
HETATM    2  N   UNL     1      -3.716   4.814 -30.621  1.00  0.00    -0.365 N 
HETATM    3  C   UNL     1      -4.497   4.393 -31.646  1.00  0.00     0.141 A 
HETATM    4  N   UNL     1      -4.247   4.786 -32.935  1.00  0.00    -0.238 N 
HETATM    5  N   UNL     1      -5.144   4.322 -33.823  1.00  0.00    -0.163 NA
HETATM    6  C   UNL     1      -5.953   3.522 -33.090  1.00  0.00     0.165 A 
HETATM    7  C   UNL     1      -5.588   3.565 -31.723  1.00  0.00     0.092 A 
HETATM    8 BR   UNL     1      -6.412   2.655 -30.309  1.00  0.00    -0.044 Br
HETATM    9  C   UNL     1      -3.175   5.696 -33.311  1.00  0.00     0.221 C 
HETATM   10  C   UNL     1      -2.091   5.707 -32.217  1.00  0.00     0.067 C 
HETATM   11  H   UNL     1      -4.018   4.688 -29.654  1.00  0.00     0.162 HD
ENDROOT
BRANCH   6  12
HETATM   12  C   UNL     1      -7.006   2.746 -33.755  1.00  0.00     0.273 C 
HETATM   13  N   UNL     1      -6.529   1.638 -34.427  1.00  0.00    -0.355 N 
HETATM   14  H   UNL     1      -5.511   1.537 -34.426  1.00  0.00     0.162 HD
HETATM   15  O   UNL     1      -8.214   2.977 -33.689  1.00  0.00    -0.266 OA
BRANCH  13  16
HETATM   16  C   UNL     1      -7.357   0.752 -35.206  1.00  0.00     0.124 C 
BRANCH  16  17
HETATM   17  C   UNL     1      -7.128  -0.726 -34.892  1.00  0.00     0.047 C 
BRANCH  17  18
HETATM   18  C   UNL     1      -5.798  -1.096 -34.232  1.00  0.00     0.236 C 
BRANCH  18  19
HETATM   19  N   UNL     1      -5.297  -2.470 -34.588  1.00  0.00    -0.067 N 
HETATM   20  H   UNL     1      -4.915  -2.414 -35.557  1.00  0.00     0.280 HD
HETATM   21  C   UNL     1      -4.224  -3.020 -33.666  1.00  0.00     0.261 C 
HETATM   22  C   UNL     1      -3.802  -4.419 -34.129  1.00  0.00     0.195 C 
HETATM   23  O   UNL     1      -4.927  -5.303 -34.188  1.00  0.00    -0.388 OA
HETATM   24  C   UNL     1      -5.906  -4.838 -35.124  1.00  0.00     0.195 C 
HETATM   25  C   UNL     1      -6.449  -3.468 -34.704  1.00  0.00     0.261 C 
ENDBRANCH  18  19
ENDBRANCH  17  18
ENDBRANCH  16  17
ENDBRANCH  13  16
ENDBRANCH   6  12
BRANCH   9  26
HETATM   26  C   UNL     1      -2.556   5.315 -34.639  1.00  0.00     0.409 C 
HETATM   27  F   UNL     1      -3.443   5.395 -35.657  1.00  0.00    -0.169 F 
HETATM   28  F   UNL     1      -1.487   6.077 -34.960  1.00  0.00    -0.169 F 
HETATM   29  F   UNL     1      -2.114   4.033 -34.601  1.00  0.00    -0.169 F 
ENDBRANCH   9  26
BRANCH   1  30
HETATM   30  C   UNL     1      -3.186   7.269 -30.558  1.00  0.00     0.005 A 
HETATM   31  S   UNL     1      -2.220   8.597 -31.070  1.00  0.00    -0.104 SA
HETATM   32  C   UNL     1      -3.351   9.735 -30.485  1.00  0.00     0.050 A 
HETATM   33  C   UNL     1      -4.438   9.128 -29.899  1.00  0.00     0.008 A 
HETATM   34  C   UNL     1      -4.341   7.706 -29.936  1.00  0.00     0.017 A 
ENDBRANCH   1  30
TORSDOF 7
ENDMDL
MODEL 3
REMARK VINA RESULT:      -7.7      5.642      9.744
REMARK  7 active torsions:
REMARK  status: ('A' for Active; 'I' for Inactive)
REMARK    1  A    between atoms: C_4  and  C_5 
REMARK    2  A    between atoms: C_10  and  C_11 
REMARK       I    between atoms: C_11  and  N_12 
REMARK    3  A    between atoms: N_12  and  C_13 
REMARK    4  A    between atoms: C_13  and  C_14 
REMARK    5  A    between atoms: C_14  and  C_15 
REMARK    6  A    between atoms: C_15  and  N_16 
REMARK    7  A    between atoms: C_26  and  C_27 
ROOT
HETATM    1  C   UNL     1      -2.449   7.168 -26.091  1.00  0.00     0.125 C 
HETATM    2  N   UNL     1      -3.082   6.854 -27.377  1.00  0.00    -0.365 N 
HETATM    3  C   UNL     1      -2.476   7.150 -28.553  1.00  0.00     0.141 A 
HETATM    4  N   UNL     1      -1.175   7.579 -28.590  1.00  0.00    -0.238 N 
HETATM    5  N   UNL     1      -0.742   7.878 -29.829  1.00  0.00    -0.163 NA
HETATM    6  C   UNL     1      -1.778   7.541 -30.632  1.00  0.00     0.165 A 
HETATM    7  C   UNL     1      -2.883   7.107 -29.862  1.00  0.00     0.092 A 
HETATM    8 BR   UNL     1      -4.554   6.557 -30.503  1.00  0.00    -0.044 Br
HETATM    9  C   UNL     1      -0.355   7.787 -27.406  1.00  0.00     0.221 C 
HETATM   10  C   UNL     1      -0.927   6.979 -26.227  1.00  0.00     0.067 C 
HETATM   11  H   UNL     1      -4.094   6.733 -27.333  1.00  0.00     0.162 HD
ENDROOT
BRANCH   6  12
HETATM   12  C   UNL     1      -1.628   7.633 -32.089  1.00  0.00     0.273 C 
HETATM   13  N   UNL     1      -1.358   6.420 -32.690  1.00  0.00    -0.355 N 
HETATM   14  H   UNL     1      -1.237   5.635 -32.045  1.00  0.00     0.162 HD
HETATM   15  O   UNL     1      -1.791   8.652 -32.762  1.00  0.00    -0.266 OA
BRANCH  13  16
HETATM   16  C   UNL     1      -1.111   6.258 -34.101  1.00  0.00     0.124 C 
BRANCH  16  17
HETATM   17  C   UNL     1      -1.942   5.147 -34.739  1.00  0.00     0.047 C 
BRANCH  17  18
HETATM   18  C   UNL     1      -3.450   5.383 -34.846  1.00  0.00     0.236 C 
BRANCH  18  19
HETATM   19  N   UNL     1      -4.253   4.732 -33.752  1.00  0.00    -0.067 N 
HETATM   20  H   UNL     1      -4.394   5.449 -33.009  1.00  0.00     0.280 HD
HETATM   21  C   UNL     1      -5.606   4.195 -34.184  1.00  0.00     0.261 C 
HETATM   22  C   UNL     1      -6.320   3.554 -32.988  1.00  0.00     0.195 C 
HETATM   23  O   UNL     1      -5.522   2.519 -32.405  1.00  0.00    -0.388 OA
HETATM   24  C   UNL     1      -4.279   3.034 -31.914  1.00  0.00     0.195 C 
HETATM   25  C   UNL     1      -3.451   3.632 -33.056  1.00  0.00     0.261 C 
ENDBRANCH  18  19
ENDBRANCH  17  18
ENDBRANCH  16  17
ENDBRANCH  13  16
ENDBRANCH   6  12
BRANCH   9  26
HETATM   26  C   UNL     1       1.087   7.394 -27.644  1.00  0.00     0.409 C 
HETATM   27  F   UNL     1       1.193   6.239 -28.341  1.00  0.00    -0.169 F 
HETATM   28  F   UNL     1       1.790   8.342 -28.302  1.00  0.00    -0.169 F 
HETATM   29  F   UNL     1       1.722   7.200 -26.461  1.00  0.00    -0.169 F 
ENDBRANCH   9  26
BRANCH   1  30
HETATM   30  C   UNL     1      -2.798   8.526 -25.524  1.00  0.00     0.005 A 
HETATM   31  S   UNL     1      -4.314   9.240 -25.912  1.00  0.00    -0.104 SA
HETATM   32  C   UNL     1      -3.983  10.624 -24.967  1.00  0.00     0.050 A 
HETATM   33  C   UNL     1      -2.743  10.560 -24.375  1.00  0.00     0.008 A 
HETATM   34  C   UNL     1      -2.057   9.353 -24.700  1.00  0.00     0.017 A 
ENDBRANCH   1  30
TORSDOF 7
ENDMDL
MODEL 4
REMARK VINA RESULT:      -7.6      4.453      8.245
REMARK  7 active torsions:
REMARK  status: ('A' for Active; 'I' for Inactive)
REMARK    1  A    between atoms: C_4  and  C_5 
REMARK    2  A    between atoms: C_10  and  C_11 
REMARK       I    between atoms: C_11  and  N_12 
REMARK    3  A    between atoms: N_12  and  C_13 
REMARK    4  A    between atoms: C_13  and  C_14 
REMARK    5  A    between atoms: C_14  and  C_15 
REMARK    6  A    between atoms: C_15  and  N_16 
REMARK    7  A    between atoms: C_26  and  C_27 
ROOT
HETATM    1  C   UNL     1      -4.652   2.687 -31.813  1.00  0.00     0.125 C 
HETATM    2  N   UNL     1      -6.039   2.759 -31.345  1.00  0.00    -0.365 N 
HETATM    3  C   UNL     1      -7.018   2.014 -31.915  1.00  0.00     0.141 A 
HETATM    4  N   UNL     1      -6.719   1.029 -32.821  1.00  0.00    -0.238 N 
HETATM    5  N   UNL     1      -7.805   0.420 -33.330  1.00  0.00    -0.163 NA
HETATM    6  C   UNL     1      -8.841   0.972 -32.656  1.00  0.00     0.165 A 
HETATM    7  C   UNL     1      -8.383   1.987 -31.784  1.00  0.00     0.092 A 
HETATM    8 BR   UNL     1      -9.425   3.058 -30.657  1.00  0.00    -0.044 Br
HETATM    9  C   UNL     1      -5.370   0.724 -33.271  1.00  0.00     0.221 C 
HETATM   10  C   UNL     1      -4.346   1.241 -32.243  1.00  0.00     0.067 C 
HETATM   11  H   UNL     1      -6.270   3.613 -30.834  1.00  0.00     0.162 HD
ENDROOT
BRANCH   6  12
HETATM   12  C   UNL     1     -10.202   0.467 -32.875  1.00  0.00     0.273 C 
HETATM   13  N   UNL     1     -11.061   1.415 -33.394  1.00  0.00    -0.355 N 
HETATM   14  H   UNL     1     -10.660   2.350 -33.500  1.00  0.00     0.162 HD
HETATM   15  O   UNL     1     -10.570  -0.695 -32.699  1.00  0.00    -0.266 OA
BRANCH  13  16
HETATM   16  C   UNL     1     -12.462   1.181 -33.641  1.00  0.00     0.124 C 
BRANCH  16  17
HETATM   17  C   UNL     1     -13.131   2.297 -34.442  1.00  0.00     0.047 C 
BRANCH  17  18
HETATM   18  C   UNL     1     -12.379   2.817 -35.670  1.00  0.00     0.236 C 
BRANCH  18  19
HETATM   19  N   UNL     1     -12.037   4.281 -35.607  1.00  0.00    -0.067 N 
HETATM   20  H   UNL     1     -12.138   4.660 -36.573  1.00  0.00     0.280 HD
HETATM   21  C   UNL     1     -12.896   5.100 -34.662  1.00  0.00     0.261 C 
HETATM   22  C   UNL     1     -12.448   6.566 -34.683  1.00  0.00     0.195 C 
HETATM   23  O   UNL     1     -11.062   6.686 -34.346  1.00  0.00    -0.388 OA
HETATM   24  C   UNL     1     -10.235   5.989 -35.285  1.00  0.00     0.195 C 
HETATM   25  C   UNL     1     -10.557   4.491 -35.283  1.00  0.00     0.261 C 
ENDBRANCH  18  19
ENDBRANCH  17  18
ENDBRANCH  16  17
ENDBRANCH  13  16
ENDBRANCH   6  12
BRANCH   9  26
HETATM   26  C   UNL     1      -5.172  -0.761 -33.488  1.00  0.00     0.409 C 
HETATM   27  F   UNL     1      -5.626  -1.494 -32.445  1.00  0.00    -0.169 F 
HETATM   28  F   UNL     1      -5.775  -1.215 -34.608  1.00  0.00    -0.169 F 
HETATM   29  F   UNL     1      -3.852  -1.044 -33.623  1.00  0.00    -0.169 F 
ENDBRANCH   9  26
BRANCH   1  30
HETATM   30  C   UNL     1      -4.291   3.682 -32.894  1.00  0.00     0.005 A 
HETATM   31  S   UNL     1      -2.646   4.135 -33.111  1.00  0.00    -0.104 SA
HETATM   32  C   UNL     1      -3.032   5.180 -34.406  1.00  0.00     0.050 A 
HETATM   33  C   UNL     1      -4.383   5.202 -34.666  1.00  0.00     0.008 A 
HETATM   34  C   UNL     1      -5.110   4.343 -33.793  1.00  0.00     0.017 A 
ENDBRANCH   1  30
TORSDOF 7
ENDMDL
MODEL 5
REMARK VINA RESULT:      -7.5      4.005      5.901
REMARK  7 active torsions:
REMARK  status: ('A' for Active; 'I' for Inactive)
REMARK    1  A    between atoms: C_4  and  C_5 
REMARK    2  A    between atoms: C_10  and  C_11 
REMARK       I    between atoms: C_11  and  N_12 
REMARK    3  A    between atoms: N_12  and  C_13 
REMARK    4  A    between atoms: C_13  and  C_14 
REMARK    5  A    between atoms: C_14  and  C_15 
REMARK    6  A    between atoms: C_15  and  N_16 
REMARK    7  A    between atoms: C_26  and  C_27 
ROOT
HETATM    1  C   UNL     1     -12.576   2.130 -34.507  1.00  0.00     0.125 C 
HETATM    2  N   UNL     1     -11.782   3.273 -34.969  1.00  0.00    -0.365 N 
HETATM    3  C   UNL     1     -10.580   3.569 -34.416  1.00  0.00     0.141 A 
HETATM    4  N   UNL     1      -9.974   2.708 -33.538  1.00  0.00    -0.238 N 
HETATM    5  N   UNL     1      -8.813   3.173 -33.043  1.00  0.00    -0.163 NA
HETATM    6  C   UNL     1      -8.618   4.341 -33.698  1.00  0.00     0.165 A 
HETATM    7  C   UNL     1      -9.716   4.626 -34.544  1.00  0.00     0.092 A 
HETATM    8 BR   UNL     1      -9.933   6.130 -35.638  1.00  0.00    -0.044 Br
HETATM    9  C   UNL     1     -10.562   1.450 -33.101  1.00  0.00     0.221 C 
HETATM   10  C   UNL     1     -11.621   0.986 -34.117  1.00  0.00     0.067 C 
HETATM   11  H   UNL     1     -12.319   3.993 -35.456  1.00  0.00     0.162 HD
ENDROOT
BRANCH   6  12
HETATM   12  C   UNL     1      -7.375   5.093 -33.489  1.00  0.00     0.273 C 
HETATM   13  N   UNL     1      -7.326   5.745 -32.273  1.00  0.00    -0.355 N 
HETATM   14  H   UNL     1      -8.177   5.672 -31.710  1.00  0.00     0.162 HD
HETATM   15  O   UNL     1      -6.412   5.111 -34.258  1.00  0.00    -0.266 OA
BRANCH  13  16
HETATM   16  C   UNL     1      -6.239   6.596 -31.860  1.00  0.00     0.124 C 
BRANCH  16  17
HETATM   17  C   UNL     1      -5.242   5.900 -30.934  1.00  0.00     0.047 C 
BRANCH  17  18
HETATM   18  C   UNL     1      -4.190   5.006 -31.594  1.00  0.00     0.236 C 
BRANCH  18  19
HETATM   19  N   UNL     1      -3.508   5.633 -32.781  1.00  0.00    -0.067 N 
HETATM   20  H   UNL     1      -4.258   5.962 -33.426  1.00  0.00     0.280 HD
HETATM   21  C   UNL     1      -2.593   6.799 -32.452  1.00  0.00     0.261 C 
HETATM   22  C   UNL     1      -1.957   7.344 -33.736  1.00  0.00     0.195 C 
HETATM   23  O   UNL     1      -1.245   6.317 -34.435  1.00  0.00    -0.388 OA
HETATM   24  C   UNL     1      -2.119   5.253 -34.828  1.00  0.00     0.195 C 
HETATM   25  C   UNL     1      -2.750   4.588 -33.600  1.00  0.00     0.261 C 
ENDBRANCH  18  19
ENDBRANCH  17  18
ENDBRANCH  16  17
ENDBRANCH  13  16
ENDBRANCH   6  12
BRANCH   9  26
HETATM   26  C   UNL     1      -9.514   0.371 -32.925  1.00  0.00     0.409 C 
HETATM   27  F   UNL     1      -8.724   0.246 -34.016  1.00  0.00    -0.169 F 
HETATM   28  F   UNL     1      -8.716   0.581 -31.856  1.00  0.00    -0.169 F 
HETATM   29  F   UNL     1     -10.108  -0.832 -32.729  1.00  0.00    -0.169 F 
ENDBRANCH   9  26
BRANCH   1  30
HETATM   30  C   UNL     1     -13.558   2.442 -33.400  1.00  0.00     0.005 A 
HETATM   31  S   UNL     1     -14.917   1.414 -33.161  1.00  0.00    -0.104 SA
HETATM   32  C   UNL     1     -15.479   2.346 -31.845  1.00  0.00     0.050 A 
HETATM   33  C   UNL     1     -14.665   3.426 -31.593  1.00  0.00     0.008 A 
HETATM   34  C   UNL     1     -13.561   3.485 -32.491  1.00  0.00     0.017 A 
ENDBRANCH   1  30
TORSDOF 7
ENDMDL
MODEL 6
REMARK VINA RESULT:      -7.4      5.399      9.852
REMARK  7 active torsions:
REMARK  status: ('A' for Active; 'I' for Inactive)
REMARK    1  A    between atoms: C_4  and  C_5 
REMARK    2  A    between atoms: C_10  and  C_11 
REMARK       I    between atoms: C_11  and  N_12 
REMARK    3  A    between atoms: N_12  and  C_13 
REMARK    4  A    between atoms: C_13  and  C_14 
REMARK    5  A    between atoms: C_14  and  C_15 
REMARK    6  A    between atoms: C_15  and  N_16 
REMARK    7  A    between atoms: C_26  and  C_27 
ROOT
HETATM    1  C   UNL     1      -6.051   1.445 -30.465  1.00  0.00     0.125 C 
HETATM    2  N   UNL     1      -7.411   1.990 -30.397  1.00  0.00    -0.365 N 
HETATM    3  C   UNL     1      -8.238   1.964 -31.470  1.00  0.00     0.141 A 
HETATM    4  N   UNL     1      -7.907   1.262 -32.601  1.00  0.00    -0.238 N 
HETATM    5  N   UNL     1      -8.810   1.381 -33.591  1.00  0.00    -0.163 NA
HETATM    6  C   UNL     1      -9.807   2.114 -33.044  1.00  0.00     0.165 A 
HETATM    7  C   UNL     1      -9.468   2.513 -31.729  1.00  0.00     0.092 A 
HETATM    8 BR   UNL     1     -10.500   3.556 -30.567  1.00  0.00    -0.044 Br
HETATM    9  C   UNL     1      -6.659   0.532 -32.766  1.00  0.00     0.221 C 
HETATM   10  C   UNL     1      -6.055   0.211 -31.386  1.00  0.00     0.067 C 
HETATM   11  H   UNL     1      -7.559   2.666 -29.645  1.00  0.00     0.162 HD
ENDROOT
BRANCH   6  12
HETATM   12  C   UNL     1     -11.034   2.360 -33.811  1.00  0.00     0.273 C 
HETATM   13  N   UNL     1     -12.048   1.467 -33.526  1.00  0.00    -0.355 N 
HETATM   14  H   UNL     1     -11.796   0.722 -32.872  1.00  0.00     0.162 HD
HETATM   15  O   UNL     1     -11.216   3.300 -34.586  1.00  0.00    -0.266 OA
BRANCH  13  16
HETATM   16  C   UNL     1     -13.327   1.464 -34.190  1.00  0.00     0.124 C 
BRANCH  16  17
HETATM   17  C   UNL     1     -14.510   1.381 -33.227  1.00  0.00     0.047 C 
BRANCH  17  18
HETATM   18  C   UNL     1     -14.666   2.524 -32.221  1.00  0.00     0.236 C 
BRANCH  18  19
HETATM   19  N   UNL     1     -15.914   3.344 -32.411  1.00  0.00    -0.067 N 
HETATM   20  H   UNL     1     -15.981   3.567 -33.427  1.00  0.00     0.280 HD
HETATM   21  C   UNL     1     -17.199   2.669 -31.967  1.00  0.00     0.261 C 
HETATM   22  C   UNL     1     -18.391   3.603 -32.206  1.00  0.00     0.195 C 
HETATM   23  O   UNL     1     -18.211   4.851 -31.529  1.00  0.00    -0.388 OA
HETATM   24  C   UNL     1     -17.048   5.538 -32.005  1.00  0.00     0.195 C 
HETATM   25  C   UNL     1     -15.785   4.713 -31.741  1.00  0.00     0.261 C 
ENDBRANCH  18  19
ENDBRANCH  17  18
ENDBRANCH  16  17
ENDBRANCH  13  16
ENDBRANCH   6  12
BRANCH   9  26
HETATM   26  C   UNL     1      -6.857  -0.749 -33.548  1.00  0.00     0.409 C 
HETATM   27  F   UNL     1      -5.949  -1.695 -33.216  1.00  0.00    -0.169 F 
HETATM   28  F   UNL     1      -8.088  -1.280 -33.387  1.00  0.00    -0.169 F 
HETATM   29  F   UNL     1      -6.713  -0.514 -34.877  1.00  0.00    -0.169 F 
ENDBRANCH   9  26
BRANCH   1  30
HETATM   30  C   UNL     1      -4.985   2.441 -30.866  1.00  0.00     0.005 A 
HETATM   31  S   UNL     1      -3.455   1.869 -31.408  1.00  0.00    -0.104 SA
HETATM   32  C   UNL     1      -2.872   3.455 -31.656  1.00  0.00     0.050 A 
HETATM   33  C   UNL     1      -3.808   4.406 -31.324  1.00  0.00     0.008 A 
HETATM   34  C   UNL     1      -5.024   3.823 -30.864  1.00  0.00     0.017 A 
ENDBRANCH   1  30
TORSDOF 7
ENDMDL
MODEL 7
REMARK VINA RESULT:      -7.4      4.427      6.623
REMARK  7 active torsions:
REMARK  status: ('A' for Active; 'I' for Inactive)
REMARK    1  A    between atoms: C_4  and  C_5 
REMARK    2  A    between atoms: C_10  and  C_11 
REMARK       I    between atoms: C_11  and  N_12 
REMARK    3  A    between atoms: N_12  and  C_13 
REMARK    4  A    between atoms: C_13  and  C_14 
REMARK    5  A    between atoms: C_14  and  C_15 
REMARK    6  A    between atoms: C_15  and  N_16 
REMARK    7  A    between atoms: C_26  and  C_27 
ROOT
HETATM    1  C   UNL     1     -12.914   2.053 -34.548  1.00  0.00     0.125 C 
HETATM    2  N   UNL     1     -12.083   3.170 -35.008  1.00  0.00    -0.365 N 
HETATM    3  C   UNL     1     -10.883   3.439 -34.439  1.00  0.00     0.141 A 
HETATM    4  N   UNL     1     -10.314   2.571 -33.543  1.00  0.00    -0.238 N 
HETATM    5  N   UNL     1      -9.149   3.010 -33.034  1.00  0.00    -0.163 NA
HETATM    6  C   UNL     1      -8.912   4.166 -33.697  1.00  0.00     0.165 A 
HETATM    7  C   UNL     1      -9.988   4.472 -34.563  1.00  0.00     0.092 A 
HETATM    8 BR   UNL     1     -10.148   5.970 -35.675  1.00  0.00    -0.044 Br
HETATM    9  C   UNL     1     -10.942   1.334 -33.103  1.00  0.00     0.221 C 
HETATM   10  C   UNL     1     -11.997   0.888 -34.132  1.00  0.00     0.067 C 
HETATM   11  H   UNL     1     -12.592   3.899 -35.511  1.00  0.00     0.162 HD
ENDROOT
BRANCH   6  12
HETATM   12  C   UNL     1      -7.653   4.887 -33.475  1.00  0.00     0.273 C 
HETATM   13  N   UNL     1      -6.546   4.219 -33.958  1.00  0.00    -0.355 N 
HETATM   14  H   UNL     1      -6.736   3.291 -34.346  1.00  0.00     0.162 HD
HETATM   15  O   UNL     1      -7.550   6.011 -32.981  1.00  0.00    -0.266 OA
BRANCH  13  16
HETATM   16  C   UNL     1      -5.192   4.691 -33.809  1.00  0.00     0.124 C 
BRANCH  16  17
HETATM   17  C   UNL     1      -4.379   3.893 -32.791  1.00  0.00     0.047 C 
BRANCH  17  18
HETATM   18  C   UNL     1      -5.106   3.443 -31.522  1.00  0.00     0.236 C 
BRANCH  18  19
HETATM   19  N   UNL     1      -5.012   1.966 -31.250  1.00  0.00    -0.067 N 
HETATM   20  H   UNL     1      -5.199   1.830 -30.233  1.00  0.00     0.280 HD
HETATM   21  C   UNL     1      -5.974   1.105 -32.049  1.00  0.00     0.261 C 
HETATM   22  C   UNL     1      -5.777  -0.372 -31.688  1.00  0.00     0.195 C 
HETATM   23  O   UNL     1      -4.423  -0.781 -31.909  1.00  0.00    -0.388 OA
HETATM   24  C   UNL     1      -3.514  -0.033 -31.092  1.00  0.00     0.195 C 
HETATM   25  C   UNL     1      -3.581   1.459 -31.433  1.00  0.00     0.261 C 
ENDBRANCH  18  19
ENDBRANCH  17  18
ENDBRANCH  16  17
ENDBRANCH  13  16
ENDBRANCH   6  12
BRANCH   9  26
HETATM   26  C   UNL     1      -9.926   0.230 -32.901  1.00  0.00     0.409 C 
HETATM   27  F   UNL     1      -9.079   0.117 -33.949  1.00  0.00    -0.169 F 
HETATM   28  F   UNL     1      -9.185   0.394 -31.783  1.00  0.00    -0.169 F 
HETATM   29  F   UNL     1     -10.553  -0.966 -32.771  1.00  0.00    -0.169 F 
ENDBRANCH   9  26
BRANCH   1  30
HETATM   30  C   UNL     1     -13.906   2.402 -33.460  1.00  0.00     0.005 A 
HETATM   31  S   UNL     1     -13.834   3.953 -32.718  1.00  0.00    -0.104 SA
HETATM   32  C   UNL     1     -15.162   3.604 -31.702  1.00  0.00     0.050 A 
HETATM   33  C   UNL     1     -15.648   2.333 -31.905  1.00  0.00     0.008 A 
HETATM   34  C   UNL     1     -14.921   1.638 -32.915  1.00  0.00     0.017 A 
ENDBRANCH   1  30
TORSDOF 7
ENDMDL
MODEL 8
REMARK VINA RESULT:      -7.4      3.875      8.453
REMARK  7 active torsions:
REMARK  status: ('A' for Active; 'I' for Inactive)
REMARK    1  A    between atoms: C_4  and  C_5 
REMARK    2  A    between atoms: C_10  and  C_11 
REMARK       I    between atoms: C_11  and  N_12 
REMARK    3  A    between atoms: N_12  and  C_13 
REMARK    4  A    between atoms: C_13  and  C_14 
REMARK    5  A    between atoms: C_14  and  C_15 
REMARK    6  A    between atoms: C_15  and  N_16 
REMARK    7  A    between atoms: C_26  and  C_27 
ROOT
HETATM    1  C   UNL     1      -2.086   6.236 -30.782  1.00  0.00     0.125 C 
HETATM    2  N   UNL     1      -3.061   5.186 -30.469  1.00  0.00    -0.365 N 
HETATM    3  C   UNL     1      -3.900   4.697 -31.415  1.00  0.00     0.141 A 
HETATM    4  N   UNL     1      -3.746   5.027 -32.736  1.00  0.00    -0.238 N 
HETATM    5  N   UNL     1      -4.691   4.500 -33.536  1.00  0.00    -0.163 NA
HETATM    6  C   UNL     1      -5.431   3.725 -32.709  1.00  0.00     0.165 A 
HETATM    7  C   UNL     1      -4.976   3.846 -31.375  1.00  0.00     0.092 A 
HETATM    8 BR   UNL     1      -5.681   2.997 -29.863  1.00  0.00    -0.044 Br
HETATM    9  C   UNL     1      -2.722   5.935 -33.231  1.00  0.00     0.221 C 
HETATM   10  C   UNL     1      -1.568   6.024 -32.216  1.00  0.00     0.067 C 
HETATM   11  H   UNL     1      -3.294   5.105 -29.478  1.00  0.00     0.162 HD
ENDROOT
BRANCH   6  12
HETATM   12  C   UNL     1      -6.509   2.896 -33.260  1.00  0.00     0.273 C 
HETATM   13  N   UNL     1      -7.653   2.900 -32.489  1.00  0.00    -0.355 N 
HETATM   14  H   UNL     1      -7.582   3.423 -31.612  1.00  0.00     0.162 HD
HETATM   15  O   UNL     1      -6.472   2.298 -34.337  1.00  0.00    -0.266 OA
BRANCH  13  16
HETATM   16  C   UNL     1      -8.828   2.119 -32.786  1.00  0.00     0.124 C 
BRANCH  16  17
HETATM   17  C   UNL     1      -8.736   0.675 -32.296  1.00  0.00     0.047 C 
BRANCH  17  18
HETATM   18  C   UNL     1      -8.463  -0.399 -33.351  1.00  0.00     0.236 C 
BRANCH  18  19
HETATM   19  N   UNL     1      -7.003  -0.699 -33.561  1.00  0.00    -0.067 N 
HETATM   20  H   UNL     1      -6.652  -0.024 -34.274  1.00  0.00     0.280 HD
HETATM   21  C   UNL     1      -6.142  -0.593 -32.315  1.00  0.00     0.261 C 
HETATM   22  C   UNL     1      -4.685  -0.924 -32.657  1.00  0.00     0.195 C 
HETATM   23  O   UNL     1      -4.576  -2.226 -33.243  1.00  0.00    -0.388 OA
HETATM   24  C   UNL     1      -5.315  -2.309 -34.467  1.00  0.00     0.195 C 
HETATM   25  C   UNL     1      -6.806  -2.066 -34.218  1.00  0.00     0.261 C 
ENDBRANCH  18  19
ENDBRANCH  17  18
ENDBRANCH  16  17
ENDBRANCH  13  16
ENDBRANCH   6  12
BRANCH   9  26
HETATM   26  C   UNL     1      -2.186   5.497 -34.578  1.00  0.00     0.409 C 
HETATM   27  F   UNL     1      -1.786   4.205 -34.572  1.00  0.00    -0.169 F 
HETATM   28  F   UNL     1      -3.083   5.649 -35.576  1.00  0.00    -0.169 F 
HETATM   29  F   UNL     1      -1.105   6.243 -34.917  1.00  0.00    -0.169 F 
ENDBRANCH   9  26
BRANCH   1  30
HETATM   30  C   UNL     1      -2.581   7.649 -30.568  1.00  0.00     0.005 A 
HETATM   31  S   UNL     1      -4.008   7.914 -29.643  1.00  0.00    -0.104 SA
HETATM   32  C   UNL     1      -3.903   9.607 -29.837  1.00  0.00     0.050 A 
HETATM   33  C   UNL     1      -2.818   9.973 -30.599  1.00  0.00     0.008 A 
HETATM   34  C   UNL     1      -2.058   8.846 -31.024  1.00  0.00     0.017 A 
ENDBRANCH   1  30
TORSDOF 7
ENDMDL
MODEL 9
REMARK VINA RESULT:      -7.4      4.862      9.339
REMARK  7 active torsions:
REMARK  status: ('A' for Active; 'I' for Inactive)
REMARK    1  A    between atoms: C_4  and  C_5 
REMARK    2  A    between atoms: C_10  and  C_11 
REMARK       I    between atoms: C_11  and  N_12 
REMARK    3  A    between atoms: N_12  and  C_13 
REMARK    4  A    between atoms: C_13  and  C_14 
REMARK    5  A    between atoms: C_14  and  C_15 
REMARK    6  A    between atoms: C_15  and  N_16 
REMARK    7  A    between atoms: C_26  and  C_27 
ROOT
HETATM    1  C   UNL     1      -3.740   3.500 -31.620  1.00  0.00     0.125 C 
HETATM    2  N   UNL     1      -5.162   3.638 -31.289  1.00  0.00    -0.365 N 
HETATM    3  C   UNL     1      -6.080   2.741 -31.724  1.00  0.00     0.141 A 
HETATM    4  N   UNL     1      -5.694   1.572 -32.328  1.00  0.00    -0.238 N 
HETATM    5  N   UNL     1      -6.726   0.817 -32.747  1.00  0.00    -0.163 NA
HETATM    6  C   UNL     1      -7.822   1.483 -32.313  1.00  0.00     0.165 A 
HETATM    7  C   UNL     1      -7.450   2.699 -31.692  1.00  0.00     0.092 A 
HETATM    8 BR   UNL     1      -8.597   3.981 -30.952  1.00  0.00    -0.044 Br
HETATM    9  C   UNL     1      -4.308   1.211 -32.586  1.00  0.00     0.221 C 
HETATM   10  C   UNL     1      -3.379   2.003 -31.648  1.00  0.00     0.067 C 
HETATM   11  H   UNL     1      -5.446   4.584 -31.028  1.00  0.00     0.162 HD
ENDROOT
BRANCH   6  12
HETATM   12  C   UNL     1      -9.152   0.893 -32.498  1.00  0.00     0.273 C 
HETATM   13  N   UNL     1      -9.845   1.427 -33.566  1.00  0.00    -0.355 N 
HETATM   14  H   UNL     1      -9.374   2.198 -34.045  1.00  0.00     0.162 HD
HETATM   15  O   UNL     1      -9.619  -0.039 -31.841  1.00  0.00    -0.266 OA
BRANCH  13  16
HETATM   16  C   UNL     1     -11.193   1.056 -33.917  1.00  0.00     0.124 C 
BRANCH  16  17
HETATM   17  C   UNL     1     -12.244   2.045 -33.417  1.00  0.00     0.047 C 
BRANCH  17  18
HETATM   18  C   UNL     1     -13.711   1.668 -33.634  1.00  0.00     0.236 C 
BRANCH  18  19
HETATM   19  N   UNL     1     -14.687   2.751 -33.259  1.00  0.00    -0.067 N 
HETATM   20  H   UNL     1     -15.126   3.087 -34.144  1.00  0.00     0.280 HD
HETATM   21  C   UNL     1     -15.780   2.324 -32.297  1.00  0.00     0.261 C 
HETATM   22  C   UNL     1     -16.701   3.510 -31.990  1.00  0.00     0.195 C 
HETATM   23  O   UNL     1     -15.959   4.615 -31.462  1.00  0.00    -0.388 OA
HETATM   24  C   UNL     1     -14.984   5.083 -32.400  1.00  0.00     0.195 C 
HETATM   25  C   UNL     1     -13.964   3.984 -32.715  1.00  0.00     0.261 C 
ENDBRANCH  18  19
ENDBRANCH  17  18
ENDBRANCH  16  17
ENDBRANCH  13  16
ENDBRANCH   6  12
BRANCH   9  26
HETATM   26  C   UNL     1      -4.071  -0.274 -32.406  1.00  0.00     0.409 C 
HETATM   27  F   UNL     1      -4.870  -0.806 -31.453  1.00  0.00    -0.169 F 
HETATM   28  F   UNL     1      -4.257  -0.978 -33.544  1.00  0.00    -0.169 F 
HETATM   29  F   UNL     1      -2.791  -0.501 -32.020  1.00  0.00    -0.169 F 
ENDBRANCH   9  26
BRANCH   1  30
HETATM   30  C   UNL     1      -3.309   4.205 -32.886  1.00  0.00     0.005 A 
HETATM   31  S   UNL     1      -4.503   4.873 -33.930  1.00  0.00    -0.104 SA
HETATM   32  C   UNL     1      -3.324   5.449 -35.024  1.00  0.00     0.050 A 
HETATM   33  C   UNL     1      -2.047   5.133 -34.620  1.00  0.00     0.008 A 
HETATM   34  C   UNL     1      -2.038   4.411 -33.391  1.00  0.00     0.017 A 
ENDBRANCH   1  30
TORSDOF 7
ENDMDL
MODEL 10
REMARK VINA RESULT:      -7.3      4.167      7.818
REMARK  7 active torsions:
REMARK  status: ('A' for Active; 'I' for Inactive)
REMARK    1  A    between atoms: C_4  and  C_5 
REMARK    2  A    between atoms: C_10  and  C_11 
REMARK       I    between atoms: C_11  and  N_12 
REMARK    3  A    between atoms: N_12  and  C_13 
REMARK    4  A    between atoms: C_13  and  C_14 
REMARK    5  A    between atoms: C_14  and  C_15 
REMARK    6  A    between atoms: C_15  and  N_16 
REMARK    7  A    between atoms: C_26  and  C_27 
ROOT
HETATM    1  C   UNL     1      -4.087   6.688 -30.870  1.00  0.00     0.125 C 
HETATM    2  N   UNL     1      -4.982   5.546 -30.654  1.00  0.00    -0.365 N 
HETATM    3  C   UNL     1      -5.497   4.845 -31.693  1.00  0.00     0.141 A 
HETATM    4  N   UNL     1      -5.056   5.054 -32.975  1.00  0.00    -0.238 N 
HETATM    5  N   UNL     1      -5.704   4.316 -33.893  1.00  0.00    -0.163 NA
HETATM    6  C   UNL     1      -6.533   3.532 -33.165  1.00  0.00     0.165 A 
HETATM    7  C   UNL     1      -6.443   3.857 -31.790  1.00  0.00     0.092 A 
HETATM    8 BR   UNL     1      -7.403   3.077 -30.384  1.00  0.00    -0.044 Br
HETATM    9  C   UNL     1      -4.051   6.043 -33.335  1.00  0.00     0.221 C 
HETATM   10  C   UNL     1      -3.206   6.403 -32.100  1.00  0.00     0.067 C 
HETATM   11  H   UNL     1      -5.445   5.537 -29.743  1.00  0.00     0.162 HD
ENDROOT
BRANCH   6  12
HETATM   12  C   UNL     1      -7.337   2.504 -33.834  1.00  0.00     0.273 C 
HETATM   13  N   UNL     1      -6.581   1.587 -34.537  1.00  0.00    -0.355 N 
HETATM   14  H   UNL     1      -5.576   1.777 -34.552  1.00  0.00     0.162 HD
HETATM   15  O   UNL     1      -8.560   2.383 -33.747  1.00  0.00    -0.266 OA
BRANCH  13  16
HETATM   16  C   UNL     1      -7.140   0.518 -35.326  1.00  0.00     0.124 C 
BRANCH  16  17
HETATM   17  C   UNL     1      -6.695  -0.870 -34.869  1.00  0.00     0.047 C 
BRANCH  17  18
HETATM   18  C   UNL     1      -6.815  -1.179 -33.375  1.00  0.00     0.236 C 
BRANCH  18  19
HETATM   19  N   UNL     1      -5.517  -1.074 -32.620  1.00  0.00    -0.067 N 
HETATM   20  H   UNL     1      -5.406  -1.958 -32.078  1.00  0.00     0.280 HD
HETATM   21  C   UNL     1      -4.287  -0.866 -33.484  1.00  0.00     0.261 C 
HETATM   22  C   UNL     1      -3.037  -0.770 -32.602  1.00  0.00     0.195 C 
HETATM   23  O   UNL     1      -3.166   0.281 -31.638  1.00  0.00    -0.388 OA
HETATM   24  C   UNL     1      -4.273   0.048 -30.760  1.00  0.00     0.195 C 
HETATM   25  C   UNL     1      -5.589   0.011 -31.543  1.00  0.00     0.261 C 
ENDBRANCH  18  19
ENDBRANCH  17  18
ENDBRANCH  16  17
ENDBRANCH  13  16
ENDBRANCH   6  12
BRANCH   9  26
HETATM   26  C   UNL     1      -3.149   5.549 -34.446  1.00  0.00     0.409 C 
HETATM   27  F   UNL     1      -2.565   4.367 -34.141  1.00  0.00    -0.169 F 
HETATM   28  F   UNL     1      -3.796   5.401 -35.623  1.00  0.00    -0.169 F 
HETATM   29  F   UNL     1      -2.149   6.438 -34.668  1.00  0.00    -0.169 F 
ENDBRANCH   9  26
BRANCH   1  30
HETATM   30  C   UNL     1      -4.779   8.029 -30.973  1.00  0.00     0.005 A 
HETATM   31  S   UNL     1      -3.863   9.470 -30.762  1.00  0.00    -0.104 SA
HETATM   32  C   UNL     1      -5.232  10.460 -31.015  1.00  0.00     0.050 A 
HETATM   33  C   UNL     1      -6.369   9.720 -31.242  1.00  0.00     0.008 A 
HETATM   34  C   UNL     1      -6.110   8.319 -31.213  1.00  0.00     0.017 A 
ENDBRANCH   1  30
TORSDOF 7
ENDMDL
