MODEL 1
REMARK VINA RESULT:      -8.7      0.000      0.000
REMARK  7 active torsions:
REMARK  status: ('A' for Active; 'I' for Inactive)
REMARK    1  A    between atoms: C_3  and  C_4 
REMARK    2  A    between atoms: N_5  and  C_7 
REMARK    3  A    between atoms: N_10  and  C_11 
REMARK    4  A    between atoms: C_14  and  C_15 
REMARK       I    between atoms: C_15  and  N_16 
REMARK    5  A    between atoms: N_16  and  C_17 
REMARK    6  A    between atoms: C_17  and  C_18 
REMARK    7  A    between atoms: C_18  and  N_19 
ROOT
HETATM    1  C   UNL     1      -3.639   2.874 -31.637  1.00  0.00     0.192 C 
HETATM    2  C   UNL     1      -4.840   3.278 -30.802  1.00  0.00     0.053 C 
HETATM    3  C   UNL     1      -6.176   3.076 -31.490  1.00  0.00     0.125 C 
HETATM    4  N   UNL     1      -6.313   1.700 -32.011  1.00  0.00    -0.381 N 
HETATM    5  C   UNL     1      -5.196   1.176 -32.811  1.00  0.00     0.125 C 
HETATM    6  C   UNL     1      -3.828   1.463 -32.200  1.00  0.00     0.053 C 
ENDROOT
BRANCH   4   7
HETATM    7  C   UNL     1      -7.620   1.409 -32.489  1.00  0.00     0.030 A 
HETATM    8  C   UNL     1      -8.252   2.149 -33.506  1.00  0.00     0.030 A 
HETATM    9  C   UNL     1      -9.578   1.902 -33.899  1.00  0.00     0.019 A 
HETATM   10  C   UNL     1     -10.306   0.881 -33.291  1.00  0.00     0.032 A 
HETATM   11  C   UNL     1      -9.691   0.086 -32.328  1.00  0.00     0.019 A 
HETATM   12  C   UNL     1      -8.362   0.334 -31.960  1.00  0.00     0.030 A 
BRANCH  10  13
HETATM   13  C   UNL     1     -11.746   0.680 -33.574  1.00  0.00     0.251 C 
HETATM   14  N   UNL     1     -12.447   1.761 -34.055  1.00  0.00    -0.355 N 
HETATM   15  H   UNL     1     -11.931   2.623 -34.212  1.00  0.00     0.162 HD
HETATM   16  O   UNL     1     -12.266  -0.413 -33.376  1.00  0.00    -0.268 OA
BRANCH  14  17
HETATM   17  C   UNL     1     -13.905   1.854 -34.099  1.00  0.00     0.150 C 
BRANCH  17  18
HETATM   18  C   UNL     1     -14.652   1.906 -32.746  1.00  0.00     0.254 C 
BRANCH  18  19
HETATM   19  N   UNL     1     -15.688   3.001 -32.675  1.00  0.00    -0.066 N 
HETATM   20  H   UNL     1     -15.882   3.267 -33.665  1.00  0.00     0.280 HD
HETATM   21  C   UNL     1     -17.024   2.591 -32.080  1.00  0.00     0.261 C 
HETATM   22  C   UNL     1     -17.999   3.774 -32.146  1.00  0.00     0.195 C 
HETATM   23  O   UNL     1     -17.466   4.914 -31.463  1.00  0.00    -0.388 OA
HETATM   24  C   UNL     1     -16.242   5.356 -32.059  1.00  0.00     0.195 C 
HETATM   25  C   UNL     1     -15.172   4.259 -31.996  1.00  0.00     0.261 C 
ENDBRANCH  18  19
ENDBRANCH  17  18
ENDBRANCH  14  17
ENDBRANCH  10  13
ENDBRANCH   4   7
BRANCH   1  26
HETATM   26  N   UNL     1      -3.157   3.872 -32.703  1.00  0.00    -0.056 N 
HETATM   27  C   UNL     1      -1.861   4.638 -32.306  1.00  0.00     0.257 C 
HETATM   28  C   UNL     1      -1.278   5.254 -33.592  1.00  0.00     0.041 C 
HETATM   29  C   UNL     1      -2.273   6.154 -34.322  1.00  0.00     0.004 C 
HETATM   30  C   UNL     1      -3.575   5.421 -34.602  1.00  0.00     0.028 C 
HETATM   31  C   UNL     1      -4.170   4.791 -33.349  1.00  0.00     0.236 C 
HETATM   32  H   UNL     1      -2.836   3.268 -33.469  1.00  0.00     0.281 HD
BRANCH  27  33
HETATM   33  C   UNL     1      -2.018   5.685 -31.233  1.00  0.00     0.136 A 
HETATM   34  N   UNL     1      -1.052   5.995 -30.297  1.00  0.00    -0.346 N 
HETATM   35  C   UNL     1       0.260   5.406 -30.155  1.00  0.00     0.157 C 
HETATM   36  C   UNL     1      -1.541   6.999 -29.509  1.00  0.00     0.111 A 
HETATM   37  C   UNL     1      -2.788   7.281 -30.005  1.00  0.00     0.136 A 
HETATM   38  N   UNL     1      -3.074   6.464 -31.067  1.00  0.00    -0.244 NA
ENDBRANCH  27  33
ENDBRANCH   1  26
TORSDOF 7
ENDMDL
MODEL 2
REMARK VINA RESULT:      -8.6      3.876     11.226
REMARK  7 active torsions:
REMARK  status: ('A' for Active; 'I' for Inactive)
REMARK    1  A    between atoms: C_3  and  C_4 
REMARK    2  A    between atoms: N_5  and  C_7 
REMARK    3  A    between atoms: N_10  and  C_11 
REMARK    4  A    between atoms: C_14  and  C_15 
REMARK       I    between atoms: C_15  and  N_16 
REMARK    5  A    between atoms: N_16  and  C_17 
REMARK    6  A    between atoms: C_17  and  C_18 
REMARK    7  A    between atoms: C_18  and  N_19 
ROOT
HETATM    1  C   UNL     1      -9.887   2.461 -32.077  1.00  0.00     0.192 C 
HETATM    2  C   UNL     1      -8.845   1.476 -32.575  1.00  0.00     0.053 C 
HETATM    3  C   UNL     1      -7.481   2.087 -32.832  1.00  0.00     0.125 C 
HETATM    4  N   UNL     1      -6.998   2.843 -31.658  1.00  0.00    -0.381 N 
HETATM    5  C   UNL     1      -7.931   3.809 -31.058  1.00  0.00     0.125 C 
HETATM    6  C   UNL     1      -9.344   3.261 -30.890  1.00  0.00     0.053 C 
ENDROOT
BRANCH   4   7
HETATM    7  C   UNL     1      -5.646   3.267 -31.781  1.00  0.00     0.030 A 
HETATM    8  C   UNL     1      -4.548   2.405 -31.596  1.00  0.00     0.030 A 
HETATM    9  C   UNL     1      -3.221   2.865 -31.630  1.00  0.00     0.019 A 
HETATM   10  C   UNL     1      -2.957   4.210 -31.876  1.00  0.00     0.032 A 
HETATM   11  C   UNL     1      -4.015   5.078 -32.129  1.00  0.00     0.019 A 
HETATM   12  C   UNL     1      -5.333   4.601 -32.109  1.00  0.00     0.030 A 
BRANCH  10  13
HETATM   13  C   UNL     1      -1.585   4.761 -31.781  1.00  0.00     0.251 C 
HETATM   14  N   UNL     1      -1.012   4.803 -30.531  1.00  0.00    -0.355 N 
HETATM   15  H   UNL     1      -1.551   4.430 -29.755  1.00  0.00     0.162 HD
HETATM   16  O   UNL     1      -1.009   5.159 -32.789  1.00  0.00    -0.268 OA
BRANCH  14  17
HETATM   17  C   UNL     1       0.180   5.577 -30.188  1.00  0.00     0.150 C 
BRANCH  17  18
HETATM   18  C   UNL     1       0.448   5.835 -28.687  1.00  0.00     0.254 C 
BRANCH  18  19
HETATM   19  N   UNL     1      -0.789   6.226 -27.916  1.00  0.00    -0.066 N 
HETATM   20  H   UNL     1      -1.520   5.532 -28.188  1.00  0.00     0.280 HD
HETATM   21  C   UNL     1      -0.667   6.136 -26.405  1.00  0.00     0.261 C 
HETATM   22  C   UNL     1      -2.015   6.482 -25.760  1.00  0.00     0.195 C 
HETATM   23  O   UNL     1      -2.453   7.786 -26.157  1.00  0.00    -0.388 OA
HETATM   24  C   UNL     1      -2.642   7.864 -27.575  1.00  0.00     0.195 C 
HETATM   25  C   UNL     1      -1.332   7.587 -28.320  1.00  0.00     0.261 C 
ENDBRANCH  18  19
ENDBRANCH  17  18
ENDBRANCH  14  17
ENDBRANCH  10  13
ENDBRANCH   4   7
BRANCH   1  26
HETATM   26  N   UNL     1     -10.567   3.356 -33.126  1.00  0.00    -0.056 N 
HETATM   27  C   UNL     1     -12.113   3.452 -32.963  1.00  0.00     0.257 C 
HETATM   28  C   UNL     1     -12.586   4.672 -33.776  1.00  0.00     0.041 C 
HETATM   29  C   UNL     1     -12.169   4.605 -35.243  1.00  0.00     0.004 C 
HETATM   30  C   UNL     1     -10.669   4.399 -35.380  1.00  0.00     0.028 C 
HETATM   31  C   UNL     1     -10.170   3.204 -34.578  1.00  0.00     0.236 C 
HETATM   32  H   UNL     1     -10.255   4.300 -32.874  1.00  0.00     0.281 HD
BRANCH  27  33
HETATM   33  C   UNL     1     -12.892   2.219 -33.344  1.00  0.00     0.136 A 
HETATM   34  N   UNL     1     -14.149   1.910 -32.863  1.00  0.00    -0.346 N 
HETATM   35  C   UNL     1     -14.950   2.673 -31.934  1.00  0.00     0.157 C 
HETATM   36  C   UNL     1     -14.541   0.736 -33.443  1.00  0.00     0.111 A 
HETATM   37  C   UNL     1     -13.512   0.376 -34.275  1.00  0.00     0.136 A 
HETATM   38  N   UNL     1     -12.499   1.295 -34.205  1.00  0.00    -0.244 NA
ENDBRANCH  27  33
ENDBRANCH   1  26
TORSDOF 7
ENDMDL
MODEL 3
REMARK VINA RESULT:      -8.5      4.848      7.168
REMARK  7 active torsions:
REMARK  status: ('A' for Active; 'I' for Inactive)
REMARK    1  A    between atoms: C_3  and  C_4 
REMARK    2  A    between atoms: N_5  and  C_7 
REMARK    3  A    between atoms: N_10  and  C_11 
REMARK    4  A    between atoms: C_14  and  C_15 
REMARK       I    between atoms: C_15  and  N_16 
REMARK    5  A    between atoms: N_16  and  C_17 
REMARK    6  A    between atoms: C_17  and  C_18 
REMARK    7  A    between atoms: C_18  and  N_19 
ROOT
HETATM    1  C   UNL     1      -6.980  -0.888 -33.592  1.00  0.00     0.192 C 
HETATM    2  C   UNL     1      -8.319  -1.090 -32.906  1.00  0.00     0.053 C 
HETATM    3  C   UNL     1      -9.178   0.158 -32.833  1.00  0.00     0.125 C 
HETATM    4  N   UNL     1      -9.336   0.783 -34.162  1.00  0.00    -0.381 N 
HETATM    5  C   UNL     1      -8.111   1.003 -34.945  1.00  0.00     0.125 C 
HETATM    6  C   UNL     1      -7.170  -0.198 -34.945  1.00  0.00     0.053 C 
ENDROOT
BRANCH   4   7
HETATM    7  C   UNL     1     -10.289   1.839 -34.176  1.00  0.00     0.030 A 
HETATM    8  C   UNL     1     -11.674   1.630 -34.029  1.00  0.00     0.030 A 
HETATM    9  C   UNL     1     -12.605   2.676 -34.138  1.00  0.00     0.019 A 
HETATM   10  C   UNL     1     -12.166   3.977 -34.378  1.00  0.00     0.032 A 
HETATM   11  C   UNL     1     -10.800   4.231 -34.462  1.00  0.00     0.019 A 
HETATM   12  C   UNL     1      -9.883   3.179 -34.334  1.00  0.00     0.030 A 
BRANCH  10  13
HETATM   13  C   UNL     1     -13.118   5.081 -34.640  1.00  0.00     0.251 C 
HETATM   14  N   UNL     1     -13.234   5.513 -35.941  1.00  0.00    -0.355 N 
HETATM   15  H   UNL     1     -12.682   5.032 -36.645  1.00  0.00     0.162 HD
HETATM   16  O   UNL     1     -13.761   5.573 -33.718  1.00  0.00    -0.268 OA
BRANCH  14  17
HETATM   17  C   UNL     1     -13.869   6.765 -36.348  1.00  0.00     0.150 C 
BRANCH  17  18
HETATM   18  C   UNL     1     -13.066   8.068 -36.129  1.00  0.00     0.254 C 
BRANCH  18  19
HETATM   19  N   UNL     1     -12.847   8.857 -37.397  1.00  0.00    -0.066 N 
HETATM   20  H   UNL     1     -13.150   9.831 -37.176  1.00  0.00     0.280 HD
HETATM   21  C   UNL     1     -11.403   8.960 -37.855  1.00  0.00     0.261 C 
HETATM   22  C   UNL     1     -11.322   9.852 -39.100  1.00  0.00     0.195 C 
HETATM   23  O   UNL     1     -12.153   9.342 -40.149  1.00  0.00    -0.388 OA
HETATM   24  C   UNL     1     -13.530   9.308 -39.755  1.00  0.00     0.195 C 
HETATM   25  C   UNL     1     -13.731   8.392 -38.542  1.00  0.00     0.261 C 
ENDBRANCH  18  19
ENDBRANCH  17  18
ENDBRANCH  14  17
ENDBRANCH  10  13
ENDBRANCH   4   7
BRANCH   1  26
HETATM   26  N   UNL     1      -5.855  -0.250 -32.760  1.00  0.00    -0.056 N 
HETATM   27  C   UNL     1      -4.424  -0.621 -33.251  1.00  0.00     0.257 C 
HETATM   28  C   UNL     1      -3.446   0.390 -32.626  1.00  0.00     0.041 C 
HETATM   29  C   UNL     1      -3.534   0.436 -31.102  1.00  0.00     0.004 C 
HETATM   30  C   UNL     1      -4.960   0.689 -30.640  1.00  0.00     0.028 C 
HETATM   31  C   UNL     1      -5.953  -0.292 -31.252  1.00  0.00     0.236 C 
HETATM   32  H   UNL     1      -5.920   0.747 -32.993  1.00  0.00     0.281 HD
BRANCH  27  33
HETATM   33  C   UNL     1      -3.981  -2.036 -32.976  1.00  0.00     0.136 A 
HETATM   34  N   UNL     1      -4.202  -3.102 -33.826  1.00  0.00    -0.346 N 
HETATM   35  C   UNL     1      -4.873  -3.087 -35.105  1.00  0.00     0.157 C 
HETATM   36  C   UNL     1      -3.644  -4.212 -33.256  1.00  0.00     0.111 A 
HETATM   37  C   UNL     1      -3.085  -3.780 -32.081  1.00  0.00     0.136 A 
HETATM   38  N   UNL     1      -3.299  -2.437 -31.916  1.00  0.00    -0.244 NA
ENDBRANCH  27  33
ENDBRANCH   1  26
TORSDOF 7
ENDMDL
MODEL 4
REMARK VINA RESULT:      -8.4      1.566      1.995
REMARK  7 active torsions:
REMARK  status: ('A' for Active; 'I' for Inactive)
REMARK    1  A    between atoms: C_3  and  C_4 
REMARK    2  A    between atoms: N_5  and  C_7 
REMARK    3  A    between atoms: N_10  and  C_11 
REMARK    4  A    between atoms: C_14  and  C_15 
REMARK       I    between atoms: C_15  and  N_16 
REMARK    5  A    between atoms: N_16  and  C_17 
REMARK    6  A    between atoms: C_17  and  C_18 
REMARK    7  A    between atoms: C_18  and  N_19 
ROOT
HETATM    1  C   UNL     1      -3.268   2.776 -31.697  1.00  0.00     0.192 C 
HETATM    2  C   UNL     1      -4.393   3.088 -30.727  1.00  0.00     0.053 C 
HETATM    3  C   UNL     1      -5.781   2.795 -31.265  1.00  0.00     0.125 C 
HETATM    4  N   UNL     1      -5.878   1.415 -31.784  1.00  0.00    -0.381 N 
HETATM    5  C   UNL     1      -4.824   0.976 -32.711  1.00  0.00     0.125 C 
HETATM    6  C   UNL     1      -3.420   1.357 -32.253  1.00  0.00     0.053 C 
ENDROOT
BRANCH   4   7
HETATM    7  C   UNL     1      -7.207   1.033 -32.117  1.00  0.00     0.030 A 
HETATM    8  C   UNL     1      -7.508   0.010 -33.036  1.00  0.00     0.030 A 
HETATM    9  C   UNL     1      -8.825  -0.289 -33.420  1.00  0.00     0.019 A 
HETATM   10  C   UNL     1      -9.889   0.423 -32.870  1.00  0.00     0.032 A 
HETATM   11  C   UNL     1      -9.633   1.397 -31.908  1.00  0.00     0.019 A 
HETATM   12  C   UNL     1      -8.314   1.671 -31.523  1.00  0.00     0.030 A 
BRANCH  10  13
HETATM   13  C   UNL     1     -11.278   0.238 -33.350  1.00  0.00     0.251 C 
HETATM   14  N   UNL     1     -11.811   1.238 -34.129  1.00  0.00    -0.355 N 
HETATM   15  H   UNL     1     -11.212   2.029 -34.350  1.00  0.00     0.162 HD
HETATM   16  O   UNL     1     -11.905  -0.773 -33.049  1.00  0.00    -0.268 OA
BRANCH  14  17
HETATM   17  C   UNL     1     -13.232   1.387 -34.434  1.00  0.00     0.150 C 
BRANCH  17  18
HETATM   18  C   UNL     1     -13.990   2.538 -33.731  1.00  0.00     0.254 C 
BRANCH  18  19
HETATM   19  N   UNL     1     -13.202   3.181 -32.616  1.00  0.00    -0.066 N 
HETATM   20  H   UNL     1     -12.537   2.448 -32.285  1.00  0.00     0.280 HD
HETATM   21  C   UNL     1     -12.347   4.367 -33.029  1.00  0.00     0.261 C 
HETATM   22  C   UNL     1     -11.544   4.865 -31.819  1.00  0.00     0.195 C 
HETATM   23  O   UNL     1     -12.415   5.217 -30.738  1.00  0.00    -0.388 OA
HETATM   24  C   UNL     1     -13.175   4.089 -30.291  1.00  0.00     0.195 C 
HETATM   25  C   UNL     1     -14.061   3.543 -31.417  1.00  0.00     0.261 C 
ENDBRANCH  18  19
ENDBRANCH  17  18
ENDBRANCH  14  17
ENDBRANCH  10  13
ENDBRANCH   4   7
BRANCH   1  26
HETATM   26  N   UNL     1      -2.982   3.810 -32.798  1.00  0.00    -0.056 N 
HETATM   27  C   UNL     1      -1.734   4.698 -32.514  1.00  0.00     0.257 C 
HETATM   28  C   UNL     1      -1.330   5.361 -33.844  1.00  0.00     0.041 C 
HETATM   29  C   UNL     1      -2.467   6.159 -34.479  1.00  0.00     0.004 C 
HETATM   30  C   UNL     1      -3.713   5.304 -34.645  1.00  0.00     0.028 C 
HETATM   31  C   UNL     1      -4.131   4.626 -33.346  1.00  0.00     0.236 C 
HETATM   32  H   UNL     1      -2.674   3.237 -33.591  1.00  0.00     0.281 HD
BRANCH  27  33
HETATM   33  C   UNL     1      -1.894   5.730 -31.427  1.00  0.00     0.136 A 
HETATM   34  N   UNL     1      -0.953   5.988 -30.451  1.00  0.00    -0.346 N 
HETATM   35  C   UNL     1       0.332   5.352 -30.273  1.00  0.00     0.157 C 
HETATM   36  C   UNL     1      -1.436   6.995 -29.661  1.00  0.00     0.111 A 
HETATM   37  C   UNL     1      -2.653   7.329 -30.196  1.00  0.00     0.136 A 
HETATM   38  N   UNL     1      -2.928   6.543 -31.283  1.00  0.00    -0.244 NA
ENDBRANCH  27  33
ENDBRANCH   1  26
TORSDOF 7
ENDMDL
MODEL 5
REMARK VINA RESULT:      -8.3      7.664     15.079
REMARK  7 active torsions:
REMARK  status: ('A' for Active; 'I' for Inactive)
REMARK    1  A    between atoms: C_3  and  C_4 
REMARK    2  A    between atoms: N_5  and  C_7 
REMARK    3  A    between atoms: N_10  and  C_11 
REMARK    4  A    between atoms: C_14  and  C_15 
REMARK       I    between atoms: C_15  and  N_16 
REMARK    5  A    between atoms: N_16  and  C_17 
REMARK    6  A    between atoms: C_17  and  C_18 
REMARK    7  A    between atoms: C_18  and  N_19 
ROOT
HETATM    1  C   UNL     1      -1.759   6.439 -31.373  1.00  0.00     0.192 C 
HETATM    2  C   UNL     1      -1.877   7.838 -30.795  1.00  0.00     0.053 C 
HETATM    3  C   UNL     1      -1.316   7.983 -29.394  1.00  0.00     0.125 C 
HETATM    4  N   UNL     1       0.068   7.475 -29.310  1.00  0.00    -0.381 N 
HETATM    5  C   UNL     1       0.322   6.138 -29.869  1.00  0.00     0.125 C 
HETATM    6  C   UNL     1      -0.326   5.920 -31.232  1.00  0.00     0.053 C 
ENDROOT
BRANCH   4   7
HETATM    7  C   UNL     1       0.700   7.768 -28.070  1.00  0.00     0.030 A 
HETATM    8  C   UNL     1       0.459   7.040 -26.890  1.00  0.00     0.030 A 
HETATM    9  C   UNL     1       1.023   7.405 -25.656  1.00  0.00     0.019 A 
HETATM   10  C   UNL     1       1.871   8.507 -25.577  1.00  0.00     0.032 A 
HETATM   11  C   UNL     1       2.185   9.211 -26.736  1.00  0.00     0.019 A 
HETATM   12  C   UNL     1       1.627   8.824 -27.963  1.00  0.00     0.030 A 
BRANCH  10  13
HETATM   13  C   UNL     1       2.372   9.009 -24.276  1.00  0.00     0.251 C 
HETATM   14  N   UNL     1       3.307   8.238 -23.625  1.00  0.00    -0.355 N 
HETATM   15  H   UNL     1       3.616   7.387 -24.087  1.00  0.00     0.162 HD
HETATM   16  O   UNL     1       1.952  10.068 -23.821  1.00  0.00    -0.268 OA
BRANCH  14  17
HETATM   17  C   UNL     1       3.684   8.396 -22.222  1.00  0.00     0.150 C 
BRANCH  17  18
HETATM   18  C   UNL     1       4.581   7.299 -21.603  1.00  0.00     0.254 C 
BRANCH  18  19
HETATM   19  N   UNL     1       6.054   7.532 -21.828  1.00  0.00    -0.066 N 
HETATM   20  H   UNL     1       6.502   7.417 -20.892  1.00  0.00     0.280 HD
HETATM   21  C   UNL     1       6.736   6.532 -22.745  1.00  0.00     0.261 C 
HETATM   22  C   UNL     1       8.237   6.841 -22.817  1.00  0.00     0.195 C 
HETATM   23  O   UNL     1       8.461   8.181 -23.269  1.00  0.00    -0.388 OA
HETATM   24  C   UNL     1       7.885   9.139 -22.374  1.00  0.00     0.195 C 
HETATM   25  C   UNL     1       6.367   8.952 -22.271  1.00  0.00     0.261 C 
ENDBRANCH  18  19
ENDBRANCH  17  18
ENDBRANCH  14  17
ENDBRANCH  10  13
ENDBRANCH   4   7
BRANCH   1  26
HETATM   26  N   UNL     1      -2.805   5.404 -30.926  1.00  0.00    -0.056 N 
HETATM   27  C   UNL     1      -2.954   4.200 -31.902  1.00  0.00     0.257 C 
HETATM   28  C   UNL     1      -3.686   3.079 -31.141  1.00  0.00     0.041 C 
HETATM   29  C   UNL     1      -5.032   3.526 -30.576  1.00  0.00     0.004 C 
HETATM   30  C   UNL     1      -4.881   4.770 -29.715  1.00  0.00     0.028 C 
HETATM   31  C   UNL     1      -4.150   5.894 -30.438  1.00  0.00     0.236 C 
HETATM   32  H   UNL     1      -2.376   4.972 -30.100  1.00  0.00     0.281 HD
BRANCH  27  33
HETATM   33  C   UNL     1      -3.640   4.496 -33.211  1.00  0.00     0.136 A 
HETATM   34  N   UNL     1      -2.992   4.926 -34.352  1.00  0.00    -0.346 N 
HETATM   35  C   UNL     1      -1.579   5.170 -34.526  1.00  0.00     0.157 C 
HETATM   36  C   UNL     1      -3.930   5.068 -35.337  1.00  0.00     0.111 A 
HETATM   37  C   UNL     1      -5.122   4.702 -34.764  1.00  0.00     0.136 A 
HETATM   38  N   UNL     1      -4.933   4.353 -33.453  1.00  0.00    -0.244 NA
ENDBRANCH  27  33
ENDBRANCH   1  26
TORSDOF 7
ENDMDL
MODEL 6
REMARK VINA RESULT:      -8.2      5.109      8.096
REMARK  7 active torsions:
REMARK  status: ('A' for Active; 'I' for Inactive)
REMARK    1  A    between atoms: C_3  and  C_4 
REMARK    2  A    between atoms: N_5  and  C_7 
REMARK    3  A    between atoms: N_10  and  C_11 
REMARK    4  A    between atoms: C_14  and  C_15 
REMARK       I    between atoms: C_15  and  N_16 
REMARK    5  A    between atoms: N_16  and  C_17 
REMARK    6  A    between atoms: C_17  and  C_18 
REMARK    7  A    between atoms: C_18  and  N_19 
ROOT
HETATM    1  C   UNL     1      -3.452   7.951 -28.372  1.00  0.00     0.192 C 
HETATM    2  C   UNL     1      -3.920   7.847 -29.812  1.00  0.00     0.053 C 
HETATM    3  C   UNL     1      -4.261   6.437 -30.256  1.00  0.00     0.125 C 
HETATM    4  N   UNL     1      -5.211   5.793 -29.327  1.00  0.00    -0.381 N 
HETATM    5  C   UNL     1      -4.887   5.855 -27.894  1.00  0.00     0.125 C 
HETATM    6  C   UNL     1      -4.430   7.236 -27.437  1.00  0.00     0.053 C 
ENDROOT
BRANCH   4   7
HETATM    7  C   UNL     1      -5.709   4.549 -29.806  1.00  0.00     0.030 A 
HETATM    8  C   UNL     1      -4.913   3.614 -30.494  1.00  0.00     0.030 A 
HETATM    9  C   UNL     1      -5.446   2.434 -31.039  1.00  0.00     0.019 A 
HETATM   10  C   UNL     1      -6.801   2.148 -30.888  1.00  0.00     0.032 A 
HETATM   11  C   UNL     1      -7.604   3.018 -30.157  1.00  0.00     0.019 A 
HETATM   12  C   UNL     1      -7.054   4.182 -29.604  1.00  0.00     0.030 A 
BRANCH  10  13
HETATM   13  C   UNL     1      -7.429   0.990 -31.566  1.00  0.00     0.251 C 
HETATM   14  N   UNL     1      -6.590   0.098 -32.192  1.00  0.00    -0.355 N 
HETATM   15  H   UNL     1      -5.591   0.272 -32.130  1.00  0.00     0.162 HD
HETATM   16  O   UNL     1      -8.650   0.858 -31.556  1.00  0.00    -0.268 OA
BRANCH  14  17
HETATM   17  C   UNL     1      -7.020  -0.911 -33.157  1.00  0.00     0.150 C 
BRANCH  17  18
HETATM   18  C   UNL     1      -6.233  -1.001 -34.486  1.00  0.00     0.254 C 
BRANCH  18  19
HETATM   19  N   UNL     1      -5.703  -2.383 -34.776  1.00  0.00    -0.066 N 
HETATM   20  H   UNL     1      -5.310  -2.335 -35.742  1.00  0.00     0.280 HD
HETATM   21  C   UNL     1      -4.563  -2.841 -33.883  1.00  0.00     0.261 C 
HETATM   22  C   UNL     1      -4.074  -4.221 -34.342  1.00  0.00     0.195 C 
HETATM   23  O   UNL     1      -5.143  -5.173 -34.329  1.00  0.00    -0.388 OA
HETATM   24  C   UNL     1      -6.194  -4.790 -35.223  1.00  0.00     0.195 C 
HETATM   25  C   UNL     1      -6.795  -3.439 -34.818  1.00  0.00     0.261 C 
ENDBRANCH  18  19
ENDBRANCH  17  18
ENDBRANCH  14  17
ENDBRANCH  10  13
ENDBRANCH   4   7
BRANCH   1  26
HETATM   26  N   UNL     1      -1.987   7.583 -28.081  1.00  0.00    -0.056 N 
HETATM   27  C   UNL     1      -1.619   7.619 -26.568  1.00  0.00     0.257 C 
HETATM   28  C   UNL     1      -0.302   6.841 -26.396  1.00  0.00     0.041 C 
HETATM   29  C   UNL     1       0.826   7.383 -27.272  1.00  0.00     0.004 C 
HETATM   30  C   UNL     1       0.408   7.444 -28.732  1.00  0.00     0.028 C 
HETATM   31  C   UNL     1      -0.900   8.201 -28.932  1.00  0.00     0.236 C 
HETATM   32  H   UNL     1      -1.944   6.581 -28.298  1.00  0.00     0.281 HD
BRANCH  27  33
HETATM   33  C   UNL     1      -1.517   8.990 -25.949  1.00  0.00     0.136 A 
HETATM   34  N   UNL     1      -2.051   9.335 -24.723  1.00  0.00    -0.346 N 
HETATM   35  C   UNL     1      -2.788   8.489 -23.812  1.00  0.00     0.157 C 
HETATM   36  C   UNL     1      -1.742  10.645 -24.486  1.00  0.00     0.111 A 
HETATM   37  C   UNL     1      -1.013  11.052 -25.574  1.00  0.00     0.136 A 
HETATM   38  N   UNL     1      -0.880  10.025 -26.471  1.00  0.00    -0.244 NA
ENDBRANCH  27  33
ENDBRANCH   1  26
TORSDOF 7
ENDMDL
MODEL 7
REMARK VINA RESULT:      -8.2      6.245     13.159
REMARK  7 active torsions:
REMARK  status: ('A' for Active; 'I' for Inactive)
REMARK    1  A    between atoms: C_3  and  C_4 
REMARK    2  A    between atoms: N_5  and  C_7 
REMARK    3  A    between atoms: N_10  and  C_11 
REMARK    4  A    between atoms: C_14  and  C_15 
REMARK       I    between atoms: C_15  and  N_16 
REMARK    5  A    between atoms: N_16  and  C_17 
REMARK    6  A    between atoms: C_17  and  C_18 
REMARK    7  A    between atoms: C_18  and  N_19 
ROOT
HETATM    1  C   UNL     1      -4.369   4.140 -33.087  1.00  0.00     0.192 C 
HETATM    2  C   UNL     1      -4.205   5.638 -33.266  1.00  0.00     0.053 C 
HETATM    3  C   UNL     1      -3.507   6.332 -32.112  1.00  0.00     0.125 C 
HETATM    4  N   UNL     1      -2.223   5.679 -31.785  1.00  0.00    -0.381 N 
HETATM    5  C   UNL     1      -2.242   4.218 -31.620  1.00  0.00     0.125 C 
HETATM    6  C   UNL     1      -3.034   3.496 -32.706  1.00  0.00     0.053 C 
ENDROOT
BRANCH   4   7
HETATM    7  C   UNL     1      -1.445   6.408 -30.844  1.00  0.00     0.030 A 
HETATM    8  C   UNL     1      -0.047   6.283 -30.738  1.00  0.00     0.030 A 
HETATM    9  C   UNL     1       0.690   6.943 -29.741  1.00  0.00     0.019 A 
HETATM   10  C   UNL     1       0.041   7.771 -28.828  1.00  0.00     0.032 A 
HETATM   11  C   UNL     1      -1.331   7.971 -28.945  1.00  0.00     0.019 A 
HETATM   12  C   UNL     1      -2.050   7.319 -29.956  1.00  0.00     0.030 A 
BRANCH  10  13
HETATM   13  C   UNL     1       0.758   8.371 -27.679  1.00  0.00     0.251 C 
HETATM   14  N   UNL     1       0.078   8.443 -26.485  1.00  0.00    -0.355 N 
HETATM   15  H   UNL     1      -0.862   8.058 -26.457  1.00  0.00     0.162 HD
HETATM   16  O   UNL     1       1.906   8.781 -27.814  1.00  0.00    -0.268 OA
BRANCH  14  17
HETATM   17  C   UNL     1       0.485   9.262 -25.345  1.00  0.00     0.150 C 
BRANCH  17  18
HETATM   18  C   UNL     1       1.300  10.541 -25.646  1.00  0.00     0.254 C 
BRANCH  18  19
HETATM   19  N   UNL     1       2.558  10.658 -24.821  1.00  0.00    -0.066 N 
HETATM   20  H   UNL     1       3.240  11.169 -25.423  1.00  0.00     0.280 HD
HETATM   21  C   UNL     1       2.424  11.478 -23.549  1.00  0.00     0.261 C 
HETATM   22  C   UNL     1       3.791  11.579 -22.859  1.00  0.00     0.195 C 
HETATM   23  O   UNL     1       4.316  10.278 -22.573  1.00  0.00    -0.388 OA
HETATM   24  C   UNL     1       4.516   9.520 -23.771  1.00  0.00     0.195 C 
HETATM   25  C   UNL     1       3.192   9.311 -24.516  1.00  0.00     0.261 C 
ENDBRANCH  18  19
ENDBRANCH  17  18
ENDBRANCH  14  17
ENDBRANCH  10  13
ENDBRANCH   4   7
BRANCH   1  26
HETATM   26  N   UNL     1      -5.527   3.662 -32.195  1.00  0.00    -0.056 N 
HETATM   27  C   UNL     1      -5.600   2.114 -32.037  1.00  0.00     0.257 C 
HETATM   28  C   UNL     1      -6.499   1.818 -30.822  1.00  0.00     0.041 C 
HETATM   29  C   UNL     1      -7.886   2.446 -30.943  1.00  0.00     0.004 C 
HETATM   30  C   UNL     1      -7.792   3.940 -31.208  1.00  0.00     0.028 C 
HETATM   31  C   UNL     1      -6.899   4.265 -32.400  1.00  0.00     0.236 C 
HETATM   32  H   UNL     1      -5.250   3.970 -31.257  1.00  0.00     0.281 HD
BRANCH  27  33
HETATM   33  C   UNL     1      -6.068   1.351 -33.250  1.00  0.00     0.136 A 
HETATM   34  N   UNL     1      -5.770   0.026 -33.502  1.00  0.00    -0.346 N 
HETATM   35  C   UNL     1      -4.981  -0.871 -32.689  1.00  0.00     0.157 C 
HETATM   36  C   UNL     1      -6.380  -0.324 -34.674  1.00  0.00     0.111 A 
HETATM   37  C   UNL     1      -7.046   0.800 -35.090  1.00  0.00     0.136 A 
HETATM   38  N   UNL     1      -6.847   1.828 -34.207  1.00  0.00    -0.244 NA
ENDBRANCH  27  33
ENDBRANCH   1  26
TORSDOF 7
ENDMDL
MODEL 8
REMARK VINA RESULT:      -8.1      1.663      2.859
REMARK  7 active torsions:
REMARK  status: ('A' for Active; 'I' for Inactive)
REMARK    1  A    between atoms: C_3  and  C_4 
REMARK    2  A    between atoms: N_5  and  C_7 
REMARK    3  A    between atoms: N_10  and  C_11 
REMARK    4  A    between atoms: C_14  and  C_15 
REMARK       I    between atoms: C_15  and  N_16 
REMARK    5  A    between atoms: N_16  and  C_17 
REMARK    6  A    between atoms: C_17  and  C_18 
REMARK    7  A    between atoms: C_18  and  N_19 
ROOT
HETATM    1  C   UNL     1      -2.501   5.101 -32.377  1.00  0.00     0.192 C 
HETATM    2  C   UNL     1      -2.899   3.964 -31.453  1.00  0.00     0.053 C 
HETATM    3  C   UNL     1      -4.365   3.583 -31.527  1.00  0.00     0.125 C 
HETATM    4  N   UNL     1      -4.786   3.325 -32.919  1.00  0.00    -0.381 N 
HETATM    5  C   UNL     1      -4.429   4.340 -33.922  1.00  0.00     0.125 C 
HETATM    6  C   UNL     1      -2.989   4.829 -33.802  1.00  0.00     0.053 C 
ENDROOT
BRANCH   4   7
HETATM    7  C   UNL     1      -6.095   2.777 -33.017  1.00  0.00     0.030 A 
HETATM    8  C   UNL     1      -6.401   1.447 -32.671  1.00  0.00     0.030 A 
HETATM    9  C   UNL     1      -7.680   0.899 -32.863  1.00  0.00     0.019 A 
HETATM   10  C   UNL     1      -8.702   1.685 -33.392  1.00  0.00     0.032 A 
HETATM   11  C   UNL     1      -8.452   3.023 -33.684  1.00  0.00     0.019 A 
HETATM   12  C   UNL     1      -7.175   3.560 -33.470  1.00  0.00     0.030 A 
BRANCH  10  13
HETATM   13  C   UNL     1     -10.022   1.110 -33.742  1.00  0.00     0.251 C 
HETATM   14  N   UNL     1     -10.678   1.656 -34.820  1.00  0.00    -0.355 N 
HETATM   15  H   UNL     1     -10.208   2.401 -35.327  1.00  0.00     0.162 HD
HETATM   16  O   UNL     1     -10.487   0.187 -33.079  1.00  0.00    -0.268 OA
BRANCH  14  17
HETATM   17  C   UNL     1     -12.091   1.446 -35.128  1.00  0.00     0.150 C 
BRANCH  17  18
HETATM   18  C   UNL     1     -12.980   2.704 -35.264  1.00  0.00     0.254 C 
BRANCH  18  19
HETATM   19  N   UNL     1     -13.723   3.052 -33.998  1.00  0.00    -0.066 N 
HETATM   20  H   UNL     1     -14.555   3.602 -34.304  1.00  0.00     0.280 HD
HETATM   21  C   UNL     1     -14.267   1.867 -33.219  1.00  0.00     0.261 C 
HETATM   22  C   UNL     1     -15.063   2.371 -32.008  1.00  0.00     0.195 C 
HETATM   23  O   UNL     1     -14.250   3.200 -31.170  1.00  0.00    -0.388 OA
HETATM   24  C   UNL     1     -13.789   4.360 -31.872  1.00  0.00     0.195 C 
HETATM   25  C   UNL     1     -12.929   3.966 -33.080  1.00  0.00     0.261 C 
ENDBRANCH  18  19
ENDBRANCH  17  18
ENDBRANCH  14  17
ENDBRANCH  10  13
ENDBRANCH   4   7
BRANCH   1  26
HETATM   26  N   UNL     1      -2.821   6.531 -31.910  1.00  0.00    -0.056 N 
HETATM   27  C   UNL     1      -1.577   7.320 -31.407  1.00  0.00     0.257 C 
HETATM   28  C   UNL     1      -1.957   8.812 -31.383  1.00  0.00     0.041 C 
HETATM   29  C   UNL     1      -3.195   9.096 -30.535  1.00  0.00     0.004 C 
HETATM   30  C   UNL     1      -4.369   8.234 -30.970  1.00  0.00     0.028 C 
HETATM   31  C   UNL     1      -4.019   6.751 -31.013  1.00  0.00     0.236 C 
HETATM   32  H   UNL     1      -3.060   7.019 -32.780  1.00  0.00     0.281 HD
BRANCH  27  33
HETATM   33  C   UNL     1      -1.018   6.888 -30.075  1.00  0.00     0.136 A 
HETATM   34  N   UNL     1       0.020   5.992 -29.917  1.00  0.00    -0.346 N 
HETATM   35  C   UNL     1       0.761   5.309 -30.953  1.00  0.00     0.157 C 
HETATM   36  C   UNL     1       0.262   5.863 -28.578  1.00  0.00     0.111 A 
HETATM   37  C   UNL     1      -0.630   6.703 -27.962  1.00  0.00     0.136 A 
HETATM   38  N   UNL     1      -1.416   7.329 -28.893  1.00  0.00    -0.244 NA
ENDBRANCH  27  33
ENDBRANCH   1  26
TORSDOF 7
ENDMDL
MODEL 9
REMARK VINA RESULT:      -8.1      6.177     13.152
REMARK  7 active torsions:
REMARK  status: ('A' for Active; 'I' for Inactive)
REMARK    1  A    between atoms: C_3  and  C_4 
REMARK    2  A    between atoms: N_5  and  C_7 
REMARK    3  A    between atoms: N_10  and  C_11 
REMARK    4  A    between atoms: C_14  and  C_15 
REMARK       I    between atoms: C_15  and  N_16 
REMARK    5  A    between atoms: N_16  and  C_17 
REMARK    6  A    between atoms: C_17  and  C_18 
REMARK    7  A    between atoms: C_18  and  N_19 
ROOT
HETATM    1  C   UNL     1      -4.185   3.872 -33.013  1.00  0.00     0.192 C 
HETATM    2  C   UNL     1      -4.801   4.889 -32.069  1.00  0.00     0.053 C 
HETATM    3  C   UNL     1      -3.899   5.303 -30.922  1.00  0.00     0.125 C 
HETATM    4  N   UNL     1      -2.575   5.742 -31.408  1.00  0.00    -0.381 N 
HETATM    5  C   UNL     1      -1.886   4.857 -32.359  1.00  0.00     0.125 C 
HETATM    6  C   UNL     1      -2.797   4.332 -33.464  1.00  0.00     0.053 C 
ENDROOT
BRANCH   4   7
HETATM    7  C   UNL     1      -1.767   6.321 -30.390  1.00  0.00     0.030 A 
HETATM    8  C   UNL     1      -0.366   6.191 -30.351  1.00  0.00     0.030 A 
HETATM    9  C   UNL     1       0.403   6.693 -29.287  1.00  0.00     0.019 A 
HETATM   10  C   UNL     1      -0.217   7.363 -28.235  1.00  0.00     0.032 A 
HETATM   11  C   UNL     1      -1.593   7.568 -28.274  1.00  0.00     0.019 A 
HETATM   12  C   UNL     1      -2.344   7.078 -29.351  1.00  0.00     0.030 A 
BRANCH  10  13
HETATM   13  C   UNL     1       0.536   7.781 -27.030  1.00  0.00     0.251 C 
HETATM   14  N   UNL     1      -0.101   8.630 -26.156  1.00  0.00    -0.355 N 
HETATM   15  H   UNL     1      -1.057   8.898 -26.375  1.00  0.00     0.162 HD
HETATM   16  O   UNL     1       1.679   7.374 -26.846  1.00  0.00    -0.268 OA
BRANCH  14  17
HETATM   17  C   UNL     1       0.564   9.387 -25.097  1.00  0.00     0.150 C 
BRANCH  17  18
HETATM   18  C   UNL     1       1.477  10.558 -25.530  1.00  0.00     0.254 C 
BRANCH  18  19
HETATM   19  N   UNL     1       2.733  10.676 -24.702  1.00  0.00    -0.066 N 
HETATM   20  H   UNL     1       3.409  11.206 -25.295  1.00  0.00     0.280 HD
HETATM   21  C   UNL     1       2.588  11.472 -23.417  1.00  0.00     0.261 C 
HETATM   22  C   UNL     1       3.953  11.578 -22.724  1.00  0.00     0.195 C 
HETATM   23  O   UNL     1       4.495  10.280 -22.460  1.00  0.00    -0.388 OA
HETATM   24  C   UNL     1       4.704   9.545 -23.671  1.00  0.00     0.195 C 
HETATM   25  C   UNL     1       3.383   9.332 -24.420  1.00  0.00     0.261 C 
ENDBRANCH  18  19
ENDBRANCH  17  18
ENDBRANCH  14  17
ENDBRANCH  10  13
ENDBRANCH   4   7
BRANCH   1  26
HETATM   26  N   UNL     1      -4.201   2.401 -32.567  1.00  0.00    -0.056 N 
HETATM   27  C   UNL     1      -5.420   1.594 -33.105  1.00  0.00     0.257 C 
HETATM   28  C   UNL     1      -5.087   0.099 -32.947  1.00  0.00     0.041 C 
HETATM   29  C   UNL     1      -4.739  -0.283 -31.511  1.00  0.00     0.004 C 
HETATM   30  C   UNL     1      -3.620   0.591 -30.965  1.00  0.00     0.028 C 
HETATM   31  C   UNL     1      -3.917   2.078 -31.117  1.00  0.00     0.236 C 
HETATM   32  H   UNL     1      -3.414   1.987 -33.080  1.00  0.00     0.281 HD
BRANCH  27  33
HETATM   33  C   UNL     1      -6.751   1.917 -32.476  1.00  0.00     0.136 A 
HETATM   34  N   UNL     1      -7.970   1.756 -33.103  1.00  0.00    -0.346 N 
HETATM   35  C   UNL     1      -8.217   1.263 -34.438  1.00  0.00     0.157 C 
HETATM   36  C   UNL     1      -8.946   2.130 -32.221  1.00  0.00     0.111 A 
HETATM   37  C   UNL     1      -8.286   2.491 -31.075  1.00  0.00     0.136 A 
HETATM   38  N   UNL     1      -6.933   2.359 -31.242  1.00  0.00    -0.244 NA
ENDBRANCH  27  33
ENDBRANCH   1  26
TORSDOF 7
ENDMDL
MODEL 10
REMARK VINA RESULT:      -8.0      8.505     16.137
REMARK  7 active torsions:
REMARK  status: ('A' for Active; 'I' for Inactive)
REMARK    1  A    between atoms: C_3  and  C_4 
REMARK    2  A    between atoms: N_5  and  C_7 
REMARK    3  A    between atoms: N_10  and  C_11 
REMARK    4  A    between atoms: C_14  and  C_15 
REMARK       I    between atoms: C_15  and  N_16 
REMARK    5  A    between atoms: N_16  and  C_17 
REMARK    6  A    between atoms: C_17  and  C_18 
REMARK    7  A    between atoms: C_18  and  N_19 
ROOT
HETATM    1  C   UNL     1      -1.602   7.125 -28.082  1.00  0.00     0.192 C 
HETATM    2  C   UNL     1      -0.733   6.352 -27.106  1.00  0.00     0.053 C 
HETATM    3  C   UNL     1       0.453   7.133 -26.573  1.00  0.00     0.125 C 
HETATM    4  N   UNL     1       0.035   8.436 -26.017  1.00  0.00    -0.381 N 
HETATM    5  C   UNL     1      -0.841   9.268 -26.854  1.00  0.00     0.125 C 
HETATM    6  C   UNL     1      -1.982   8.487 -27.498  1.00  0.00     0.053 C 
ENDROOT
BRANCH   4   7
HETATM    7  C   UNL     1       1.081   9.115 -25.332  1.00  0.00     0.030 A 
HETATM    8  C   UNL     1       2.391   8.610 -25.231  1.00  0.00     0.030 A 
HETATM    9  C   UNL     1       3.385   9.251 -24.472  1.00  0.00     0.019 A 
HETATM   10  C   UNL     1       3.093  10.439 -23.806  1.00  0.00     0.032 A 
HETATM   11  C   UNL     1       1.827  11.002 -23.937  1.00  0.00     0.019 A 
HETATM   12  C   UNL     1       0.852  10.360 -24.712  1.00  0.00     0.030 A 
BRANCH  10  13
HETATM   13  C   UNL     1       4.066  11.070 -22.883  1.00  0.00     0.251 C 
HETATM   14  N   UNL     1       5.389  11.050 -23.257  1.00  0.00    -0.355 N 
HETATM   15  H   UNL     1       5.616  10.628 -24.154  1.00  0.00     0.162 HD
HETATM   16  O   UNL     1       3.680  11.580 -21.836  1.00  0.00    -0.268 OA
BRANCH  14  17
HETATM   17  C   UNL     1       6.510  11.333 -22.365  1.00  0.00     0.150 C 
BRANCH  17  18
HETATM   18  C   UNL     1       6.911  10.229 -21.358  1.00  0.00     0.254 C 
BRANCH  18  19
HETATM   19  N   UNL     1       6.675   8.832 -21.878  1.00  0.00    -0.066 N 
HETATM   20  H   UNL     1       6.267   8.953 -22.830  1.00  0.00     0.280 HD
HETATM   21  C   UNL     1       7.926   7.990 -22.061  1.00  0.00     0.261 C 
HETATM   22  C   UNL     1       7.546   6.633 -22.667  1.00  0.00     0.195 C 
HETATM   23  O   UNL     1       6.592   5.954 -21.843  1.00  0.00    -0.388 OA
HETATM   24  C   UNL     1       5.379   6.704 -21.720  1.00  0.00     0.195 C 
HETATM   25  C   UNL     1       5.640   8.068 -21.069  1.00  0.00     0.261 C 
ENDBRANCH  18  19
ENDBRANCH  17  18
ENDBRANCH  14  17
ENDBRANCH  10  13
ENDBRANCH   4   7
BRANCH   1  26
HETATM   26  N   UNL     1      -1.109   7.225 -29.535  1.00  0.00    -0.056 N 
HETATM   27  C   UNL     1      -2.250   7.445 -30.571  1.00  0.00     0.257 C 
HETATM   28  C   UNL     1      -1.598   7.941 -31.875  1.00  0.00     0.041 C 
HETATM   29  C   UNL     1      -0.524   6.991 -32.400  1.00  0.00     0.004 C 
HETATM   30  C   UNL     1       0.522   6.700 -31.336  1.00  0.00     0.028 C 
HETATM   31  C   UNL     1      -0.096   6.217 -30.029  1.00  0.00     0.236 C 
HETATM   32  H   UNL     1      -0.610   8.121 -29.557  1.00  0.00     0.281 HD
BRANCH  27  33
HETATM   33  C   UNL     1      -3.138   6.254 -30.835  1.00  0.00     0.136 A 
HETATM   34  N   UNL     1      -4.515   6.272 -30.740  1.00  0.00    -0.346 N 
HETATM   35  C   UNL     1      -5.361   7.388 -30.386  1.00  0.00     0.157 C 
HETATM   36  C   UNL     1      -4.972   5.026 -31.069  1.00  0.00     0.111 A 
HETATM   37  C   UNL     1      -3.853   4.293 -31.370  1.00  0.00     0.136 A 
HETATM   38  N   UNL     1      -2.727   5.058 -31.221  1.00  0.00    -0.244 NA
ENDBRANCH  27  33
ENDBRANCH   1  26
TORSDOF 7
ENDMDL
