MODEL 1
REMARK VINA RESULT:     -10.1      0.000      0.000
REMARK  8 active torsions:
REMARK  status: ('A' for Active; 'I' for Inactive)
REMARK    1  A    between atoms: C_4  and  S_5 
REMARK    2  A    between atoms: S_5  and  C_6 
REMARK    3  A    between atoms: C_6  and  C_7 
REMARK       I    between atoms: C_7  and  N_8 
REMARK    4  A    between atoms: N_8  and  C_9 
REMARK    5  A    between atoms: C_10  and  O_11 
REMARK    6  A    between atoms: C_22  and  C_23 
REMARK    7  A    between atoms: C_29  and  C_30 
REMARK       I    between atoms: C_30  and  N_31 
REMARK    8  A    between atoms: N_31  and  C_32 
ROOT
HETATM    1  C   UNL     1      -2.908   0.186 -30.991  1.00  0.00     0.069 C 
HETATM    2  C   UNL     1      -3.795   1.201 -31.674  1.00  0.00     0.019 A 
HETATM    3  N   UNL     1      -3.434   2.523 -31.481  1.00  0.00    -0.353 N 
HETATM    4  C   UNL     1      -4.038   3.616 -32.076  1.00  0.00     0.088 A 
HETATM    5  C   UNL     1      -5.107   3.423 -32.884  1.00  0.00     0.069 A 
HETATM    6  C   UNL     1      -5.725   4.490 -33.608  1.00  0.00     0.099 C 
HETATM    7  N   UNL     1      -6.244   5.318 -34.235  1.00  0.00    -0.192 NA
HETATM    8  C   UNL     1      -5.655   2.012 -33.132  1.00  0.00     0.106 A 
HETATM    9  C   UNL     1      -4.860   0.893 -32.454  1.00  0.00     0.046 A 
HETATM   10  H   UNL     1      -2.481   2.694 -31.156  1.00  0.00     0.166 HD
ENDROOT
BRANCH   4  11
HETATM   11  S   UNL     1      -3.374   5.226 -31.845  1.00  0.00    -0.102 SA
BRANCH  11  12
HETATM   12  C   UNL     1      -1.770   5.078 -32.693  1.00  0.00     0.184 C 
BRANCH  12  13
HETATM   13  C   UNL     1      -1.294   6.411 -33.256  1.00  0.00     0.231 C 
HETATM   14  N   UNL     1      -1.299   7.538 -32.489  1.00  0.00    -0.324 N 
HETATM   15  H   UNL     1      -1.338   8.389 -33.046  1.00  0.00     0.169 HD
HETATM   16  O   UNL     1      -0.994   6.545 -34.448  1.00  0.00    -0.272 OA
BRANCH  14  17
HETATM   17  C   UNL     1      -1.222   7.766 -31.104  1.00  0.00     0.070 A 
HETATM   18  C   UNL     1      -2.157   8.675 -30.557  1.00  0.00     0.095 A 
HETATM   19  C   UNL     1      -2.110   8.990 -29.196  1.00  0.00     0.041 A 
HETATM   20  C   UNL     1      -1.127   8.422 -28.383  1.00  0.00     0.026 A 
HETATM   21  C   UNL     1      -0.184   7.558 -28.934  1.00  0.00     0.036 A 
HETATM   22 CL   UNL     1       1.054   6.904 -27.935  1.00  0.00    -0.084 Cl
HETATM   23  C   UNL     1      -0.219   7.235 -30.291  1.00  0.00     0.056 A 
BRANCH  18  24
HETATM   24  O   UNL     1      -3.068   9.189 -31.449  1.00  0.00    -0.354 OA
HETATM   25  C   UNL     1      -4.448   9.032 -31.137  1.00  0.00     0.210 C 
ENDBRANCH  18  24
ENDBRANCH  14  17
ENDBRANCH  12  13
ENDBRANCH  11  12
ENDBRANCH   4  11
BRANCH   8  26
HETATM   26  C   UNL     1      -7.152   1.943 -32.821  1.00  0.00    -0.044 A 
HETATM   27  C   UNL     1      -8.067   1.670 -33.854  1.00  0.00     0.008 A 
HETATM   28  C   UNL     1      -9.438   1.628 -33.596  1.00  0.00     0.001 A 
HETATM   29  C   UNL     1      -9.912   1.859 -32.308  1.00  0.00     0.000 A 
HETATM   30  C   UNL     1      -9.018   2.140 -31.277  1.00  0.00     0.001 A 
HETATM   31  C   UNL     1      -7.646   2.187 -31.532  1.00  0.00     0.008 A 
ENDBRANCH   8  26
BRANCH   9  32
HETATM   32  C   UNL     1      -5.280  -0.545 -32.628  1.00  0.00     0.255 C 
HETATM   33  N   UNL     1      -4.801  -1.160 -33.767  1.00  0.00    -0.323 N 
HETATM   34  H   UNL     1      -4.321  -0.599 -34.452  1.00  0.00     0.169 HD
HETATM   35  O   UNL     1      -6.015  -1.072 -31.799  1.00  0.00    -0.268 OA
BRANCH  33  36
HETATM   36  C   UNL     1      -4.947  -2.517 -34.134  1.00  0.00     0.035 A 
HETATM   37  C   UNL     1      -6.024  -3.020 -34.865  1.00  0.00     0.029 A 
HETATM   38  C   UNL     1      -6.110  -4.386 -35.155  1.00  0.00     0.002 A 
HETATM   39  C   UNL     1      -5.116  -5.260 -34.720  1.00  0.00     0.000 A 
HETATM   40  C   UNL     1      -4.037  -4.769 -33.992  1.00  0.00     0.002 A 
HETATM   41  C   UNL     1      -3.955  -3.406 -33.697  1.00  0.00     0.029 A 
ENDBRANCH  33  36
ENDBRANCH   9  32
TORSDOF 8
ENDMDL
MODEL 2
REMARK VINA RESULT:      -9.7      5.053      8.650
REMARK  8 active torsions:
REMARK  status: ('A' for Active; 'I' for Inactive)
REMARK    1  A    between atoms: C_4  and  S_5 
REMARK    2  A    between atoms: S_5  and  C_6 
REMARK    3  A    between atoms: C_6  and  C_7 
REMARK       I    between atoms: C_7  and  N_8 
REMARK    4  A    between atoms: N_8  and  C_9 
REMARK    5  A    between atoms: C_10  and  O_11 
REMARK    6  A    between atoms: C_22  and  C_23 
REMARK    7  A    between atoms: C_29  and  C_30 
REMARK       I    between atoms: C_30  and  N_31 
REMARK    8  A    between atoms: N_31  and  C_32 
ROOT
HETATM    1  C   UNL     1     -10.064   0.294 -32.713  1.00  0.00     0.069 C 
HETATM    2  C   UNL     1      -9.370   1.465 -32.055  1.00  0.00     0.019 A 
HETATM    3  N   UNL     1     -10.138   2.610 -31.930  1.00  0.00    -0.353 N 
HETATM    4  C   UNL     1      -9.752   3.770 -31.285  1.00  0.00     0.088 A 
HETATM    5  C   UNL     1      -8.507   3.852 -30.759  1.00  0.00     0.069 A 
HETATM    6  C   UNL     1      -8.066   4.979 -29.997  1.00  0.00     0.099 C 
HETATM    7  N   UNL     1      -7.673   5.861 -29.352  1.00  0.00    -0.192 NA
HETATM    8  C   UNL     1      -7.526   2.679 -30.885  1.00  0.00     0.106 A 
HETATM    9  C   UNL     1      -8.103   1.440 -31.575  1.00  0.00     0.046 A 
HETATM   10  H   UNL     1     -11.149   2.494 -32.019  1.00  0.00     0.166 HD
ENDROOT
BRANCH   4  11
HETATM   11  S   UNL     1     -10.892   5.091 -31.084  1.00  0.00    -0.102 SA
BRANCH  11  12
HETATM   12  C   UNL     1     -12.341   4.216 -30.414  1.00  0.00     0.184 C 
BRANCH  12  13
HETATM   13  C   UNL     1     -13.637   4.659 -31.079  1.00  0.00     0.231 C 
HETATM   14  N   UNL     1     -13.888   4.372 -32.387  1.00  0.00    -0.324 N 
HETATM   15  H   UNL     1     -14.554   5.017 -32.808  1.00  0.00     0.169 HD
HETATM   16  O   UNL     1     -14.453   5.384 -30.498  1.00  0.00    -0.272 OA
BRANCH  14  17
HETATM   17  C   UNL     1     -13.451   3.357 -33.257  1.00  0.00     0.070 A 
HETATM   18  C   UNL     1     -12.809   3.771 -34.447  1.00  0.00     0.095 A 
HETATM   19  C   UNL     1     -12.393   2.821 -35.382  1.00  0.00     0.041 A 
HETATM   20  C   UNL     1     -12.628   1.465 -35.149  1.00  0.00     0.026 A 
HETATM   21  C   UNL     1     -13.295   1.064 -33.995  1.00  0.00     0.036 A 
HETATM   22 CL   UNL     1     -13.626  -0.606 -33.742  1.00  0.00    -0.084 Cl
HETATM   23  C   UNL     1     -13.717   2.002 -33.052  1.00  0.00     0.056 A 
BRANCH  18  24
HETATM   24  O   UNL     1     -12.646   5.130 -34.584  1.00  0.00    -0.354 OA
HETATM   25  C   UNL     1     -13.170   5.735 -35.760  1.00  0.00     0.210 C 
ENDBRANCH  18  24
ENDBRANCH  14  17
ENDBRANCH  12  13
ENDBRANCH  11  12
ENDBRANCH   4  11
BRANCH   8  26
HETATM   26  C   UNL     1      -6.202   3.134 -31.501  1.00  0.00    -0.044 A 
HETATM   27  C   UNL     1      -6.178   3.633 -32.816  1.00  0.00     0.008 A 
HETATM   28  C   UNL     1      -4.977   4.030 -33.405  1.00  0.00     0.001 A 
HETATM   29  C   UNL     1      -3.786   3.932 -32.691  1.00  0.00     0.000 A 
HETATM   30  C   UNL     1      -3.792   3.432 -31.391  1.00  0.00     0.001 A 
HETATM   31  C   UNL     1      -4.992   3.030 -30.800  1.00  0.00     0.008 A 
ENDBRANCH   8  26
BRANCH   9  32
HETATM   32  C   UNL     1      -7.251   0.207 -31.751  1.00  0.00     0.255 C 
HETATM   33  N   UNL     1      -7.068  -0.194 -33.058  1.00  0.00    -0.323 N 
HETATM   34  H   UNL     1      -7.593   0.268 -33.783  1.00  0.00     0.169 HD
HETATM   35  O   UNL     1      -6.802  -0.371 -30.766  1.00  0.00    -0.268 OA
BRANCH  33  36
HETATM   36  C   UNL     1      -6.243  -1.243 -33.525  1.00  0.00     0.035 A 
HETATM   37  C   UNL     1      -4.868  -1.317 -33.299  1.00  0.00     0.029 A 
HETATM   38  C   UNL     1      -4.117  -2.373 -33.828  1.00  0.00     0.002 A 
HETATM   39  C   UNL     1      -4.737  -3.366 -34.583  1.00  0.00     0.000 A 
HETATM   40  C   UNL     1      -6.108  -3.303 -34.813  1.00  0.00     0.002 A 
HETATM   41  C   UNL     1      -6.856  -2.245 -34.291  1.00  0.00     0.029 A 
ENDBRANCH  33  36
ENDBRANCH   9  32
TORSDOF 8
ENDMDL
MODEL 3
REMARK VINA RESULT:      -9.6      1.997      4.690
REMARK  8 active torsions:
REMARK  status: ('A' for Active; 'I' for Inactive)
REMARK    1  A    between atoms: C_4  and  S_5 
REMARK    2  A    between atoms: S_5  and  C_6 
REMARK    3  A    between atoms: C_6  and  C_7 
REMARK       I    between atoms: C_7  and  N_8 
REMARK    4  A    between atoms: N_8  and  C_9 
REMARK    5  A    between atoms: C_10  and  O_11 
REMARK    6  A    between atoms: C_22  and  C_23 
REMARK    7  A    between atoms: C_29  and  C_30 
REMARK       I    between atoms: C_30  and  N_31 
REMARK    8  A    between atoms: N_31  and  C_32 
ROOT
HETATM    1  C   UNL     1      -8.138   5.583 -32.237  1.00  0.00     0.069 C 
HETATM    2  C   UNL     1      -7.139   4.449 -32.235  1.00  0.00     0.019 A 
HETATM    3  N   UNL     1      -5.817   4.828 -32.398  1.00  0.00    -0.353 N 
HETATM    4  C   UNL     1      -4.725   3.982 -32.341  1.00  0.00     0.088 A 
HETATM    5  C   UNL     1      -4.924   2.655 -32.159  1.00  0.00     0.069 A 
HETATM    6  C   UNL     1      -3.846   1.731 -31.995  1.00  0.00     0.099 C 
HETATM    7  N   UNL     1      -3.005   0.948 -31.832  1.00  0.00    -0.192 NA
HETATM    8  C   UNL     1      -6.344   2.089 -32.031  1.00  0.00     0.106 A 
HETATM    9  C   UNL     1      -7.454   3.142 -32.060  1.00  0.00     0.046 A 
HETATM   10  H   UNL     1      -5.599   5.811 -32.221  1.00  0.00     0.166 HD
ENDROOT
BRANCH   4  11
HETATM   11  S   UNL     1      -3.097   4.635 -32.423  1.00  0.00    -0.102 SA
BRANCH  11  12
HETATM   12  C   UNL     1      -3.423   6.350 -32.941  1.00  0.00     0.184 C 
BRANCH  12  13
HETATM   13  C   UNL     1      -2.149   7.079 -33.346  1.00  0.00     0.231 C 
HETATM   14  N   UNL     1      -1.479   7.868 -32.458  1.00  0.00    -0.324 N 
HETATM   15  H   UNL     1      -0.907   8.574 -32.917  1.00  0.00     0.169 HD
HETATM   16  O   UNL     1      -1.737   7.073 -34.511  1.00  0.00    -0.272 OA
BRANCH  14  17
HETATM   17  C   UNL     1      -1.386   7.883 -31.055  1.00  0.00     0.070 A 
HETATM   18  C   UNL     1      -2.166   8.847 -30.376  1.00  0.00     0.095 A 
HETATM   19  C   UNL     1      -2.087   8.955 -28.986  1.00  0.00     0.041 A 
HETATM   20  C   UNL     1      -1.224   8.124 -28.270  1.00  0.00     0.026 A 
HETATM   21  C   UNL     1      -0.429   7.202 -28.946  1.00  0.00     0.036 A 
HETATM   22 CL   UNL     1       0.670   6.217 -28.061  1.00  0.00    -0.084 Cl
HETATM   23  C   UNL     1      -0.497   7.083 -30.335  1.00  0.00     0.056 A 
BRANCH  18  24
HETATM   24  O   UNL     1      -2.966   9.627 -31.179  1.00  0.00    -0.354 OA
HETATM   25  C   UNL     1      -4.318   9.810 -30.772  1.00  0.00     0.210 C 
ENDBRANCH  18  24
ENDBRANCH  14  17
ENDBRANCH  12  13
ENDBRANCH  11  12
ENDBRANCH   4  11
BRANCH   8  26
HETATM   26  C   UNL     1      -6.577   0.959 -33.037  1.00  0.00    -0.044 A 
HETATM   27  C   UNL     1      -6.740   1.262 -34.401  1.00  0.00     0.008 A 
HETATM   28  C   UNL     1      -6.978   0.249 -35.331  1.00  0.00     0.001 A 
HETATM   29  C   UNL     1      -7.059  -1.075 -34.912  1.00  0.00     0.000 A 
HETATM   30  C   UNL     1      -6.909  -1.390 -33.563  1.00  0.00     0.001 A 
HETATM   31  C   UNL     1      -6.674  -0.379 -32.629  1.00  0.00     0.008 A 
ENDBRANCH   8  26
BRANCH   9  32
HETATM   32  C   UNL     1      -8.898   2.724 -31.927  1.00  0.00     0.255 C 
HETATM   33  N   UNL     1      -9.600   2.664 -33.114  1.00  0.00    -0.323 N 
HETATM   34  H   UNL     1      -9.160   3.008 -33.952  1.00  0.00     0.169 HD
HETATM   35  O   UNL     1      -9.367   2.492 -30.817  1.00  0.00    -0.268 OA
BRANCH  33  36
HETATM   36  C   UNL     1     -10.925   2.209 -33.303  1.00  0.00     0.035 A 
HETATM   37  C   UNL     1     -12.049   3.035 -33.262  1.00  0.00     0.029 A 
HETATM   38  C   UNL     1     -13.331   2.497 -33.424  1.00  0.00     0.002 A 
HETATM   39  C   UNL     1     -13.498   1.130 -33.633  1.00  0.00     0.000 A 
HETATM   40  C   UNL     1     -12.384   0.298 -33.678  1.00  0.00     0.002 A 
HETATM   41  C   UNL     1     -11.105   0.834 -33.509  1.00  0.00     0.029 A 
ENDBRANCH  33  36
ENDBRANCH   9  32
TORSDOF 8
ENDMDL
MODEL 4
REMARK VINA RESULT:      -9.5      1.576      2.325
REMARK  8 active torsions:
REMARK  status: ('A' for Active; 'I' for Inactive)
REMARK    1  A    between atoms: C_4  and  S_5 
REMARK    2  A    between atoms: S_5  and  C_6 
REMARK    3  A    between atoms: C_6  and  C_7 
REMARK       I    between atoms: C_7  and  N_8 
REMARK    4  A    between atoms: N_8  and  C_9 
REMARK    5  A    between atoms: C_10  and  O_11 
REMARK    6  A    between atoms: C_22  and  C_23 
REMARK    7  A    between atoms: C_29  and  C_30 
REMARK       I    between atoms: C_30  and  N_31 
REMARK    8  A    between atoms: N_31  and  C_32 
ROOT
HETATM    1  C   UNL     1      -2.829   0.143 -31.002  1.00  0.00     0.069 C 
HETATM    2  C   UNL     1      -3.628   1.245 -31.660  1.00  0.00     0.019 A 
HETATM    3  N   UNL     1      -3.136   2.524 -31.470  1.00  0.00    -0.353 N 
HETATM    4  C   UNL     1      -3.642   3.675 -32.045  1.00  0.00     0.088 A 
HETATM    5  C   UNL     1      -4.742   3.593 -32.831  1.00  0.00     0.069 A 
HETATM    6  C   UNL     1      -5.269   4.719 -33.536  1.00  0.00     0.099 C 
HETATM    7  N   UNL     1      -5.719   5.598 -34.146  1.00  0.00    -0.192 NA
HETATM    8  C   UNL     1      -5.431   2.243 -33.072  1.00  0.00     0.106 A 
HETATM    9  C   UNL     1      -4.735   1.048 -32.417  1.00  0.00     0.046 A 
HETATM   10  H   UNL     1      -2.163   2.598 -31.165  1.00  0.00     0.166 HD
ENDROOT
BRANCH   4  11
HETATM   11  S   UNL     1      -2.819   5.210 -31.823  1.00  0.00    -0.102 SA
BRANCH  11  12
HETATM   12  C   UNL     1      -3.765   5.928 -30.443  1.00  0.00     0.184 C 
BRANCH  12  13
HETATM   13  C   UNL     1      -3.821   7.448 -30.515  1.00  0.00     0.231 C 
HETATM   14  N   UNL     1      -3.297   8.218 -29.519  1.00  0.00    -0.324 N 
HETATM   15  H   UNL     1      -3.716   9.144 -29.480  1.00  0.00     0.169 HD
HETATM   16  O   UNL     1      -4.434   8.036 -31.414  1.00  0.00    -0.272 OA
BRANCH  14  17
HETATM   17  C   UNL     1      -2.281   8.011 -28.570  1.00  0.00     0.070 A 
HETATM   18  C   UNL     1      -2.685   7.551 -27.295  1.00  0.00     0.095 A 
HETATM   19  C   UNL     1      -1.737   7.371 -26.285  1.00  0.00     0.041 A 
HETATM   20  C   UNL     1      -0.394   7.666 -26.529  1.00  0.00     0.026 A 
HETATM   21  C   UNL     1      -0.006   8.155 -27.774  1.00  0.00     0.036 A 
HETATM   22 CL   UNL     1       1.643   8.563 -28.049  1.00  0.00    -0.084 Cl
HETATM   23  C   UNL     1      -0.942   8.340 -28.792  1.00  0.00     0.056 A 
BRANCH  18  24
HETATM   24  O   UNL     1      -4.032   7.312 -27.157  1.00  0.00    -0.354 OA
HETATM   25  C   UNL     1      -4.754   8.142 -26.255  1.00  0.00     0.210 C 
ENDBRANCH  18  24
ENDBRANCH  14  17
ENDBRANCH  12  13
ENDBRANCH  11  12
ENDBRANCH   4  11
BRANCH   8  26
HETATM   26  C   UNL     1      -6.921   2.319 -32.728  1.00  0.00    -0.044 A 
HETATM   27  C   UNL     1      -7.319   2.541 -31.398  1.00  0.00     0.008 A 
HETATM   28  C   UNL     1      -8.673   2.588 -31.059  1.00  0.00     0.001 A 
HETATM   29  C   UNL     1      -9.642   2.411 -32.041  1.00  0.00     0.000 A 
HETATM   30  C   UNL     1      -9.263   2.181 -33.362  1.00  0.00     0.001 A 
HETATM   31  C   UNL     1      -7.910   2.130 -33.704  1.00  0.00     0.008 A 
ENDBRANCH   8  26
BRANCH   9  32
HETATM   32  C   UNL     1      -5.297  -0.342 -32.588  1.00  0.00     0.255 C 
HETATM   33  N   UNL     1      -4.915  -0.988 -33.745  1.00  0.00    -0.323 N 
HETATM   34  H   UNL     1      -4.402  -0.470 -34.441  1.00  0.00     0.169 HD
HETATM   35  O   UNL     1      -6.055  -0.803 -31.740  1.00  0.00    -0.268 OA
BRANCH  33  36
HETATM   36  C   UNL     1      -5.202  -2.322 -34.117  1.00  0.00     0.035 A 
HETATM   37  C   UNL     1      -4.298  -3.379 -34.001  1.00  0.00     0.029 A 
HETATM   38  C   UNL     1      -4.650  -4.664 -34.427  1.00  0.00     0.002 A 
HETATM   39  C   UNL     1      -5.912  -4.904 -34.967  1.00  0.00     0.000 A 
HETATM   40  C   UNL     1      -6.821  -3.858 -35.085  1.00  0.00     0.002 A 
HETATM   41  C   UNL     1      -6.466  -2.573 -34.666  1.00  0.00     0.029 A 
ENDBRANCH  33  36
ENDBRANCH   9  32
TORSDOF 8
ENDMDL
MODEL 5
REMARK VINA RESULT:      -9.2      1.912      2.785
REMARK  8 active torsions:
REMARK  status: ('A' for Active; 'I' for Inactive)
REMARK    1  A    between atoms: C_4  and  S_5 
REMARK    2  A    between atoms: S_5  and  C_6 
REMARK    3  A    between atoms: C_6  and  C_7 
REMARK       I    between atoms: C_7  and  N_8 
REMARK    4  A    between atoms: N_8  and  C_9 
REMARK    5  A    between atoms: C_10  and  O_11 
REMARK    6  A    between atoms: C_22  and  C_23 
REMARK    7  A    between atoms: C_29  and  C_30 
REMARK       I    between atoms: C_30  and  N_31 
REMARK    8  A    between atoms: N_31  and  C_32 
ROOT
HETATM    1  C   UNL     1      -4.323   0.838 -31.948  1.00  0.00     0.069 C 
HETATM    2  C   UNL     1      -5.533   1.695 -32.239  1.00  0.00     0.019 A 
HETATM    3  N   UNL     1      -5.694   2.790 -31.407  1.00  0.00    -0.353 N 
HETATM    4  C   UNL     1      -6.669   3.761 -31.536  1.00  0.00     0.088 A 
HETATM    5  C   UNL     1      -7.595   3.644 -32.517  1.00  0.00     0.069 A 
HETATM    6  C   UNL     1      -8.575   4.652 -32.774  1.00  0.00     0.099 C 
HETATM    7  N   UNL     1      -9.373   5.454 -33.036  1.00  0.00    -0.192 NA
HETATM    8  C   UNL     1      -7.574   2.442 -33.471  1.00  0.00     0.106 A 
HETATM    9  C   UNL     1      -6.411   1.473 -33.248  1.00  0.00     0.046 A 
HETATM   10  H   UNL     1      -4.872   3.086 -30.878  1.00  0.00     0.166 HD
ENDROOT
BRANCH   4  11
HETATM   11  S   UNL     1      -6.658   5.169 -30.486  1.00  0.00    -0.102 SA
BRANCH  11  12
HETATM   12  C   UNL     1      -4.924   5.709 -30.628  1.00  0.00     0.184 C 
BRANCH  12  13
HETATM   13  C   UNL     1      -4.670   6.493 -31.907  1.00  0.00     0.231 C 
HETATM   14  N   UNL     1      -3.457   7.066 -32.150  1.00  0.00    -0.324 N 
HETATM   15  H   UNL     1      -3.517   7.847 -32.799  1.00  0.00     0.169 HD
HETATM   16  O   UNL     1      -5.575   6.734 -32.715  1.00  0.00    -0.272 OA
BRANCH  14  17
HETATM   17  C   UNL     1      -2.149   6.778 -31.724  1.00  0.00     0.070 A 
HETATM   18  C   UNL     1      -1.487   5.713 -32.378  1.00  0.00     0.095 A 
HETATM   19  C   UNL     1      -0.203   5.337 -31.975  1.00  0.00     0.041 A 
HETATM   20  C   UNL     1       0.416   6.000 -30.914  1.00  0.00     0.026 A 
HETATM   21  C   UNL     1      -0.254   7.022 -30.248  1.00  0.00     0.036 A 
HETATM   22 CL   UNL     1       0.497   7.799 -28.909  1.00  0.00    -0.084 Cl
HETATM   23  C   UNL     1      -1.537   7.408 -30.639  1.00  0.00     0.056 A 
BRANCH  18  24
HETATM   24  O   UNL     1      -2.195   5.117 -33.395  1.00  0.00    -0.354 OA
HETATM   25  C   UNL     1      -1.648   5.198 -34.706  1.00  0.00     0.210 C 
ENDBRANCH  18  24
ENDBRANCH  14  17
ENDBRANCH  12  13
ENDBRANCH  11  12
ENDBRANCH   4  11
BRANCH   8  26
HETATM   26  C   UNL     1      -8.933   1.738 -33.495  1.00  0.00    -0.044 A 
HETATM   27  C   UNL     1      -9.945   2.202 -34.354  1.00  0.00     0.008 A 
HETATM   28  C   UNL     1     -11.199   1.589 -34.371  1.00  0.00     0.001 A 
HETATM   29  C   UNL     1     -11.458   0.509 -33.532  1.00  0.00     0.000 A 
HETATM   30  C   UNL     1     -10.468   0.044 -32.670  1.00  0.00     0.001 A 
HETATM   31  C   UNL     1      -9.214   0.657 -32.646  1.00  0.00     0.008 A 
ENDBRANCH   8  26
BRANCH   9  32
HETATM   32  C   UNL     1      -6.261   0.256 -34.127  1.00  0.00     0.255 C 
HETATM   33  N   UNL     1      -5.909  -0.902 -33.465  1.00  0.00    -0.323 N 
HETATM   34  H   UNL     1      -5.663  -0.845 -32.490  1.00  0.00     0.169 HD
HETATM   35  O   UNL     1      -6.426   0.353 -35.339  1.00  0.00    -0.268 OA
BRANCH  33  36
HETATM   36  C   UNL     1      -5.800  -2.202 -34.011  1.00  0.00     0.035 A 
HETATM   37  C   UNL     1      -6.868  -2.912 -34.562  1.00  0.00     0.029 A 
HETATM   38  C   UNL     1      -6.681  -4.210 -35.048  1.00  0.00     0.002 A 
HETATM   39  C   UNL     1      -5.423  -4.807 -34.993  1.00  0.00     0.000 A 
HETATM   40  C   UNL     1      -4.351  -4.107 -34.448  1.00  0.00     0.002 A 
HETATM   41  C   UNL     1      -4.540  -2.814 -33.956  1.00  0.00     0.029 A 
ENDBRANCH  33  36
ENDBRANCH   9  32
TORSDOF 8
ENDMDL
MODEL 6
REMARK VINA RESULT:      -9.1      2.917      8.846
REMARK  8 active torsions:
REMARK  status: ('A' for Active; 'I' for Inactive)
REMARK    1  A    between atoms: C_4  and  S_5 
REMARK    2  A    between atoms: S_5  and  C_6 
REMARK    3  A    between atoms: C_6  and  C_7 
REMARK       I    between atoms: C_7  and  N_8 
REMARK    4  A    between atoms: N_8  and  C_9 
REMARK    5  A    between atoms: C_10  and  O_11 
REMARK    6  A    between atoms: C_22  and  C_23 
REMARK    7  A    between atoms: C_29  and  C_30 
REMARK       I    between atoms: C_30  and  N_31 
REMARK    8  A    between atoms: N_31  and  C_32 
ROOT
HETATM    1  C   UNL     1      -3.843   4.733 -34.652  1.00  0.00     0.069 C 
HETATM    2  C   UNL     1      -4.862   4.449 -33.572  1.00  0.00     0.019 A 
HETATM    3  N   UNL     1      -6.149   4.212 -34.022  1.00  0.00    -0.353 N 
HETATM    4  C   UNL     1      -7.222   3.844 -33.233  1.00  0.00     0.088 A 
HETATM    5  C   UNL     1      -7.054   3.742 -31.893  1.00  0.00     0.069 A 
HETATM    6  C   UNL     1      -8.088   3.277 -31.022  1.00  0.00     0.099 C 
HETATM    7  N   UNL     1      -8.887   2.882 -30.278  1.00  0.00    -0.192 NA
HETATM    8  C   UNL     1      -5.694   4.044 -31.251  1.00  0.00     0.106 A 
HETATM    9  C   UNL     1      -4.583   4.388 -32.247  1.00  0.00     0.046 A 
HETATM   10  H   UNL     1      -6.249   3.968 -35.010  1.00  0.00     0.166 HD
ENDROOT
BRANCH   4  11
HETATM   11  S   UNL     1      -8.763   3.436 -33.971  1.00  0.00    -0.102 SA
BRANCH  11  12
HETATM   12  C   UNL     1      -8.457   1.728 -34.523  1.00  0.00     0.184 C 
BRANCH  12  13
HETATM   13  C   UNL     1      -8.955   0.702 -33.514  1.00  0.00     0.231 C 
HETATM   14  N   UNL     1      -8.157  -0.326 -33.108  1.00  0.00    -0.324 N 
HETATM   15  H   UNL     1      -8.691  -1.122 -32.765  1.00  0.00     0.169 HD
HETATM   16  O   UNL     1     -10.124   0.696 -33.114  1.00  0.00    -0.272 OA
BRANCH  14  17
HETATM   17  C   UNL     1      -6.764  -0.498 -33.031  1.00  0.00     0.070 A 
HETATM   18  C   UNL     1      -6.218  -1.594 -33.738  1.00  0.00     0.095 A 
HETATM   19  C   UNL     1      -4.848  -1.858 -33.667  1.00  0.00     0.041 A 
HETATM   20  C   UNL     1      -4.023  -1.050 -32.882  1.00  0.00     0.026 A 
HETATM   21  C   UNL     1      -4.571   0.005 -32.156  1.00  0.00     0.036 A 
HETATM   22 CL   UNL     1      -3.554   0.963 -31.152  1.00  0.00    -0.084 Cl
HETATM   23  C   UNL     1      -5.938   0.279 -32.218  1.00  0.00     0.056 A 
BRANCH  18  24
HETATM   24  O   UNL     1      -7.122  -2.335 -34.463  1.00  0.00    -0.354 OA
HETATM   25  C   UNL     1      -6.722  -3.640 -34.866  1.00  0.00     0.210 C 
ENDBRANCH  18  24
ENDBRANCH  14  17
ENDBRANCH  12  13
ENDBRANCH  11  12
ENDBRANCH   4  11
BRANCH   8  26
HETATM   26  C   UNL     1      -5.832   5.086 -30.138  1.00  0.00    -0.044 A 
HETATM   27  C   UNL     1      -6.263   6.387 -30.450  1.00  0.00     0.008 A 
HETATM   28  C   UNL     1      -6.371   7.359 -29.454  1.00  0.00     0.001 A 
HETATM   29  C   UNL     1      -6.048   7.044 -28.137  1.00  0.00     0.000 A 
HETATM   30  C   UNL     1      -5.610   5.762 -27.815  1.00  0.00     0.001 A 
HETATM   31  C   UNL     1      -5.498   4.788 -28.809  1.00  0.00     0.008 A 
ENDBRANCH   8  26
BRANCH   9  32
HETATM   32  C   UNL     1      -3.191   4.690 -31.751  1.00  0.00     0.255 C 
HETATM   33  N   UNL     1      -2.981   5.997 -31.361  1.00  0.00    -0.323 N 
HETATM   34  H   UNL     1      -3.704   6.675 -31.537  1.00  0.00     0.169 HD
HETATM   35  O   UNL     1      -2.339   3.806 -31.743  1.00  0.00    -0.268 OA
BRANCH  33  36
HETATM   36  C   UNL     1      -1.818   6.537 -30.765  1.00  0.00     0.035 A 
HETATM   37  C   UNL     1      -0.558   6.537 -31.367  1.00  0.00     0.029 A 
HETATM   38  C   UNL     1       0.550   7.060 -30.692  1.00  0.00     0.002 A 
HETATM   39  C   UNL     1       0.407   7.592 -29.412  1.00  0.00     0.000 A 
HETATM   40  C   UNL     1      -0.844   7.599 -28.805  1.00  0.00     0.002 A 
HETATM   41  C   UNL     1      -1.949   7.070 -29.476  1.00  0.00     0.029 A 
ENDBRANCH  33  36
ENDBRANCH   9  32
TORSDOF 8
ENDMDL
MODEL 7
REMARK VINA RESULT:      -9.1      4.946      8.758
REMARK  8 active torsions:
REMARK  status: ('A' for Active; 'I' for Inactive)
REMARK    1  A    between atoms: C_4  and  S_5 
REMARK    2  A    between atoms: S_5  and  C_6 
REMARK    3  A    between atoms: C_6  and  C_7 
REMARK       I    between atoms: C_7  and  N_8 
REMARK    4  A    between atoms: N_8  and  C_9 
REMARK    5  A    between atoms: C_10  and  O_11 
REMARK    6  A    between atoms: C_22  and  C_23 
REMARK    7  A    between atoms: C_29  and  C_30 
REMARK       I    between atoms: C_30  and  N_31 
REMARK    8  A    between atoms: N_31  and  C_32 
ROOT
HETATM    1  C   UNL     1      -9.839   1.583 -34.134  1.00  0.00     0.069 C 
HETATM    2  C   UNL     1      -8.902   2.296 -33.186  1.00  0.00     0.019 A 
HETATM    3  N   UNL     1      -9.476   3.315 -32.445  1.00  0.00    -0.353 N 
HETATM    4  C   UNL     1      -8.844   4.044 -31.456  1.00  0.00     0.088 A 
HETATM    5  C   UNL     1      -7.538   3.805 -31.189  1.00  0.00     0.069 A 
HETATM    6  C   UNL     1      -6.840   4.449 -30.121  1.00  0.00     0.099 C 
HETATM    7  N   UNL     1      -6.240   4.928 -29.250  1.00  0.00    -0.192 NA
HETATM    8  C   UNL     1      -6.759   2.748 -31.983  1.00  0.00     0.106 A 
HETATM    9  C   UNL     1      -7.596   1.981 -33.011  1.00  0.00     0.046 A 
HETATM   10  H   UNL     1     -10.496   3.315 -32.382  1.00  0.00     0.166 HD
ENDROOT
BRANCH   4  11
HETATM   11  S   UNL     1      -9.748   5.210 -30.503  1.00  0.00    -0.102 SA
BRANCH  11  12
HETATM   12  C   UNL     1     -11.457   4.638 -30.761  1.00  0.00     0.184 C 
BRANCH  12  13
HETATM   13  C   UNL     1     -12.244   5.575 -31.668  1.00  0.00     0.231 C 
HETATM   14  N   UNL     1     -13.092   5.084 -32.616  1.00  0.00    -0.324 N 
HETATM   15  H   UNL     1     -13.248   5.741 -33.378  1.00  0.00     0.169 HD
HETATM   16  O   UNL     1     -12.063   6.797 -31.656  1.00  0.00    -0.272 OA
BRANCH  14  17
HETATM   17  C   UNL     1     -13.818   3.887 -32.739  1.00  0.00     0.070 A 
HETATM   18  C   UNL     1     -15.086   3.845 -32.116  1.00  0.00     0.095 A 
HETATM   19  C   UNL     1     -15.844   2.672 -32.153  1.00  0.00     0.041 A 
HETATM   20  C   UNL     1     -15.339   1.536 -32.788  1.00  0.00     0.026 A 
HETATM   21  C   UNL     1     -14.073   1.569 -33.367  1.00  0.00     0.036 A 
HETATM   22 CL   UNL     1     -13.438   0.149 -34.102  1.00  0.00    -0.084 Cl
HETATM   23  C   UNL     1     -13.305   2.734 -33.337  1.00  0.00     0.056 A 
BRANCH  18  24
HETATM   24  O   UNL     1     -15.478   5.013 -31.503  1.00  0.00    -0.354 OA
HETATM   25  C   UNL     1     -16.629   5.669 -32.023  1.00  0.00     0.210 C 
ENDBRANCH  18  24
ENDBRANCH  14  17
ENDBRANCH  12  13
ENDBRANCH  11  12
ENDBRANCH   4  11
BRANCH   8  26
HETATM   26  C   UNL     1      -5.485   3.342 -32.586  1.00  0.00    -0.044 A 
HETATM   27  C   UNL     1      -4.228   2.913 -32.123  1.00  0.00     0.008 A 
HETATM   28  C   UNL     1      -3.054   3.462 -32.642  1.00  0.00     0.001 A 
HETATM   29  C   UNL     1      -3.120   4.444 -33.626  1.00  0.00     0.000 A 
HETATM   30  C   UNL     1      -4.358   4.886 -34.087  1.00  0.00     0.001 A 
HETATM   31  C   UNL     1      -5.534   4.342 -33.568  1.00  0.00     0.008 A 
ENDBRANCH   8  26
BRANCH   9  32
HETATM   32  C   UNL     1      -6.959   0.900 -33.849  1.00  0.00     0.255 C 
HETATM   33  N   UNL     1      -6.724  -0.289 -33.189  1.00  0.00    -0.323 N 
HETATM   34  H   UNL     1      -6.872  -0.325 -32.193  1.00  0.00     0.169 HD
HETATM   35  O   UNL     1      -6.669   1.125 -35.020  1.00  0.00    -0.268 OA
BRANCH  33  36
HETATM   36  C   UNL     1      -6.238  -1.495 -33.743  1.00  0.00     0.035 A 
HETATM   37  C   UNL     1      -7.035  -2.428 -34.409  1.00  0.00     0.029 A 
HETATM   38  C   UNL     1      -6.480  -3.616 -34.896  1.00  0.00     0.002 A 
HETATM   39  C   UNL     1      -5.123  -3.879 -34.726  1.00  0.00     0.000 A 
HETATM   40  C   UNL     1      -4.319  -2.955 -34.067  1.00  0.00     0.002 A 
HETATM   41  C   UNL     1      -4.875  -1.772 -33.573  1.00  0.00     0.029 A 
ENDBRANCH  33  36
ENDBRANCH   9  32
TORSDOF 8
ENDMDL
MODEL 8
REMARK VINA RESULT:      -9.1      2.795      3.914
REMARK  8 active torsions:
REMARK  status: ('A' for Active; 'I' for Inactive)
REMARK    1  A    between atoms: C_4  and  S_5 
REMARK    2  A    between atoms: S_5  and  C_6 
REMARK    3  A    between atoms: C_6  and  C_7 
REMARK       I    between atoms: C_7  and  N_8 
REMARK    4  A    between atoms: N_8  and  C_9 
REMARK    5  A    between atoms: C_10  and  O_11 
REMARK    6  A    between atoms: C_22  and  C_23 
REMARK    7  A    between atoms: C_29  and  C_30 
REMARK       I    between atoms: C_30  and  N_31 
REMARK    8  A    between atoms: N_31  and  C_32 
ROOT
HETATM    1  C   UNL     1      -4.704   0.993 -30.979  1.00  0.00     0.069 C 
HETATM    2  C   UNL     1      -5.832   1.924 -31.362  1.00  0.00     0.019 A 
HETATM    3  N   UNL     1      -6.123   2.910 -30.435  1.00  0.00    -0.353 N 
HETATM    4  C   UNL     1      -7.046   3.925 -30.604  1.00  0.00     0.088 A 
HETATM    5  C   UNL     1      -7.785   3.966 -31.738  1.00  0.00     0.069 A 
HETATM    6  C   UNL     1      -8.691   5.033 -32.027  1.00  0.00     0.099 C 
HETATM    7  N   UNL     1      -9.419   5.890 -32.317  1.00  0.00    -0.192 NA
HETATM    8  C   UNL     1      -7.613   2.893 -32.822  1.00  0.00     0.106 A 
HETATM    9  C   UNL     1      -6.521   1.862 -32.528  1.00  0.00     0.046 A 
HETATM   10  H   UNL     1      -5.403   3.107 -29.737  1.00  0.00     0.166 HD
ENDROOT
BRANCH   4  11
HETATM   11  S   UNL     1      -7.201   5.189 -29.394  1.00  0.00    -0.102 SA
BRANCH  11  12
HETATM   12  C   UNL     1      -5.487   5.325 -28.796  1.00  0.00     0.184 C 
BRANCH  12  13
HETATM   13  C   UNL     1      -4.850   6.655 -29.178  1.00  0.00     0.231 C 
HETATM   14  N   UNL     1      -3.867   6.716 -30.119  1.00  0.00    -0.324 N 
HETATM   15  H   UNL     1      -3.276   7.539 -30.014  1.00  0.00     0.169 HD
HETATM   16  O   UNL     1      -5.118   7.702 -28.577  1.00  0.00    -0.272 OA
BRANCH  14  17
HETATM   17  C   UNL     1      -3.527   5.908 -31.218  1.00  0.00     0.070 A 
HETATM   18  C   UNL     1      -2.185   5.467 -31.293  1.00  0.00     0.095 A 
HETATM   19  C   UNL     1      -1.762   4.702 -32.382  1.00  0.00     0.041 A 
HETATM   20  C   UNL     1      -2.658   4.391 -33.406  1.00  0.00     0.026 A 
HETATM   21  C   UNL     1      -3.968   4.859 -33.348  1.00  0.00     0.036 A 
HETATM   22 CL   UNL     1      -5.052   4.514 -34.639  1.00  0.00    -0.084 Cl
HETATM   23  C   UNL     1      -4.405   5.625 -32.266  1.00  0.00     0.056 A 
BRANCH  18  24
HETATM   24  O   UNL     1      -1.383   5.847 -30.242  1.00  0.00    -0.354 OA
HETATM   25  C   UNL     1      -0.112   5.216 -30.130  1.00  0.00     0.210 C 
ENDBRANCH  18  24
ENDBRANCH  14  17
ENDBRANCH  12  13
ENDBRANCH  11  12
ENDBRANCH   4  11
BRANCH   8  26
HETATM   26  C   UNL     1      -8.955   2.247 -33.172  1.00  0.00    -0.044 A 
HETATM   27  C   UNL     1      -9.392   1.115 -32.460  1.00  0.00     0.008 A 
HETATM   28  C   UNL     1     -10.601   0.496 -32.781  1.00  0.00     0.001 A 
HETATM   29  C   UNL     1     -11.386   0.997 -33.815  1.00  0.00     0.000 A 
HETATM   30  C   UNL     1     -10.963   2.111 -34.535  1.00  0.00     0.001 A 
HETATM   31  C   UNL     1      -9.752   2.732 -34.219  1.00  0.00     0.008 A 
ENDBRANCH   8  26
BRANCH   9  32
HETATM   32  C   UNL     1      -6.234   0.761 -33.518  1.00  0.00     0.255 C 
HETATM   33  N   UNL     1      -6.108  -0.499 -32.970  1.00  0.00    -0.323 N 
HETATM   34  H   UNL     1      -6.093  -0.589 -31.967  1.00  0.00     0.169 HD
HETATM   35  O   UNL     1      -6.108   1.027 -34.709  1.00  0.00    -0.268 OA
BRANCH  33  36
HETATM   36  C   UNL     1      -5.943  -1.722 -33.660  1.00  0.00     0.035 A 
HETATM   37  C   UNL     1      -6.989  -2.438 -34.245  1.00  0.00     0.029 A 
HETATM   38  C   UNL     1      -6.744  -3.661 -34.880  1.00  0.00     0.002 A 
HETATM   39  C   UNL     1      -5.451  -4.175 -34.938  1.00  0.00     0.000 A 
HETATM   40  C   UNL     1      -4.401  -3.468 -34.361  1.00  0.00     0.002 A 
HETATM   41  C   UNL     1      -4.647  -2.251 -33.721  1.00  0.00     0.029 A 
ENDBRANCH  33  36
ENDBRANCH   9  32
TORSDOF 8
ENDMDL
MODEL 9
REMARK VINA RESULT:      -9.0      3.482      8.956
REMARK  8 active torsions:
REMARK  status: ('A' for Active; 'I' for Inactive)
REMARK    1  A    between atoms: C_4  and  S_5 
REMARK    2  A    between atoms: S_5  and  C_6 
REMARK    3  A    between atoms: C_6  and  C_7 
REMARK       I    between atoms: C_7  and  N_8 
REMARK    4  A    between atoms: N_8  and  C_9 
REMARK    5  A    between atoms: C_10  and  O_11 
REMARK    6  A    between atoms: C_22  and  C_23 
REMARK    7  A    between atoms: C_29  and  C_30 
REMARK       I    between atoms: C_30  and  N_31 
REMARK    8  A    between atoms: N_31  and  C_32 
ROOT
HETATM    1  C   UNL     1      -3.675   4.758 -34.407  1.00  0.00     0.069 C 
HETATM    2  C   UNL     1      -4.758   4.581 -33.369  1.00  0.00     0.019 A 
HETATM    3  N   UNL     1      -6.036   4.411 -33.873  1.00  0.00    -0.353 N 
HETATM    4  C   UNL     1      -7.167   4.143 -33.124  1.00  0.00     0.088 A 
HETATM    5  C   UNL     1      -7.069   4.082 -31.775  1.00  0.00     0.069 A 
HETATM    6  C   UNL     1      -8.170   3.718 -30.940  1.00  0.00     0.099 C 
HETATM    7  N   UNL     1      -9.028   3.404 -30.223  1.00  0.00    -0.192 NA
HETATM    8  C   UNL     1      -5.722   4.318 -31.078  1.00  0.00     0.106 A 
HETATM    9  C   UNL     1      -4.546   4.552 -32.030  1.00  0.00     0.046 A 
HETATM   10  H   UNL     1      -6.107   4.138 -34.855  1.00  0.00     0.166 HD
ENDROOT
BRANCH   4  11
HETATM   11  S   UNL     1      -8.696   3.809 -33.922  1.00  0.00    -0.102 SA
BRANCH  11  12
HETATM   12  C   UNL     1      -8.517   2.041 -34.317  1.00  0.00     0.184 C 
BRANCH  12  13
HETATM   13  C   UNL     1      -9.187   1.151 -33.280  1.00  0.00     0.231 C 
HETATM   14  N   UNL     1      -8.696  -0.089 -32.997  1.00  0.00    -0.324 N 
HETATM   15  H   UNL     1      -9.403  -0.710 -32.610  1.00  0.00     0.169 HD
HETATM   16  O   UNL     1     -10.254   1.468 -32.741  1.00  0.00    -0.272 OA
BRANCH  14  17
HETATM   17  C   UNL     1      -7.419  -0.669 -33.093  1.00  0.00     0.070 A 
HETATM   18  C   UNL     1      -6.475  -0.295 -32.108  1.00  0.00     0.095 A 
HETATM   19  C   UNL     1      -5.171  -0.792 -32.167  1.00  0.00     0.041 A 
HETATM   20  C   UNL     1      -4.796  -1.641 -33.210  1.00  0.00     0.026 A 
HETATM   21  C   UNL     1      -5.717  -1.976 -34.199  1.00  0.00     0.036 A 
HETATM   22 CL   UNL     1      -5.231  -2.982 -35.507  1.00  0.00    -0.084 Cl
HETATM   23  C   UNL     1      -7.023  -1.487 -34.152  1.00  0.00     0.056 A 
BRANCH  18  24
HETATM   24  O   UNL     1      -6.945   0.561 -31.139  1.00  0.00    -0.354 OA
HETATM   25  C   UNL     1      -6.115   0.780 -30.005  1.00  0.00     0.210 C 
ENDBRANCH  18  24
ENDBRANCH  14  17
ENDBRANCH  12  13
ENDBRANCH  11  12
ENDBRANCH   4  11
BRANCH   8  26
HETATM   26  C   UNL     1      -5.842   5.408 -30.010  1.00  0.00    -0.044 A 
HETATM   27  C   UNL     1      -6.163   6.724 -30.389  1.00  0.00     0.008 A 
HETATM   28  C   UNL     1      -6.251   7.737 -29.432  1.00  0.00     0.001 A 
HETATM   29  C   UNL     1      -6.019   7.450 -28.091  1.00  0.00     0.000 A 
HETATM   30  C   UNL     1      -5.691   6.154 -27.702  1.00  0.00     0.001 A 
HETATM   31  C   UNL     1      -5.598   5.138 -28.656  1.00  0.00     0.008 A 
ENDBRANCH   8  26
BRANCH   9  32
HETATM   32  C   UNL     1      -3.161   4.781 -31.478  1.00  0.00     0.255 C 
HETATM   33  N   UNL     1      -2.856   6.097 -31.196  1.00  0.00    -0.323 N 
HETATM   34  H   UNL     1      -3.505   6.814 -31.478  1.00  0.00     0.169 HD
HETATM   35  O   UNL     1      -2.395   3.834 -31.336  1.00  0.00    -0.268 OA
BRANCH  33  36
HETATM   36  C   UNL     1      -1.684   6.592 -30.581  1.00  0.00     0.035 A 
HETATM   37  C   UNL     1      -0.432   6.628 -31.197  1.00  0.00     0.029 A 
HETATM   38  C   UNL     1       0.688   7.101 -30.503  1.00  0.00     0.002 A 
HETATM   39  C   UNL     1       0.563   7.545 -29.189  1.00  0.00     0.000 A 
HETATM   40  C   UNL     1      -0.680   7.515 -28.565  1.00  0.00     0.002 A 
HETATM   41  C   UNL     1      -1.796   7.037 -29.256  1.00  0.00     0.029 A 
ENDBRANCH  33  36
ENDBRANCH   9  32
TORSDOF 8
ENDMDL
MODEL 10
REMARK VINA RESULT:      -9.0      3.243     10.129
REMARK  8 active torsions:
REMARK  status: ('A' for Active; 'I' for Inactive)
REMARK    1  A    between atoms: C_4  and  S_5 
REMARK    2  A    between atoms: S_5  and  C_6 
REMARK    3  A    between atoms: C_6  and  C_7 
REMARK       I    between atoms: C_7  and  N_8 
REMARK    4  A    between atoms: N_8  and  C_9 
REMARK    5  A    between atoms: C_10  and  O_11 
REMARK    6  A    between atoms: C_22  and  C_23 
REMARK    7  A    between atoms: C_29  and  C_30 
REMARK       I    between atoms: C_30  and  N_31 
REMARK    8  A    between atoms: N_31  and  C_32 
ROOT
HETATM    1  C   UNL     1      -6.053   5.257 -28.578  1.00  0.00     0.069 C 
HETATM    2  C   UNL     1      -5.261   5.323 -29.863  1.00  0.00     0.019 A 
HETATM    3  N   UNL     1      -5.587   4.364 -30.806  1.00  0.00    -0.353 N 
HETATM    4  C   UNL     1      -5.065   4.281 -32.084  1.00  0.00     0.088 A 
HETATM    5  C   UNL     1      -4.115   5.166 -32.469  1.00  0.00     0.069 A 
HETATM    6  C   UNL     1      -3.595   5.205 -33.800  1.00  0.00     0.099 C 
HETATM    7  N   UNL     1      -3.161   5.292 -34.873  1.00  0.00    -0.192 NA
HETATM    8  C   UNL     1      -3.610   6.242 -31.498  1.00  0.00     0.106 A 
HETATM    9  C   UNL     1      -4.312   6.251 -30.138  1.00  0.00     0.046 A 
HETATM   10  H   UNL     1      -6.488   3.895 -30.688  1.00  0.00     0.166 HD
ENDROOT
BRANCH   4  11
HETATM   11  S   UNL     1      -5.685   3.091 -33.217  1.00  0.00    -0.102 SA
BRANCH  11  12
HETATM   12  C   UNL     1      -4.652   1.645 -32.821  1.00  0.00     0.184 C 
BRANCH  12  13
HETATM   13  C   UNL     1      -5.238   0.815 -31.687  1.00  0.00     0.231 C 
HETATM   14  N   UNL     1      -5.850  -0.378 -31.935  1.00  0.00    -0.324 N 
HETATM   15  H   UNL     1      -6.512  -0.636 -31.206  1.00  0.00     0.169 HD
HETATM   16  O   UNL     1      -5.282   1.236 -30.526  1.00  0.00    -0.272 OA
BRANCH  14  17
HETATM   17  C   UNL     1      -5.729  -1.334 -32.959  1.00  0.00     0.070 A 
HETATM   18  C   UNL     1      -6.792  -1.410 -33.887  1.00  0.00     0.095 A 
HETATM   19  C   UNL     1      -6.765  -2.370 -34.902  1.00  0.00     0.041 A 
HETATM   20  C   UNL     1      -5.697  -3.265 -34.986  1.00  0.00     0.026 A 
HETATM   21  C   UNL     1      -4.671  -3.211 -34.047  1.00  0.00     0.036 A 
HETATM   22 CL   UNL     1      -3.385  -4.352 -34.129  1.00  0.00    -0.084 Cl
HETATM   23  C   UNL     1      -4.685  -2.258 -33.027  1.00  0.00     0.056 A 
BRANCH  18  24
HETATM   24  O   UNL     1      -7.802  -0.495 -33.700  1.00  0.00    -0.354 OA
HETATM   25  C   UNL     1      -8.063   0.415 -34.763  1.00  0.00     0.210 C 
ENDBRANCH  18  24
ENDBRANCH  14  17
ENDBRANCH  12  13
ENDBRANCH  11  12
ENDBRANCH   4  11
BRANCH   8  26
HETATM   26  C   UNL     1      -2.086   6.199 -31.375  1.00  0.00    -0.044 A 
HETATM   27  C   UNL     1      -1.457   5.032 -30.904  1.00  0.00     0.008 A 
HETATM   28  C   UNL     1      -0.069   4.981 -30.760  1.00  0.00     0.001 A 
HETATM   29  C   UNL     1       0.705   6.091 -31.083  1.00  0.00     0.000 A 
HETATM   30  C   UNL     1       0.096   7.257 -31.542  1.00  0.00     0.001 A 
HETATM   31  C   UNL     1      -1.292   7.313 -31.684  1.00  0.00     0.008 A 
ENDBRANCH   8  26
BRANCH   9  32
HETATM   32  C   UNL     1      -3.925   7.269 -29.094  1.00  0.00     0.255 C 
HETATM   33  N   UNL     1      -2.973   6.844 -28.190  1.00  0.00    -0.323 N 
HETATM   34  H   UNL     1      -2.693   5.877 -28.203  1.00  0.00     0.169 HD
HETATM   35  O   UNL     1      -4.468   8.369 -29.082  1.00  0.00    -0.268 OA
BRANCH  33  36
HETATM   36  C   UNL     1      -2.352   7.610 -27.177  1.00  0.00     0.035 A 
HETATM   37  C   UNL     1      -1.129   8.266 -27.329  1.00  0.00     0.029 A 
HETATM   38  C   UNL     1      -0.565   8.974 -26.262  1.00  0.00     0.002 A 
HETATM   39  C   UNL     1      -1.222   9.037 -25.036  1.00  0.00     0.000 A 
HETATM   40  C   UNL     1      -2.443   8.389 -24.873  1.00  0.00     0.002 A 
HETATM   41  C   UNL     1      -3.002   7.676 -25.937  1.00  0.00     0.029 A 
ENDBRANCH  33  36
ENDBRANCH   9  32
TORSDOF 8
ENDMDL
