MODEL 1
REMARK VINA RESULT:      -8.8      0.000      0.000
REMARK  7 active torsions:
REMARK  status: ('A' for Active; 'I' for Inactive)
REMARK    1  A    between atoms: C_3  and  N_4 
REMARK    2  A    between atoms: N_7  and  C_9 
REMARK    3  A    between atoms: N_12  and  C_13 
REMARK    4  A    between atoms: C_16  and  C_17 
REMARK       I    between atoms: C_17  and  N_18 
REMARK    5  A    between atoms: C_20  and  C_21 
REMARK    6  A    between atoms: C_21  and  O_22 
REMARK    7  A    between atoms: C_33  and  O_34 
ROOT
HETATM    1  C   UNL     1      -1.164   7.029 -26.965  1.00  0.00     0.191 C 
HETATM    2  C   UNL     1       0.326   6.663 -26.849  1.00  0.00     0.053 C 
HETATM    3  C   UNL     1       1.233   7.888 -26.939  1.00  0.00     0.125 C 
HETATM    4  N   UNL     1       0.787   8.896 -25.985  1.00  0.00    -0.381 N 
HETATM    5  C   UNL     1      -0.614   9.280 -25.923  1.00  0.00     0.125 C 
HETATM    6  C   UNL     1      -1.500   8.044 -25.861  1.00  0.00     0.053 C 
ENDROOT
BRANCH   4   7
HETATM    7  C   UNL     1       1.669   9.265 -24.978  1.00  0.00     0.030 A 
HETATM    8  C   UNL     1       3.047   9.042 -25.131  1.00  0.00     0.030 A 
HETATM    9  C   UNL     1       3.956   9.373 -24.122  1.00  0.00     0.019 A 
HETATM   10  C   UNL     1       3.503   9.936 -22.928  1.00  0.00     0.032 A 
HETATM   11  C   UNL     1       2.134  10.141 -22.745  1.00  0.00     0.019 A 
HETATM   12  C   UNL     1       1.233   9.832 -23.772  1.00  0.00     0.030 A 
BRANCH  10  13
HETATM   13  C   UNL     1       4.486  10.173 -21.842  1.00  0.00     0.253 C 
HETATM   14  N   UNL     1       5.168   9.097 -21.261  1.00  0.00    -0.348 N 
HETATM   15  C   UNL     1       4.570   7.766 -21.113  1.00  0.00     0.132 C 
HETATM   16  C   UNL     1       6.161   9.441 -20.242  1.00  0.00     0.126 C 
HETATM   17  C   UNL     1       5.631   6.659 -21.037  1.00  0.00     0.027 C 
HETATM   18  C   UNL     1       6.662   6.986 -19.944  1.00  0.00     0.010 C 
HETATM   19  C   UNL     1       7.252   8.383 -20.119  1.00  0.00     0.020 C 
HETATM   20  O   UNL     1       4.681  11.345 -21.520  1.00  0.00    -0.267 OA
BRANCH  17  21
HETATM   21  C   UNL     1       6.273   6.434 -22.413  1.00  0.00     0.170 C 
BRANCH  21  22
HETATM   22  O   UNL     1       5.997   5.131 -22.908  1.00  0.00    -0.400 OA
HETATM   23  H   UNL     1       5.554   5.218 -23.770  1.00  0.00     0.209 HD
ENDBRANCH  21  22
ENDBRANCH  17  21
ENDBRANCH  10  13
ENDBRANCH   4   7
BRANCH   1  24
HETATM   24  N   UNL     1      -1.503   7.542 -28.379  1.00  0.00    -0.064 N 
HETATM   25  C   UNL     1      -0.458   7.094 -29.427  1.00  0.00     0.255 C 
HETATM   26  C   UNL     1      -0.735   7.756 -30.790  1.00  0.00     0.150 C 
HETATM   27  N   UNL     1      -2.110   7.485 -31.268  1.00  0.00    -0.375 N 
HETATM   28  C   UNL     1      -3.174   7.756 -30.287  1.00  0.00     0.150 C 
HETATM   29  C   UNL     1      -2.894   7.137 -28.898  1.00  0.00     0.255 C 
HETATM   30  H   UNL     1      -1.492   8.569 -28.365  1.00  0.00     0.280 HD
BRANCH  27  31
HETATM   31  C   UNL     1      -2.227   6.383 -32.131  1.00  0.00     0.063 A 
HETATM   32  C   UNL     1      -2.617   5.103 -31.720  1.00  0.00     0.032 A 
HETATM   33  C   UNL     1      -2.678   4.036 -32.629  1.00  0.00     0.002 A 
HETATM   34  C   UNL     1      -2.359   4.229 -33.972  1.00  0.00     0.003 A 
HETATM   35  C   UNL     1      -2.000   5.495 -34.417  1.00  0.00     0.039 A 
HETATM   36  C   UNL     1      -1.959   6.546 -33.508  1.00  0.00     0.092 A 
BRANCH  36  37
HETATM   37  O   UNL     1      -1.716   7.800 -34.009  1.00  0.00    -0.358 OA
HETATM   38  H   UNL     1      -1.643   8.364 -33.216  1.00  0.00     0.218 HD
ENDBRANCH  36  37
ENDBRANCH  27  31
ENDBRANCH   1  24
TORSDOF 7
ENDMDL
MODEL 2
REMARK VINA RESULT:      -8.7      6.596     10.129
REMARK  7 active torsions:
REMARK  status: ('A' for Active; 'I' for Inactive)
REMARK    1  A    between atoms: C_3  and  N_4 
REMARK    2  A    between atoms: N_7  and  C_9 
REMARK    3  A    between atoms: N_12  and  C_13 
REMARK    4  A    between atoms: C_16  and  C_17 
REMARK       I    between atoms: C_17  and  N_18 
REMARK    5  A    between atoms: C_20  and  C_21 
REMARK    6  A    between atoms: C_21  and  O_22 
REMARK    7  A    between atoms: C_33  and  O_34 
ROOT
HETATM    1  C   UNL     1      -7.137   2.232 -32.026  1.00  0.00     0.191 C 
HETATM    2  C   UNL     1      -5.922   2.542 -32.917  1.00  0.00     0.053 C 
HETATM    3  C   UNL     1      -5.597   4.033 -32.958  1.00  0.00     0.125 C 
HETATM    4  N   UNL     1      -5.490   4.545 -31.597  1.00  0.00    -0.381 N 
HETATM    5  C   UNL     1      -6.526   4.256 -30.619  1.00  0.00     0.125 C 
HETATM    6  C   UNL     1      -6.853   2.770 -30.616  1.00  0.00     0.053 C 
ENDROOT
BRANCH   4   7
HETATM    7  C   UNL     1      -4.266   5.068 -31.200  1.00  0.00     0.030 A 
HETATM    8  C   UNL     1      -4.217   6.223 -30.405  1.00  0.00     0.030 A 
HETATM    9  C   UNL     1      -3.001   6.792 -30.017  1.00  0.00     0.019 A 
HETATM   10  C   UNL     1      -1.797   6.213 -30.422  1.00  0.00     0.032 A 
HETATM   11  C   UNL     1      -1.822   5.078 -31.236  1.00  0.00     0.019 A 
HETATM   12  C   UNL     1      -3.046   4.500 -31.597  1.00  0.00     0.030 A 
BRANCH  10  13
HETATM   13  C   UNL     1      -0.530   6.907 -30.080  1.00  0.00     0.253 C 
HETATM   14  N   UNL     1      -0.270   7.286 -28.758  1.00  0.00    -0.348 N 
HETATM   15  C   UNL     1      -1.329   7.686 -27.824  1.00  0.00     0.132 C 
HETATM   16  C   UNL     1       1.033   7.909 -28.512  1.00  0.00     0.126 C 
HETATM   17  C   UNL     1      -0.923   7.467 -26.360  1.00  0.00     0.027 C 
HETATM   18  C   UNL     1       0.426   8.147 -26.075  1.00  0.00     0.010 C 
HETATM   19  C   UNL     1       1.499   7.722 -27.073  1.00  0.00     0.020 C 
HETATM   20  O   UNL     1       0.266   7.090 -31.000  1.00  0.00    -0.267 OA
BRANCH  17  21
HETATM   21  C   UNL     1      -0.918   5.970 -26.022  1.00  0.00     0.170 C 
BRANCH  21  22
HETATM   22  O   UNL     1      -2.203   5.527 -25.606  1.00  0.00    -0.400 OA
HETATM   23  H   UNL     1      -2.219   5.503 -24.634  1.00  0.00     0.209 HD
ENDBRANCH  21  22
ENDBRANCH  17  21
ENDBRANCH  10  13
ENDBRANCH   4   7
BRANCH   1  24
HETATM   24  N   UNL     1      -8.435   2.798 -32.638  1.00  0.00    -0.064 N 
HETATM   25  C   UNL     1      -8.873   2.018 -33.899  1.00  0.00     0.255 C 
HETATM   26  C   UNL     1     -10.073   2.707 -34.576  1.00  0.00     0.150 C 
HETATM   27  N   UNL     1     -11.209   2.881 -33.644  1.00  0.00    -0.375 N 
HETATM   28  C   UNL     1     -10.866   3.498 -32.352  1.00  0.00     0.150 C 
HETATM   29  C   UNL     1      -9.635   2.849 -31.676  1.00  0.00     0.255 C 
HETATM   30  H   UNL     1      -8.262   3.768 -32.929  1.00  0.00     0.280 HD
BRANCH  27  31
HETATM   31  C   UNL     1     -12.170   1.858 -33.689  1.00  0.00     0.063 A 
HETATM   32  C   UNL     1     -11.882   0.502 -33.494  1.00  0.00     0.032 A 
HETATM   33  C   UNL     1     -12.885  -0.475 -33.590  1.00  0.00     0.002 A 
HETATM   34  C   UNL     1     -14.201  -0.114 -33.874  1.00  0.00     0.003 A 
HETATM   35  C   UNL     1     -14.525   1.226 -34.040  1.00  0.00     0.039 A 
HETATM   36  C   UNL     1     -13.524   2.184 -33.927  1.00  0.00     0.092 A 
BRANCH  36  37
HETATM   37  O   UNL     1     -13.905   3.500 -33.980  1.00  0.00    -0.358 OA
HETATM   38  H   UNL     1     -13.076   3.996 -33.841  1.00  0.00     0.218 HD
ENDBRANCH  36  37
ENDBRANCH  27  31
ENDBRANCH   1  24
TORSDOF 7
ENDMDL
MODEL 3
REMARK VINA RESULT:      -8.7      5.422     13.256
REMARK  7 active torsions:
REMARK  status: ('A' for Active; 'I' for Inactive)
REMARK    1  A    between atoms: C_3  and  N_4 
REMARK    2  A    between atoms: N_7  and  C_9 
REMARK    3  A    between atoms: N_12  and  C_13 
REMARK    4  A    between atoms: C_16  and  C_17 
REMARK       I    between atoms: C_17  and  N_18 
REMARK    5  A    between atoms: C_20  and  C_21 
REMARK    6  A    between atoms: C_21  and  O_22 
REMARK    7  A    between atoms: C_33  and  O_34 
ROOT
HETATM    1  C   UNL     1      -3.865   6.138 -30.882  1.00  0.00     0.191 C 
HETATM    2  C   UNL     1      -3.193   5.192 -31.892  1.00  0.00     0.053 C 
HETATM    3  C   UNL     1      -3.162   3.747 -31.402  1.00  0.00     0.125 C 
HETATM    4  N   UNL     1      -4.503   3.341 -31.000  1.00  0.00    -0.381 N 
HETATM    5  C   UNL     1      -5.291   4.182 -30.114  1.00  0.00     0.125 C 
HETATM    6  C   UNL     1      -5.285   5.622 -30.606  1.00  0.00     0.053 C 
ENDROOT
BRANCH   4   7
HETATM    7  C   UNL     1      -5.092   2.290 -31.691  1.00  0.00     0.030 A 
HETATM    8  C   UNL     1      -5.267   1.045 -31.067  1.00  0.00     0.030 A 
HETATM    9  C   UNL     1      -5.827  -0.040 -31.747  1.00  0.00     0.019 A 
HETATM   10  C   UNL     1      -6.225   0.097 -33.078  1.00  0.00     0.032 A 
HETATM   11  C   UNL     1      -6.036   1.320 -33.726  1.00  0.00     0.019 A 
HETATM   12  C   UNL     1      -5.499   2.410 -33.028  1.00  0.00     0.030 A 
BRANCH  10  13
HETATM   13  C   UNL     1      -6.715  -1.106 -33.795  1.00  0.00     0.253 C 
HETATM   14  N   UNL     1      -5.866  -2.200 -33.999  1.00  0.00    -0.348 N 
HETATM   15  C   UNL     1      -4.419  -2.056 -34.193  1.00  0.00     0.132 C 
HETATM   16  C   UNL     1      -6.462  -3.361 -34.662  1.00  0.00     0.126 C 
HETATM   17  C   UNL     1      -3.652  -3.324 -33.794  1.00  0.00     0.027 C 
HETATM   18  C   UNL     1      -4.241  -4.549 -34.512  1.00  0.00     0.010 C 
HETATM   19  C   UNL     1      -5.749  -4.660 -34.303  1.00  0.00     0.020 C 
HETATM   20  O   UNL     1      -7.891  -1.091 -34.159  1.00  0.00    -0.267 OA
BRANCH  17  21
HETATM   21  C   UNL     1      -3.631  -3.482 -32.267  1.00  0.00     0.170 C 
BRANCH  21  22
HETATM   22  O   UNL     1      -2.912  -2.425 -31.646  1.00  0.00    -0.400 OA
HETATM   23  H   UNL     1      -2.799  -1.708 -32.294  1.00  0.00     0.209 HD
ENDBRANCH  21  22
ENDBRANCH  17  21
ENDBRANCH  10  13
ENDBRANCH   4   7
BRANCH   1  24
HETATM   24  N   UNL     1      -3.015   6.281 -29.602  1.00  0.00    -0.064 N 
HETATM   25  C   UNL     1      -1.625   6.891 -29.891  1.00  0.00     0.255 C 
HETATM   26  C   UNL     1      -0.745   6.866 -28.627  1.00  0.00     0.150 C 
HETATM   27  N   UNL     1      -1.395   7.553 -27.488  1.00  0.00    -0.375 N 
HETATM   28  C   UNL     1      -2.780   7.133 -27.215  1.00  0.00     0.150 C 
HETATM   29  C   UNL     1      -3.668   7.107 -28.481  1.00  0.00     0.255 C 
HETATM   30  H   UNL     1      -2.857   5.344 -29.210  1.00  0.00     0.280 HD
BRANCH  27  31
HETATM   31  C   UNL     1      -1.037   8.902 -27.332  1.00  0.00     0.063 A 
HETATM   32  C   UNL     1      -1.731   9.970 -27.913  1.00  0.00     0.032 A 
HETATM   33  C   UNL     1      -1.297  11.294 -27.746  1.00  0.00     0.002 A 
HETATM   34  C   UNL     1      -0.164  11.579 -26.987  1.00  0.00     0.003 A 
HETATM   35  C   UNL     1       0.527  10.544 -26.369  1.00  0.00     0.039 A 
HETATM   36  C   UNL     1       0.077   9.239 -26.530  1.00  0.00     0.092 A 
BRANCH  36  37
HETATM   37  O   UNL     1       0.715   8.261 -25.810  1.00  0.00    -0.358 OA
HETATM   38  H   UNL     1       0.123   8.098 -25.051  1.00  0.00     0.218 HD
ENDBRANCH  36  37
ENDBRANCH  27  31
ENDBRANCH   1  24
TORSDOF 7
ENDMDL
MODEL 4
REMARK VINA RESULT:      -8.6      5.509     13.504
REMARK  7 active torsions:
REMARK  status: ('A' for Active; 'I' for Inactive)
REMARK    1  A    between atoms: C_3  and  N_4 
REMARK    2  A    between atoms: N_7  and  C_9 
REMARK    3  A    between atoms: N_12  and  C_13 
REMARK    4  A    between atoms: C_16  and  C_17 
REMARK       I    between atoms: C_17  and  N_18 
REMARK    5  A    between atoms: C_20  and  C_21 
REMARK    6  A    between atoms: C_21  and  O_22 
REMARK    7  A    between atoms: C_33  and  O_34 
ROOT
HETATM    1  C   UNL     1      -2.434   5.977 -32.683  1.00  0.00     0.191 C 
HETATM    2  C   UNL     1      -2.137   4.568 -32.141  1.00  0.00     0.053 C 
HETATM    3  C   UNL     1      -3.350   3.940 -31.460  1.00  0.00     0.125 C 
HETATM    4  N   UNL     1      -4.500   4.009 -32.354  1.00  0.00    -0.381 N 
HETATM    5  C   UNL     1      -4.849   5.260 -33.007  1.00  0.00     0.125 C 
HETATM    6  C   UNL     1      -3.620   5.881 -33.655  1.00  0.00     0.053 C 
ENDROOT
BRANCH   4   7
HETATM    7  C   UNL     1      -5.068   2.810 -32.766  1.00  0.00     0.030 A 
HETATM    8  C   UNL     1      -6.012   2.798 -33.804  1.00  0.00     0.030 A 
HETATM    9  C   UNL     1      -6.625   1.612 -34.220  1.00  0.00     0.019 A 
HETATM   10  C   UNL     1      -6.306   0.404 -33.597  1.00  0.00     0.032 A 
HETATM   11  C   UNL     1      -5.389   0.398 -32.544  1.00  0.00     0.019 A 
HETATM   12  C   UNL     1      -4.759   1.587 -32.153  1.00  0.00     0.030 A 
BRANCH  10  13
HETATM   13  C   UNL     1      -7.057  -0.813 -33.994  1.00  0.00     0.253 C 
HETATM   14  N   UNL     1      -6.371  -1.997 -34.293  1.00  0.00    -0.348 N 
HETATM   15  C   UNL     1      -5.038  -2.009 -34.905  1.00  0.00     0.132 C 
HETATM   16  C   UNL     1      -7.205  -3.158 -34.613  1.00  0.00     0.126 C 
HETATM   17  C   UNL     1      -4.266  -3.297 -34.587  1.00  0.00     0.027 C 
HETATM   18  C   UNL     1      -5.112  -4.527 -34.953  1.00  0.00     0.010 C 
HETATM   19  C   UNL     1      -6.498  -4.475 -34.314  1.00  0.00     0.020 C 
HETATM   20  O   UNL     1      -8.284  -0.726 -34.009  1.00  0.00    -0.267 OA
BRANCH  17  21
HETATM   21  C   UNL     1      -3.811  -3.303 -33.121  1.00  0.00     0.170 C 
BRANCH  21  22
HETATM   22  O   UNL     1      -3.333  -4.583 -32.730  1.00  0.00    -0.400 OA
HETATM   23  H   UNL     1      -3.604  -5.230 -33.404  1.00  0.00     0.209 HD
ENDBRANCH  21  22
ENDBRANCH  17  21
ENDBRANCH  10  13
ENDBRANCH   4   7
BRANCH   1  24
HETATM   24  N   UNL     1      -2.675   6.977 -31.534  1.00  0.00    -0.064 N 
HETATM   25  C   UNL     1      -2.317   6.376 -30.155  1.00  0.00     0.255 C 
HETATM   26  C   UNL     1      -2.723   7.336 -29.020  1.00  0.00     0.150 C 
HETATM   27  N   UNL     1      -2.115   8.675 -29.186  1.00  0.00    -0.375 N 
HETATM   28  C   UNL     1      -2.288   9.278 -30.518  1.00  0.00     0.150 C 
HETATM   29  C   UNL     1      -1.928   8.315 -31.673  1.00  0.00     0.255 C 
HETATM   30  H   UNL     1      -3.675   7.210 -31.509  1.00  0.00     0.280 HD
BRANCH  27  31
HETATM   31  C   UNL     1      -0.909   8.864 -28.491  1.00  0.00     0.063 A 
HETATM   32  C   UNL     1       0.244   8.096 -28.697  1.00  0.00     0.032 A 
HETATM   33  C   UNL     1       1.406   8.314 -27.942  1.00  0.00     0.002 A 
HETATM   34  C   UNL     1       1.444   9.311 -26.970  1.00  0.00     0.003 A 
HETATM   35  C   UNL     1       0.327  10.113 -26.764  1.00  0.00     0.039 A 
HETATM   36  C   UNL     1      -0.812   9.896 -27.531  1.00  0.00     0.092 A 
BRANCH  36  37
HETATM   37  O   UNL     1      -1.848  10.782 -27.380  1.00  0.00    -0.358 OA
HETATM   38  H   UNL     1      -1.761  11.098 -26.462  1.00  0.00     0.218 HD
ENDBRANCH  36  37
ENDBRANCH  27  31
ENDBRANCH   1  24
TORSDOF 7
ENDMDL
MODEL 5
REMARK VINA RESULT:      -8.5      6.369      9.984
REMARK  7 active torsions:
REMARK  status: ('A' for Active; 'I' for Inactive)
REMARK    1  A    between atoms: C_3  and  N_4 
REMARK    2  A    between atoms: N_7  and  C_9 
REMARK    3  A    between atoms: N_12  and  C_13 
REMARK    4  A    between atoms: C_16  and  C_17 
REMARK       I    between atoms: C_17  and  N_18 
REMARK    5  A    between atoms: C_20  and  C_21 
REMARK    6  A    between atoms: C_21  and  O_22 
REMARK    7  A    between atoms: C_33  and  O_34 
ROOT
HETATM    1  C   UNL     1      -7.735   4.876 -32.662  1.00  0.00     0.191 C 
HETATM    2  C   UNL     1      -7.257   5.156 -31.227  1.00  0.00     0.053 C 
HETATM    3  C   UNL     1      -5.970   4.409 -30.887  1.00  0.00     0.125 C 
HETATM    4  N   UNL     1      -4.969   4.672 -31.914  1.00  0.00    -0.381 N 
HETATM    5  C   UNL     1      -5.306   4.531 -33.322  1.00  0.00     0.125 C 
HETATM    6  C   UNL     1      -6.606   5.260 -33.631  1.00  0.00     0.053 C 
ENDROOT
BRANCH   4   7
HETATM    7  C   UNL     1      -3.800   5.312 -31.525  1.00  0.00     0.030 A 
HETATM    8  C   UNL     1      -2.615   4.576 -31.363  1.00  0.00     0.030 A 
HETATM    9  C   UNL     1      -1.430   5.186 -30.941  1.00  0.00     0.019 A 
HETATM   10  C   UNL     1      -1.405   6.554 -30.667  1.00  0.00     0.032 A 
HETATM   11  C   UNL     1      -2.579   7.300 -30.797  1.00  0.00     0.019 A 
HETATM   12  C   UNL     1      -3.755   6.685 -31.247  1.00  0.00     0.030 A 
BRANCH  10  13
HETATM   13  C   UNL     1      -0.157   7.142 -30.120  1.00  0.00     0.253 C 
HETATM   14  N   UNL     1      -0.074   7.485 -28.766  1.00  0.00    -0.348 N 
HETATM   15  C   UNL     1      -1.230   7.958 -27.995  1.00  0.00     0.132 C 
HETATM   16  C   UNL     1       1.219   8.000 -28.311  1.00  0.00     0.126 C 
HETATM   17  C   UNL     1      -1.072   7.692 -26.492  1.00  0.00     0.027 C 
HETATM   18  C   UNL     1       0.265   8.260 -25.989  1.00  0.00     0.010 C 
HETATM   19  C   UNL     1       1.444   7.762 -26.822  1.00  0.00     0.020 C 
HETATM   20  O   UNL     1       0.783   7.271 -30.904  1.00  0.00    -0.267 OA
BRANCH  17  21
HETATM   21  C   UNL     1      -1.234   6.195 -26.191  1.00  0.00     0.170 C 
BRANCH  21  22
HETATM   22  O   UNL     1      -2.592   5.858 -25.946  1.00  0.00    -0.400 OA
HETATM   23  H   UNL     1      -2.615   5.068 -25.379  1.00  0.00     0.209 HD
ENDBRANCH  21  22
ENDBRANCH  17  21
ENDBRANCH  10  13
ENDBRANCH   4   7
BRANCH   1  24
HETATM   24  N   UNL     1      -8.194   3.412 -32.821  1.00  0.00    -0.064 N 
HETATM   25  C   UNL     1      -9.401   3.079 -31.913  1.00  0.00     0.255 C 
HETATM   26  C   UNL     1      -9.728   1.575 -31.972  1.00  0.00     0.150 C 
HETATM   27  N   UNL     1      -9.969   1.115 -33.358  1.00  0.00    -0.375 N 
HETATM   28  C   UNL     1      -8.933   1.501 -34.331  1.00  0.00     0.150 C 
HETATM   29  C   UNL     1      -8.558   2.999 -34.258  1.00  0.00     0.255 C 
HETATM   30  H   UNL     1      -7.424   2.795 -32.534  1.00  0.00     0.280 HD
BRANCH  27  31
HETATM   31  C   UNL     1     -11.318   1.105 -33.749  1.00  0.00     0.063 A 
HETATM   32  C   UNL     1     -11.926   2.122 -34.496  1.00  0.00     0.032 A 
HETATM   33  C   UNL     1     -13.289   2.067 -34.822  1.00  0.00     0.002 A 
HETATM   34  C   UNL     1     -14.073   0.989 -34.416  1.00  0.00     0.003 A 
HETATM   35  C   UNL     1     -13.492  -0.053 -33.703  1.00  0.00     0.039 A 
HETATM   36  C   UNL     1     -12.136   0.008 -33.400  1.00  0.00     0.092 A 
BRANCH  36  37
HETATM   37  O   UNL     1     -11.577  -1.091 -32.800  1.00  0.00    -0.358 OA
HETATM   38  H   UNL     1     -12.311  -1.485 -32.291  1.00  0.00     0.218 HD
ENDBRANCH  36  37
ENDBRANCH  27  31
ENDBRANCH   1  24
TORSDOF 7
ENDMDL
MODEL 6
REMARK VINA RESULT:      -8.3      6.552      9.833
REMARK  7 active torsions:
REMARK  status: ('A' for Active; 'I' for Inactive)
REMARK    1  A    between atoms: C_3  and  N_4 
REMARK    2  A    between atoms: N_7  and  C_9 
REMARK    3  A    between atoms: N_12  and  C_13 
REMARK    4  A    between atoms: C_16  and  C_17 
REMARK       I    between atoms: C_17  and  N_18 
REMARK    5  A    between atoms: C_20  and  C_21 
REMARK    6  A    between atoms: C_21  and  O_22 
REMARK    7  A    between atoms: C_33  and  O_34 
ROOT
HETATM    1  C   UNL     1      -7.545   3.151 -31.238  1.00  0.00     0.191 C 
HETATM    2  C   UNL     1      -6.171   3.437 -31.869  1.00  0.00     0.053 C 
HETATM    3  C   UNL     1      -5.953   4.923 -32.138  1.00  0.00     0.125 C 
HETATM    4  N   UNL     1      -6.226   5.683 -30.924  1.00  0.00    -0.381 N 
HETATM    5  C   UNL     1      -7.451   5.456 -30.174  1.00  0.00     0.125 C 
HETATM    6  C   UNL     1      -7.661   3.967 -29.942  1.00  0.00     0.053 C 
ENDROOT
BRANCH   4   7
HETATM    7  C   UNL     1      -5.181   6.411 -30.371  1.00  0.00     0.030 A 
HETATM    8  C   UNL     1      -5.363   7.101 -29.162  1.00  0.00     0.030 A 
HETATM    9  C   UNL     1      -4.340   7.868 -28.598  1.00  0.00     0.019 A 
HETATM   10  C   UNL     1      -3.104   7.966 -29.237  1.00  0.00     0.032 A 
HETATM   11  C   UNL     1      -2.909   7.309 -30.455  1.00  0.00     0.019 A 
HETATM   12  C   UNL     1      -3.931   6.520 -30.999  1.00  0.00     0.030 A 
BRANCH  10  13
HETATM   13  C   UNL     1      -2.082   8.875 -28.662  1.00  0.00     0.253 C 
HETATM   14  N   UNL     1      -0.948   8.350 -28.030  1.00  0.00    -0.348 N 
HETATM   15  C   UNL     1      -0.966   7.085 -27.289  1.00  0.00     0.132 C 
HETATM   16  C   UNL     1       0.031   9.329 -27.551  1.00  0.00     0.126 C 
HETATM   17  C   UNL     1       0.421   6.432 -27.222  1.00  0.00     0.027 C 
HETATM   18  C   UNL     1       1.455   7.434 -26.684  1.00  0.00     0.010 C 
HETATM   19  C   UNL     1       1.436   8.745 -27.467  1.00  0.00     0.020 C 
HETATM   20  O   UNL     1      -2.274  10.082 -28.802  1.00  0.00    -0.267 OA
BRANCH  17  21
HETATM   21  C   UNL     1       0.809   5.853 -28.590  1.00  0.00     0.170 C 
BRANCH  21  22
HETATM   22  O   UNL     1      -0.293   5.207 -29.213  1.00  0.00    -0.400 OA
HETATM   23  H   UNL     1      -1.093   5.401 -28.696  1.00  0.00     0.209 HD
ENDBRANCH  21  22
ENDBRANCH  17  21
ENDBRANCH  10  13
ENDBRANCH   4   7
BRANCH   1  24
HETATM   24  N   UNL     1      -8.686   3.438 -32.236  1.00  0.00    -0.064 N 
HETATM   25  C   UNL     1      -8.809   2.335 -33.312  1.00  0.00     0.255 C 
HETATM   26  C   UNL     1      -9.842   2.732 -34.384  1.00  0.00     0.150 C 
HETATM   27  N   UNL     1     -11.163   3.040 -33.791  1.00  0.00    -0.375 N 
HETATM   28  C   UNL     1     -11.134   3.986 -32.663  1.00  0.00     0.150 C 
HETATM   29  C   UNL     1     -10.072   3.630 -31.597  1.00  0.00     0.255 C 
HETATM   30  H   UNL     1      -8.475   4.315 -32.729  1.00  0.00     0.280 HD
BRANCH  27  31
HETATM   31  C   UNL     1     -12.064   1.963 -33.768  1.00  0.00     0.063 A 
HETATM   32  C   UNL     1     -11.703   0.644 -33.467  1.00  0.00     0.032 A 
HETATM   33  C   UNL     1     -12.647  -0.393 -33.499  1.00  0.00     0.002 A 
HETATM   34  C   UNL     1     -13.977  -0.132 -33.824  1.00  0.00     0.003 A 
HETATM   35  C   UNL     1     -14.374   1.172 -34.096  1.00  0.00     0.039 A 
HETATM   36  C   UNL     1     -13.430   2.191 -34.045  1.00  0.00     0.092 A 
BRANCH  36  37
HETATM   37  O   UNL     1     -13.885   3.476 -34.203  1.00  0.00    -0.358 OA
HETATM   38  H   UNL     1     -13.346   3.999 -33.579  1.00  0.00     0.218 HD
ENDBRANCH  36  37
ENDBRANCH  27  31
ENDBRANCH   1  24
TORSDOF 7
ENDMDL
MODEL 7
REMARK VINA RESULT:      -8.2      5.007      9.332
REMARK  7 active torsions:
REMARK  status: ('A' for Active; 'I' for Inactive)
REMARK    1  A    between atoms: C_3  and  N_4 
REMARK    2  A    between atoms: N_7  and  C_9 
REMARK    3  A    between atoms: N_12  and  C_13 
REMARK    4  A    between atoms: C_16  and  C_17 
REMARK       I    between atoms: C_17  and  N_18 
REMARK    5  A    between atoms: C_20  and  C_21 
REMARK    6  A    between atoms: C_21  and  O_22 
REMARK    7  A    between atoms: C_33  and  O_34 
ROOT
HETATM    1  C   UNL     1      -7.438   4.040 -32.862  1.00  0.00     0.191 C 
HETATM    2  C   UNL     1      -6.910   4.179 -31.424  1.00  0.00     0.053 C 
HETATM    3  C   UNL     1      -5.513   3.585 -31.259  1.00  0.00     0.125 C 
HETATM    4  N   UNL     1      -4.628   4.132 -32.279  1.00  0.00    -0.381 N 
HETATM    5  C   UNL     1      -5.034   4.145 -33.675  1.00  0.00     0.125 C 
HETATM    6  C   UNL     1      -6.438   4.715 -33.812  1.00  0.00     0.053 C 
ENDROOT
BRANCH   4   7
HETATM    7  C   UNL     1      -3.532   4.871 -31.852  1.00  0.00     0.030 A 
HETATM    8  C   UNL     1      -2.308   4.234 -31.597  1.00  0.00     0.030 A 
HETATM    9  C   UNL     1      -1.196   4.945 -31.136  1.00  0.00     0.019 A 
HETATM   10  C   UNL     1      -1.288   6.320 -30.914  1.00  0.00     0.032 A 
HETATM   11  C   UNL     1      -2.505   6.969 -31.135  1.00  0.00     0.019 A 
HETATM   12  C   UNL     1      -3.605   6.253 -31.624  1.00  0.00     0.030 A 
BRANCH  10  13
HETATM   13  C   UNL     1      -0.120   7.019 -30.323  1.00  0.00     0.253 C 
HETATM   14  N   UNL     1      -0.129   7.388 -28.972  1.00  0.00    -0.348 N 
HETATM   15  C   UNL     1      -1.354   7.773 -28.263  1.00  0.00     0.132 C 
HETATM   16  C   UNL     1       1.094   8.017 -28.470  1.00  0.00     0.126 C 
HETATM   17  C   UNL     1      -1.244   7.543 -26.749  1.00  0.00     0.027 C 
HETATM   18  C   UNL     1       0.016   8.230 -26.198  1.00  0.00     0.010 C 
HETATM   19  C   UNL     1       1.269   7.820 -26.969  1.00  0.00     0.020 C 
HETATM   20  O   UNL     1       0.840   7.216 -31.066  1.00  0.00    -0.267 OA
BRANCH  17  21
HETATM   21  C   UNL     1      -1.294   6.043 -26.428  1.00  0.00     0.170 C 
BRANCH  21  22
HETATM   22  O   UNL     1      -2.412   5.723 -25.613  1.00  0.00    -0.400 OA
HETATM   23  H   UNL     1      -2.374   6.272 -24.811  1.00  0.00     0.209 HD
ENDBRANCH  21  22
ENDBRANCH  17  21
ENDBRANCH  10  13
ENDBRANCH   4   7
BRANCH   1  24
HETATM   24  N   UNL     1      -7.704   2.562 -33.217  1.00  0.00    -0.064 N 
HETATM   25  C   UNL     1      -6.737   2.041 -34.305  1.00  0.00     0.255 C 
HETATM   26  C   UNL     1      -7.134   0.622 -34.753  1.00  0.00     0.150 C 
HETATM   27  N   UNL     1      -7.200  -0.319 -33.612  1.00  0.00    -0.375 N 
HETATM   28  C   UNL     1      -7.995   0.148 -32.464  1.00  0.00     0.150 C 
HETATM   29  C   UNL     1      -7.643   1.589 -32.027  1.00  0.00     0.255 C 
HETATM   30  H   UNL     1      -8.655   2.485 -33.599  1.00  0.00     0.280 HD
BRANCH  27  31
HETATM   31  C   UNL     1      -6.026  -1.056 -33.388  1.00  0.00     0.063 A 
HETATM   32  C   UNL     1      -5.045  -0.704 -32.454  1.00  0.00     0.032 A 
HETATM   33  C   UNL     1      -3.876  -1.465 -32.305  1.00  0.00     0.002 A 
HETATM   34  C   UNL     1      -3.667  -2.603 -33.083  1.00  0.00     0.003 A 
HETATM   35  C   UNL     1      -4.638  -2.998 -33.996  1.00  0.00     0.039 A 
HETATM   36  C   UNL     1      -5.797  -2.242 -34.121  1.00  0.00     0.092 A 
BRANCH  36  37
HETATM   37  O   UNL     1      -6.779  -2.731 -34.945  1.00  0.00    -0.358 OA
HETATM   38  H   UNL     1      -7.312  -1.946 -35.175  1.00  0.00     0.218 HD
ENDBRANCH  36  37
ENDBRANCH  27  31
ENDBRANCH   1  24
TORSDOF 7
ENDMDL
MODEL 8
REMARK VINA RESULT:      -8.2      6.015      9.701
REMARK  7 active torsions:
REMARK  status: ('A' for Active; 'I' for Inactive)
REMARK    1  A    between atoms: C_3  and  N_4 
REMARK    2  A    between atoms: N_7  and  C_9 
REMARK    3  A    between atoms: N_12  and  C_13 
REMARK    4  A    between atoms: C_16  and  C_17 
REMARK       I    between atoms: C_17  and  N_18 
REMARK    5  A    between atoms: C_20  and  C_21 
REMARK    6  A    between atoms: C_21  and  O_22 
REMARK    7  A    between atoms: C_33  and  O_34 
ROOT
HETATM    1  C   UNL     1      -5.739   2.546 -33.210  1.00  0.00     0.191 C 
HETATM    2  C   UNL     1      -6.025   4.049 -33.370  1.00  0.00     0.053 C 
HETATM    3  C   UNL     1      -6.344   4.724 -32.038  1.00  0.00     0.125 C 
HETATM    4  N   UNL     1      -5.299   4.412 -31.072  1.00  0.00    -0.381 N 
HETATM    5  C   UNL     1      -4.865   3.038 -30.876  1.00  0.00     0.125 C 
HETATM    6  C   UNL     1      -4.579   2.377 -32.217  1.00  0.00     0.053 C 
ENDROOT
BRANCH   4   7
HETATM    7  C   UNL     1      -4.559   5.469 -30.559  1.00  0.00     0.030 A 
HETATM    8  C   UNL     1      -3.344   5.837 -31.158  1.00  0.00     0.030 A 
HETATM    9  C   UNL     1      -2.562   6.876 -30.646  1.00  0.00     0.019 A 
HETATM   10  C   UNL     1      -2.979   7.573 -29.511  1.00  0.00     0.032 A 
HETATM   11  C   UNL     1      -4.172   7.206 -28.883  1.00  0.00     0.019 A 
HETATM   12  C   UNL     1      -4.963   6.182 -29.420  1.00  0.00     0.030 A 
BRANCH  10  13
HETATM   13  C   UNL     1      -2.070   8.595 -28.937  1.00  0.00     0.253 C 
HETATM   14  N   UNL     1      -0.961   8.205 -28.177  1.00  0.00    -0.348 N 
HETATM   15  C   UNL     1      -0.959   7.003 -27.335  1.00  0.00     0.132 C 
HETATM   16  C   UNL     1      -0.092   9.285 -27.707  1.00  0.00     0.126 C 
HETATM   17  C   UNL     1       0.458   6.459 -27.106  1.00  0.00     0.027 C 
HETATM   18  C   UNL     1       1.375   7.572 -26.575  1.00  0.00     0.010 C 
HETATM   19  C   UNL     1       1.337   8.812 -27.465  1.00  0.00     0.020 C 
HETATM   20  O   UNL     1      -2.329   9.771 -29.193  1.00  0.00    -0.267 OA
BRANCH  17  21
HETATM   21  C   UNL     1       0.995   5.803 -28.386  1.00  0.00     0.170 C 
BRANCH  21  22
HETATM   22  O   UNL     1      -0.034   5.127 -29.095  1.00  0.00    -0.400 OA
HETATM   23  H   UNL     1      -0.773   5.745 -29.225  1.00  0.00     0.209 HD
ENDBRANCH  21  22
ENDBRANCH  17  21
ENDBRANCH  10  13
ENDBRANCH   4   7
BRANCH   1  24
HETATM   24  N   UNL     1      -7.010   1.779 -32.789  1.00  0.00    -0.064 N 
HETATM   25  C   UNL     1      -8.163   2.732 -32.399  1.00  0.00     0.255 C 
HETATM   26  C   UNL     1      -9.356   1.941 -31.829  1.00  0.00     0.150 C 
HETATM   27  N   UNL     1      -9.828   0.899 -32.769  1.00  0.00    -0.375 N 
HETATM   28  C   UNL     1      -8.775   0.019 -33.304  1.00  0.00     0.150 C 
HETATM   29  C   UNL     1      -7.549   0.793 -33.840  1.00  0.00     0.255 C 
HETATM   30  H   UNL     1      -6.791   1.217 -31.957  1.00  0.00     0.280 HD
BRANCH  27  31
HETATM   31  C   UNL     1     -10.889   1.294 -33.600  1.00  0.00     0.063 A 
HETATM   32  C   UNL     1     -10.859   2.422 -34.429  1.00  0.00     0.032 A 
HETATM   33  C   UNL     1     -11.969   2.781 -35.208  1.00  0.00     0.002 A 
HETATM   34  C   UNL     1     -13.132   2.014 -35.181  1.00  0.00     0.003 A 
HETATM   35  C   UNL     1     -13.182   0.870 -34.394  1.00  0.00     0.039 A 
HETATM   36  C   UNL     1     -12.069   0.518 -33.640  1.00  0.00     0.092 A 
BRANCH  36  37
HETATM   37  O   UNL     1     -12.116  -0.679 -32.970  1.00  0.00    -0.358 OA
HETATM   38  H   UNL     1     -12.173  -0.425 -32.030  1.00  0.00     0.218 HD
ENDBRANCH  36  37
ENDBRANCH  27  31
ENDBRANCH   1  24
TORSDOF 7
ENDMDL
MODEL 9
REMARK VINA RESULT:      -8.1      6.529     14.860
REMARK  7 active torsions:
REMARK  status: ('A' for Active; 'I' for Inactive)
REMARK    1  A    between atoms: C_3  and  N_4 
REMARK    2  A    between atoms: N_7  and  C_9 
REMARK    3  A    between atoms: N_12  and  C_13 
REMARK    4  A    between atoms: C_16  and  C_17 
REMARK       I    between atoms: C_17  and  N_18 
REMARK    5  A    between atoms: C_20  and  C_21 
REMARK    6  A    between atoms: C_21  and  O_22 
REMARK    7  A    between atoms: C_33  and  O_34 
ROOT
HETATM    1  C   UNL     1      -3.334   4.606 -33.469  1.00  0.00     0.191 C 
HETATM    2  C   UNL     1      -3.615   3.480 -32.459  1.00  0.00     0.053 C 
HETATM    3  C   UNL     1      -4.924   3.692 -31.703  1.00  0.00     0.125 C 
HETATM    4  N   UNL     1      -6.003   3.928 -32.654  1.00  0.00    -0.381 N 
HETATM    5  C   UNL     1      -5.844   4.905 -33.719  1.00  0.00     0.125 C 
HETATM    6  C   UNL     1      -4.521   4.692 -34.440  1.00  0.00     0.053 C 
ENDROOT
BRANCH   4   7
HETATM    7  C   UNL     1      -7.051   3.017 -32.678  1.00  0.00     0.030 A 
HETATM    8  C   UNL     1      -7.443   2.424 -33.889  1.00  0.00     0.030 A 
HETATM    9  C   UNL     1      -8.515   1.529 -33.950  1.00  0.00     0.019 A 
HETATM   10  C   UNL     1      -9.226   1.207 -32.792  1.00  0.00     0.032 A 
HETATM   11  C   UNL     1      -8.869   1.806 -31.582  1.00  0.00     0.019 A 
HETATM   12  C   UNL     1      -7.776   2.681 -31.526  1.00  0.00     0.030 A 
BRANCH  10  13
HETATM   13  C   UNL     1     -10.421   0.338 -32.918  1.00  0.00     0.253 C 
HETATM   14  N   UNL     1     -11.622   0.858 -33.414  1.00  0.00    -0.348 N 
HETATM   15  C   UNL     1     -12.036   2.249 -33.196  1.00  0.00     0.132 C 
HETATM   16  C   UNL     1     -12.725  -0.095 -33.557  1.00  0.00     0.126 C 
HETATM   17  C   UNL     1     -13.003   2.743 -34.279  1.00  0.00     0.027 C 
HETATM   18  C   UNL     1     -14.188   1.773 -34.415  1.00  0.00     0.010 C 
HETATM   19  C   UNL     1     -13.724   0.334 -34.626  1.00  0.00     0.020 C 
HETATM   20  O   UNL     1     -10.282  -0.843 -32.598  1.00  0.00    -0.267 OA
BRANCH  17  21
HETATM   21  C   UNL     1     -12.260   2.965 -35.604  1.00  0.00     0.170 C 
BRANCH  21  22
HETATM   22  O   UNL     1     -10.931   3.416 -35.384  1.00  0.00    -0.400 OA
HETATM   23  H   UNL     1     -10.602   3.013 -34.562  1.00  0.00     0.209 HD
ENDBRANCH  21  22
ENDBRANCH  17  21
ENDBRANCH  10  13
ENDBRANCH   4   7
BRANCH   1  24
HETATM   24  N   UNL     1      -3.045   5.940 -32.750  1.00  0.00    -0.064 N 
HETATM   25  C   UNL     1      -3.356   5.865 -31.237  1.00  0.00     0.255 C 
HETATM   26  C   UNL     1      -3.215   7.252 -30.583  1.00  0.00     0.150 C 
HETATM   27  N   UNL     1      -1.877   7.840 -30.817  1.00  0.00    -0.375 N 
HETATM   28  C   UNL     1      -1.431   7.835 -32.221  1.00  0.00     0.150 C 
HETATM   29  C   UNL     1      -1.607   6.462 -32.909  1.00  0.00     0.255 C 
HETATM   30  H   UNL     1      -3.656   6.663 -33.147  1.00  0.00     0.280 HD
BRANCH  27  31
HETATM   31  C   UNL     1      -0.944   7.608 -29.793  1.00  0.00     0.063 A 
HETATM   32  C   UNL     1      -0.116   6.481 -29.727  1.00  0.00     0.032 A 
HETATM   33  C   UNL     1       0.769   6.292 -28.655  1.00  0.00     0.002 A 
HETATM   34  C   UNL     1       0.852   7.232 -27.629  1.00  0.00     0.003 A 
HETATM   35  C   UNL     1       0.067   8.378 -27.683  1.00  0.00     0.039 A 
HETATM   36  C   UNL     1      -0.794   8.559 -28.759  1.00  0.00     0.092 A 
BRANCH  36  37
HETATM   37  O   UNL     1      -1.462   9.755 -28.834  1.00  0.00    -0.358 OA
HETATM   38  H   UNL     1      -2.401   9.511 -28.733  1.00  0.00     0.218 HD
ENDBRANCH  36  37
ENDBRANCH  27  31
ENDBRANCH   1  24
TORSDOF 7
ENDMDL
MODEL 10
REMARK VINA RESULT:      -8.0     13.824     17.639
REMARK  7 active torsions:
REMARK  status: ('A' for Active; 'I' for Inactive)
REMARK    1  A    between atoms: C_3  and  N_4 
REMARK    2  A    between atoms: N_7  and  C_9 
REMARK    3  A    between atoms: N_12  and  C_13 
REMARK    4  A    between atoms: C_16  and  C_17 
REMARK       I    between atoms: C_17  and  N_18 
REMARK    5  A    between atoms: C_20  and  C_21 
REMARK    6  A    between atoms: C_21  and  O_22 
REMARK    7  A    between atoms: C_33  and  O_34 
ROOT
HETATM    1  C   UNL     1      -9.900   1.427 -32.752  1.00  0.00     0.191 C 
HETATM    2  C   UNL     1      -9.969   2.739 -31.952  1.00  0.00     0.053 C 
HETATM    3  C   UNL     1      -9.754   3.968 -32.833  1.00  0.00     0.125 C 
HETATM    4  N   UNL     1     -10.660   3.912 -33.975  1.00  0.00    -0.381 N 
HETATM    5  C   UNL     1     -10.762   2.701 -34.773  1.00  0.00     0.125 C 
HETATM    6  C   UNL     1     -10.948   1.487 -33.873  1.00  0.00     0.053 C 
ENDROOT
BRANCH   4   7
HETATM    7  C   UNL     1     -11.597   4.928 -34.104  1.00  0.00     0.030 A 
HETATM    8  C   UNL     1     -12.489   4.932 -35.188  1.00  0.00     0.030 A 
HETATM    9  C   UNL     1     -13.422   5.958 -35.362  1.00  0.00     0.019 A 
HETATM   10  C   UNL     1     -13.480   7.014 -34.450  1.00  0.00     0.032 A 
HETATM   11  C   UNL     1     -12.584   7.043 -33.379  1.00  0.00     0.019 A 
HETATM   12  C   UNL     1     -11.671   5.996 -33.197  1.00  0.00     0.030 A 
BRANCH  10  13
HETATM   13  C   UNL     1     -14.410   8.136 -34.729  1.00  0.00     0.253 C 
HETATM   14  N   UNL     1     -14.210   8.956 -35.846  1.00  0.00    -0.348 N 
HETATM   15  C   UNL     1     -12.877   9.267 -36.373  1.00  0.00     0.132 C 
HETATM   16  C   UNL     1     -15.216   9.996 -36.068  1.00  0.00     0.126 C 
HETATM   17  C   UNL     1     -12.914   9.636 -37.862  1.00  0.00     0.027 C 
HETATM   18  C   UNL     1     -13.939  10.754 -38.108  1.00  0.00     0.010 C 
HETATM   19  C   UNL     1     -15.310  10.405 -37.533  1.00  0.00     0.020 C 
HETATM   20  O   UNL     1     -15.358   8.273 -33.956  1.00  0.00    -0.267 OA
BRANCH  17  21
HETATM   21  C   UNL     1     -13.177   8.388 -38.718  1.00  0.00     0.170 C 
BRANCH  21  22
HETATM   22  O   UNL     1     -13.152   8.695 -40.105  1.00  0.00    -0.400 OA
HETATM   23  H   UNL     1     -12.231   8.644 -40.414  1.00  0.00     0.209 HD
ENDBRANCH  21  22
ENDBRANCH  17  21
ENDBRANCH  10  13
ENDBRANCH   4   7
BRANCH   1  24
HETATM   24  N   UNL     1      -8.472   1.167 -33.275  1.00  0.00    -0.064 N 
HETATM   25  C   UNL     1      -7.663   0.251 -32.327  1.00  0.00     0.255 C 
HETATM   26  C   UNL     1      -6.197   0.147 -32.790  1.00  0.00     0.150 C 
HETATM   27  N   UNL     1      -6.092  -0.319 -34.191  1.00  0.00    -0.375 N 
HETATM   28  C   UNL     1      -6.933   0.410 -35.155  1.00  0.00     0.150 C 
HETATM   29  C   UNL     1      -8.399   0.565 -34.688  1.00  0.00     0.255 C 
HETATM   30  H   UNL     1      -7.974   2.065 -33.321  1.00  0.00     0.280 HD
BRANCH  27  31
HETATM   31  C   UNL     1      -5.910  -1.704 -34.339  1.00  0.00     0.063 A 
HETATM   32  C   UNL     1      -6.918  -2.590 -34.736  1.00  0.00     0.032 A 
HETATM   33  C   UNL     1      -6.679  -3.969 -34.829  1.00  0.00     0.002 A 
HETATM   34  C   UNL     1      -5.421  -4.492 -34.534  1.00  0.00     0.003 A 
HETATM   35  C   UNL     1      -4.390  -3.635 -34.169  1.00  0.00     0.039 A 
HETATM   36  C   UNL     1      -4.638  -2.269 -34.096  1.00  0.00     0.092 A 
BRANCH  36  37
HETATM   37  O   UNL     1      -3.567  -1.449 -33.849  1.00  0.00    -0.358 OA
HETATM   38  H   UNL     1      -2.974  -1.592 -34.610  1.00  0.00     0.218 HD
ENDBRANCH  36  37
ENDBRANCH  27  31
ENDBRANCH   1  24
TORSDOF 7
ENDMDL
