MODEL 1
REMARK VINA RESULT:      -9.1      0.000      0.000
REMARK  3 active torsions:
REMARK  status: ('A' for Active; 'I' for Inactive)
REMARK    1  A    between atoms: C_6  and  N_7 
REMARK       I    between atoms: N_7  and  C_8 
REMARK    2  A    between atoms: C_8  and  C_9 
REMARK    3  A    between atoms: C_9  and  C_10 
ROOT
HETATM    1  C   UNL     1      -9.692   1.562 -33.881  1.00  0.00     0.286 C 
HETATM    2  N   UNL     1     -10.594   2.003 -35.042  1.00  0.00    -0.056 N 
HETATM    3  H   UNL     1     -10.193   2.893 -35.411  1.00  0.00     0.278 HD
HETATM    4  H   UNL     1     -10.525   1.342 -35.824  1.00  0.00     0.278 HD
HETATM    5  C   UNL     1     -12.025   2.303 -34.706  1.00  0.00     0.209 C 
HETATM    6  C   UNL     1     -12.087   3.218 -33.461  1.00  0.00     0.115 C 
HETATM    7  N   UNL     1     -11.321   2.675 -32.345  1.00  0.00    -0.353 N 
HETATM    8  C   UNL     1     -10.086   2.105 -32.492  1.00  0.00     0.249 C 
HETATM    9  O   UNL     1      -9.344   1.988 -31.521  1.00  0.00    -0.271 OA
HETATM   10  C   UNL     1     -12.806   1.002 -34.528  1.00  0.00     0.035 C 
HETATM   11  C   UNL     1     -14.253   1.297 -34.134  1.00  0.00     0.002 C 
HETATM   12  C   UNL     1     -14.335   2.177 -32.887  1.00  0.00     0.002 C 
HETATM   13  C   UNL     1     -13.539   3.473 -33.049  1.00  0.00     0.027 C 
HETATM   14  H   UNL     1     -11.460   3.079 -31.420  1.00  0.00     0.163 HD
ENDROOT
BRANCH   1  15
HETATM   15  C   UNL     1      -8.231   1.951 -34.168  1.00  0.00     0.146 C 
BRANCH  15  16
HETATM   16  C   UNL     1      -7.548   0.703 -34.677  1.00  0.00     0.224 C 
HETATM   17  N   UNL     1      -7.404  -0.305 -33.761  1.00  0.00    -0.327 N 
HETATM   18  H   UNL     1      -7.950  -0.265 -32.904  1.00  0.00     0.169 HD
HETATM   19  O   UNL     1      -7.078   0.753 -35.817  1.00  0.00    -0.273 OA
BRANCH  17  20
HETATM   20  C   UNL     1      -6.514  -1.399 -33.850  1.00  0.00     0.035 A 
HETATM   21  C   UNL     1      -6.799  -2.580 -34.542  1.00  0.00     0.037 A 
HETATM   22  C   UNL     1      -5.841  -3.603 -34.673  1.00  0.00    -0.054 A 
HETATM   23  C   UNL     1      -4.587  -3.457 -34.053  1.00  0.00    -0.056 A 
HETATM   24  C   UNL     1      -6.195  -4.841 -35.453  1.00  0.00     0.049 C 
HETATM   25  C   UNL     1      -3.525  -4.517 -34.161  1.00  0.00     0.049 C 
HETATM   26  C   UNL     1      -4.306  -2.274 -33.357  1.00  0.00     0.009 A 
HETATM   27  C   UNL     1      -5.256  -1.254 -33.261  1.00  0.00     0.030 A 
ENDBRANCH  17  20
ENDBRANCH  15  16
ENDBRANCH   1  15
TORSDOF 3
ENDMDL
MODEL 2
REMARK VINA RESULT:      -8.8      5.097      7.402
REMARK  3 active torsions:
REMARK  status: ('A' for Active; 'I' for Inactive)
REMARK    1  A    between atoms: C_6  and  N_7 
REMARK       I    between atoms: N_7  and  C_8 
REMARK    2  A    between atoms: C_8  and  C_9 
REMARK    3  A    between atoms: C_9  and  C_10 
ROOT
HETATM    1  C   UNL     1      -3.524   3.157 -32.002  1.00  0.00     0.286 C 
HETATM    2  N   UNL     1      -2.455   3.820 -31.122  1.00  0.00    -0.056 N 
HETATM    3  H   UNL     1      -2.858   3.888 -30.162  1.00  0.00     0.278 HD
HETATM    4  H   UNL     1      -1.640   3.204 -31.020  1.00  0.00     0.278 HD
HETATM    5  C   UNL     1      -2.044   5.212 -31.499  1.00  0.00     0.209 C 
HETATM    6  C   UNL     1      -3.301   6.078 -31.744  1.00  0.00     0.115 C 
HETATM    7  N   UNL     1      -4.215   5.457 -32.695  1.00  0.00    -0.353 N 
HETATM    8  C   UNL     1      -4.516   4.123 -32.682  1.00  0.00     0.249 C 
HETATM    9  O   UNL     1      -5.526   3.715 -33.248  1.00  0.00    -0.271 OA
HETATM   10  C   UNL     1      -1.103   5.175 -32.701  1.00  0.00     0.035 C 
HETATM   11  C   UNL     1      -0.719   6.593 -33.124  1.00  0.00     0.002 C 
HETATM   12  C   UNL     1      -1.950   7.456 -33.400  1.00  0.00     0.002 C 
HETATM   13  C   UNL     1      -2.907   7.483 -32.208  1.00  0.00     0.027 C 
HETATM   14  H   UNL     1      -4.964   6.025 -33.089  1.00  0.00     0.163 HD
ENDROOT
BRANCH   1  15
HETATM   15  C   UNL     1      -4.321   2.127 -31.181  1.00  0.00     0.146 C 
BRANCH  15  16
HETATM   16  C   UNL     1      -4.135   0.795 -31.870  1.00  0.00     0.224 C 
HETATM   17  N   UNL     1      -4.928   0.584 -32.966  1.00  0.00    -0.327 N 
HETATM   18  H   UNL     1      -5.398   1.381 -33.387  1.00  0.00     0.169 HD
HETATM   19  O   UNL     1      -3.390  -0.018 -31.316  1.00  0.00    -0.273 OA
BRANCH  17  20
HETATM   20  C   UNL     1      -5.219  -0.664 -33.564  1.00  0.00     0.035 A 
HETATM   21  C   UNL     1      -4.344  -1.753 -33.557  1.00  0.00     0.037 A 
HETATM   22  C   UNL     1      -4.720  -3.000 -34.091  1.00  0.00    -0.054 A 
HETATM   23  C   UNL     1      -5.985  -3.142 -34.687  1.00  0.00    -0.056 A 
HETATM   24  C   UNL     1      -3.744  -4.145 -34.031  1.00  0.00     0.049 C 
HETATM   25  C   UNL     1      -6.441  -4.451 -35.272  1.00  0.00     0.049 C 
HETATM   26  C   UNL     1      -6.860  -2.047 -34.695  1.00  0.00     0.009 A 
HETATM   27  C   UNL     1      -6.484  -0.823 -34.135  1.00  0.00     0.030 A 
ENDBRANCH  17  20
ENDBRANCH  15  16
ENDBRANCH   1  15
TORSDOF 3
ENDMDL
MODEL 3
REMARK VINA RESULT:      -8.7      2.064      3.454
REMARK  3 active torsions:
REMARK  status: ('A' for Active; 'I' for Inactive)
REMARK    1  A    between atoms: C_6  and  N_7 
REMARK       I    between atoms: N_7  and  C_8 
REMARK    2  A    between atoms: C_8  and  C_9 
REMARK    3  A    between atoms: C_9  and  C_10 
ROOT
HETATM    1  C   UNL     1      -6.881   2.639 -31.737  1.00  0.00     0.286 C 
HETATM    2  N   UNL     1      -8.055   1.915 -31.065  1.00  0.00    -0.056 N 
HETATM    3  H   UNL     1      -7.760   0.923 -30.935  1.00  0.00     0.278 HD
HETATM    4  H   UNL     1      -8.201   2.271 -30.113  1.00  0.00     0.278 HD
HETATM    5  C   UNL     1      -9.343   1.866 -31.833  1.00  0.00     0.209 C 
HETATM    6  C   UNL     1      -9.065   1.425 -33.288  1.00  0.00     0.115 C 
HETATM    7  N   UNL     1      -8.034   2.241 -33.919  1.00  0.00    -0.353 N 
HETATM    8  C   UNL     1      -6.887   2.623 -33.280  1.00  0.00     0.249 C 
HETATM    9  O   UNL     1      -5.914   2.993 -33.931  1.00  0.00    -0.271 OA
HETATM   10  C   UNL     1     -10.059   3.212 -31.746  1.00  0.00     0.035 C 
HETATM   11  C   UNL     1     -11.347   3.188 -32.568  1.00  0.00     0.002 C 
HETATM   12  C   UNL     1     -11.087   2.783 -34.018  1.00  0.00     0.002 C 
HETATM   13  C   UNL     1     -10.354   1.444 -34.115  1.00  0.00     0.027 C 
HETATM   14  H   UNL     1      -7.920   2.180 -34.930  1.00  0.00     0.163 HD
ENDROOT
BRANCH   1  15
HETATM   15  C   UNL     1      -5.546   2.055 -31.242  1.00  0.00     0.146 C 
BRANCH  15  16
HETATM   16  C   UNL     1      -5.580   0.579 -31.560  1.00  0.00     0.224 C 
HETATM   17  N   UNL     1      -5.054   0.226 -32.775  1.00  0.00    -0.327 N 
HETATM   18  H   UNL     1      -4.477   0.901 -33.269  1.00  0.00     0.169 HD
HETATM   19  O   UNL     1      -6.181  -0.148 -30.765  1.00  0.00    -0.273 OA
BRANCH  17  20
HETATM   20  C   UNL     1      -5.276  -0.988 -33.465  1.00  0.00     0.035 A 
HETATM   21  C   UNL     1      -4.382  -2.062 -33.457  1.00  0.00     0.037 A 
HETATM   22  C   UNL     1      -4.693  -3.280 -34.090  1.00  0.00    -0.054 A 
HETATM   23  C   UNL     1      -5.909  -3.406 -34.785  1.00  0.00    -0.056 A 
HETATM   24  C   UNL     1      -3.702  -4.411 -34.026  1.00  0.00     0.049 C 
HETATM   25  C   UNL     1      -6.295  -4.684 -35.478  1.00  0.00     0.049 C 
HETATM   26  C   UNL     1      -6.802  -2.326 -34.794  1.00  0.00     0.009 A 
HETATM   27  C   UNL     1      -6.492  -1.132 -34.137  1.00  0.00     0.030 A 
ENDBRANCH  17  20
ENDBRANCH  15  16
ENDBRANCH   1  15
TORSDOF 3
ENDMDL
MODEL 4
REMARK VINA RESULT:      -8.6      5.107      7.377
REMARK  3 active torsions:
REMARK  status: ('A' for Active; 'I' for Inactive)
REMARK    1  A    between atoms: C_6  and  N_7 
REMARK       I    between atoms: N_7  and  C_8 
REMARK    2  A    between atoms: C_8  and  C_9 
REMARK    3  A    between atoms: C_9  and  C_10 
ROOT
HETATM    1  C   UNL     1      -4.250   3.665 -32.015  1.00  0.00     0.286 C 
HETATM    2  N   UNL     1      -2.900   3.342 -32.671  1.00  0.00    -0.056 N 
HETATM    3  H   UNL     1      -2.416   2.667 -32.039  1.00  0.00     0.278 HD
HETATM    4  H   UNL     1      -3.040   2.825 -33.548  1.00  0.00     0.278 HD
HETATM    5  C   UNL     1      -1.952   4.489 -32.858  1.00  0.00     0.209 C 
HETATM    6  C   UNL     1      -1.850   5.299 -31.546  1.00  0.00     0.115 C 
HETATM    7  N   UNL     1      -3.162   5.696 -31.045  1.00  0.00    -0.353 N 
HETATM    8  C   UNL     1      -4.244   4.860 -31.039  1.00  0.00     0.249 C 
HETATM    9  O   UNL     1      -5.202   5.099 -30.309  1.00  0.00    -0.271 OA
HETATM   10  C   UNL     1      -2.384   5.339 -34.051  1.00  0.00     0.035 C 
HETATM   11  C   UNL     1      -1.453   6.540 -34.218  1.00  0.00     0.002 C 
HETATM   12  C   UNL     1      -1.363   7.370 -32.938  1.00  0.00     0.002 C 
HETATM   13  C   UNL     1      -0.949   6.523 -31.734  1.00  0.00     0.027 C 
HETATM   14  H   UNL     1      -3.207   6.404 -30.313  1.00  0.00     0.163 HD
ENDROOT
BRANCH   1  15
HETATM   15  C   UNL     1      -4.791   2.428 -31.278  1.00  0.00     0.146 C 
BRANCH  15  16
HETATM   16  C   UNL     1      -5.366   1.516 -32.337  1.00  0.00     0.224 C 
HETATM   17  N   UNL     1      -5.445   0.192 -31.994  1.00  0.00    -0.327 N 
HETATM   18  H   UNL     1      -5.350  -0.063 -31.015  1.00  0.00     0.169 HD
HETATM   19  O   UNL     1      -5.591   2.018 -33.441  1.00  0.00    -0.273 OA
BRANCH  17  20
HETATM   20  C   UNL     1      -5.594  -0.898 -32.882  1.00  0.00     0.035 A 
HETATM   21  C   UNL     1      -4.596  -1.847 -33.123  1.00  0.00     0.037 A 
HETATM   22  C   UNL     1      -4.829  -2.961 -33.951  1.00  0.00    -0.054 A 
HETATM   23  C   UNL     1      -6.075  -3.099 -34.589  1.00  0.00    -0.056 A 
HETATM   24  C   UNL     1      -3.726  -3.965 -34.153  1.00  0.00     0.049 C 
HETATM   25  C   UNL     1      -6.380  -4.270 -35.482  1.00  0.00     0.049 C 
HETATM   26  C   UNL     1      -7.071  -2.144 -34.347  1.00  0.00     0.009 A 
HETATM   27  C   UNL     1      -6.836  -1.058 -33.499  1.00  0.00     0.030 A 
ENDBRANCH  17  20
ENDBRANCH  15  16
ENDBRANCH   1  15
TORSDOF 3
ENDMDL
MODEL 5
REMARK VINA RESULT:      -8.4      2.750      4.673
REMARK  3 active torsions:
REMARK  status: ('A' for Active; 'I' for Inactive)
REMARK    1  A    between atoms: C_6  and  N_7 
REMARK       I    between atoms: N_7  and  C_8 
REMARK    2  A    between atoms: C_8  and  C_9 
REMARK    3  A    between atoms: C_9  and  C_10 
ROOT
HETATM    1  C   UNL     1      -8.400   2.109 -33.350  1.00  0.00     0.286 C 
HETATM    2  N   UNL     1      -7.090   2.766 -33.805  1.00  0.00    -0.056 N 
HETATM    3  H   UNL     1      -6.608   2.076 -34.422  1.00  0.00     0.278 HD
HETATM    4  H   UNL     1      -7.282   3.571 -34.413  1.00  0.00     0.278 HD
HETATM    5  C   UNL     1      -6.105   3.117 -32.729  1.00  0.00     0.209 C 
HETATM    6  C   UNL     1      -5.923   1.914 -31.777  1.00  0.00     0.115 C 
HETATM    7  N   UNL     1      -7.198   1.420 -31.269  1.00  0.00    -0.353 N 
HETATM    8  C   UNL     1      -8.311   1.280 -32.051  1.00  0.00     0.249 C 
HETATM    9  O   UNL     1      -9.230   0.552 -31.688  1.00  0.00    -0.271 OA
HETATM   10  C   UNL     1      -6.549   4.388 -32.006  1.00  0.00     0.035 C 
HETATM   11  C   UNL     1      -5.579   4.725 -30.874  1.00  0.00     0.002 C 
HETATM   12  C   UNL     1      -5.408   3.556 -29.904  1.00  0.00     0.002 C 
HETATM   13  C   UNL     1      -4.983   2.275 -30.623  1.00  0.00     0.027 C 
HETATM   14  H   UNL     1      -7.188   0.776 -30.480  1.00  0.00     0.163 HD
ENDROOT
BRANCH   1  15
HETATM   15  C   UNL     1      -8.960   1.214 -34.469  1.00  0.00     0.146 C 
BRANCH  15  16
HETATM   16  C   UNL     1      -7.838   0.289 -34.881  1.00  0.00     0.224 C 
HETATM   17  N   UNL     1      -7.741  -0.874 -34.163  1.00  0.00    -0.327 N 
HETATM   18  H   UNL     1      -8.529  -1.157 -33.588  1.00  0.00     0.169 HD
HETATM   19  O   UNL     1      -7.049   0.716 -35.727  1.00  0.00    -0.273 OA
BRANCH  17  20
HETATM   20  C   UNL     1      -6.612  -1.722 -34.088  1.00  0.00     0.035 A 
HETATM   21  C   UNL     1      -5.493  -1.459 -33.293  1.00  0.00     0.037 A 
HETATM   22  C   UNL     1      -4.435  -2.381 -33.189  1.00  0.00    -0.054 A 
HETATM   23  C   UNL     1      -4.480  -3.570 -33.938  1.00  0.00    -0.056 A 
HETATM   24  C   UNL     1      -3.267  -2.056 -32.297  1.00  0.00     0.049 C 
HETATM   25  C   UNL     1      -3.378  -4.592 -33.864  1.00  0.00     0.049 C 
HETATM   26  C   UNL     1      -5.602  -3.829 -34.736  1.00  0.00     0.009 A 
HETATM   27  C   UNL     1      -6.659  -2.918 -34.807  1.00  0.00     0.030 A 
ENDBRANCH  17  20
ENDBRANCH  15  16
ENDBRANCH   1  15
TORSDOF 3
ENDMDL
MODEL 6
REMARK VINA RESULT:      -8.1      5.319      7.531
REMARK  3 active torsions:
REMARK  status: ('A' for Active; 'I' for Inactive)
REMARK    1  A    between atoms: C_6  and  N_7 
REMARK       I    between atoms: N_7  and  C_8 
REMARK    2  A    between atoms: C_8  and  C_9 
REMARK    3  A    between atoms: C_9  and  C_10 
ROOT
HETATM    1  C   UNL     1      -4.268   4.045 -31.347  1.00  0.00     0.286 C 
HETATM    2  N   UNL     1      -2.753   4.100 -31.104  1.00  0.00    -0.056 N 
HETATM    3  H   UNL     1      -2.620   4.244 -30.079  1.00  0.00     0.278 HD
HETATM    4  H   UNL     1      -2.324   3.187 -31.298  1.00  0.00     0.278 HD
HETATM    5  C   UNL     1      -2.004   5.211 -31.779  1.00  0.00     0.209 C 
HETATM    6  C   UNL     1      -2.740   6.550 -31.549  1.00  0.00     0.115 C 
HETATM    7  N   UNL     1      -4.146   6.474 -31.928  1.00  0.00    -0.353 N 
HETATM    8  C   UNL     1      -4.943   5.403 -31.631  1.00  0.00     0.249 C 
HETATM    9  O   UNL     1      -6.166   5.522 -31.649  1.00  0.00    -0.271 OA
HETATM   10  C   UNL     1      -1.805   4.887 -33.259  1.00  0.00     0.035 C 
HETATM   11  C   UNL     1      -1.088   6.037 -33.966  1.00  0.00     0.002 C 
HETATM   12  C   UNL     1      -1.818   7.365 -33.774  1.00  0.00     0.002 C 
HETATM   13  C   UNL     1      -2.038   7.688 -32.296  1.00  0.00     0.027 C 
HETATM   14  H   UNL     1      -4.672   7.342 -32.018  1.00  0.00     0.163 HD
ENDROOT
BRANCH   1  15
HETATM   15  C   UNL     1      -4.972   3.384 -30.149  1.00  0.00     0.146 C 
BRANCH  15  16
HETATM   16  C   UNL     1      -5.315   1.976 -30.577  1.00  0.00     0.224 C 
HETATM   17  N   UNL     1      -4.683   1.536 -31.710  1.00  0.00    -0.327 N 
HETATM   18  H   UNL     1      -3.877   2.053 -32.050  1.00  0.00     0.169 HD
HETATM   19  O   UNL     1      -6.212   1.407 -29.950  1.00  0.00    -0.273 OA
BRANCH  17  20
HETATM   20  C   UNL     1      -5.072   0.441 -32.516  1.00  0.00     0.035 A 
HETATM   21  C   UNL     1      -6.143   0.477 -33.414  1.00  0.00     0.037 A 
HETATM   22  C   UNL     1      -6.432  -0.615 -34.255  1.00  0.00    -0.054 A 
HETATM   23  C   UNL     1      -5.658  -1.784 -34.158  1.00  0.00    -0.056 A 
HETATM   24  C   UNL     1      -7.581  -0.509 -35.220  1.00  0.00     0.049 C 
HETATM   25  C   UNL     1      -5.919  -2.980 -35.032  1.00  0.00     0.049 C 
HETATM   26  C   UNL     1      -4.587  -1.818 -33.255  1.00  0.00     0.009 A 
HETATM   27  C   UNL     1      -4.293  -0.716 -32.446  1.00  0.00     0.030 A 
ENDBRANCH  17  20
ENDBRANCH  15  16
ENDBRANCH   1  15
TORSDOF 3
ENDMDL
MODEL 7
REMARK VINA RESULT:      -8.0      3.322      4.176
REMARK  3 active torsions:
REMARK  status: ('A' for Active; 'I' for Inactive)
REMARK    1  A    between atoms: C_6  and  N_7 
REMARK       I    between atoms: N_7  and  C_8 
REMARK    2  A    between atoms: C_8  and  C_9 
REMARK    3  A    between atoms: C_9  and  C_10 
ROOT
HETATM    1  C   UNL     1      -6.131   2.770 -30.881  1.00  0.00     0.286 C 
HETATM    2  N   UNL     1      -7.286   2.327 -31.789  1.00  0.00    -0.056 N 
HETATM    3  H   UNL     1      -6.918   2.332 -32.766  1.00  0.00     0.278 HD
HETATM    4  H   UNL     1      -7.532   1.346 -31.608  1.00  0.00     0.278 HD
HETATM    5  C   UNL     1      -8.504   3.202 -31.803  1.00  0.00     0.209 C 
HETATM    6  C   UNL     1      -8.083   4.679 -31.975  1.00  0.00     0.115 C 
HETATM    7  N   UNL     1      -7.081   5.080 -30.993  1.00  0.00    -0.353 N 
HETATM    8  C   UNL     1      -6.021   4.290 -30.641  1.00  0.00     0.249 C 
HETATM    9  O   UNL     1      -5.038   4.787 -30.099  1.00  0.00    -0.271 OA
HETATM   10  C   UNL     1      -9.336   2.963 -30.544  1.00  0.00     0.035 C 
HETATM   11  C   UNL     1     -10.553   3.888 -30.524  1.00  0.00     0.002 C 
HETATM   12  C   UNL     1     -10.153   5.356 -30.663  1.00  0.00     0.002 C 
HETATM   13  C   UNL     1      -9.304   5.601 -31.911  1.00  0.00     0.027 C 
HETATM   14  H   UNL     1      -6.887   6.073 -30.877  1.00  0.00     0.163 HD
ENDROOT
BRANCH   1  15
HETATM   15  C   UNL     1      -4.791   2.260 -31.441  1.00  0.00     0.146 C 
BRANCH  15  16
HETATM   16  C   UNL     1      -4.968   0.782 -31.697  1.00  0.00     0.224 C 
HETATM   17  N   UNL     1      -4.612   0.354 -32.948  1.00  0.00    -0.327 N 
HETATM   18  H   UNL     1      -4.047   0.968 -33.529  1.00  0.00     0.169 HD
HETATM   19  O   UNL     1      -5.527   0.128 -30.812  1.00  0.00    -0.273 OA
BRANCH  17  20
HETATM   20  C   UNL     1      -4.998  -0.860 -33.562  1.00  0.00     0.035 A 
HETATM   21  C   UNL     1      -4.215  -2.017 -33.559  1.00  0.00     0.037 A 
HETATM   22  C   UNL     1      -4.687  -3.223 -34.110  1.00  0.00    -0.054 A 
HETATM   23  C   UNL     1      -5.954  -3.255 -34.720  1.00  0.00    -0.056 A 
HETATM   24  C   UNL     1      -3.810  -4.445 -34.054  1.00  0.00     0.049 C 
HETATM   25  C   UNL     1      -6.510  -4.515 -35.323  1.00  0.00     0.049 C 
HETATM   26  C   UNL     1      -6.735  -2.091 -34.724  1.00  0.00     0.009 A 
HETATM   27  C   UNL     1      -6.265  -0.908 -34.147  1.00  0.00     0.030 A 
ENDBRANCH  17  20
ENDBRANCH  15  16
ENDBRANCH   1  15
TORSDOF 3
ENDMDL
MODEL 8
REMARK VINA RESULT:      -7.9      1.900      2.594
REMARK  3 active torsions:
REMARK  status: ('A' for Active; 'I' for Inactive)
REMARK    1  A    between atoms: C_6  and  N_7 
REMARK       I    between atoms: N_7  and  C_8 
REMARK    2  A    between atoms: C_8  and  C_9 
REMARK    3  A    between atoms: C_9  and  C_10 
ROOT
HETATM    1  C   UNL     1      -8.716   1.732 -31.952  1.00  0.00     0.286 C 
HETATM    2  N   UNL     1      -8.882   0.859 -33.204  1.00  0.00    -0.056 N 
HETATM    3  H   UNL     1      -8.142   1.158 -33.876  1.00  0.00     0.278 HD
HETATM    4  H   UNL     1      -8.662  -0.121 -32.992  1.00  0.00     0.278 HD
HETATM    5  C   UNL     1     -10.183   0.980 -33.940  1.00  0.00     0.209 C 
HETATM    6  C   UNL     1     -10.528   2.472 -34.148  1.00  0.00     0.115 C 
HETATM    7  N   UNL     1     -10.488   3.222 -32.897  1.00  0.00    -0.353 N 
HETATM    8  C   UNL     1      -9.508   3.056 -31.957  1.00  0.00     0.249 C 
HETATM    9  O   UNL     1      -9.313   3.926 -31.112  1.00  0.00    -0.271 OA
HETATM   10  C   UNL     1     -11.278   0.213 -33.200  1.00  0.00     0.035 C 
HETATM   11  C   UNL     1     -12.620   0.373 -33.915  1.00  0.00     0.002 C 
HETATM   12  C   UNL     1     -12.991   1.844 -34.103  1.00  0.00     0.002 C 
HETATM   13  C   UNL     1     -11.892   2.623 -34.826  1.00  0.00     0.027 C 
HETATM   14  H   UNL     1     -10.897   4.155 -32.878  1.00  0.00     0.163 HD
ENDROOT
BRANCH   1  15
HETATM   15  C   UNL     1      -7.228   2.047 -31.719  1.00  0.00     0.146 C 
BRANCH  15  16
HETATM   16  C   UNL     1      -6.519   0.716 -31.621  1.00  0.00     0.224 C 
HETATM   17  N   UNL     1      -5.577   0.479 -32.586  1.00  0.00    -0.327 N 
HETATM   18  H   UNL     1      -5.243   1.261 -33.142  1.00  0.00     0.169 HD
HETATM   19  O   UNL     1      -6.935  -0.074 -30.769  1.00  0.00    -0.273 OA
BRANCH  17  20
HETATM   20  C   UNL     1      -5.040  -0.780 -32.943  1.00  0.00     0.035 A 
HETATM   21  C   UNL     1      -4.114  -1.480 -32.166  1.00  0.00     0.037 A 
HETATM   22  C   UNL     1      -3.679  -2.769 -32.527  1.00  0.00    -0.054 A 
HETATM   23  C   UNL     1      -4.148  -3.347 -33.719  1.00  0.00    -0.056 A 
HETATM   24  C   UNL     1      -2.700  -3.486 -31.636  1.00  0.00     0.049 C 
HETATM   25  C   UNL     1      -3.719  -4.722 -34.154  1.00  0.00     0.049 C 
HETATM   26  C   UNL     1      -5.074  -2.641 -34.498  1.00  0.00     0.009 A 
HETATM   27  C   UNL     1      -5.520  -1.373 -34.113  1.00  0.00     0.030 A 
ENDBRANCH  17  20
ENDBRANCH  15  16
ENDBRANCH   1  15
TORSDOF 3
ENDMDL
MODEL 9
REMARK VINA RESULT:      -7.9      5.611      7.875
REMARK  3 active torsions:
REMARK  status: ('A' for Active; 'I' for Inactive)
REMARK    1  A    between atoms: C_6  and  N_7 
REMARK       I    between atoms: N_7  and  C_8 
REMARK    2  A    between atoms: C_8  and  C_9 
REMARK    3  A    between atoms: C_9  and  C_10 
ROOT
HETATM    1  C   UNL     1      -4.833   6.421 -32.321  1.00  0.00     0.286 C 
HETATM    2  N   UNL     1      -3.700   6.306 -33.350  1.00  0.00    -0.056 N 
HETATM    3  H   UNL     1      -3.934   5.493 -33.962  1.00  0.00     0.278 HD
HETATM    4  H   UNL     1      -3.701   7.117 -33.981  1.00  0.00     0.278 HD
HETATM    5  C   UNL     1      -2.327   6.036 -32.810  1.00  0.00     0.209 C 
HETATM    6  C   UNL     1      -2.387   4.877 -31.789  1.00  0.00     0.115 C 
HETATM    7  N   UNL     1      -3.390   5.110 -30.756  1.00  0.00    -0.353 N 
HETATM    8  C   UNL     1      -4.633   5.615 -31.021  1.00  0.00     0.249 C 
HETATM    9  O   UNL     1      -5.543   5.467 -30.209  1.00  0.00    -0.271 OA
HETATM   10  C   UNL     1      -1.732   7.315 -32.225  1.00  0.00     0.035 C 
HETATM   11  C   UNL     1      -0.353   7.039 -31.626  1.00  0.00     0.002 C 
HETATM   12  C   UNL     1      -0.398   5.915 -30.591  1.00  0.00     0.002 C 
HETATM   13  C   UNL     1      -1.010   4.636 -31.164  1.00  0.00     0.027 C 
HETATM   14  H   UNL     1      -3.372   4.524 -29.923  1.00  0.00     0.163 HD
ENDROOT
BRANCH   1  15
HETATM   15  C   UNL     1      -6.171   6.008 -32.958  1.00  0.00     0.146 C 
BRANCH  15  16
HETATM   16  C   UNL     1      -5.953   4.642 -33.565  1.00  0.00     0.224 C 
HETATM   17  N   UNL     1      -6.248   3.582 -32.749  1.00  0.00    -0.327 N 
HETATM   18  H   UNL     1      -6.801   3.751 -31.913  1.00  0.00     0.169 HD
HETATM   19  O   UNL     1      -5.419   4.605 -34.676  1.00  0.00    -0.273 OA
BRANCH  17  20
HETATM   20  C   UNL     1      -5.811   2.247 -32.915  1.00  0.00     0.035 A 
HETATM   21  C   UNL     1      -6.465   1.309 -33.719  1.00  0.00     0.037 A 
HETATM   22  C   UNL     1      -5.937   0.020 -33.918  1.00  0.00    -0.054 A 
HETATM   23  C   UNL     1      -4.753  -0.351 -33.256  1.00  0.00    -0.056 A 
HETATM   24  C   UNL     1      -6.670  -0.940 -34.816  1.00  0.00     0.049 C 
HETATM   25  C   UNL     1      -4.142  -1.714 -33.433  1.00  0.00     0.049 C 
HETATM   26  C   UNL     1      -4.102   0.591 -32.448  1.00  0.00     0.009 A 
HETATM   27  C   UNL     1      -4.622   1.878 -32.283  1.00  0.00     0.030 A 
ENDBRANCH  17  20
ENDBRANCH  15  16
ENDBRANCH   1  15
TORSDOF 3
ENDMDL
MODEL 10
REMARK VINA RESULT:      -7.9      3.575      5.657
REMARK  3 active torsions:
REMARK  status: ('A' for Active; 'I' for Inactive)
REMARK    1  A    between atoms: C_6  and  N_7 
REMARK       I    between atoms: N_7  and  C_8 
REMARK    2  A    between atoms: C_8  and  C_9 
REMARK    3  A    between atoms: C_9  and  C_10 
ROOT
HETATM    1  C   UNL     1      -6.462   3.346 -33.814  1.00  0.00     0.286 C 
HETATM    2  N   UNL     1      -5.284   2.686 -33.084  1.00  0.00    -0.056 N 
HETATM    3  H   UNL     1      -5.695   2.094 -32.329  1.00  0.00     0.278 HD
HETATM    4  H   UNL     1      -4.802   2.023 -33.703  1.00  0.00     0.278 HD
HETATM    5  C   UNL     1      -4.313   3.606 -32.405  1.00  0.00     0.209 C 
HETATM    6  C   UNL     1      -5.085   4.650 -31.566  1.00  0.00     0.115 C 
HETATM    7  N   UNL     1      -6.099   5.343 -32.353  1.00  0.00    -0.353 N 
HETATM    8  C   UNL     1      -6.919   4.705 -33.243  1.00  0.00     0.249 C 
HETATM    9  O   UNL     1      -7.962   5.239 -33.610  1.00  0.00    -0.271 OA
HETATM   10  C   UNL     1      -3.382   4.241 -33.436  1.00  0.00     0.035 C 
HETATM   11  C   UNL     1      -2.422   5.220 -32.760  1.00  0.00     0.002 C 
HETATM   12  C   UNL     1      -3.169   6.278 -31.950  1.00  0.00     0.002 C 
HETATM   13  C   UNL     1      -4.118   5.651 -30.927  1.00  0.00     0.027 C 
HETATM   14  H   UNL     1      -6.518   6.187 -31.968  1.00  0.00     0.163 HD
ENDROOT
BRANCH   1  15
HETATM   15  C   UNL     1      -7.669   2.392 -33.844  1.00  0.00     0.146 C 
BRANCH  15  16
HETATM   16  C   UNL     1      -7.169   1.087 -34.419  1.00  0.00     0.224 C 
HETATM   17  N   UNL     1      -7.079   0.049 -33.530  1.00  0.00    -0.327 N 
HETATM   18  H   UNL     1      -7.558   0.130 -32.638  1.00  0.00     0.169 HD
HETATM   19  O   UNL     1      -6.774   1.109 -35.588  1.00  0.00    -0.273 OA
BRANCH  17  20
HETATM   20  C   UNL     1      -6.328  -1.138 -33.699  1.00  0.00     0.035 A 
HETATM   21  C   UNL     1      -6.785  -2.255 -34.403  1.00  0.00     0.037 A 
HETATM   22  C   UNL     1      -5.961  -3.376 -34.614  1.00  0.00    -0.054 A 
HETATM   23  C   UNL     1      -4.667  -3.395 -34.065  1.00  0.00    -0.056 A 
HETATM   24  C   UNL     1      -6.498  -4.540 -35.404  1.00  0.00     0.049 C 
HETATM   25  C   UNL     1      -3.742  -4.565 -34.260  1.00  0.00     0.049 C 
HETATM   26  C   UNL     1      -4.213  -2.274 -33.356  1.00  0.00     0.009 A 
HETATM   27  C   UNL     1      -5.032  -1.156 -33.179  1.00  0.00     0.030 A 
ENDBRANCH  17  20
ENDBRANCH  15  16
ENDBRANCH   1  15
TORSDOF 3
ENDMDL
