MODEL 1
REMARK VINA RESULT:      -9.1      0.000      0.000
REMARK  3 active torsions:
REMARK  status: ('A' for Active; 'I' for Inactive)
REMARK    1  A    between atoms: O_2  and  C_3 
REMARK    2  A    between atoms: C_9  and  C_10 
REMARK       I    between atoms: C_10  and  N_11 
REMARK    3  A    between atoms: N_11  and  C_12 
ROOT
HETATM    1  C   UNL     1      -5.851  -3.000 -34.457  1.00  0.00     0.068 A 
HETATM    2  C   UNL     1      -4.665  -2.472 -33.939  1.00  0.00     0.044 A 
HETATM    3  C   UNL     1      -4.576  -1.119 -33.584  1.00  0.00    -0.043 A 
HETATM    4  C   UNL     1      -5.695  -0.279 -33.783  1.00  0.00    -0.001 A 
HETATM    5  C   UNL     1      -5.540   1.109 -33.379  1.00  0.00     0.069 A 
HETATM    6  C   UNL     1      -4.482   1.591 -32.642  1.00  0.00     0.007 A 
HETATM    7  C   UNL     1      -4.745   2.970 -32.452  1.00  0.00     0.153 A 
HETATM    8  N   UNL     1      -5.897   3.326 -33.071  1.00  0.00    -0.168 NA
HETATM    9  N   UNL     1      -6.345   2.177 -33.620  1.00  0.00    -0.276 N 
HETATM   10  H   UNL     1      -7.211   2.202 -34.147  1.00  0.00     0.189 HD
HETATM   11  C   UNL     1      -3.391   0.697 -32.168  1.00  0.00     0.048 C 
HETATM   12  C   UNL     1      -3.255  -0.545 -33.084  1.00  0.00     0.044 C 
HETATM   13  C   UNL     1      -6.876  -0.805 -34.306  1.00  0.00     0.017 A 
HETATM   14  C   UNL     1      -6.954  -2.162 -34.639  1.00  0.00     0.037 A 
ENDROOT
BRANCH   7  15
HETATM   15  C   UNL     1      -3.949   3.952 -31.687  1.00  0.00     0.277 C 
HETATM   16  N   UNL     1      -2.694   4.125 -32.237  1.00  0.00    -0.322 N 
HETATM   17  H   UNL     1      -2.537   3.542 -33.057  1.00  0.00     0.169 HD
HETATM   18  O   UNL     1      -4.398   4.523 -30.698  1.00  0.00    -0.266 OA
BRANCH  16  19
HETATM   19  C   UNL     1      -1.666   4.989 -31.827  1.00  0.00     0.037 A 
HETATM   20  C   UNL     1      -0.850   4.756 -30.720  1.00  0.00     0.071 A 
HETATM   21  C   UNL     1       0.140   5.678 -30.386  1.00  0.00     0.118 A 
HETATM   22  F   UNL     1       0.919   5.451 -29.320  1.00  0.00    -0.206 F 
HETATM   23  C   UNL     1       0.335   6.832 -31.134  1.00  0.00     0.042 A 
HETATM   24  C   UNL     1      -0.473   7.072 -32.242  1.00  0.00     0.005 A 
HETATM   25  C   UNL     1      -1.470   6.153 -32.585  1.00  0.00     0.029 A 
ENDBRANCH  16  19
ENDBRANCH   7  15
BRANCH   1  26
HETATM   26  O   UNL     1      -5.801  -4.337 -34.746  1.00  0.00    -0.356 OA
HETATM   27  C   UNL     1      -4.693  -5.066 -34.235  1.00  0.00     0.210 C 
ENDBRANCH   1  26
TORSDOF 3
ENDMDL
MODEL 2
REMARK VINA RESULT:      -8.9      1.765      2.576
REMARK  3 active torsions:
REMARK  status: ('A' for Active; 'I' for Inactive)
REMARK    1  A    between atoms: O_2  and  C_3 
REMARK    2  A    between atoms: C_9  and  C_10 
REMARK       I    between atoms: C_10  and  N_11 
REMARK    3  A    between atoms: N_11  and  C_12 
ROOT
HETATM    1  C   UNL     1      -4.940  -4.078 -34.252  1.00  0.00     0.068 A 
HETATM    2  C   UNL     1      -5.627  -2.866 -34.364  1.00  0.00     0.044 A 
HETATM    3  C   UNL     1      -5.184  -1.725 -33.682  1.00  0.00    -0.043 A 
HETATM    4  C   UNL     1      -4.046  -1.816 -32.850  1.00  0.00    -0.001 A 
HETATM    5  C   UNL     1      -3.632  -0.592 -32.184  1.00  0.00     0.069 A 
HETATM    6  C   UNL     1      -4.133   0.658 -32.472  1.00  0.00     0.007 A 
HETATM    7  C   UNL     1      -3.440   1.554 -31.622  1.00  0.00     0.153 A 
HETATM    8  N   UNL     1      -2.574   0.882 -30.825  1.00  0.00    -0.168 NA
HETATM    9  N   UNL     1      -2.720  -0.409 -31.193  1.00  0.00    -0.276 N 
HETATM   10  H   UNL     1      -2.162  -1.110 -30.719  1.00  0.00     0.189 HD
HETATM   11  C   UNL     1      -5.154   0.861 -33.536  1.00  0.00     0.048 C 
HETATM   12  C   UNL     1      -5.983  -0.428 -33.762  1.00  0.00     0.044 C 
HETATM   13  C   UNL     1      -3.364  -3.027 -32.733  1.00  0.00     0.017 A 
HETATM   14  C   UNL     1      -3.810  -4.154 -33.434  1.00  0.00     0.037 A 
ENDROOT
BRANCH   7  15
HETATM   15  C   UNL     1      -3.560   3.025 -31.556  1.00  0.00     0.277 C 
HETATM   16  N   UNL     1      -2.461   3.648 -32.114  1.00  0.00    -0.322 N 
HETATM   17  H   UNL     1      -1.765   2.989 -32.458  1.00  0.00     0.169 HD
HETATM   18  O   UNL     1      -4.540   3.576 -31.064  1.00  0.00    -0.266 OA
BRANCH  16  19
HETATM   19  C   UNL     1      -2.216   5.021 -32.273  1.00  0.00     0.037 A 
HETATM   20  C   UNL     1      -1.801   5.862 -31.241  1.00  0.00     0.071 A 
HETATM   21  C   UNL     1      -1.592   7.216 -31.495  1.00  0.00     0.118 A 
HETATM   22  F   UNL     1      -1.196   8.019 -30.499  1.00  0.00    -0.206 F 
HETATM   23  C   UNL     1      -1.788   7.753 -32.762  1.00  0.00     0.042 A 
HETATM   24  C   UNL     1      -2.200   6.921 -33.798  1.00  0.00     0.005 A 
HETATM   25  C   UNL     1      -2.413   5.561 -33.553  1.00  0.00     0.029 A 
ENDBRANCH  16  19
ENDBRANCH   7  15
BRANCH   1  26
HETATM   26  O   UNL     1      -5.474  -5.105 -34.982  1.00  0.00    -0.356 OA
HETATM   27  C   UNL     1      -6.634  -4.815 -35.751  1.00  0.00     0.210 C 
ENDBRANCH   1  26
TORSDOF 3
ENDMDL
MODEL 3
REMARK VINA RESULT:      -8.9      1.169      1.450
REMARK  3 active torsions:
REMARK  status: ('A' for Active; 'I' for Inactive)
REMARK    1  A    between atoms: O_2  and  C_3 
REMARK    2  A    between atoms: C_9  and  C_10 
REMARK       I    between atoms: C_10  and  N_11 
REMARK    3  A    between atoms: N_11  and  C_12 
ROOT
HETATM    1  C   UNL     1      -5.629  -3.125 -34.425  1.00  0.00     0.068 A 
HETATM    2  C   UNL     1      -4.495  -2.491 -33.910  1.00  0.00     0.044 A 
HETATM    3  C   UNL     1      -4.523  -1.131 -33.576  1.00  0.00    -0.043 A 
HETATM    4  C   UNL     1      -5.707  -0.391 -33.792  1.00  0.00    -0.001 A 
HETATM    5  C   UNL     1      -5.673   1.011 -33.409  1.00  0.00     0.069 A 
HETATM    6  C   UNL     1      -4.664   1.592 -32.675  1.00  0.00     0.007 A 
HETATM    7  C   UNL     1      -5.043   2.946 -32.507  1.00  0.00     0.153 A 
HETATM    8  N   UNL     1      -6.217   3.194 -33.136  1.00  0.00    -0.168 NA
HETATM    9  N   UNL     1      -6.564   2.004 -33.670  1.00  0.00    -0.276 N 
HETATM   10  H   UNL     1      -7.426   1.947 -34.202  1.00  0.00     0.189 HD
HETATM   11  C   UNL     1      -3.504   0.800 -32.183  1.00  0.00     0.048 C 
HETATM   12  C   UNL     1      -3.258  -0.439 -33.079  1.00  0.00     0.044 C 
HETATM   13  C   UNL     1      -6.837  -1.022 -34.312  1.00  0.00     0.017 A 
HETATM   14  C   UNL     1      -6.798  -2.386 -34.625  1.00  0.00     0.037 A 
ENDROOT
BRANCH   7  15
HETATM   15  C   UNL     1      -4.337   4.004 -31.754  1.00  0.00     0.277 C 
HETATM   16  N   UNL     1      -3.194   4.414 -32.409  1.00  0.00    -0.322 N 
HETATM   17  H   UNL     1      -3.035   3.913 -33.281  1.00  0.00     0.169 HD
HETATM   18  O   UNL     1      -4.762   4.435 -30.686  1.00  0.00    -0.266 OA
BRANCH  16  19
HETATM   19  C   UNL     1      -2.279   5.414 -32.039  1.00  0.00     0.037 A 
HETATM   20  C   UNL     1      -2.535   6.781 -32.147  1.00  0.00     0.071 A 
HETATM   21  C   UNL     1      -1.560   7.698 -31.763  1.00  0.00     0.118 A 
HETATM   22  F   UNL     1      -1.810   9.010 -31.871  1.00  0.00    -0.206 F 
HETATM   23  C   UNL     1      -0.330   7.281 -31.269  1.00  0.00     0.042 A 
HETATM   24  C   UNL     1      -0.066   5.920 -31.155  1.00  0.00     0.005 A 
HETATM   25  C   UNL     1      -1.038   4.991 -31.540  1.00  0.00     0.029 A 
ENDBRANCH  16  19
ENDBRANCH   7  15
BRANCH   1  26
HETATM   26  O   UNL     1      -5.465  -4.457 -34.694  1.00  0.00    -0.356 OA
HETATM   27  C   UNL     1      -4.354  -5.105 -34.088  1.00  0.00     0.210 C 
ENDBRANCH   1  26
TORSDOF 3
ENDMDL
MODEL 4
REMARK VINA RESULT:      -8.8      3.041      8.348
REMARK  3 active torsions:
REMARK  status: ('A' for Active; 'I' for Inactive)
REMARK    1  A    between atoms: O_2  and  C_3 
REMARK    2  A    between atoms: C_9  and  C_10 
REMARK       I    between atoms: C_10  and  N_11 
REMARK    3  A    between atoms: N_11  and  C_12 
ROOT
HETATM    1  C   UNL     1      -1.972   6.270 -32.188  1.00  0.00     0.068 A 
HETATM    2  C   UNL     1      -1.974   4.995 -31.615  1.00  0.00     0.044 A 
HETATM    3  C   UNL     1      -2.963   4.060 -31.949  1.00  0.00    -0.043 A 
HETATM    4  C   UNL     1      -3.983   4.427 -32.856  1.00  0.00    -0.001 A 
HETATM    5  C   UNL     1      -4.966   3.405 -33.171  1.00  0.00     0.069 A 
HETATM    6  C   UNL     1      -4.849   2.078 -32.820  1.00  0.00     0.007 A 
HETATM    7  C   UNL     1      -6.000   1.441 -33.345  1.00  0.00     0.153 A 
HETATM    8  N   UNL     1      -6.804   2.340 -33.964  1.00  0.00    -0.168 NA
HETATM    9  N   UNL     1      -6.147   3.512 -33.835  1.00  0.00    -0.276 N 
HETATM   10  H   UNL     1      -6.570   4.346 -34.228  1.00  0.00     0.189 HD
HETATM   11  C   UNL     1      -3.659   1.569 -32.087  1.00  0.00     0.048 C 
HETATM   12  C   UNL     1      -2.990   2.698 -31.264  1.00  0.00     0.044 C 
HETATM   13  C   UNL     1      -3.984   5.702 -33.423  1.00  0.00     0.017 A 
HETATM   14  C   UNL     1      -2.979   6.619 -33.091  1.00  0.00     0.037 A 
ENDROOT
BRANCH   7  15
HETATM   15  C   UNL     1      -6.350   0.006 -33.294  1.00  0.00     0.277 C 
HETATM   16  N   UNL     1      -5.503  -0.749 -34.082  1.00  0.00    -0.322 N 
HETATM   17  H   UNL     1      -4.803  -0.188 -34.562  1.00  0.00     0.169 HD
HETATM   18  O   UNL     1      -7.282  -0.412 -32.614  1.00  0.00    -0.266 OA
BRANCH  16  19
HETATM   19  C   UNL     1      -5.486  -2.141 -34.270  1.00  0.00     0.037 A 
HETATM   20  C   UNL     1      -4.383  -2.949 -33.996  1.00  0.00     0.071 A 
HETATM   21  C   UNL     1      -4.459  -4.321 -34.225  1.00  0.00     0.118 A 
HETATM   22  F   UNL     1      -3.396  -5.092 -33.962  1.00  0.00    -0.206 F 
HETATM   23  C   UNL     1      -5.616  -4.908 -34.722  1.00  0.00     0.042 A 
HETATM   24  C   UNL     1      -6.723  -4.110 -34.996  1.00  0.00     0.005 A 
HETATM   25  C   UNL     1      -6.656  -2.732 -34.770  1.00  0.00     0.029 A 
ENDBRANCH  16  19
ENDBRANCH   7  15
BRANCH   1  26
HETATM   26  O   UNL     1      -0.942   7.075 -31.783  1.00  0.00    -0.356 OA
HETATM   27  C   UNL     1       0.163   6.441 -31.154  1.00  0.00     0.210 C 
ENDBRANCH   1  26
TORSDOF 3
ENDMDL
MODEL 5
REMARK VINA RESULT:      -8.3      5.031      7.015
REMARK  3 active torsions:
REMARK  status: ('A' for Active; 'I' for Inactive)
REMARK    1  A    between atoms: O_2  and  C_3 
REMARK    2  A    between atoms: C_9  and  C_10 
REMARK       I    between atoms: C_10  and  N_11 
REMARK    3  A    between atoms: N_11  and  C_12 
ROOT
HETATM    1  C   UNL     1      -4.249  -2.934 -33.806  1.00  0.00     0.068 A 
HETATM    2  C   UNL     1      -5.354  -2.477 -34.529  1.00  0.00     0.044 A 
HETATM    3  C   UNL     1      -5.925  -1.228 -34.252  1.00  0.00    -0.043 A 
HETATM    4  C   UNL     1      -5.389  -0.439 -33.209  1.00  0.00    -0.001 A 
HETATM    5  C   UNL     1      -6.019   0.852 -32.986  1.00  0.00     0.069 A 
HETATM    6  C   UNL     1      -6.935   1.428 -33.837  1.00  0.00     0.007 A 
HETATM    7  C   UNL     1      -7.261   2.679 -33.258  1.00  0.00     0.153 A 
HETATM    8  N   UNL     1      -6.599   2.851 -32.088  1.00  0.00    -0.168 NA
HETATM    9  N   UNL     1      -5.862   1.727 -31.957  1.00  0.00    -0.276 N 
HETATM   10  H   UNL     1      -5.276   1.629 -31.136  1.00  0.00     0.189 HD
HETATM   11  C   UNL     1      -7.348   0.762 -35.102  1.00  0.00     0.048 C 
HETATM   12  C   UNL     1      -7.172  -0.773 -35.004  1.00  0.00     0.044 C 
HETATM   13  C   UNL     1      -4.290  -0.899 -32.484  1.00  0.00     0.017 A 
HETATM   14  C   UNL     1      -3.720  -2.142 -32.784  1.00  0.00     0.037 A 
ENDROOT
BRANCH   7  15
HETATM   15  C   UNL     1      -8.164   3.721 -33.789  1.00  0.00     0.277 C 
HETATM   16  N   UNL     1      -9.487   3.331 -33.715  1.00  0.00    -0.322 N 
HETATM   17  H   UNL     1      -9.603   2.399 -33.322  1.00  0.00     0.169 HD
HETATM   18  O   UNL     1      -7.741   4.788 -34.223  1.00  0.00    -0.266 OA
BRANCH  16  19
HETATM   19  C   UNL     1     -10.637   4.048 -34.082  1.00  0.00     0.037 A 
HETATM   20  C   UNL     1     -11.192   5.072 -33.315  1.00  0.00     0.071 A 
HETATM   21  C   UNL     1     -12.343   5.720 -33.759  1.00  0.00     0.118 A 
HETATM   22  F   UNL     1     -12.874   6.701 -33.016  1.00  0.00    -0.206 F 
HETATM   23  C   UNL     1     -12.954   5.369 -34.956  1.00  0.00     0.042 A 
HETATM   24  C   UNL     1     -12.406   4.351 -35.729  1.00  0.00     0.005 A 
HETATM   25  C   UNL     1     -11.251   3.693 -35.292  1.00  0.00     0.029 A 
ENDBRANCH  16  19
ENDBRANCH   7  15
BRANCH   1  26
HETATM   26  O   UNL     1      -3.786  -4.163 -34.191  1.00  0.00    -0.356 OA
HETATM   27  C   UNL     1      -4.747  -5.202 -34.322  1.00  0.00     0.210 C 
ENDBRANCH   1  26
TORSDOF 3
ENDMDL
MODEL 6
REMARK VINA RESULT:      -8.0      3.928     10.143
REMARK  3 active torsions:
REMARK  status: ('A' for Active; 'I' for Inactive)
REMARK    1  A    between atoms: O_2  and  C_3 
REMARK    2  A    between atoms: C_9  and  C_10 
REMARK       I    between atoms: C_10  and  N_11 
REMARK    3  A    between atoms: N_11  and  C_12 
ROOT
HETATM    1  C   UNL     1       0.230   9.856 -27.109  1.00  0.00     0.068 A 
HETATM    2  C   UNL     1      -0.977   9.651 -27.782  1.00  0.00     0.044 A 
HETATM    3  C   UNL     1      -1.118   8.600 -28.699  1.00  0.00    -0.043 A 
HETATM    4  C   UNL     1      -0.011   7.760 -28.961  1.00  0.00    -0.001 A 
HETATM    5  C   UNL     1      -0.230   6.681 -29.910  1.00  0.00     0.069 A 
HETATM    6  C   UNL     1      -1.465   6.306 -30.390  1.00  0.00     0.007 A 
HETATM    7  C   UNL     1      -1.222   5.209 -31.253  1.00  0.00     0.153 A 
HETATM    8  N   UNL     1       0.104   4.941 -31.324  1.00  0.00    -0.168 NA
HETATM    9  N   UNL     1       0.669   5.851 -30.502  1.00  0.00    -0.276 N 
HETATM   10  H   UNL     1       1.678   5.844 -30.397  1.00  0.00     0.189 HD
HETATM   11  C   UNL     1      -2.712   6.984 -29.945  1.00  0.00     0.048 C 
HETATM   12  C   UNL     1      -2.420   8.430 -29.475  1.00  0.00     0.044 C 
HETATM   13  C   UNL     1       1.195   7.970 -28.294  1.00  0.00     0.017 A 
HETATM   14  C   UNL     1       1.313   9.014 -27.368  1.00  0.00     0.037 A 
ENDROOT
BRANCH   7  15
HETATM   15  C   UNL     1      -2.210   4.397 -31.994  1.00  0.00     0.277 C 
HETATM   16  N   UNL     1      -2.777   3.430 -31.189  1.00  0.00    -0.322 N 
HETATM   17  H   UNL     1      -2.410   3.440 -30.239  1.00  0.00     0.169 HD
HETATM   18  O   UNL     1      -2.464   4.604 -33.177  1.00  0.00    -0.266 OA
BRANCH  16  19
HETATM   19  C   UNL     1      -3.772   2.492 -31.509  1.00  0.00     0.037 A 
HETATM   20  C   UNL     1      -3.562   1.385 -32.330  1.00  0.00     0.071 A 
HETATM   21  C   UNL     1      -4.617   0.514 -32.598  1.00  0.00     0.118 A 
HETATM   22  F   UNL     1      -4.409  -0.546 -33.389  1.00  0.00    -0.206 F 
HETATM   23  C   UNL     1      -5.881   0.724 -32.062  1.00  0.00     0.042 A 
HETATM   24  C   UNL     1      -6.100   1.825 -31.240  1.00  0.00     0.005 A 
HETATM   25  C   UNL     1      -5.048   2.705 -30.965  1.00  0.00     0.029 A 
ENDBRANCH  16  19
ENDBRANCH   7  15
BRANCH   1  26
HETATM   26  O   UNL     1       0.222  10.909 -26.234  1.00  0.00    -0.356 OA
HETATM   27  C   UNL     1       1.373  11.076 -25.417  1.00  0.00     0.210 C 
ENDBRANCH   1  26
TORSDOF 3
ENDMDL
MODEL 7
REMARK VINA RESULT:      -8.0      6.174      8.480
REMARK  3 active torsions:
REMARK  status: ('A' for Active; 'I' for Inactive)
REMARK    1  A    between atoms: O_2  and  C_3 
REMARK    2  A    between atoms: C_9  and  C_10 
REMARK       I    between atoms: C_10  and  N_11 
REMARK    3  A    between atoms: N_11  and  C_12 
ROOT
HETATM    1  C   UNL     1      -4.482  -2.422 -33.380  1.00  0.00     0.068 A 
HETATM    2  C   UNL     1      -4.899  -1.548 -32.372  1.00  0.00     0.044 A 
HETATM    3  C   UNL     1      -6.013  -0.719 -32.558  1.00  0.00    -0.043 A 
HETATM    4  C   UNL     1      -6.700  -0.752 -33.792  1.00  0.00    -0.001 A 
HETATM    5  C   UNL     1      -7.855   0.122 -33.912  1.00  0.00     0.069 A 
HETATM    6  C   UNL     1      -8.433   0.798 -32.860  1.00  0.00     0.007 A 
HETATM    7  C   UNL     1      -9.534   1.496 -33.412  1.00  0.00     0.153 A 
HETATM    8  N   UNL     1      -9.613   1.285 -34.748  1.00  0.00    -0.168 NA
HETATM    9  N   UNL     1      -8.583   0.453 -35.012  1.00  0.00    -0.276 N 
HETATM   10  H   UNL     1      -8.438   0.155 -35.970  1.00  0.00     0.189 HD
HETATM   11  C   UNL     1      -7.914   0.665 -31.472  1.00  0.00     0.048 C 
HETATM   12  C   UNL     1      -6.415   0.276 -31.474  1.00  0.00     0.044 C 
HETATM   13  C   UNL     1      -6.279  -1.619 -34.800  1.00  0.00     0.017 A 
HETATM   14  C   UNL     1      -5.174  -2.453 -34.592  1.00  0.00     0.037 A 
ENDROOT
BRANCH   7  15
HETATM   15  C   UNL     1     -10.522   2.340 -32.709  1.00  0.00     0.277 C 
HETATM   16  N   UNL     1     -11.800   2.128 -33.187  1.00  0.00    -0.322 N 
HETATM   17  H   UNL     1     -11.833   1.443 -33.940  1.00  0.00     0.169 HD
HETATM   18  O   UNL     1     -10.197   3.112 -31.812  1.00  0.00    -0.266 OA
BRANCH  16  19
HETATM   19  C   UNL     1     -13.006   2.706 -32.759  1.00  0.00     0.037 A 
HETATM   20  C   UNL     1     -14.213   2.013 -32.673  1.00  0.00     0.071 A 
HETATM   21  C   UNL     1     -15.361   2.677 -32.245  1.00  0.00     0.118 A 
HETATM   22  F   UNL     1     -16.518   2.006 -32.166  1.00  0.00    -0.206 F 
HETATM   23  C   UNL     1     -15.332   4.022 -31.900  1.00  0.00     0.042 A 
HETATM   24  C   UNL     1     -14.132   4.722 -31.981  1.00  0.00     0.005 A 
HETATM   25  C   UNL     1     -12.974   4.065 -32.410  1.00  0.00     0.029 A 
ENDBRANCH  16  19
ENDBRANCH   7  15
BRANCH   1  26
HETATM   26  O   UNL     1      -3.390  -3.182 -33.059  1.00  0.00    -0.356 OA
HETATM   27  C   UNL     1      -3.443  -4.562 -33.397  1.00  0.00     0.210 C 
ENDBRANCH   1  26
TORSDOF 3
ENDMDL
MODEL 8
REMARK VINA RESULT:      -8.0      4.026      8.584
REMARK  3 active torsions:
REMARK  status: ('A' for Active; 'I' for Inactive)
REMARK    1  A    between atoms: O_2  and  C_3 
REMARK    2  A    between atoms: C_9  and  C_10 
REMARK       I    between atoms: C_10  and  N_11 
REMARK    3  A    between atoms: N_11  and  C_12 
ROOT
HETATM    1  C   UNL     1      -7.202   6.493 -28.287  1.00  0.00     0.068 A 
HETATM    2  C   UNL     1      -7.722   5.277 -28.737  1.00  0.00     0.044 A 
HETATM    3  C   UNL     1      -6.911   4.357 -29.416  1.00  0.00    -0.043 A 
HETATM    4  C   UNL     1      -5.560   4.684 -29.669  1.00  0.00    -0.001 A 
HETATM    5  C   UNL     1      -4.772   3.679 -30.363  1.00  0.00     0.069 A 
HETATM    6  C   UNL     1      -5.186   2.385 -30.590  1.00  0.00     0.007 A 
HETATM    7  C   UNL     1      -4.112   1.751 -31.261  1.00  0.00     0.153 A 
HETATM    8  N   UNL     1      -3.094   2.623 -31.464  1.00  0.00    -0.168 NA
HETATM    9  N   UNL     1      -3.531   3.775 -30.911  1.00  0.00    -0.276 N 
HETATM   10  H   UNL     1      -2.925   4.587 -30.947  1.00  0.00     0.189 HD
HETATM   11  C   UNL     1      -6.506   1.895 -30.109  1.00  0.00     0.048 C 
HETATM   12  C   UNL     1      -7.511   3.064 -29.959  1.00  0.00     0.044 C 
HETATM   13  C   UNL     1      -5.043   5.901 -29.226  1.00  0.00     0.017 A 
HETATM   14  C   UNL     1      -5.862   6.801 -28.534  1.00  0.00     0.037 A 
ENDROOT
BRANCH   7  15
HETATM   15  C   UNL     1      -4.013   0.343 -31.696  1.00  0.00     0.277 C 
HETATM   16  N   UNL     1      -4.930   0.053 -32.686  1.00  0.00    -0.322 N 
HETATM   17  H   UNL     1      -5.514   0.851 -32.931  1.00  0.00     0.169 HD
HETATM   18  O   UNL     1      -3.194  -0.431 -31.210  1.00  0.00    -0.266 OA
BRANCH  16  19
HETATM   19  C   UNL     1      -5.126  -1.153 -33.378  1.00  0.00     0.037 A 
HETATM   20  C   UNL     1      -4.134  -2.117 -33.555  1.00  0.00     0.071 A 
HETATM   21  C   UNL     1      -4.422  -3.281 -34.267  1.00  0.00     0.118 A 
HETATM   22  F   UNL     1      -3.465  -4.202 -34.436  1.00  0.00    -0.206 F 
HETATM   23  C   UNL     1      -5.683  -3.505 -34.806  1.00  0.00     0.042 A 
HETATM   24  C   UNL     1      -6.679  -2.550 -34.632  1.00  0.00     0.005 A 
HETATM   25  C   UNL     1      -6.400  -1.379 -33.920  1.00  0.00     0.029 A 
ENDBRANCH  16  19
ENDBRANCH   7  15
BRANCH   1  26
HETATM   26  O   UNL     1      -8.100   7.289 -27.629  1.00  0.00    -0.356 OA
HETATM   27  C   UNL     1      -9.288   7.637 -28.329  1.00  0.00     0.210 C 
ENDBRANCH   1  26
TORSDOF 3
ENDMDL
MODEL 9
REMARK VINA RESULT:      -7.9      3.773      4.273
REMARK  3 active torsions:
REMARK  status: ('A' for Active; 'I' for Inactive)
REMARK    1  A    between atoms: O_2  and  C_3 
REMARK    2  A    between atoms: C_9  and  C_10 
REMARK       I    between atoms: C_10  and  N_11 
REMARK    3  A    between atoms: N_11  and  C_12 
ROOT
HETATM    1  C   UNL     1      -5.164  -3.591 -34.394  1.00  0.00     0.068 A 
HETATM    2  C   UNL     1      -4.422  -2.588 -33.764  1.00  0.00     0.044 A 
HETATM    3  C   UNL     1      -4.950  -1.301 -33.600  1.00  0.00    -0.043 A 
HETATM    4  C   UNL     1      -6.238  -1.013 -34.107  1.00  0.00    -0.001 A 
HETATM    5  C   UNL     1      -6.731   0.336 -33.889  1.00  0.00     0.069 A 
HETATM    6  C   UNL     1      -6.134   1.259 -33.059  1.00  0.00     0.007 A 
HETATM    7  C   UNL     1      -6.951   2.414 -33.119  1.00  0.00     0.153 A 
HETATM    8  N   UNL     1      -7.987   2.222 -33.971  1.00  0.00    -0.168 NA
HETATM    9  N   UNL     1      -7.819   0.959 -34.416  1.00  0.00    -0.276 N 
HETATM   10  H   UNL     1      -8.489   0.590 -35.082  1.00  0.00     0.189 HD
HETATM   11  C   UNL     1      -4.909   0.928 -32.281  1.00  0.00     0.048 C 
HETATM   12  C   UNL     1      -4.103  -0.201 -32.970  1.00  0.00     0.044 C 
HETATM   13  C   UNL     1      -6.975  -2.012 -34.742  1.00  0.00     0.017 A 
HETATM   14  C   UNL     1      -6.439  -3.298 -34.882  1.00  0.00     0.037 A 
ENDROOT
BRANCH   7  15
HETATM   15  C   UNL     1      -6.790   3.684 -32.381  1.00  0.00     0.277 C 
HETATM   16  N   UNL     1      -7.040   3.520 -31.032  1.00  0.00    -0.322 N 
HETATM   17  H   UNL     1      -7.299   2.566 -30.791  1.00  0.00     0.169 HD
HETATM   18  O   UNL     1      -6.464   4.725 -32.942  1.00  0.00    -0.266 OA
BRANCH  16  19
HETATM   19  C   UNL     1      -6.959   4.471 -30.002  1.00  0.00     0.037 A 
HETATM   20  C   UNL     1      -8.064   5.134 -29.467  1.00  0.00     0.071 A 
HETATM   21  C   UNL     1      -7.882   6.070 -28.451  1.00  0.00     0.118 A 
HETATM   22  F   UNL     1      -8.946   6.705 -27.943  1.00  0.00    -0.206 F 
HETATM   23  C   UNL     1      -6.617   6.360 -27.953  1.00  0.00     0.042 A 
HETATM   24  C   UNL     1      -5.510   5.702 -28.479  1.00  0.00     0.005 A 
HETATM   25  C   UNL     1      -5.682   4.761 -29.500  1.00  0.00     0.029 A 
ENDBRANCH  16  19
ENDBRANCH   7  15
BRANCH   1  26
HETATM   26  O   UNL     1      -4.532  -4.802 -34.474  1.00  0.00    -0.356 OA
HETATM   27  C   UNL     1      -3.376  -4.981 -33.666  1.00  0.00     0.210 C 
ENDBRANCH   1  26
TORSDOF 3
ENDMDL
MODEL 10
REMARK VINA RESULT:      -7.8      5.881      9.060
REMARK  3 active torsions:
REMARK  status: ('A' for Active; 'I' for Inactive)
REMARK    1  A    between atoms: O_2  and  C_3 
REMARK    2  A    between atoms: C_9  and  C_10 
REMARK       I    between atoms: C_10  and  N_11 
REMARK    3  A    between atoms: N_11  and  C_12 
ROOT
HETATM    1  C   UNL     1     -11.860   6.279 -35.336  1.00  0.00     0.068 A 
HETATM    2  C   UNL     1     -10.538   6.050 -34.944  1.00  0.00     0.044 A 
HETATM    3  C   UNL     1     -10.142   4.799 -34.454  1.00  0.00    -0.043 A 
HETATM    4  C   UNL     1     -11.104   3.770 -34.331  1.00  0.00    -0.001 A 
HETATM    5  C   UNL     1     -10.623   2.493 -33.831  1.00  0.00     0.069 A 
HETATM    6  C   UNL     1      -9.293   2.168 -33.679  1.00  0.00     0.007 A 
HETATM    7  C   UNL     1      -9.277   0.835 -33.200  1.00  0.00     0.153 A 
HETATM    8  N   UNL     1     -10.540   0.371 -33.036  1.00  0.00    -0.168 NA
HETATM    9  N   UNL     1     -11.323   1.401 -33.424  1.00  0.00    -0.276 N 
HETATM   10  H   UNL     1     -12.329   1.283 -33.383  1.00  0.00     0.189 HD
HETATM   11  C   UNL     1      -8.212   3.122 -34.046  1.00  0.00     0.048 C 
HETATM   12  C   UNL     1      -8.713   4.585 -33.968  1.00  0.00     0.044 C 
HETATM   13  C   UNL     1     -12.424   4.001 -34.716  1.00  0.00     0.017 A 
HETATM   14  C   UNL     1     -12.800   5.253 -35.219  1.00  0.00     0.037 A 
ENDROOT
BRANCH   7  15
HETATM   15  C   UNL     1      -8.104  -0.017 -32.913  1.00  0.00     0.277 C 
HETATM   16  N   UNL     1      -7.729  -0.750 -34.021  1.00  0.00    -0.322 N 
HETATM   17  H   UNL     1      -8.328  -0.585 -34.828  1.00  0.00     0.169 HD
HETATM   18  O   UNL     1      -7.563  -0.027 -31.812  1.00  0.00    -0.266 OA
BRANCH  16  19
HETATM   19  C   UNL     1      -6.652  -1.641 -34.162  1.00  0.00     0.037 A 
HETATM   20  C   UNL     1      -6.775  -2.938 -34.659  1.00  0.00     0.071 A 
HETATM   21  C   UNL     1      -5.647  -3.751 -34.752  1.00  0.00     0.118 A 
HETATM   22  F   UNL     1      -5.772  -4.997 -35.228  1.00  0.00    -0.206 F 
HETATM   23  C   UNL     1      -4.394  -3.297 -34.360  1.00  0.00     0.042 A 
HETATM   24  C   UNL     1      -4.261  -2.003 -33.866  1.00  0.00     0.005 A 
HETATM   25  C   UNL     1      -5.387  -1.179 -33.767  1.00  0.00     0.029 A 
ENDBRANCH  16  19
ENDBRANCH   7  15
BRANCH   1  26
HETATM   26  O   UNL     1     -12.104   7.541 -35.808  1.00  0.00    -0.356 OA
HETATM   27  C   UNL     1     -11.032   8.201 -36.469  1.00  0.00     0.210 C 
ENDBRANCH   1  26
TORSDOF 3
ENDMDL
