MODEL 1
REMARK VINA RESULT:      -8.9      0.000      0.000
REMARK  4 active torsions:
REMARK  status: ('A' for Active; 'I' for Inactive)
REMARK    1  A    between atoms: O_2  and  C_3 
REMARK    2  A    between atoms: C_5  and  C_6 
REMARK    3  A    between atoms: C_10  and  N_11 
REMARK    4  A    between atoms: C_14  and  C_15 
ROOT
HETATM    1  C   UNL     1      -7.502  -0.114 -33.520  1.00  0.00     0.164 C 
HETATM    2  N   UNL     1      -7.102   0.712 -32.386  1.00  0.00    -0.074 N 
HETATM    3  C   UNL     1      -7.208   2.077 -32.355  1.00  0.00     0.736 A 
HETATM    4  N   UNL     1      -6.872   2.505 -31.166  1.00  0.00     0.131 NA
HETATM    5  C   UNL     1      -6.629   1.351 -30.483  1.00  0.00     0.753 A 
HETATM    6  N   UNL     1      -6.782   0.225 -31.174  1.00  0.00     0.037 NA
HETATM    7  N   UNL     1      -7.668   2.772 -33.418  1.00  0.00    -0.214 N 
HETATM    8  C   UNL     1      -8.407   2.076 -34.467  1.00  0.00     0.135 C 
HETATM    9  C   UNL     1      -7.692   0.748 -34.785  1.00  0.00     0.063 C 
HETATM   10  H   UNL     1      -7.949   3.734 -33.242  1.00  0.00     0.178 HD
ENDROOT
BRANCH   1  11
HETATM   11  C   UNL     1      -6.516  -1.242 -33.786  1.00  0.00    -0.030 A 
HETATM   12  C   UNL     1      -5.269  -1.296 -33.135  1.00  0.00     0.046 A 
HETATM   13  C   UNL     1      -4.375  -2.344 -33.368  1.00  0.00     0.068 A 
HETATM   14  C   UNL     1      -4.704  -3.334 -34.291  1.00  0.00     0.037 A 
HETATM   15  C   UNL     1      -5.930  -3.286 -34.959  1.00  0.00     0.003 A 
HETATM   16  C   UNL     1      -6.832  -2.251 -34.706  1.00  0.00     0.009 A 
BRANCH  13  17
HETATM   17  O   UNL     1      -3.210  -2.277 -32.655  1.00  0.00    -0.356 OA
HETATM   18  C   UNL     1      -2.928  -3.394 -31.819  1.00  0.00     0.210 C 
ENDBRANCH  13  17
ENDBRANCH   1  11
BRANCH   8  19
HETATM   19  C   UNL     1      -9.893   1.910 -34.163  1.00  0.00    -0.035 A 
HETATM   20  C   UNL     1     -10.463   0.702 -33.724  1.00  0.00     0.010 A 
HETATM   21  C   UNL     1     -11.833   0.602 -33.457  1.00  0.00     0.019 A 
HETATM   22  C   UNL     1     -12.653   1.713 -33.622  1.00  0.00     0.011 A 
HETATM   23 BR   UNL     1     -14.503   1.579 -33.261  1.00  0.00    -0.051 Br
HETATM   24  C   UNL     1     -12.115   2.923 -34.049  1.00  0.00     0.019 A 
HETATM   25  C   UNL     1     -10.746   3.021 -34.314  1.00  0.00     0.010 A 
ENDBRANCH   8  19
BRANCH   5  26
HETATM   26  N   UNL     1      -6.260   1.430 -29.208  1.00  0.00    -0.229 N 
HETATM   27  H   UNL     1      -6.317   2.345 -28.782  1.00  0.00     0.174 HD
HETATM   28  H   UNL     1      -5.446   0.892 -28.946  1.00  0.00     0.174 HD
ENDBRANCH   5  26
TORSDOF 4
ENDMDL
MODEL 2
REMARK VINA RESULT:      -8.8      3.862      5.941
REMARK  4 active torsions:
REMARK  status: ('A' for Active; 'I' for Inactive)
REMARK    1  A    between atoms: O_2  and  C_3 
REMARK    2  A    between atoms: C_5  and  C_6 
REMARK    3  A    between atoms: C_10  and  N_11 
REMARK    4  A    between atoms: C_14  and  C_15 
ROOT
HETATM    1  C   UNL     1      -4.424   0.004 -32.840  1.00  0.00     0.164 C 
HETATM    2  N   UNL     1      -5.778   0.281 -33.309  1.00  0.00    -0.074 N 
HETATM    3  C   UNL     1      -6.623   1.187 -32.726  1.00  0.00     0.736 A 
HETATM    4  N   UNL     1      -7.711   1.281 -33.445  1.00  0.00     0.131 NA
HETATM    5  C   UNL     1      -7.454   0.453 -34.497  1.00  0.00     0.753 A 
HETATM    6  N   UNL     1      -6.275  -0.162 -34.478  1.00  0.00     0.037 NA
HETATM    7  N   UNL     1      -6.262   1.878 -31.623  1.00  0.00    -0.214 N 
HETATM    8  C   UNL     1      -4.852   1.956 -31.254  1.00  0.00     0.135 C 
HETATM    9  C   UNL     1      -4.214   0.564 -31.417  1.00  0.00     0.063 C 
HETATM   10  H   UNL     1      -6.825   2.694 -31.396  1.00  0.00     0.178 HD
ENDROOT
BRANCH   1  11
HETATM   11  C   UNL     1      -4.092  -1.480 -32.884  1.00  0.00    -0.030 A 
HETATM   12  C   UNL     1      -4.628  -2.323 -33.875  1.00  0.00     0.046 A 
HETATM   13  C   UNL     1      -4.305  -3.681 -33.924  1.00  0.00     0.068 A 
HETATM   14  C   UNL     1      -3.468  -4.223 -32.950  1.00  0.00     0.037 A 
HETATM   15  C   UNL     1      -2.941  -3.403 -31.949  1.00  0.00     0.003 A 
HETATM   16  C   UNL     1      -3.247  -2.041 -31.917  1.00  0.00     0.009 A 
BRANCH  13  17
HETATM   17  O   UNL     1      -4.884  -4.376 -34.949  1.00  0.00    -0.356 OA
HETATM   18  C   UNL     1      -6.304  -4.465 -34.915  1.00  0.00     0.210 C 
ENDBRANCH  13  17
ENDBRANCH   1  11
BRANCH   8  19
HETATM   19  C   UNL     1      -4.089   3.065 -31.974  1.00  0.00    -0.035 A 
HETATM   20  C   UNL     1      -4.616   3.787 -33.060  1.00  0.00     0.010 A 
HETATM   21  C   UNL     1      -3.876   4.796 -33.685  1.00  0.00     0.019 A 
HETATM   22  C   UNL     1      -2.598   5.101 -33.230  1.00  0.00     0.011 A 
HETATM   23 BR   UNL     1      -1.598   6.464 -34.074  1.00  0.00    -0.051 Br
HETATM   24  C   UNL     1      -2.054   4.407 -32.154  1.00  0.00     0.019 A 
HETATM   25  C   UNL     1      -2.796   3.400 -31.529  1.00  0.00     0.010 A 
ENDBRANCH   8  19
BRANCH   5  26
HETATM   26  N   UNL     1      -8.380   0.317 -35.442  1.00  0.00    -0.229 N 
HETATM   27  H   UNL     1      -8.058  -0.027 -36.337  1.00  0.00     0.174 HD
HETATM   28  H   UNL     1      -9.072   1.052 -35.496  1.00  0.00     0.174 HD
ENDBRANCH   5  26
TORSDOF 4
ENDMDL
MODEL 3
REMARK VINA RESULT:      -8.7      3.491      5.299
REMARK  4 active torsions:
REMARK  status: ('A' for Active; 'I' for Inactive)
REMARK    1  A    between atoms: O_2  and  C_3 
REMARK    2  A    between atoms: C_5  and  C_6 
REMARK    3  A    between atoms: C_10  and  N_11 
REMARK    4  A    between atoms: C_14  and  C_15 
ROOT
HETATM    1  C   UNL     1      -5.769   0.179 -33.483  1.00  0.00     0.164 C 
HETATM    2  N   UNL     1      -7.131   0.700 -33.533  1.00  0.00    -0.074 N 
HETATM    3  C   UNL     1      -7.668   1.536 -32.590  1.00  0.00     0.736 A 
HETATM    4  N   UNL     1      -8.860   1.908 -32.978  1.00  0.00     0.131 NA
HETATM    5  C   UNL     1      -8.981   1.318 -34.202  1.00  0.00     0.753 A 
HETATM    6  N   UNL     1      -7.941   0.591 -34.601  1.00  0.00     0.037 NA
HETATM    7  N   UNL     1      -6.964   1.915 -31.502  1.00  0.00    -0.214 N 
HETATM    8  C   UNL     1      -5.513   1.754 -31.492  1.00  0.00     0.135 C 
HETATM    9  C   UNL     1      -5.159   0.374 -32.080  1.00  0.00     0.063 C 
HETATM   10  H   UNL     1      -7.324   2.714 -30.986  1.00  0.00     0.178 HD
ENDROOT
BRANCH   1  11
HETATM   11  C   UNL     1      -5.697  -1.284 -33.898  1.00  0.00    -0.030 A 
HETATM   12  C   UNL     1      -4.600  -2.092 -33.548  1.00  0.00     0.046 A 
HETATM   13  C   UNL     1      -4.546  -3.439 -33.914  1.00  0.00     0.068 A 
HETATM   14  C   UNL     1      -5.579  -3.985 -34.674  1.00  0.00     0.037 A 
HETATM   15  C   UNL     1      -6.668  -3.192 -35.044  1.00  0.00     0.003 A 
HETATM   16  C   UNL     1      -6.729  -1.852 -34.657  1.00  0.00     0.009 A 
BRANCH  13  17
HETATM   17  O   UNL     1      -3.430  -4.108 -33.493  1.00  0.00    -0.356 OA
HETATM   18  C   UNL     1      -3.015  -3.844 -32.158  1.00  0.00     0.210 C 
ENDBRANCH  13  17
ENDBRANCH   1  11
BRANCH   8  19
HETATM   19  C   UNL     1      -4.763   2.908 -32.153  1.00  0.00    -0.035 A 
HETATM   20  C   UNL     1      -5.390   4.088 -32.592  1.00  0.00     0.010 A 
HETATM   21  C   UNL     1      -4.656   5.118 -33.189  1.00  0.00     0.019 A 
HETATM   22  C   UNL     1      -3.282   4.984 -33.354  1.00  0.00     0.011 A 
HETATM   23 BR   UNL     1      -2.291   6.376 -34.162  1.00  0.00    -0.051 Br
HETATM   24  C   UNL     1      -2.634   3.831 -32.923  1.00  0.00     0.019 A 
HETATM   25  C   UNL     1      -3.370   2.803 -32.324  1.00  0.00     0.010 A 
ENDBRANCH   8  19
BRANCH   5  26
HETATM   26  N   UNL     1     -10.103   1.503 -34.890  1.00  0.00    -0.229 N 
HETATM   27  H   UNL     1     -10.496   0.683 -35.333  1.00  0.00     0.174 HD
HETATM   28  H   UNL     1     -10.153   2.347 -35.443  1.00  0.00     0.174 HD
ENDBRANCH   5  26
TORSDOF 4
ENDMDL
MODEL 4
REMARK VINA RESULT:      -8.6      1.492      1.926
REMARK  4 active torsions:
REMARK  status: ('A' for Active; 'I' for Inactive)
REMARK    1  A    between atoms: O_2  and  C_3 
REMARK    2  A    between atoms: C_5  and  C_6 
REMARK    3  A    between atoms: C_10  and  N_11 
REMARK    4  A    between atoms: C_14  and  C_15 
ROOT
HETATM    1  C   UNL     1      -8.121   0.606 -33.444  1.00  0.00     0.164 C 
HETATM    2  N   UNL     1      -7.727   1.504 -32.364  1.00  0.00    -0.074 N 
HETATM    3  C   UNL     1      -7.930   2.859 -32.379  1.00  0.00     0.736 A 
HETATM    4  N   UNL     1      -7.569   3.358 -31.225  1.00  0.00     0.131 NA
HETATM    5  C   UNL     1      -7.210   2.252 -30.513  1.00  0.00     0.753 A 
HETATM    6  N   UNL     1      -7.314   1.091 -31.153  1.00  0.00     0.037 NA
HETATM    7  N   UNL     1      -8.490   3.476 -33.441  1.00  0.00    -0.214 N 
HETATM    8  C   UNL     1      -9.227   2.687 -34.424  1.00  0.00     0.135 C 
HETATM    9  C   UNL     1      -8.435   1.401 -34.729  1.00  0.00     0.063 C 
HETATM   10  H   UNL     1      -8.831   4.421 -33.288  1.00  0.00     0.178 HD
ENDROOT
BRANCH   1  11
HETATM   11  C   UNL     1      -7.070  -0.459 -33.719  1.00  0.00    -0.030 A 
HETATM   12  C   UNL     1      -7.429  -1.750 -34.149  1.00  0.00     0.046 A 
HETATM   13  C   UNL     1      -6.459  -2.720 -34.418  1.00  0.00     0.068 A 
HETATM   14  C   UNL     1      -5.113  -2.418 -34.220  1.00  0.00     0.037 A 
HETATM   15  C   UNL     1      -4.741  -1.146 -33.777  1.00  0.00     0.003 A 
HETATM   16  C   UNL     1      -5.711  -0.172 -33.531  1.00  0.00     0.009 A 
BRANCH  13  17
HETATM   17  O   UNL     1      -6.949  -3.923 -34.844  1.00  0.00    -0.356 OA
HETATM   18  C   UNL     1      -5.977  -4.888 -35.230  1.00  0.00     0.210 C 
ENDBRANCH  13  17
ENDBRANCH   1  11
BRANCH   8  19
HETATM   19  C   UNL     1     -10.681   2.429 -34.039  1.00  0.00    -0.035 A 
HETATM   20  C   UNL     1     -11.415   1.316 -34.487  1.00  0.00     0.010 A 
HETATM   21  C   UNL     1     -12.746   1.124 -34.102  1.00  0.00     0.019 A 
HETATM   22  C   UNL     1     -13.363   2.042 -33.259  1.00  0.00     0.011 A 
HETATM   23 BR   UNL     1     -15.161   1.782 -32.739  1.00  0.00    -0.051 Br
HETATM   24  C   UNL     1     -12.659   3.148 -32.794  1.00  0.00     0.019 A 
HETATM   25  C   UNL     1     -11.328   3.337 -33.179  1.00  0.00     0.010 A 
ENDBRANCH   8  19
BRANCH   5  26
HETATM   26  N   UNL     1      -6.786   2.409 -29.263  1.00  0.00    -0.229 N 
HETATM   27  H   UNL     1      -5.900   2.882 -29.147  1.00  0.00     0.174 HD
HETATM   28  H   UNL     1      -6.931   1.625 -28.642  1.00  0.00     0.174 HD
ENDBRANCH   5  26
TORSDOF 4
ENDMDL
MODEL 5
REMARK VINA RESULT:      -8.5      3.230      4.721
REMARK  4 active torsions:
REMARK  status: ('A' for Active; 'I' for Inactive)
REMARK    1  A    between atoms: O_2  and  C_3 
REMARK    2  A    between atoms: C_5  and  C_6 
REMARK    3  A    between atoms: C_10  and  N_11 
REMARK    4  A    between atoms: C_14  and  C_15 
ROOT
HETATM    1  C   UNL     1      -6.244   2.615 -32.842  1.00  0.00     0.164 C 
HETATM    2  N   UNL     1      -5.832   1.243 -32.566  1.00  0.00    -0.074 N 
HETATM    3  C   UNL     1      -6.354   0.471 -31.562  1.00  0.00     0.736 A 
HETATM    4  N   UNL     1      -5.858  -0.735 -31.648  1.00  0.00     0.131 NA
HETATM    5  C   UNL     1      -5.080  -0.667 -32.766  1.00  0.00     0.753 A 
HETATM    6  N   UNL     1      -5.050   0.512 -33.381  1.00  0.00     0.037 NA
HETATM    7  N   UNL     1      -7.287   0.955 -30.714  1.00  0.00    -0.214 N 
HETATM    8  C   UNL     1      -8.025   2.163 -31.071  1.00  0.00     0.135 C 
HETATM    9  C   UNL     1      -7.042   3.196 -31.656  1.00  0.00     0.063 C 
HETATM   10  H   UNL     1      -7.800   0.269 -30.166  1.00  0.00     0.178 HD
ENDROOT
BRANCH   1  11
HETATM   11  C   UNL     1      -5.064   3.513 -33.183  1.00  0.00    -0.030 A 
HETATM   12  C   UNL     1      -3.903   3.531 -32.389  1.00  0.00     0.046 A 
HETATM   13  C   UNL     1      -2.814   4.343 -32.717  1.00  0.00     0.068 A 
HETATM   14  C   UNL     1      -2.893   5.182 -33.827  1.00  0.00     0.037 A 
HETATM   15  C   UNL     1      -4.046   5.189 -34.615  1.00  0.00     0.003 A 
HETATM   16  C   UNL     1      -5.123   4.359 -34.299  1.00  0.00     0.009 A 
BRANCH  13  17
HETATM   17  O   UNL     1      -1.746   4.247 -31.868  1.00  0.00    -0.356 OA
HETATM   18  C   UNL     1      -0.772   5.279 -31.975  1.00  0.00     0.210 C 
ENDBRANCH  13  17
ENDBRANCH   1  11
BRANCH   8  19
HETATM   19  C   UNL     1      -9.236   1.902 -31.963  1.00  0.00    -0.035 A 
HETATM   20  C   UNL     1      -9.585   0.625 -32.439  1.00  0.00     0.010 A 
HETATM   21  C   UNL     1     -10.707   0.438 -33.252  1.00  0.00     0.019 A 
HETATM   22  C   UNL     1     -11.500   1.527 -33.600  1.00  0.00     0.011 A 
HETATM   23 BR   UNL     1     -13.017   1.274 -34.699  1.00  0.00    -0.051 Br
HETATM   24  C   UNL     1     -11.183   2.800 -33.138  1.00  0.00     0.019 A 
HETATM   25  C   UNL     1     -10.061   2.984 -32.323  1.00  0.00     0.010 A 
ENDBRANCH   8  19
BRANCH   5  26
HETATM   26  N   UNL     1      -4.418  -1.754 -33.149  1.00  0.00    -0.229 N 
HETATM   27  H   UNL     1      -3.443  -1.625 -33.384  1.00  0.00     0.174 HD
HETATM   28  H   UNL     1      -4.918  -2.388 -33.757  1.00  0.00     0.174 HD
ENDBRANCH   5  26
TORSDOF 4
ENDMDL
MODEL 6
REMARK VINA RESULT:      -8.2     14.866     17.093
REMARK  4 active torsions:
REMARK  status: ('A' for Active; 'I' for Inactive)
REMARK    1  A    between atoms: O_2  and  C_3 
REMARK    2  A    between atoms: C_5  and  C_6 
REMARK    3  A    between atoms: C_10  and  N_11 
REMARK    4  A    between atoms: C_14  and  C_15 
ROOT
HETATM    1  C   UNL     1      -6.973 -13.540 -39.603  1.00  0.00     0.164 C 
HETATM    2  N   UNL     1      -6.154 -13.665 -40.804  1.00  0.00    -0.074 N 
HETATM    3  C   UNL     1      -4.945 -13.045 -40.977  1.00  0.00     0.736 A 
HETATM    4  N   UNL     1      -4.417 -13.445 -42.104  1.00  0.00     0.131 NA
HETATM    5  C   UNL     1      -5.319 -14.363 -42.555  1.00  0.00     0.753 A 
HETATM    6  N   UNL     1      -6.385 -14.557 -41.785  1.00  0.00     0.037 NA
HETATM    7  N   UNL     1      -4.434 -12.223 -40.035  1.00  0.00    -0.214 N 
HETATM    8  C   UNL     1      -4.963 -12.271 -38.676  1.00  0.00     0.135 C 
HETATM    9  C   UNL     1      -6.501 -12.352 -38.739  1.00  0.00     0.063 C 
HETATM   10  H   UNL     1      -3.445 -12.000 -40.118  1.00  0.00     0.178 HD
ENDROOT
BRANCH   1  11
HETATM   11  C   UNL     1      -8.454 -13.409 -39.927  1.00  0.00    -0.030 A 
HETATM   12  C   UNL     1      -9.244 -14.536 -40.220  1.00  0.00     0.046 A 
HETATM   13  C   UNL     1     -10.607 -14.413 -40.498  1.00  0.00     0.068 A 
HETATM   14  C   UNL     1     -11.190 -13.147 -40.527  1.00  0.00     0.037 A 
HETATM   15  C   UNL     1     -10.416 -12.017 -40.255  1.00  0.00     0.003 A 
HETATM   16  C   UNL     1      -9.059 -12.145 -39.954  1.00  0.00     0.009 A 
BRANCH  13  17
HETATM   17  O   UNL     1     -11.254 -15.592 -40.748  1.00  0.00    -0.356 OA
HETATM   18  C   UNL     1     -11.855 -15.710 -42.032  1.00  0.00     0.210 C 
ENDBRANCH  13  17
ENDBRANCH   1  11
BRANCH   8  19
HETATM   19  C   UNL     1      -4.331 -13.357 -37.809  1.00  0.00    -0.035 A 
HETATM   20  C   UNL     1      -3.122 -13.998 -38.131  1.00  0.00     0.010 A 
HETATM   21  C   UNL     1      -2.583 -14.986 -37.301  1.00  0.00     0.019 A 
HETATM   22  C   UNL     1      -3.246 -15.347 -36.133  1.00  0.00     0.011 A 
HETATM   23 BR   UNL     1      -2.518 -16.683 -35.012  1.00  0.00    -0.051 Br
HETATM   24  C   UNL     1      -4.441 -14.725 -35.786  1.00  0.00     0.019 A 
HETATM   25  C   UNL     1      -4.977 -13.736 -36.616  1.00  0.00     0.010 A 
ENDBRANCH   8  19
BRANCH   5  26
HETATM   26  N   UNL     1      -5.077 -14.981 -43.708  1.00  0.00    -0.229 N 
HETATM   27  H   UNL     1      -4.454 -15.776 -43.667  1.00  0.00     0.174 HD
HETATM   28  H   UNL     1      -4.949 -14.385 -44.514  1.00  0.00     0.174 HD
ENDBRANCH   5  26
TORSDOF 4
ENDMDL
MODEL 7
REMARK VINA RESULT:      -8.2      4.115      5.678
REMARK  4 active torsions:
REMARK  status: ('A' for Active; 'I' for Inactive)
REMARK    1  A    between atoms: O_2  and  C_3 
REMARK    2  A    between atoms: C_5  and  C_6 
REMARK    3  A    between atoms: C_10  and  N_11 
REMARK    4  A    between atoms: C_14  and  C_15 
ROOT
HETATM    1  C   UNL     1      -4.656   3.154 -32.104  1.00  0.00     0.164 C 
HETATM    2  N   UNL     1      -4.261   1.851 -31.581  1.00  0.00    -0.074 N 
HETATM    3  C   UNL     1      -4.821   1.265 -30.476  1.00  0.00     0.736 A 
HETATM    4  N   UNL     1      -4.329   0.062 -30.336  1.00  0.00     0.131 NA
HETATM    5  C   UNL     1      -3.515  -0.065 -31.422  1.00  0.00     0.753 A 
HETATM    6  N   UNL     1      -3.459   0.989 -32.231  1.00  0.00     0.037 NA
HETATM    7  N   UNL     1      -5.777   1.890 -29.756  1.00  0.00    -0.214 N 
HETATM    8  C   UNL     1      -6.496   3.018 -30.341  1.00  0.00     0.135 C 
HETATM    9  C   UNL     1      -5.488   3.932 -31.064  1.00  0.00     0.063 C 
HETATM   10  H   UNL     1      -6.312   1.309 -29.114  1.00  0.00     0.178 HD
ENDROOT
BRANCH   1  11
HETATM   11  C   UNL     1      -3.460   3.979 -32.557  1.00  0.00    -0.030 A 
HETATM   12  C   UNL     1      -2.324   4.133 -31.741  1.00  0.00     0.046 A 
HETATM   13  C   UNL     1      -1.220   4.875 -32.169  1.00  0.00     0.068 A 
HETATM   14  C   UNL     1      -1.259   5.509 -33.409  1.00  0.00     0.037 A 
HETATM   15  C   UNL     1      -2.386   5.380 -34.224  1.00  0.00     0.003 A 
HETATM   16  C   UNL     1      -3.478   4.618 -33.804  1.00  0.00     0.009 A 
BRANCH  13  17
HETATM   17  O   UNL     1      -0.181   4.927 -31.282  1.00  0.00    -0.356 OA
HETATM   18  C   UNL     1      -0.354   5.799 -30.172  1.00  0.00     0.210 C 
ENDBRANCH  13  17
ENDBRANCH   1  11
BRANCH   8  19
HETATM   19  C   UNL     1      -7.679   2.606 -31.213  1.00  0.00    -0.035 A 
HETATM   20  C   UNL     1      -8.391   3.506 -32.026  1.00  0.00     0.010 A 
HETATM   21  C   UNL     1      -9.467   3.077 -32.809  1.00  0.00     0.019 A 
HETATM   22  C   UNL     1      -9.846   1.739 -32.794  1.00  0.00     0.011 A 
HETATM   23 BR   UNL     1     -11.300   1.160 -33.852  1.00  0.00    -0.051 Br
HETATM   24  C   UNL     1      -9.155   0.825 -32.005  1.00  0.00     0.019 A 
HETATM   25  C   UNL     1      -8.078   1.256 -31.224  1.00  0.00     0.010 A 
ENDBRANCH   8  19
BRANCH   5  26
HETATM   26  N   UNL     1      -2.848  -1.203 -31.589  1.00  0.00    -0.229 N 
HETATM   27  H   UNL     1      -2.275  -1.504 -30.813  1.00  0.00     0.174 HD
HETATM   28  H   UNL     1      -2.435  -1.347 -32.500  1.00  0.00     0.174 HD
ENDBRANCH   5  26
TORSDOF 4
ENDMDL
MODEL 8
REMARK VINA RESULT:      -8.2      4.601      6.308
REMARK  4 active torsions:
REMARK  status: ('A' for Active; 'I' for Inactive)
REMARK    1  A    between atoms: O_2  and  C_3 
REMARK    2  A    between atoms: C_5  and  C_6 
REMARK    3  A    between atoms: C_10  and  N_11 
REMARK    4  A    between atoms: C_14  and  C_15 
ROOT
HETATM    1  C   UNL     1      -4.516   3.962 -32.799  1.00  0.00     0.164 C 
HETATM    2  N   UNL     1      -5.468   4.177 -31.714  1.00  0.00    -0.074 N 
HETATM    3  C   UNL     1      -6.828   4.183 -31.875  1.00  0.00     0.736 A 
HETATM    4  N   UNL     1      -7.396   4.290 -30.702  1.00  0.00     0.131 NA
HETATM    5  C   UNL     1      -6.335   4.283 -29.846  1.00  0.00     0.753 A 
HETATM    6  N   UNL     1      -5.134   4.187 -30.411  1.00  0.00     0.037 NA
HETATM    7  N   UNL     1      -7.394   4.023 -33.090  1.00  0.00    -0.214 N 
HETATM    8  C   UNL     1      -6.602   3.470 -34.185  1.00  0.00     0.135 C 
HETATM    9  C   UNL     1      -5.206   4.122 -34.170  1.00  0.00     0.063 C 
HETATM   10  H   UNL     1      -8.385   3.793 -33.100  1.00  0.00     0.178 HD
ENDROOT
BRANCH   1  11
HETATM   11  C   UNL     1      -3.310   4.884 -32.698  1.00  0.00    -0.030 A 
HETATM   12  C   UNL     1      -2.109   4.457 -32.100  1.00  0.00     0.046 A 
HETATM   13  C   UNL     1      -0.997   5.300 -32.026  1.00  0.00     0.068 A 
HETATM   14  C   UNL     1      -1.089   6.601 -32.518  1.00  0.00     0.037 A 
HETATM   15  C   UNL     1      -2.279   7.045 -33.099  1.00  0.00     0.003 A 
HETATM   16  C   UNL     1      -3.380   6.193 -33.192  1.00  0.00     0.009 A 
BRANCH  13  17
HETATM   17  O   UNL     1       0.106   4.749 -31.435  1.00  0.00    -0.356 OA
HETATM   18  C   UNL     1       0.323   5.105 -30.074  1.00  0.00     0.210 C 
ENDBRANCH  13  17
ENDBRANCH   1  11
BRANCH   8  19
HETATM   19  C   UNL     1      -6.562   1.945 -34.204  1.00  0.00    -0.035 A 
HETATM   20  C   UNL     1      -5.681   1.183 -33.415  1.00  0.00     0.010 A 
HETATM   21  C   UNL     1      -5.686  -0.214 -33.469  1.00  0.00     0.019 A 
HETATM   22  C   UNL     1      -6.576  -0.873 -34.310  1.00  0.00     0.011 A 
HETATM   23 BR   UNL     1      -6.583  -2.761 -34.382  1.00  0.00    -0.051 Br
HETATM   24  C   UNL     1      -7.464  -0.145 -35.097  1.00  0.00     0.019 A 
HETATM   25  C   UNL     1      -7.458   1.252 -35.041  1.00  0.00     0.010 A 
ENDBRANCH   8  19
BRANCH   5  26
HETATM   26  N   UNL     1      -6.568   4.374 -28.540  1.00  0.00    -0.229 N 
HETATM   27  H   UNL     1      -7.113   5.171 -28.238  1.00  0.00     0.174 HD
HETATM   28  H   UNL     1      -5.797   4.135 -27.932  1.00  0.00     0.174 HD
ENDBRANCH   5  26
TORSDOF 4
ENDMDL
MODEL 9
REMARK VINA RESULT:      -8.1      7.073      9.223
REMARK  4 active torsions:
REMARK  status: ('A' for Active; 'I' for Inactive)
REMARK    1  A    between atoms: O_2  and  C_3 
REMARK    2  A    between atoms: C_5  and  C_6 
REMARK    3  A    between atoms: C_10  and  N_11 
REMARK    4  A    between atoms: C_14  and  C_15 
ROOT
HETATM    1  C   UNL     1      -3.309   5.019 -31.383  1.00  0.00     0.164 C 
HETATM    2  N   UNL     1      -2.663   5.466 -32.611  1.00  0.00    -0.074 N 
HETATM    3  C   UNL     1      -2.469   6.781 -32.942  1.00  0.00     0.736 A 
HETATM    4  N   UNL     1      -1.768   6.845 -34.044  1.00  0.00     0.131 NA
HETATM    5  C   UNL     1      -1.504   5.535 -34.316  1.00  0.00     0.753 A 
HETATM    6  N   UNL     1      -2.004   4.653 -33.456  1.00  0.00     0.037 NA
HETATM    7  N   UNL     1      -2.908   7.780 -32.147  1.00  0.00    -0.214 N 
HETATM    8  C   UNL     1      -3.258   7.493 -30.759  1.00  0.00     0.135 C 
HETATM    9  C   UNL     1      -4.066   6.182 -30.707  1.00  0.00     0.063 C 
HETATM   10  H   UNL     1      -2.520   8.703 -32.324  1.00  0.00     0.178 HD
ENDROOT
BRANCH   1  11
HETATM   11  C   UNL     1      -4.243   3.841 -31.619  1.00  0.00    -0.030 A 
HETATM   12  C   UNL     1      -3.910   2.543 -31.188  1.00  0.00     0.046 A 
HETATM   13  C   UNL     1      -4.779   1.468 -31.390  1.00  0.00     0.068 A 
HETATM   14  C   UNL     1      -5.980   1.673 -32.067  1.00  0.00     0.037 A 
HETATM   15  C   UNL     1      -6.317   2.952 -32.516  1.00  0.00     0.003 A 
HETATM   16  C   UNL     1      -5.458   4.029 -32.292  1.00  0.00     0.009 A 
BRANCH  13  17
HETATM   17  O   UNL     1      -4.335   0.268 -30.905  1.00  0.00    -0.356 OA
HETATM   18  C   UNL     1      -2.971  -0.041 -31.168  1.00  0.00     0.210 C 
ENDBRANCH  13  17
ENDBRANCH   1  11
BRANCH   8  19
HETATM   19  C   UNL     1      -2.063   7.509 -29.809  1.00  0.00    -0.035 A 
HETATM   20  C   UNL     1      -0.727   7.481 -30.247  1.00  0.00     0.010 A 
HETATM   21  C   UNL     1       0.334   7.500 -29.335  1.00  0.00     0.019 A 
HETATM   22  C   UNL     1       0.073   7.552 -27.969  1.00  0.00     0.011 A 
HETATM   23 BR   UNL     1       1.505   7.578 -26.737  1.00  0.00    -0.051 Br
HETATM   24  C   UNL     1      -1.240   7.588 -27.509  1.00  0.00     0.019 A 
HETATM   25  C   UNL     1      -2.298   7.570 -28.423  1.00  0.00     0.010 A 
ENDBRANCH   8  19
BRANCH   5  26
HETATM   26  N   UNL     1      -0.787   5.240 -35.396  1.00  0.00    -0.229 N 
HETATM   27  H   UNL     1      -0.896   5.859 -36.188  1.00  0.00     0.174 HD
HETATM   28  H   UNL     1      -0.722   4.260 -35.632  1.00  0.00     0.174 HD
ENDBRANCH   5  26
TORSDOF 4
ENDMDL
MODEL 10
REMARK VINA RESULT:      -8.0     14.372     16.260
REMARK  4 active torsions:
REMARK  status: ('A' for Active; 'I' for Inactive)
REMARK    1  A    between atoms: O_2  and  C_3 
REMARK    2  A    between atoms: C_5  and  C_6 
REMARK    3  A    between atoms: C_10  and  N_11 
REMARK    4  A    between atoms: C_14  and  C_15 
ROOT
HETATM    1  C   UNL     1      -6.871 -14.144 -36.148  1.00  0.00     0.164 C 
HETATM    2  N   UNL     1      -5.443 -14.044 -36.430  1.00  0.00    -0.074 N 
HETATM    3  C   UNL     1      -4.541 -13.413 -35.614  1.00  0.00     0.736 A 
HETATM    4  N   UNL     1      -3.337 -13.594 -36.089  1.00  0.00     0.131 NA
HETATM    5  C   UNL     1      -3.550 -14.400 -37.168  1.00  0.00     0.753 A 
HETATM    6  N   UNL     1      -4.817 -14.727 -37.405  1.00  0.00     0.037 NA
HETATM    7  N   UNL     1      -4.931 -12.793 -34.480  1.00  0.00    -0.214 N 
HETATM    8  C   UNL     1      -6.240 -13.096 -33.909  1.00  0.00     0.135 C 
HETATM    9  C   UNL     1      -7.282 -13.148 -35.043  1.00  0.00     0.063 C 
HETATM   10  H   UNL     1      -4.198 -12.568 -33.812  1.00  0.00     0.178 HD
ENDROOT
BRANCH   1  11
HETATM   11  C   UNL     1      -7.719 -13.938 -37.394  1.00  0.00    -0.030 A 
HETATM   12  C   UNL     1      -8.454 -14.994 -37.965  1.00  0.00     0.046 A 
HETATM   13  C   UNL     1      -9.247 -14.796 -39.098  1.00  0.00     0.068 A 
HETATM   14  C   UNL     1      -9.282 -13.540 -39.700  1.00  0.00     0.037 A 
HETATM   15  C   UNL     1      -8.545 -12.485 -39.156  1.00  0.00     0.003 A 
HETATM   16  C   UNL     1      -7.772 -12.680 -38.010  1.00  0.00     0.009 A 
BRANCH  13  17
HETATM   17  O   UNL     1      -9.918 -15.905 -39.533  1.00  0.00    -0.356 OA
HETATM   18  C   UNL     1     -10.409 -15.850 -40.868  1.00  0.00     0.210 C 
ENDBRANCH  13  17
ENDBRANCH   1  11
BRANCH   8  19
HETATM   19  C   UNL     1      -6.248 -14.335 -33.017  1.00  0.00    -0.035 A 
HETATM   20  C   UNL     1      -7.192 -15.370 -33.140  1.00  0.00     0.010 A 
HETATM   21  C   UNL     1      -7.154 -16.487 -32.298  1.00  0.00     0.019 A 
HETATM   22  C   UNL     1      -6.169 -16.586 -31.321  1.00  0.00     0.011 A 
HETATM   23 BR   UNL     1      -6.118 -18.094 -30.184  1.00  0.00    -0.051 Br
HETATM   24  C   UNL     1      -5.219 -15.579 -31.181  1.00  0.00     0.019 A 
HETATM   25  C   UNL     1      -5.257 -14.464 -32.025  1.00  0.00     0.010 A 
ENDBRANCH   8  19
BRANCH   5  26
HETATM   26  N   UNL     1      -2.505 -14.787 -37.892  1.00  0.00    -0.229 N 
HETATM   27  H   UNL     1      -1.868 -14.058 -38.184  1.00  0.00     0.174 HD
HETATM   28  H   UNL     1      -2.684 -15.496 -38.590  1.00  0.00     0.174 HD
ENDBRANCH   5  26
TORSDOF 4
ENDMDL
