MODEL 1
REMARK VINA RESULT:      -8.9      0.000      0.000
REMARK  6 active torsions:
REMARK  status: ('A' for Active; 'I' for Inactive)
REMARK    1  A    between atoms: O_2  and  C_3 
REMARK    2  A    between atoms: C_6  and  C_7 
REMARK    3  A    between atoms: C_7  and  N_8 
REMARK       I    between atoms: N_8  and  C_9 
REMARK    4  A    between atoms: C_9  and  C_10 
REMARK    5  A    between atoms: C_13  and  C_14 
REMARK    6  A    between atoms: C_19  and  C_20 
ROOT
HETATM    1  C   UNL     1      -4.919   3.157 -31.516  1.00  0.00     0.096 A 
HETATM    2  C   UNL     1      -5.777   2.623 -32.458  1.00  0.00     0.138 A 
HETATM    3  N   UNL     1      -6.997   2.507 -31.851  1.00  0.00    -0.240 N 
HETATM    4  C   UNL     1      -8.164   1.905 -32.468  1.00  0.00     0.221 C 
HETATM    5  C   UNL     1      -7.990   1.830 -33.999  1.00  0.00     0.066 C 
HETATM    6  C   UNL     1      -6.573   1.427 -34.455  1.00  0.00     0.118 C 
HETATM    7  N   UNL     1      -5.595   2.240 -33.744  1.00  0.00    -0.365 N 
HETATM    8  N   UNL     1      -7.038   3.040 -30.620  1.00  0.00    -0.181 NA
HETATM    9  C   UNL     1      -5.768   3.405 -30.408  1.00  0.00     0.160 A 
HETATM   10  H   UNL     1      -4.642   2.220 -34.121  1.00  0.00     0.161 HD
ENDROOT
BRANCH   1  11
HETATM   11  C   UNL     1      -3.495   3.377 -31.706  1.00  0.00     0.257 C 
HETATM   12  N   UNL     1      -3.157   4.469 -32.472  1.00  0.00    -0.352 N 
HETATM   13  H   UNL     1      -3.865   5.095 -32.823  1.00  0.00     0.163 HD
HETATM   14  O   UNL     1      -2.649   2.641 -31.204  1.00  0.00    -0.267 OA
BRANCH  12  15
HETATM   15  C   UNL     1      -1.776   4.836 -32.691  1.00  0.00     0.161 C 
BRANCH  15  16
HETATM   16  C   UNL     1      -1.270   5.798 -31.646  1.00  0.00    -0.040 A 
HETATM   17  C   UNL     1      -2.152   6.698 -31.035  1.00  0.00     0.011 A 
HETATM   18  C   UNL     1      -1.706   7.544 -30.016  1.00  0.00     0.037 A 
HETATM   19  C   UNL     1      -0.381   7.501 -29.581  1.00  0.00     0.068 A 
HETATM   20  C   UNL     1       0.503   6.608 -30.183  1.00  0.00     0.037 A 
HETATM   21  C   UNL     1       0.059   5.755 -31.199  1.00  0.00     0.011 A 
BRANCH  19  22
HETATM   22  O   UNL     1      -0.081   8.371 -28.568  1.00  0.00    -0.356 OA
HETATM   23  C   UNL     1       1.228   8.287 -28.021  1.00  0.00     0.210 C 
ENDBRANCH  19  22
ENDBRANCH  15  16
ENDBRANCH  12  15
ENDBRANCH   1  11
BRANCH   4  24
HETATM   24  C   UNL     1      -8.462   0.569 -31.823  1.00  0.00     0.409 C 
HETATM   25  F   UNL     1      -7.372  -0.088 -31.388  1.00  0.00    -0.169 F 
HETATM   26  F   UNL     1      -9.305   0.693 -30.771  1.00  0.00    -0.169 F 
HETATM   27  F   UNL     1      -9.092  -0.245 -32.712  1.00  0.00    -0.169 F 
ENDBRANCH   4  24
BRANCH   6  28
HETATM   28  C   UNL     1      -6.263  -0.061 -34.405  1.00  0.00    -0.035 A 
HETATM   29  C   UNL     1      -5.104  -0.505 -33.742  1.00  0.00     0.009 A 
HETATM   30  C   UNL     1      -4.799  -1.866 -33.655  1.00  0.00     0.001 A 
HETATM   31  C   UNL     1      -5.653  -2.811 -34.217  1.00  0.00     0.000 A 
HETATM   32  C   UNL     1      -6.814  -2.395 -34.863  1.00  0.00     0.001 A 
HETATM   33  C   UNL     1      -7.118  -1.035 -34.951  1.00  0.00     0.009 A 
ENDBRANCH   6  28
TORSDOF 6
ENDMDL
MODEL 2
REMARK VINA RESULT:      -8.7      3.511      6.797
REMARK  6 active torsions:
REMARK  status: ('A' for Active; 'I' for Inactive)
REMARK    1  A    between atoms: O_2  and  C_3 
REMARK    2  A    between atoms: C_6  and  C_7 
REMARK    3  A    between atoms: C_7  and  N_8 
REMARK       I    between atoms: N_8  and  C_9 
REMARK    4  A    between atoms: C_9  and  C_10 
REMARK    5  A    between atoms: C_13  and  C_14 
REMARK    6  A    between atoms: C_19  and  C_20 
ROOT
HETATM    1  C   UNL     1      -5.113   3.283 -30.824  1.00  0.00     0.096 A 
HETATM    2  C   UNL     1      -6.110   3.610 -31.722  1.00  0.00     0.138 A 
HETATM    3  N   UNL     1      -6.881   4.564 -31.118  1.00  0.00    -0.240 N 
HETATM    4  C   UNL     1      -8.092   5.120 -31.688  1.00  0.00     0.221 C 
HETATM    5  C   UNL     1      -8.153   4.847 -33.205  1.00  0.00     0.066 C 
HETATM    6  C   UNL     1      -7.675   3.439 -33.613  1.00  0.00     0.118 C 
HETATM    7  N   UNL     1      -6.397   3.164 -32.969  1.00  0.00    -0.365 N 
HETATM    8  N   UNL     1      -6.393   4.981 -29.938  1.00  0.00    -0.181 NA
HETATM    9  C   UNL     1      -5.338   4.179 -29.749  1.00  0.00     0.160 A 
HETATM   10  H   UNL     1      -5.878   2.360 -33.335  1.00  0.00     0.161 HD
ENDROOT
BRANCH   1  11
HETATM   11  C   UNL     1      -4.111   2.249 -31.021  1.00  0.00     0.257 C 
HETATM   12  N   UNL     1      -4.558   0.953 -30.900  1.00  0.00    -0.352 N 
HETATM   13  H   UNL     1      -5.534   0.755 -30.739  1.00  0.00     0.163 HD
HETATM   14  O   UNL     1      -2.942   2.516 -31.290  1.00  0.00    -0.267 OA
BRANCH  12  15
HETATM   15  C   UNL     1      -3.679  -0.171 -31.129  1.00  0.00     0.161 C 
BRANCH  15  16
HETATM   16  C   UNL     1      -4.139  -1.027 -32.282  1.00  0.00    -0.040 A 
HETATM   17  C   UNL     1      -3.550  -2.277 -32.508  1.00  0.00     0.011 A 
HETATM   18  C   UNL     1      -4.018  -3.107 -33.531  1.00  0.00     0.037 A 
HETATM   19  C   UNL     1      -5.088  -2.712 -34.337  1.00  0.00     0.068 A 
HETATM   20  C   UNL     1      -5.681  -1.470 -34.118  1.00  0.00     0.037 A 
HETATM   21  C   UNL     1      -5.218  -0.640 -33.091  1.00  0.00     0.011 A 
BRANCH  19  22
HETATM   22  O   UNL     1      -5.455  -3.623 -35.288  1.00  0.00    -0.356 OA
HETATM   23  C   UNL     1      -6.687  -4.302 -35.082  1.00  0.00     0.210 C 
ENDBRANCH  19  22
ENDBRANCH  15  16
ENDBRANCH  12  15
ENDBRANCH   1  11
BRANCH   4  24
HETATM   24  C   UNL     1      -9.302   4.617 -30.931  1.00  0.00     0.409 C 
HETATM   25  F   UNL     1      -9.155   3.383 -30.415  1.00  0.00    -0.169 F 
HETATM   26  F   UNL     1      -9.640   5.442 -29.913  1.00  0.00    -0.169 F 
HETATM   27  F   UNL     1     -10.384   4.580 -31.756  1.00  0.00    -0.169 F 
ENDBRANCH   4  24
BRANCH   6  28
HETATM   28  C   UNL     1      -8.689   2.320 -33.431  1.00  0.00    -0.035 A 
HETATM   29  C   UNL     1      -9.926   2.391 -34.096  1.00  0.00     0.009 A 
HETATM   30  C   UNL     1     -10.873   1.371 -33.972  1.00  0.00     0.001 A 
HETATM   31  C   UNL     1     -10.596   0.253 -33.191  1.00  0.00     0.000 A 
HETATM   32  C   UNL     1      -9.370   0.153 -32.538  1.00  0.00     0.001 A 
HETATM   33  C   UNL     1      -8.425   1.173 -32.661  1.00  0.00     0.009 A 
ENDBRANCH   6  28
TORSDOF 6
ENDMDL
MODEL 3
REMARK VINA RESULT:      -8.6      4.863      9.035
REMARK  6 active torsions:
REMARK  status: ('A' for Active; 'I' for Inactive)
REMARK    1  A    between atoms: O_2  and  C_3 
REMARK    2  A    between atoms: C_6  and  C_7 
REMARK    3  A    between atoms: C_7  and  N_8 
REMARK       I    between atoms: N_8  and  C_9 
REMARK    4  A    between atoms: C_9  and  C_10 
REMARK    5  A    between atoms: C_13  and  C_14 
REMARK    6  A    between atoms: C_19  and  C_20 
ROOT
HETATM    1  C   UNL     1      -8.907   2.535 -32.564  1.00  0.00     0.096 A 
HETATM    2  C   UNL     1      -7.965   1.880 -31.793  1.00  0.00     0.138 A 
HETATM    3  N   UNL     1      -7.022   2.812 -31.456  1.00  0.00    -0.240 N 
HETATM    4  C   UNL     1      -5.808   2.519 -30.719  1.00  0.00     0.221 C 
HETATM    5  C   UNL     1      -5.930   1.164 -29.992  1.00  0.00     0.066 C 
HETATM    6  C   UNL     1      -6.625   0.063 -30.817  1.00  0.00     0.118 C 
HETATM    7  N   UNL     1      -7.860   0.596 -31.378  1.00  0.00    -0.365 N 
HETATM    8  N   UNL     1      -7.336   4.059 -31.844  1.00  0.00    -0.181 NA
HETATM    9  C   UNL     1      -8.464   3.881 -32.542  1.00  0.00     0.160 A 
HETATM   10  H   UNL     1      -8.513  -0.098 -31.756  1.00  0.00     0.161 HD
ENDROOT
BRANCH   1  11
HETATM   11  C   UNL     1     -10.050   1.907 -33.205  1.00  0.00     0.257 C 
HETATM   12  N   UNL     1     -10.766   2.709 -34.064  1.00  0.00    -0.352 N 
HETATM   13  H   UNL     1     -10.468   3.651 -34.264  1.00  0.00     0.163 HD
HETATM   14  O   UNL     1     -10.349   0.733 -33.001  1.00  0.00    -0.267 OA
BRANCH  12  15
HETATM   15  C   UNL     1     -11.891   2.194 -34.812  1.00  0.00     0.161 C 
BRANCH  15  16
HETATM   16  C   UNL     1     -13.174   2.253 -34.023  1.00  0.00    -0.040 A 
HETATM   17  C   UNL     1     -14.152   1.265 -34.195  1.00  0.00     0.011 A 
HETATM   18  C   UNL     1     -15.312   1.273 -33.417  1.00  0.00     0.037 A 
HETATM   19  C   UNL     1     -15.514   2.256 -32.446  1.00  0.00     0.068 A 
HETATM   20  C   UNL     1     -14.546   3.242 -32.267  1.00  0.00     0.037 A 
HETATM   21  C   UNL     1     -13.381   3.234 -33.041  1.00  0.00     0.011 A 
BRANCH  19  22
HETATM   22  O   UNL     1     -16.683   2.139 -31.746  1.00  0.00    -0.356 OA
HETATM   23  C   UNL     1     -17.781   2.919 -32.201  1.00  0.00     0.210 C 
ENDBRANCH  19  22
ENDBRANCH  15  16
ENDBRANCH  12  15
ENDBRANCH   1  11
BRANCH   4  24
HETATM   24  C   UNL     1      -4.608   2.611 -31.636  1.00  0.00     0.409 C 
HETATM   25  F   UNL     1      -4.833   2.161 -32.884  1.00  0.00    -0.169 F 
HETATM   26  F   UNL     1      -4.149   3.880 -31.742  1.00  0.00    -0.169 F 
HETATM   27  F   UNL     1      -3.578   1.883 -31.128  1.00  0.00    -0.169 F 
ENDBRANCH   4  24
BRANCH   6  28
HETATM   28  C   UNL     1      -5.754  -0.636 -31.849  1.00  0.00    -0.035 A 
HETATM   29  C   UNL     1      -4.452  -1.040 -31.498  1.00  0.00     0.009 A 
HETATM   30  C   UNL     1      -3.632  -1.706 -32.412  1.00  0.00     0.001 A 
HETATM   31  C   UNL     1      -4.100  -1.994 -33.691  1.00  0.00     0.000 A 
HETATM   32  C   UNL     1      -5.391  -1.620 -34.054  1.00  0.00     0.001 A 
HETATM   33  C   UNL     1      -6.210  -0.953 -33.142  1.00  0.00     0.009 A 
ENDBRANCH   6  28
TORSDOF 6
ENDMDL
MODEL 4
REMARK VINA RESULT:      -8.5      3.672      9.015
REMARK  6 active torsions:
REMARK  status: ('A' for Active; 'I' for Inactive)
REMARK    1  A    between atoms: O_2  and  C_3 
REMARK    2  A    between atoms: C_6  and  C_7 
REMARK    3  A    between atoms: C_7  and  N_8 
REMARK       I    between atoms: N_8  and  C_9 
REMARK    4  A    between atoms: C_9  and  C_10 
REMARK    5  A    between atoms: C_13  and  C_14 
REMARK    6  A    between atoms: C_19  and  C_20 
ROOT
HETATM    1  C   UNL     1      -4.706   4.036 -32.412  1.00  0.00     0.096 A 
HETATM    2  C   UNL     1      -4.201   5.177 -31.820  1.00  0.00     0.138 A 
HETATM    3  N   UNL     1      -3.918   6.050 -32.834  1.00  0.00    -0.240 N 
HETATM    4  C   UNL     1      -3.286   7.342 -32.650  1.00  0.00     0.221 C 
HETATM    5  C   UNL     1      -3.385   7.789 -31.176  1.00  0.00     0.066 C 
HETATM    6  C   UNL     1      -3.155   6.656 -30.155  1.00  0.00     0.118 C 
HETATM    7  N   UNL     1      -3.970   5.508 -30.527  1.00  0.00    -0.365 N 
HETATM    8  N   UNL     1      -4.316   5.618 -34.041  1.00  0.00    -0.181 NA
HETATM    9  C   UNL     1      -4.764   4.383 -33.785  1.00  0.00     0.160 A 
HETATM   10  H   UNL     1      -4.072   4.783 -29.808  1.00  0.00     0.161 HD
ENDROOT
BRANCH   1  11
HETATM   11  C   UNL     1      -5.066   2.815 -31.712  1.00  0.00     0.257 C 
HETATM   12  N   UNL     1      -6.080   2.077 -32.280  1.00  0.00    -0.352 N 
HETATM   13  H   UNL     1      -6.494   2.355 -33.156  1.00  0.00     0.163 HD
HETATM   14  O   UNL     1      -4.493   2.460 -30.684  1.00  0.00    -0.267 OA
BRANCH  12  15
HETATM   15  C   UNL     1      -6.496   0.813 -31.718  1.00  0.00     0.161 C 
BRANCH  15  16
HETATM   16  C   UNL     1      -6.201  -0.344 -32.639  1.00  0.00    -0.040 A 
HETATM   17  C   UNL     1      -7.183  -0.808 -33.522  1.00  0.00     0.011 A 
HETATM   18  C   UNL     1      -6.895  -1.832 -34.428  1.00  0.00     0.037 A 
HETATM   19  C   UNL     1      -5.622  -2.404 -34.477  1.00  0.00     0.068 A 
HETATM   20  C   UNL     1      -4.638  -1.948 -33.603  1.00  0.00     0.037 A 
HETATM   21  C   UNL     1      -4.922  -0.919 -32.698  1.00  0.00     0.011 A 
BRANCH  19  22
HETATM   22  O   UNL     1      -5.470  -3.385 -35.418  1.00  0.00    -0.356 OA
HETATM   23  C   UNL     1      -6.348  -4.500 -35.326  1.00  0.00     0.210 C 
ENDBRANCH  19  22
ENDBRANCH  15  16
ENDBRANCH  12  15
ENDBRANCH   1  11
BRANCH   4  24
HETATM   24  C   UNL     1      -1.870   7.308 -33.181  1.00  0.00     0.409 C 
HETATM   25  F   UNL     1      -0.998   8.051 -32.473  1.00  0.00    -0.169 F 
HETATM   26  F   UNL     1      -1.378   6.048 -33.230  1.00  0.00    -0.169 F 
HETATM   27  F   UNL     1      -1.842   7.770 -34.460  1.00  0.00    -0.169 F 
ENDBRANCH   4  24
BRANCH   6  28
HETATM   28  C   UNL     1      -1.702   6.296 -29.887  1.00  0.00    -0.035 A 
HETATM   29  C   UNL     1      -0.944   7.084 -29.001  1.00  0.00     0.009 A 
HETATM   30  C   UNL     1       0.386   6.769 -28.712  1.00  0.00     0.001 A 
HETATM   31  C   UNL     1       0.982   5.653 -29.292  1.00  0.00     0.000 A 
HETATM   32  C   UNL     1       0.246   4.849 -30.158  1.00  0.00     0.001 A 
HETATM   33  C   UNL     1      -1.083   5.164 -30.448  1.00  0.00     0.009 A 
ENDBRANCH   6  28
TORSDOF 6
ENDMDL
MODEL 5
REMARK VINA RESULT:      -8.4      1.891      3.451
REMARK  6 active torsions:
REMARK  status: ('A' for Active; 'I' for Inactive)
REMARK    1  A    between atoms: O_2  and  C_3 
REMARK    2  A    between atoms: C_6  and  C_7 
REMARK    3  A    between atoms: C_7  and  N_8 
REMARK       I    between atoms: N_8  and  C_9 
REMARK    4  A    between atoms: C_9  and  C_10 
REMARK    5  A    between atoms: C_13  and  C_14 
REMARK    6  A    between atoms: C_19  and  C_20 
ROOT
HETATM    1  C   UNL     1      -4.247   3.149 -31.638  1.00  0.00     0.096 A 
HETATM    2  C   UNL     1      -5.176   2.149 -31.424  1.00  0.00     0.138 A 
HETATM    3  N   UNL     1      -4.649   1.007 -31.961  1.00  0.00    -0.240 N 
HETATM    4  C   UNL     1      -5.345  -0.263 -32.027  1.00  0.00     0.221 C 
HETATM    5  C   UNL     1      -6.532  -0.283 -31.041  1.00  0.00     0.066 C 
HETATM    6  C   UNL     1      -7.325   1.038 -30.980  1.00  0.00     0.118 C 
HETATM    7  N   UNL     1      -6.393   2.147 -30.829  1.00  0.00    -0.365 N 
HETATM    8  N   UNL     1      -3.390   1.153 -32.403  1.00  0.00    -0.181 NA
HETATM    9  C   UNL     1      -3.161   2.460 -32.234  1.00  0.00     0.160 A 
HETATM   10  H   UNL     1      -6.808   3.043 -30.556  1.00  0.00     0.161 HD
ENDROOT
BRANCH   1  11
HETATM   11  C   UNL     1      -4.429   4.551 -31.299  1.00  0.00     0.257 C 
HETATM   12  N   UNL     1      -3.313   5.198 -30.817  1.00  0.00    -0.352 N 
HETATM   13  H   UNL     1      -2.424   4.726 -30.764  1.00  0.00     0.163 HD
HETATM   14  O   UNL     1      -5.507   5.122 -31.443  1.00  0.00    -0.267 OA
BRANCH  12  15
HETATM   15  C   UNL     1      -3.340   6.607 -30.497  1.00  0.00     0.161 C 
BRANCH  15  16
HETATM   16  C   UNL     1      -2.036   7.081 -29.907  1.00  0.00    -0.040 A 
HETATM   17  C   UNL     1      -2.036   7.898 -28.769  1.00  0.00     0.011 A 
HETATM   18  C   UNL     1      -0.831   8.284 -28.175  1.00  0.00     0.037 A 
HETATM   19  C   UNL     1       0.391   7.854 -28.695  1.00  0.00     0.068 A 
HETATM   20  C   UNL     1       0.400   7.039 -29.826  1.00  0.00     0.037 A 
HETATM   21  C   UNL     1      -0.805   6.647 -30.420  1.00  0.00     0.011 A 
BRANCH  19  22
HETATM   22  O   UNL     1       1.491   8.291 -28.009  1.00  0.00    -0.356 OA
HETATM   23  C   UNL     1       1.640   7.824 -26.675  1.00  0.00     0.210 C 
ENDBRANCH  19  22
ENDBRANCH  15  16
ENDBRANCH  12  15
ENDBRANCH   1  11
BRANCH   4  24
HETATM   24  C   UNL     1      -5.737  -0.568 -33.456  1.00  0.00     0.409 C 
HETATM   25  F   UNL     1      -5.993   0.523 -34.202  1.00  0.00    -0.169 F 
HETATM   26  F   UNL     1      -4.785  -1.282 -34.100  1.00  0.00    -0.169 F 
HETATM   27  F   UNL     1      -6.858  -1.338 -33.476  1.00  0.00    -0.169 F 
ENDBRANCH   4  24
BRANCH   6  28
HETATM   28  C   UNL     1      -8.334   1.253 -32.098  1.00  0.00    -0.035 A 
HETATM   29  C   UNL     1      -9.371   0.321 -32.284  1.00  0.00     0.009 A 
HETATM   30  C   UNL     1     -10.330   0.498 -33.284  1.00  0.00     0.001 A 
HETATM   31  C   UNL     1     -10.279   1.617 -34.111  1.00  0.00     0.000 A 
HETATM   32  C   UNL     1      -9.271   2.561 -33.933  1.00  0.00     0.001 A 
HETATM   33  C   UNL     1      -8.313   2.383 -32.934  1.00  0.00     0.009 A 
ENDBRANCH   6  28
TORSDOF 6
ENDMDL
MODEL 6
REMARK VINA RESULT:      -8.4      1.289      2.062
REMARK  6 active torsions:
REMARK  status: ('A' for Active; 'I' for Inactive)
REMARK    1  A    between atoms: O_2  and  C_3 
REMARK    2  A    between atoms: C_6  and  C_7 
REMARK    3  A    between atoms: C_7  and  N_8 
REMARK       I    between atoms: N_8  and  C_9 
REMARK    4  A    between atoms: C_9  and  C_10 
REMARK    5  A    between atoms: C_13  and  C_14 
REMARK    6  A    between atoms: C_19  and  C_20 
ROOT
HETATM    1  C   UNL     1      -4.617   4.093 -31.269  1.00  0.00     0.096 A 
HETATM    2  C   UNL     1      -5.540   3.666 -32.204  1.00  0.00     0.138 A 
HETATM    3  N   UNL     1      -6.766   3.740 -31.602  1.00  0.00    -0.240 N 
HETATM    4  C   UNL     1      -8.005   3.298 -32.212  1.00  0.00     0.221 C 
HETATM    5  C   UNL     1      -7.840   3.165 -33.740  1.00  0.00     0.066 C 
HETATM    6  C   UNL     1      -6.494   2.554 -34.179  1.00  0.00     0.118 C 
HETATM    7  N   UNL     1      -5.411   3.233 -33.481  1.00  0.00    -0.365 N 
HETATM    8  N   UNL     1      -6.733   4.301 -30.382  1.00  0.00    -0.181 NA
HETATM    9  C   UNL     1      -5.424   4.485 -30.171  1.00  0.00     0.160 A 
HETATM   10  H   UNL     1      -4.470   3.069 -33.851  1.00  0.00     0.161 HD
ENDROOT
BRANCH   1  11
HETATM   11  C   UNL     1      -3.175   4.103 -31.455  1.00  0.00     0.257 C 
HETATM   12  N   UNL     1      -2.493   5.093 -30.785  1.00  0.00    -0.352 N 
HETATM   13  H   UNL     1      -2.975   5.725 -30.165  1.00  0.00     0.163 HD
HETATM   14  O   UNL     1      -2.603   3.273 -32.158  1.00  0.00    -0.267 OA
BRANCH  12  15
HETATM   15  C   UNL     1      -1.051   5.181 -30.836  1.00  0.00     0.161 C 
BRANCH  15  16
HETATM   16  C   UNL     1      -0.500   6.109 -29.784  1.00  0.00    -0.040 A 
HETATM   17  C   UNL     1       0.417   5.634 -28.838  1.00  0.00     0.011 A 
HETATM   18  C   UNL     1       0.986   6.503 -27.904  1.00  0.00     0.037 A 
HETATM   19  C   UNL     1       0.662   7.861 -27.903  1.00  0.00     0.068 A 
HETATM   20  C   UNL     1      -0.249   8.343 -28.841  1.00  0.00     0.037 A 
HETATM   21  C   UNL     1      -0.816   7.476 -29.781  1.00  0.00     0.011 A 
BRANCH  19  22
HETATM   22  O   UNL     1       1.300   8.602 -26.947  1.00  0.00    -0.356 OA
HETATM   23  C   UNL     1       0.567   9.678 -26.377  1.00  0.00     0.210 C 
ENDBRANCH  19  22
ENDBRANCH  15  16
ENDBRANCH  12  15
ENDBRANCH   1  11
BRANCH   4  24
HETATM   24  C   UNL     1      -8.493   2.033 -31.540  1.00  0.00     0.409 C 
HETATM   25  F   UNL     1      -9.374   2.243 -30.546  1.00  0.00    -0.169 F 
HETATM   26  F   UNL     1      -9.074   1.185 -32.421  1.00  0.00    -0.169 F 
HETATM   27  F   UNL     1      -7.442   1.355 -31.008  1.00  0.00    -0.169 F 
ENDBRANCH   4  24
BRANCH   6  28
HETATM   28  C   UNL     1      -6.400   1.038 -34.096  1.00  0.00    -0.035 A 
HETATM   29  C   UNL     1      -7.227   0.246 -34.914  1.00  0.00     0.009 A 
HETATM   30  C   UNL     1      -7.151  -1.148 -34.882  1.00  0.00     0.001 A 
HETATM   31  C   UNL     1      -6.239  -1.780 -34.042  1.00  0.00     0.000 A 
HETATM   32  C   UNL     1      -5.398  -1.016 -33.237  1.00  0.00     0.001 A 
HETATM   33  C   UNL     1      -5.474   0.377 -33.268  1.00  0.00     0.009 A 
ENDBRANCH   6  28
TORSDOF 6
ENDMDL
MODEL 7
REMARK VINA RESULT:      -8.4      5.618      9.470
REMARK  6 active torsions:
REMARK  status: ('A' for Active; 'I' for Inactive)
REMARK    1  A    between atoms: O_2  and  C_3 
REMARK    2  A    between atoms: C_6  and  C_7 
REMARK    3  A    between atoms: C_7  and  N_8 
REMARK       I    between atoms: N_8  and  C_9 
REMARK    4  A    between atoms: C_9  and  C_10 
REMARK    5  A    between atoms: C_13  and  C_14 
REMARK    6  A    between atoms: C_19  and  C_20 
ROOT
HETATM    1  C   UNL     1     -10.018   2.423 -32.926  1.00  0.00     0.096 A 
HETATM    2  C   UNL     1      -8.881   1.937 -32.311  1.00  0.00     0.138 A 
HETATM    3  N   UNL     1      -7.939   2.924 -32.398  1.00  0.00    -0.240 N 
HETATM    4  C   UNL     1      -6.567   2.789 -31.949  1.00  0.00     0.221 C 
HETATM    5  C   UNL     1      -6.428   1.596 -30.980  1.00  0.00     0.066 C 
HETATM    6  C   UNL     1      -7.241   0.351 -31.391  1.00  0.00     0.118 C 
HETATM    7  N   UNL     1      -8.603   0.755 -31.709  1.00  0.00    -0.365 N 
HETATM    8  N   UNL     1      -8.409   4.071 -32.913  1.00  0.00    -0.181 NA
HETATM    9  C   UNL     1      -9.661   3.753 -33.261  1.00  0.00     0.160 A 
HETATM   10  H   UNL     1      -9.288  -0.004 -31.779  1.00  0.00     0.161 HD
ENDROOT
BRANCH   1  11
HETATM   11  C   UNL     1     -11.246   1.674 -33.135  1.00  0.00     0.257 C 
HETATM   12  N   UNL     1     -12.414   2.370 -32.921  1.00  0.00    -0.352 N 
HETATM   13  H   UNL     1     -12.397   3.350 -32.689  1.00  0.00     0.163 HD
HETATM   14  O   UNL     1     -11.239   0.497 -33.491  1.00  0.00    -0.267 OA
BRANCH  12  15
HETATM   15  C   UNL     1     -13.705   1.761 -33.149  1.00  0.00     0.161 C 
BRANCH  15  16
HETATM   16  C   UNL     1     -14.833   2.599 -32.603  1.00  0.00    -0.040 A 
HETATM   17  C   UNL     1     -14.614   3.942 -32.270  1.00  0.00     0.011 A 
HETATM   18  C   UNL     1     -15.670   4.744 -31.830  1.00  0.00     0.037 A 
HETATM   19  C   UNL     1     -16.963   4.229 -31.727  1.00  0.00     0.068 A 
HETATM   20  C   UNL     1     -17.191   2.894 -32.058  1.00  0.00     0.037 A 
HETATM   21  C   UNL     1     -16.137   2.090 -32.504  1.00  0.00     0.011 A 
BRANCH  19  22
HETATM   22  O   UNL     1     -17.905   5.124 -31.299  1.00  0.00    -0.356 OA
HETATM   23  C   UNL     1     -17.425   6.294 -30.650  1.00  0.00     0.210 C 
ENDBRANCH  19  22
ENDBRANCH  15  16
ENDBRANCH  12  15
ENDBRANCH   1  11
BRANCH   4  24
HETATM   24  C   UNL     1      -5.635   2.716 -33.139  1.00  0.00     0.409 C 
HETATM   25  F   UNL     1      -4.492   2.047 -32.903  1.00  0.00    -0.169 F 
HETATM   26  F   UNL     1      -6.227   2.139 -34.210  1.00  0.00    -0.169 F 
HETATM   27  F   UNL     1      -5.290   3.971 -33.535  1.00  0.00    -0.169 F 
ENDBRANCH   4  24
BRANCH   6  28
HETATM   28  C   UNL     1      -6.610  -0.523 -32.464  1.00  0.00    -0.035 A 
HETATM   29  C   UNL     1      -7.364  -0.883 -33.596  1.00  0.00     0.009 A 
HETATM   30  C   UNL     1      -6.811  -1.664 -34.613  1.00  0.00     0.001 A 
HETATM   31  C   UNL     1      -5.488  -2.090 -34.527  1.00  0.00     0.000 A 
HETATM   32  C   UNL     1      -4.718  -1.731 -33.424  1.00  0.00     0.001 A 
HETATM   33  C   UNL     1      -5.272  -0.952 -32.407  1.00  0.00     0.009 A 
ENDBRANCH   6  28
TORSDOF 6
ENDMDL
MODEL 8
REMARK VINA RESULT:      -8.4      4.180      7.722
REMARK  6 active torsions:
REMARK  status: ('A' for Active; 'I' for Inactive)
REMARK    1  A    between atoms: O_2  and  C_3 
REMARK    2  A    between atoms: C_6  and  C_7 
REMARK    3  A    between atoms: C_7  and  N_8 
REMARK       I    between atoms: N_8  and  C_9 
REMARK    4  A    between atoms: C_9  and  C_10 
REMARK    5  A    between atoms: C_13  and  C_14 
REMARK    6  A    between atoms: C_19  and  C_20 
ROOT
HETATM    1  C   UNL     1      -7.138   4.530 -31.660  1.00  0.00     0.096 A 
HETATM    2  C   UNL     1      -7.009   3.189 -31.355  1.00  0.00     0.138 A 
HETATM    3  N   UNL     1      -5.756   3.027 -30.833  1.00  0.00    -0.240 N 
HETATM    4  C   UNL     1      -5.182   1.748 -30.461  1.00  0.00     0.221 C 
HETATM    5  C   UNL     1      -6.288   0.684 -30.303  1.00  0.00     0.066 C 
HETATM    6  C   UNL     1      -7.396   0.759 -31.374  1.00  0.00     0.118 C 
HETATM    7  N   UNL     1      -7.853   2.138 -31.489  1.00  0.00    -0.365 N 
HETATM    8  N   UNL     1      -5.094   4.182 -30.656  1.00  0.00    -0.181 NA
HETATM    9  C   UNL     1      -5.923   5.088 -31.188  1.00  0.00     0.160 A 
HETATM   10  H   UNL     1      -8.730   2.274 -32.002  1.00  0.00     0.161 HD
ENDROOT
BRANCH   1  11
HETATM   11  C   UNL     1      -8.287   5.137 -32.311  1.00  0.00     0.257 C 
HETATM   12  N   UNL     1      -8.347   4.985 -33.678  1.00  0.00    -0.352 N 
HETATM   13  H   UNL     1      -7.657   4.437 -34.169  1.00  0.00     0.163 HD
HETATM   14  O   UNL     1      -9.154   5.737 -31.680  1.00  0.00    -0.267 OA
BRANCH  12  15
HETATM   15  C   UNL     1      -9.465   5.489 -34.443  1.00  0.00     0.161 C 
BRANCH  15  16
HETATM   16  C   UNL     1     -10.477   4.413 -34.746  1.00  0.00    -0.040 A 
HETATM   17  C   UNL     1     -10.220   3.084 -34.386  1.00  0.00     0.011 A 
HETATM   18  C   UNL     1     -11.182   2.094 -34.599  1.00  0.00     0.037 A 
HETATM   19  C   UNL     1     -12.420   2.410 -35.162  1.00  0.00     0.068 A 
HETATM   20  C   UNL     1     -12.685   3.730 -35.521  1.00  0.00     0.037 A 
HETATM   21  C   UNL     1     -11.726   4.725 -35.304  1.00  0.00     0.011 A 
BRANCH  19  22
HETATM   22  O   UNL     1     -13.274   1.351 -35.301  1.00  0.00    -0.356 OA
HETATM   23  C   UNL     1     -13.438   0.509 -34.167  1.00  0.00     0.210 C 
ENDBRANCH  19  22
ENDBRANCH  15  16
ENDBRANCH  12  15
ENDBRANCH   1  11
BRANCH   4  24
HETATM   24  C   UNL     1      -4.099   1.358 -31.443  1.00  0.00     0.409 C 
HETATM   25  F   UNL     1      -4.393   1.635 -32.726  1.00  0.00    -0.169 F 
HETATM   26  F   UNL     1      -2.921   1.962 -31.161  1.00  0.00    -0.169 F 
HETATM   27  F   UNL     1      -3.861   0.021 -31.365  1.00  0.00    -0.169 F 
ENDBRANCH   4  24
BRANCH   6  28
HETATM   28  C   UNL     1      -7.060   0.127 -32.716  1.00  0.00    -0.035 A 
HETATM   29  C   UNL     1      -6.387  -1.108 -32.751  1.00  0.00     0.009 A 
HETATM   30  C   UNL     1      -6.083  -1.731 -33.964  1.00  0.00     0.001 A 
HETATM   31  C   UNL     1      -6.457  -1.138 -35.166  1.00  0.00     0.000 A 
HETATM   32  C   UNL     1      -7.140   0.075 -35.155  1.00  0.00     0.001 A 
HETATM   33  C   UNL     1      -7.442   0.698 -33.943  1.00  0.00     0.009 A 
ENDBRANCH   6  28
TORSDOF 6
ENDMDL
MODEL 9
REMARK VINA RESULT:      -8.2      4.047      7.705
REMARK  6 active torsions:
REMARK  status: ('A' for Active; 'I' for Inactive)
REMARK    1  A    between atoms: O_2  and  C_3 
REMARK    2  A    between atoms: C_6  and  C_7 
REMARK    3  A    between atoms: C_7  and  N_8 
REMARK       I    between atoms: N_8  and  C_9 
REMARK    4  A    between atoms: C_9  and  C_10 
REMARK    5  A    between atoms: C_13  and  C_14 
REMARK    6  A    between atoms: C_19  and  C_20 
ROOT
HETATM    1  C   UNL     1      -8.629   2.044 -31.727  1.00  0.00     0.096 A 
HETATM    2  C   UNL     1      -7.435   2.568 -31.269  1.00  0.00     0.138 A 
HETATM    3  N   UNL     1      -7.756   3.646 -30.491  1.00  0.00    -0.240 N 
HETATM    4  C   UNL     1      -6.785   4.535 -29.883  1.00  0.00     0.221 C 
HETATM    5  C   UNL     1      -5.392   3.874 -29.847  1.00  0.00     0.066 C 
HETATM    6  C   UNL     1      -5.034   3.083 -31.121  1.00  0.00     0.118 C 
HETATM    7  N   UNL     1      -6.145   2.205 -31.465  1.00  0.00    -0.365 N 
HETATM    8  N   UNL     1      -9.076   3.797 -30.300  1.00  0.00    -0.181 NA
HETATM    9  C   UNL     1      -9.603   2.843 -31.077  1.00  0.00     0.160 A 
HETATM   10  H   UNL     1      -5.939   1.476 -32.155  1.00  0.00     0.161 HD
ENDROOT
BRANCH   1  11
HETATM   11  C   UNL     1      -8.757   0.934 -32.655  1.00  0.00     0.257 C 
HETATM   12  N   UNL     1      -7.961   0.998 -33.776  1.00  0.00    -0.352 N 
HETATM   13  H   UNL     1      -7.299   1.747 -33.899  1.00  0.00     0.163 HD
HETATM   14  O   UNL     1      -9.520  -0.007 -32.445  1.00  0.00    -0.267 OA
BRANCH  12  15
HETATM   15  C   UNL     1      -7.948  -0.069 -34.752  1.00  0.00     0.161 C 
BRANCH  15  16
HETATM   16  C   UNL     1      -6.783  -1.006 -34.554  1.00  0.00    -0.040 A 
HETATM   17  C   UNL     1      -5.619  -0.555 -33.919  1.00  0.00     0.011 A 
HETATM   18  C   UNL     1      -4.562  -1.434 -33.669  1.00  0.00     0.037 A 
HETATM   19  C   UNL     1      -4.650  -2.778 -34.037  1.00  0.00     0.068 A 
HETATM   20  C   UNL     1      -5.805  -3.236 -34.668  1.00  0.00     0.037 A 
HETATM   21  C   UNL     1      -6.867  -2.359 -34.915  1.00  0.00     0.011 A 
BRANCH  19  22
HETATM   22  O   UNL     1      -3.553  -3.532 -33.721  1.00  0.00    -0.356 OA
HETATM   23  C   UNL     1      -3.759  -4.931 -33.577  1.00  0.00     0.210 C 
ENDBRANCH  19  22
ENDBRANCH  15  16
ENDBRANCH  12  15
ENDBRANCH   1  11
BRANCH   4  24
HETATM   24  C   UNL     1      -6.802   5.878 -30.581  1.00  0.00     0.409 C 
HETATM   25  F   UNL     1      -7.216   5.828 -31.860  1.00  0.00    -0.169 F 
HETATM   26  F   UNL     1      -7.588   6.772 -29.937  1.00  0.00    -0.169 F 
HETATM   27  F   UNL     1      -5.553   6.415 -30.585  1.00  0.00    -0.169 F 
ENDBRANCH   4  24
BRANCH   6  28
HETATM   28  C   UNL     1      -4.543   3.914 -32.297  1.00  0.00    -0.035 A 
HETATM   29  C   UNL     1      -3.304   4.574 -32.210  1.00  0.00     0.009 A 
HETATM   30  C   UNL     1      -2.810   5.326 -33.278  1.00  0.00     0.001 A 
HETATM   31  C   UNL     1      -3.538   5.423 -34.460  1.00  0.00     0.000 A 
HETATM   32  C   UNL     1      -4.759   4.764 -34.575  1.00  0.00     0.001 A 
HETATM   33  C   UNL     1      -5.253   4.013 -33.507  1.00  0.00     0.009 A 
ENDBRANCH   6  28
TORSDOF 6
ENDMDL
MODEL 10
REMARK VINA RESULT:      -8.2      2.246      3.455
REMARK  6 active torsions:
REMARK  status: ('A' for Active; 'I' for Inactive)
REMARK    1  A    between atoms: O_2  and  C_3 
REMARK    2  A    between atoms: C_6  and  C_7 
REMARK    3  A    between atoms: C_7  and  N_8 
REMARK       I    between atoms: N_8  and  C_9 
REMARK    4  A    between atoms: C_9  and  C_10 
REMARK    5  A    between atoms: C_13  and  C_14 
REMARK    6  A    between atoms: C_19  and  C_20 
ROOT
HETATM    1  C   UNL     1      -8.593   4.193 -32.560  1.00  0.00     0.096 A 
HETATM    2  C   UNL     1      -8.104   3.140 -33.308  1.00  0.00     0.138 A 
HETATM    3  N   UNL     1      -9.119   2.229 -33.408  1.00  0.00    -0.240 N 
HETATM    4  C   UNL     1      -8.995   0.931 -34.044  1.00  0.00     0.221 C 
HETATM    5  C   UNL     1      -7.756   0.893 -34.962  1.00  0.00     0.066 C 
HETATM    6  C   UNL     1      -6.514   1.595 -34.376  1.00  0.00     0.118 C 
HETATM    7  N   UNL     1      -6.899   2.911 -33.884  1.00  0.00    -0.365 N 
HETATM    8  N   UNL     1     -10.280   2.659 -32.888  1.00  0.00    -0.181 NA
HETATM    9  C   UNL     1      -9.948   3.837 -32.346  1.00  0.00     0.160 A 
HETATM   10  H   UNL     1      -6.127   3.553 -33.678  1.00  0.00     0.161 HD
ENDROOT
BRANCH   1  11
HETATM   11  C   UNL     1      -7.824   5.352 -32.138  1.00  0.00     0.257 C 
HETATM   12  N   UNL     1      -6.759   5.091 -31.306  1.00  0.00    -0.352 N 
HETATM   13  H   UNL     1      -6.512   4.144 -31.062  1.00  0.00     0.163 HD
HETATM   14  O   UNL     1      -8.102   6.489 -32.510  1.00  0.00    -0.267 OA
BRANCH  12  15
HETATM   15  C   UNL     1      -5.877   6.145 -30.859  1.00  0.00     0.161 C 
BRANCH  15  16
HETATM   16  C   UNL     1      -4.425   5.749 -30.950  1.00  0.00    -0.040 A 
HETATM   17  C   UNL     1      -4.059   4.565 -31.602  1.00  0.00     0.011 A 
HETATM   18  C   UNL     1      -2.712   4.226 -31.752  1.00  0.00     0.037 A 
HETATM   19  C   UNL     1      -1.707   5.065 -31.267  1.00  0.00     0.068 A 
HETATM   20  C   UNL     1      -2.061   6.246 -30.618  1.00  0.00     0.037 A 
HETATM   21  C   UNL     1      -3.410   6.590 -30.471  1.00  0.00     0.011 A 
BRANCH  19  22
HETATM   22  O   UNL     1      -0.433   4.622 -31.493  1.00  0.00    -0.356 OA
HETATM   23  C   UNL     1       0.612   5.310 -30.817  1.00  0.00     0.210 C 
ENDBRANCH  19  22
ENDBRANCH  15  16
ENDBRANCH  12  15
ENDBRANCH   1  11
BRANCH   4  24
HETATM   24  C   UNL     1      -9.013  -0.163 -32.999  1.00  0.00     0.409 C 
HETATM   25  F   UNL     1     -10.245  -0.592 -32.671  1.00  0.00    -0.169 F 
HETATM   26  F   UNL     1      -8.301  -1.246 -33.390  1.00  0.00    -0.169 F 
HETATM   27  F   UNL     1      -8.424   0.277 -31.855  1.00  0.00    -0.169 F 
ENDBRANCH   4  24
BRANCH   6  28
HETATM   28  C   UNL     1      -5.717   0.788 -33.363  1.00  0.00    -0.035 A 
HETATM   29  C   UNL     1      -5.214  -0.475 -33.725  1.00  0.00     0.009 A 
HETATM   30  C   UNL     1      -4.457  -1.235 -32.830  1.00  0.00     0.001 A 
HETATM   31  C   UNL     1      -4.175  -0.741 -31.559  1.00  0.00     0.000 A 
HETATM   32  C   UNL     1      -4.647   0.515 -31.186  1.00  0.00     0.001 A 
HETATM   33  C   UNL     1      -5.404   1.273 -32.080  1.00  0.00     0.009 A 
ENDBRANCH   6  28
TORSDOF 6
ENDMDL
