MODEL 1
REMARK VINA RESULT:      -9.6      0.000      0.000
REMARK  5 active torsions:
REMARK  status: ('A' for Active; 'I' for Inactive)
REMARK    1  A    between atoms: C_4  and  N_5 
REMARK       I    between atoms: N_5  and  C_6 
REMARK       I    between atoms: C_6  and  N_7 
REMARK    2  A    between atoms: N_7  and  C_8 
REMARK    3  A    between atoms: C_11  and  C_12 
REMARK    4  A    between atoms: C_12  and  C_13 
REMARK       I    between atoms: C_13  and  N_14 
REMARK    5  A    between atoms: N_14  and  C_15 
ROOT
HETATM    1  C   UNL     1      -2.616   4.858 -32.895  1.00  0.00     0.174 A 
HETATM    2  S   UNL     1      -4.176   5.476 -32.576  1.00  0.00    -0.062 SA
HETATM    3  C   UNL     1      -4.577   4.001 -31.806  1.00  0.00     0.081 A 
HETATM    4  C   UNL     1      -3.484   3.153 -31.804  1.00  0.00     0.052 A 
HETATM    5  N   UNL     1      -2.345   3.672 -32.410  1.00  0.00    -0.228 NA
ENDROOT
BRANCH   1   6
HETATM    6  N   UNL     1      -1.835   5.713 -33.624  1.00  0.00    -0.287 N 
HETATM    7  C   UNL     1      -1.552   6.979 -33.268  1.00  0.00     0.326 C 
HETATM    8  N   UNL     1      -1.154   7.333 -32.024  1.00  0.00    -0.309 N 
HETATM    9  O   UNL     1      -1.622   7.861 -34.131  1.00  0.00    -0.247 OA
HETATM   10  H   UNL     1      -1.173   8.340 -31.918  1.00  0.00     0.170 HD
HETATM   11  H   UNL     1      -1.860   5.547 -34.620  1.00  0.00     0.172 HD
BRANCH   8  12
HETATM   12  C   UNL     1      -0.503   6.633 -30.988  1.00  0.00     0.036 A 
HETATM   13  C   UNL     1      -0.764   6.796 -29.626  1.00  0.00     0.036 A 
HETATM   14  C   UNL     1      -0.056   6.064 -28.658  1.00  0.00    -0.060 A 
HETATM   15  C   UNL     1      -0.283   6.337 -27.201  1.00  0.00     0.048 C 
HETATM   16  C   UNL     1       0.895   5.127 -29.068  1.00  0.00     0.007 A 
HETATM   17  C   UNL     1       1.118   4.909 -30.425  1.00  0.00     0.003 A 
HETATM   18  C   UNL     1       0.427   5.660 -31.377  1.00  0.00     0.029 A 
ENDBRANCH   8  12
ENDBRANCH   1   6
BRANCH   4  19
HETATM   19  C   UNL     1      -3.424   1.809 -31.171  1.00  0.00     0.163 C 
BRANCH  19  20
HETATM   20  C   UNL     1      -4.518   0.884 -31.672  1.00  0.00     0.227 C 
HETATM   21  N   UNL     1      -4.201   0.304 -32.891  1.00  0.00    -0.327 N 
HETATM   22  H   UNL     1      -3.443   0.748 -33.400  1.00  0.00     0.169 HD
HETATM   23  O   UNL     1      -5.519   0.665 -30.996  1.00  0.00    -0.273 OA
BRANCH  21  24
HETATM   24  C   UNL     1      -4.863  -0.754 -33.543  1.00  0.00     0.036 A 
HETATM   25  C   UNL     1      -4.220  -2.000 -33.545  1.00  0.00     0.056 A 
HETATM   26  C   UNL     1      -4.822  -3.103 -34.154  1.00  0.00     0.074 A 
HETATM   27 CL   UNL     1      -4.010  -4.621 -34.142  1.00  0.00    -0.081 Cl
HETATM   28  C   UNL     1      -6.064  -2.967 -34.765  1.00  0.00     0.138 A 
HETATM   29  F   UNL     1      -6.657  -4.013 -35.358  1.00  0.00    -0.204 F 
HETATM   30  C   UNL     1      -6.712  -1.738 -34.771  1.00  0.00     0.046 A 
HETATM   31  C   UNL     1      -6.113  -0.632 -34.157  1.00  0.00     0.032 A 
ENDBRANCH  21  24
ENDBRANCH  19  20
ENDBRANCH   4  19
TORSDOF 5
ENDMDL
MODEL 2
REMARK VINA RESULT:      -9.5      3.702      4.883
REMARK  5 active torsions:
REMARK  status: ('A' for Active; 'I' for Inactive)
REMARK    1  A    between atoms: C_4  and  N_5 
REMARK       I    between atoms: N_5  and  C_6 
REMARK       I    between atoms: C_6  and  N_7 
REMARK    2  A    between atoms: N_7  and  C_8 
REMARK    3  A    between atoms: C_11  and  C_12 
REMARK    4  A    between atoms: C_12  and  C_13 
REMARK       I    between atoms: C_13  and  N_14 
REMARK    5  A    between atoms: N_14  and  C_15 
ROOT
HETATM    1  C   UNL     1      -7.033   4.048 -33.938  1.00  0.00     0.174 A 
HETATM    2  S   UNL     1      -8.213   5.254 -33.682  1.00  0.00    -0.062 SA
HETATM    3  C   UNL     1      -9.414   4.036 -33.631  1.00  0.00     0.081 A 
HETATM    4  C   UNL     1      -8.832   2.789 -33.769  1.00  0.00     0.052 A 
HETATM    5  N   UNL     1      -7.449   2.806 -33.915  1.00  0.00    -0.228 NA
ENDROOT
BRANCH   1   6
HETATM    6  N   UNL     1      -5.776   4.553 -34.128  1.00  0.00    -0.287 N 
HETATM    7  C   UNL     1      -5.047   5.161 -33.175  1.00  0.00     0.326 C 
HETATM    8  N   UNL     1      -4.893   4.668 -31.924  1.00  0.00    -0.309 N 
HETATM    9  O   UNL     1      -4.454   6.205 -33.466  1.00  0.00    -0.247 OA
HETATM   10  H   UNL     1      -4.469   5.360 -31.319  1.00  0.00     0.170 HD
HETATM   11  H   UNL     1      -5.597   4.874 -35.069  1.00  0.00     0.172 HD
BRANCH   8  12
HETATM   12  C   UNL     1      -4.962   3.365 -31.390  1.00  0.00     0.036 A 
HETATM   13  C   UNL     1      -3.945   2.412 -31.475  1.00  0.00     0.036 A 
HETATM   14  C   UNL     1      -4.104   1.128 -30.925  1.00  0.00    -0.060 A 
HETATM   15  C   UNL     1      -3.037   0.093 -31.124  1.00  0.00     0.048 C 
HETATM   16  C   UNL     1      -5.284   0.816 -30.246  1.00  0.00     0.007 A 
HETATM   17  C   UNL     1      -6.279   1.779 -30.099  1.00  0.00     0.003 A 
HETATM   18  C   UNL     1      -6.121   3.042 -30.671  1.00  0.00     0.029 A 
ENDBRANCH   8  12
ENDBRANCH   1   6
BRANCH   4  19
HETATM   19  C   UNL     1      -9.542   1.484 -33.711  1.00  0.00     0.163 C 
BRANCH  19  20
HETATM   20  C   UNL     1      -8.627   0.346 -33.293  1.00  0.00     0.227 C 
HETATM   21  N   UNL     1      -7.883  -0.149 -34.353  1.00  0.00    -0.327 N 
HETATM   22  H   UNL     1      -8.215   0.110 -35.277  1.00  0.00     0.169 HD
HETATM   23  O   UNL     1      -8.553  -0.007 -32.119  1.00  0.00    -0.273 OA
BRANCH  21  24
HETATM   24  C   UNL     1      -6.793  -1.039 -34.303  1.00  0.00     0.036 A 
HETATM   25  C   UNL     1      -7.008  -2.334 -34.795  1.00  0.00     0.056 A 
HETATM   26  C   UNL     1      -5.970  -3.268 -34.798  1.00  0.00     0.074 A 
HETATM   27 CL   UNL     1      -6.262  -4.851 -35.409  1.00  0.00    -0.081 Cl
HETATM   28  C   UNL     1      -4.717  -2.916 -34.307  1.00  0.00     0.138 A 
HETATM   29  F   UNL     1      -3.709  -3.800 -34.298  1.00  0.00    -0.204 F 
HETATM   30  C   UNL     1      -4.491  -1.637 -33.815  1.00  0.00     0.046 A 
HETATM   31  C   UNL     1      -5.527  -0.697 -33.817  1.00  0.00     0.032 A 
ENDBRANCH  21  24
ENDBRANCH  19  20
ENDBRANCH   4  19
TORSDOF 5
ENDMDL
MODEL 3
REMARK VINA RESULT:      -9.1      4.430      5.891
REMARK  5 active torsions:
REMARK  status: ('A' for Active; 'I' for Inactive)
REMARK    1  A    between atoms: C_4  and  N_5 
REMARK       I    between atoms: N_5  and  C_6 
REMARK       I    between atoms: C_6  and  N_7 
REMARK    2  A    between atoms: N_7  and  C_8 
REMARK    3  A    between atoms: C_11  and  C_12 
REMARK    4  A    between atoms: C_12  and  C_13 
REMARK       I    between atoms: C_13  and  N_14 
REMARK    5  A    between atoms: N_14  and  C_15 
ROOT
HETATM    1  C   UNL     1      -8.795   3.105 -32.692  1.00  0.00     0.174 A 
HETATM    2  S   UNL     1     -10.437   2.753 -33.001  1.00  0.00    -0.062 SA
HETATM    3  C   UNL     1      -9.947   1.639 -34.205  1.00  0.00     0.081 A 
HETATM    4  C   UNL     1      -8.566   1.578 -34.262  1.00  0.00     0.052 A 
HETATM    5  N   UNL     1      -7.910   2.408 -33.359  1.00  0.00    -0.228 NA
ENDROOT
BRANCH   1   6
HETATM    6  N   UNL     1      -8.620   4.087 -31.755  1.00  0.00    -0.287 N 
HETATM    7  C   UNL     1      -8.516   3.869 -30.432  1.00  0.00     0.326 C 
HETATM    8  N   UNL     1      -7.720   2.915 -29.894  1.00  0.00    -0.309 N 
HETATM    9  O   UNL     1      -9.148   4.602 -29.664  1.00  0.00    -0.247 OA
HETATM   10  H   UNL     1      -7.925   2.796 -28.909  1.00  0.00     0.170 HD
HETATM   11  H   UNL     1      -9.028   4.976 -32.008  1.00  0.00     0.172 HD
BRANCH   8  12
HETATM   12  C   UNL     1      -6.548   2.276 -30.344  1.00  0.00     0.036 A 
HETATM   13  C   UNL     1      -5.353   2.926 -30.661  1.00  0.00     0.036 A 
HETATM   14  C   UNL     1      -4.234   2.209 -31.117  1.00  0.00    -0.060 A 
HETATM   15  C   UNL     1      -3.001   2.946 -31.549  1.00  0.00     0.048 C 
HETATM   16  C   UNL     1      -4.307   0.818 -31.217  1.00  0.00     0.007 A 
HETATM   17  C   UNL     1      -5.471   0.152 -30.844  1.00  0.00     0.003 A 
HETATM   18  C   UNL     1      -6.585   0.877 -30.416  1.00  0.00     0.029 A 
ENDBRANCH   8  12
ENDBRANCH   1   6
BRANCH   4  19
HETATM   19  C   UNL     1      -7.768   0.678 -35.136  1.00  0.00     0.163 C 
BRANCH  19  20
HETATM   20  C   UNL     1      -7.389  -0.617 -34.440  1.00  0.00     0.227 C 
HETATM   21  N   UNL     1      -6.393  -1.307 -35.115  1.00  0.00    -0.327 N 
HETATM   22  H   UNL     1      -6.236  -1.017 -36.075  1.00  0.00     0.169 HD
HETATM   23  O   UNL     1      -7.899  -0.931 -33.368  1.00  0.00    -0.273 OA
BRANCH  21  24
HETATM   24  C   UNL     1      -5.651  -2.414 -34.663  1.00  0.00     0.036 A 
HETATM   25  C   UNL     1      -4.709  -2.177 -33.651  1.00  0.00     0.056 A 
HETATM   26  C   UNL     1      -3.948  -3.228 -33.136  1.00  0.00     0.074 A 
HETATM   27 CL   UNL     1      -2.799  -2.908 -31.894  1.00  0.00    -0.081 Cl
HETATM   28  C   UNL     1      -4.120  -4.517 -33.629  1.00  0.00     0.138 A 
HETATM   29  F   UNL     1      -3.396  -5.539 -33.150  1.00  0.00    -0.204 F 
HETATM   30  C   UNL     1      -5.049  -4.766 -34.632  1.00  0.00     0.046 A 
HETATM   31  C   UNL     1      -5.817  -3.716 -35.146  1.00  0.00     0.032 A 
ENDBRANCH  21  24
ENDBRANCH  19  20
ENDBRANCH   4  19
TORSDOF 5
ENDMDL
MODEL 4
REMARK VINA RESULT:      -9.1      1.239      1.689
REMARK  5 active torsions:
REMARK  status: ('A' for Active; 'I' for Inactive)
REMARK    1  A    between atoms: C_4  and  N_5 
REMARK       I    between atoms: N_5  and  C_6 
REMARK       I    between atoms: C_6  and  N_7 
REMARK    2  A    between atoms: N_7  and  C_8 
REMARK    3  A    between atoms: C_11  and  C_12 
REMARK    4  A    between atoms: C_12  and  C_13 
REMARK       I    between atoms: C_13  and  N_14 
REMARK    5  A    between atoms: N_14  and  C_15 
ROOT
HETATM    1  C   UNL     1      -3.028   4.368 -33.045  1.00  0.00     0.174 A 
HETATM    2  S   UNL     1      -4.169   5.609 -33.316  1.00  0.00    -0.062 SA
HETATM    3  C   UNL     1      -5.205   4.877 -32.168  1.00  0.00     0.081 A 
HETATM    4  C   UNL     1      -4.596   3.760 -31.623  1.00  0.00     0.052 A 
HETATM    5  N   UNL     1      -3.324   3.493 -32.116  1.00  0.00    -0.228 NA
ENDROOT
BRANCH   1   6
HETATM    6  N   UNL     1      -1.925   4.462 -33.849  1.00  0.00    -0.287 N 
HETATM    7  C   UNL     1      -1.325   5.617 -34.187  1.00  0.00     0.326 C 
HETATM    8  N   UNL     1      -1.024   6.591 -33.295  1.00  0.00    -0.309 N 
HETATM    9  O   UNL     1      -0.994   5.784 -35.366  1.00  0.00    -0.247 OA
HETATM   10  H   UNL     1      -0.749   7.439 -33.776  1.00  0.00     0.170 HD
HETATM   11  H   UNL     1      -1.854   3.728 -34.540  1.00  0.00     0.172 HD
BRANCH   8  12
HETATM   12  C   UNL     1      -0.778   6.579 -31.908  1.00  0.00     0.036 A 
HETATM   13  C   UNL     1       0.082   5.693 -31.255  1.00  0.00     0.036 A 
HETATM   14  C   UNL     1       0.258   5.744 -29.862  1.00  0.00    -0.060 A 
HETATM   15  C   UNL     1       1.105   4.713 -29.178  1.00  0.00     0.048 C 
HETATM   16  C   UNL     1      -0.408   6.725 -29.124  1.00  0.00     0.007 A 
HETATM   17  C   UNL     1      -1.218   7.654 -29.770  1.00  0.00     0.003 A 
HETATM   18  C   UNL     1      -1.405   7.578 -31.152  1.00  0.00     0.029 A 
ENDBRANCH   8  12
ENDBRANCH   1   6
BRANCH   4  19
HETATM   19  C   UNL     1      -5.156   2.900 -30.547  1.00  0.00     0.163 C 
BRANCH  19  20
HETATM   20  C   UNL     1      -5.767   1.620 -31.089  1.00  0.00     0.227 C 
HETATM   21  N   UNL     1      -5.460   1.413 -32.424  1.00  0.00    -0.327 N 
HETATM   22  H   UNL     1      -5.111   2.226 -32.922  1.00  0.00     0.169 HD
HETATM   23  O   UNL     1      -6.399   0.863 -30.357  1.00  0.00    -0.273 OA
BRANCH  21  24
HETATM   24  C   UNL     1      -5.666   0.248 -33.188  1.00  0.00     0.036 A 
HETATM   25  C   UNL     1      -4.769  -0.810 -32.987  1.00  0.00     0.056 A 
HETATM   26  C   UNL     1      -4.919  -2.006 -33.692  1.00  0.00     0.074 A 
HETATM   27 CL   UNL     1      -3.801  -3.289 -33.425  1.00  0.00    -0.081 Cl
HETATM   28  C   UNL     1      -5.961  -2.150 -34.601  1.00  0.00     0.138 A 
HETATM   29  F   UNL     1      -6.120  -3.289 -35.291  1.00  0.00    -0.204 F 
HETATM   30  C   UNL     1      -6.858  -1.109 -34.811  1.00  0.00     0.046 A 
HETATM   31  C   UNL     1      -6.713   0.088 -34.101  1.00  0.00     0.032 A 
ENDBRANCH  21  24
ENDBRANCH  19  20
ENDBRANCH   4  19
TORSDOF 5
ENDMDL
MODEL 5
REMARK VINA RESULT:      -9.0      5.569      8.643
REMARK  5 active torsions:
REMARK  status: ('A' for Active; 'I' for Inactive)
REMARK    1  A    between atoms: C_4  and  N_5 
REMARK       I    between atoms: N_5  and  C_6 
REMARK       I    between atoms: C_6  and  N_7 
REMARK    2  A    between atoms: N_7  and  C_8 
REMARK    3  A    between atoms: C_11  and  C_12 
REMARK    4  A    between atoms: C_12  and  C_13 
REMARK       I    between atoms: C_13  and  N_14 
REMARK    5  A    between atoms: N_14  and  C_15 
ROOT
HETATM    1  C   UNL     1     -10.116   4.469 -32.565  1.00  0.00     0.174 A 
HETATM    2  S   UNL     1     -11.289   4.200 -31.354  1.00  0.00    -0.062 SA
HETATM    3  C   UNL     1     -10.088   3.456 -30.389  1.00  0.00     0.081 A 
HETATM    4  C   UNL     1      -8.865   3.499 -31.034  1.00  0.00     0.052 A 
HETATM    5  N   UNL     1      -8.887   4.116 -32.280  1.00  0.00    -0.228 NA
ENDROOT
BRANCH   1   6
HETATM    6  N   UNL     1     -10.629   5.042 -33.697  1.00  0.00    -0.287 N 
HETATM    7  C   UNL     1     -10.452   4.562 -34.941  1.00  0.00     0.326 C 
HETATM    8  N   UNL     1     -10.613   3.258 -35.269  1.00  0.00    -0.309 N 
HETATM    9  O   UNL     1     -10.165   5.357 -35.842  1.00  0.00    -0.247 OA
HETATM   10  H   UNL     1     -10.257   3.079 -36.199  1.00  0.00     0.170 HD
HETATM   11  H   UNL     1     -10.737   6.044 -33.640  1.00  0.00     0.172 HD
BRANCH   8  12
HETATM   12  C   UNL     1     -11.374   2.214 -34.706  1.00  0.00     0.036 A 
HETATM   13  C   UNL     1     -12.747   2.038 -34.885  1.00  0.00     0.036 A 
HETATM   14  C   UNL     1     -13.431   0.973 -34.273  1.00  0.00    -0.060 A 
HETATM   15  C   UNL     1     -14.922   0.872 -34.399  1.00  0.00     0.048 C 
HETATM   16  C   UNL     1     -12.714   0.052 -33.506  1.00  0.00     0.007 A 
HETATM   17  C   UNL     1     -11.335   0.180 -33.371  1.00  0.00     0.003 A 
HETATM   18  C   UNL     1     -10.670   1.256 -33.963  1.00  0.00     0.029 A 
ENDBRANCH   8  12
ENDBRANCH   1   6
BRANCH   4  19
HETATM   19  C   UNL     1      -7.571   3.013 -30.485  1.00  0.00     0.163 C 
BRANCH  19  20
HETATM   20  C   UNL     1      -6.746   2.271 -31.522  1.00  0.00     0.227 C 
HETATM   21  N   UNL     1      -7.155   0.956 -31.680  1.00  0.00    -0.327 N 
HETATM   22  H   UNL     1      -7.743   0.591 -30.937  1.00  0.00     0.169 HD
HETATM   23  O   UNL     1      -5.870   2.847 -32.161  1.00  0.00    -0.273 OA
BRANCH  21  24
HETATM   24  C   UNL     1      -6.774   0.048 -32.686  1.00  0.00     0.036 A 
HETATM   25  C   UNL     1      -5.651  -0.751 -32.429  1.00  0.00     0.056 A 
HETATM   26  C   UNL     1      -5.223  -1.690 -33.369  1.00  0.00     0.074 A 
HETATM   27 CL   UNL     1      -3.840  -2.657 -33.026  1.00  0.00    -0.081 Cl
HETATM   28  C   UNL     1      -5.910  -1.834 -34.569  1.00  0.00     0.138 A 
HETATM   29  F   UNL     1      -5.512  -2.727 -35.487  1.00  0.00    -0.204 F 
HETATM   30  C   UNL     1      -7.024  -1.049 -34.838  1.00  0.00     0.046 A 
HETATM   31  C   UNL     1      -7.459  -0.111 -33.895  1.00  0.00     0.032 A 
ENDBRANCH  21  24
ENDBRANCH  19  20
ENDBRANCH   4  19
TORSDOF 5
ENDMDL
MODEL 6
REMARK VINA RESULT:      -8.9      5.948      9.166
REMARK  5 active torsions:
REMARK  status: ('A' for Active; 'I' for Inactive)
REMARK    1  A    between atoms: C_4  and  N_5 
REMARK       I    between atoms: N_5  and  C_6 
REMARK       I    between atoms: C_6  and  N_7 
REMARK    2  A    between atoms: N_7  and  C_8 
REMARK    3  A    between atoms: C_11  and  C_12 
REMARK    4  A    between atoms: C_12  and  C_13 
REMARK       I    between atoms: C_13  and  N_14 
REMARK    5  A    between atoms: N_14  and  C_15 
ROOT
HETATM    1  C   UNL     1     -10.441   3.728 -30.995  1.00  0.00     0.174 A 
HETATM    2  S   UNL     1      -9.281   4.817 -30.378  1.00  0.00    -0.062 SA
HETATM    3  C   UNL     1      -8.150   4.221 -31.516  1.00  0.00     0.081 A 
HETATM    4  C   UNL     1      -8.743   3.263 -32.318  1.00  0.00     0.052 A 
HETATM    5  N   UNL     1     -10.079   3.008 -32.028  1.00  0.00    -0.228 NA
ENDROOT
BRANCH   1   6
HETATM    6  N   UNL     1     -11.629   3.762 -30.317  1.00  0.00    -0.287 N 
HETATM    7  C   UNL     1     -12.722   4.429 -30.727  1.00  0.00     0.326 C 
HETATM    8  N   UNL     1     -13.200   4.373 -31.992  1.00  0.00    -0.309 N 
HETATM    9  O   UNL     1     -13.348   5.098 -29.897  1.00  0.00    -0.247 OA
HETATM   10  H   UNL     1     -13.909   5.082 -32.136  1.00  0.00     0.170 HD
HETATM   11  H   UNL     1     -11.535   3.676 -29.315  1.00  0.00     0.172 HD
BRANCH   8  12
HETATM   12  C   UNL     1     -13.100   3.409 -33.015  1.00  0.00     0.036 A 
HETATM   13  C   UNL     1     -13.454   2.064 -32.883  1.00  0.00     0.036 A 
HETATM   14  C   UNL     1     -13.308   1.166 -33.954  1.00  0.00    -0.060 A 
HETATM   15  C   UNL     1     -13.597  -0.292 -33.750  1.00  0.00     0.048 C 
HETATM   16  C   UNL     1     -12.839   1.636 -35.182  1.00  0.00     0.007 A 
HETATM   17  C   UNL     1     -12.543   2.986 -35.345  1.00  0.00     0.003 A 
HETATM   18  C   UNL     1     -12.668   3.865 -34.267  1.00  0.00     0.029 A 
ENDBRANCH   8  12
ENDBRANCH   1   6
BRANCH   4  19
HETATM   19  C   UNL     1      -8.100   2.563 -33.462  1.00  0.00     0.163 C 
BRANCH  19  20
HETATM   20  C   UNL     1      -7.539   1.208 -33.069  1.00  0.00     0.227 C 
HETATM   21  N   UNL     1      -6.950   0.551 -34.138  1.00  0.00    -0.327 N 
HETATM   22  H   UNL     1      -7.188   0.912 -35.056  1.00  0.00     0.169 HD
HETATM   23  O   UNL     1      -7.577   0.823 -31.903  1.00  0.00    -0.273 OA
BRANCH  21  24
HETATM   24  C   UNL     1      -6.148  -0.606 -34.105  1.00  0.00     0.036 A 
HETATM   25  C   UNL     1      -6.701  -1.777 -34.642  1.00  0.00     0.056 A 
HETATM   26  C   UNL     1      -5.961  -2.961 -34.665  1.00  0.00     0.074 A 
HETATM   27 CL   UNL     1      -6.666  -4.384 -35.331  1.00  0.00    -0.081 Cl
HETATM   28  C   UNL     1      -4.670  -2.982 -34.150  1.00  0.00     0.138 A 
HETATM   29  F   UNL     1      -3.944  -4.110 -34.159  1.00  0.00    -0.204 F 
HETATM   30  C   UNL     1      -4.109  -1.830 -33.614  1.00  0.00     0.046 A 
HETATM   31  C   UNL     1      -4.847  -0.641 -33.595  1.00  0.00     0.032 A 
ENDBRANCH  21  24
ENDBRANCH  19  20
ENDBRANCH   4  19
TORSDOF 5
ENDMDL
MODEL 7
REMARK VINA RESULT:      -8.8      1.576      2.167
REMARK  5 active torsions:
REMARK  status: ('A' for Active; 'I' for Inactive)
REMARK    1  A    between atoms: C_4  and  N_5 
REMARK       I    between atoms: N_5  and  C_6 
REMARK       I    between atoms: C_6  and  N_7 
REMARK    2  A    between atoms: N_7  and  C_8 
REMARK    3  A    between atoms: C_11  and  C_12 
REMARK    4  A    between atoms: C_12  and  C_13 
REMARK       I    between atoms: C_13  and  N_14 
REMARK    5  A    between atoms: N_14  and  C_15 
ROOT
HETATM    1  C   UNL     1      -2.962   4.775 -32.670  1.00  0.00     0.174 A 
HETATM    2  S   UNL     1      -4.298   5.554 -33.394  1.00  0.00    -0.062 SA
HETATM    3  C   UNL     1      -5.322   4.828 -32.230  1.00  0.00     0.081 A 
HETATM    4  C   UNL     1      -4.574   4.075 -31.342  1.00  0.00     0.052 A 
HETATM    5  N   UNL     1      -3.205   4.078 -31.588  1.00  0.00    -0.228 NA
ENDROOT
BRANCH   1   6
HETATM    6  N   UNL     1      -1.784   4.999 -33.329  1.00  0.00    -0.287 N 
HETATM    7  C   UNL     1      -1.242   6.214 -33.530  1.00  0.00     0.326 C 
HETATM    8  N   UNL     1      -1.126   7.150 -32.559  1.00  0.00    -0.309 N 
HETATM    9  O   UNL     1      -0.791   6.477 -34.650  1.00  0.00    -0.247 OA
HETATM   10  H   UNL     1      -0.867   8.044 -32.957  1.00  0.00     0.170 HD
HETATM   11  H   UNL     1      -1.574   4.317 -34.043  1.00  0.00     0.172 HD
BRANCH   8  12
HETATM   12  C   UNL     1      -1.044   7.071 -31.154  1.00  0.00     0.036 A 
HETATM   13  C   UNL     1      -2.102   7.314 -30.276  1.00  0.00     0.036 A 
HETATM   14  C   UNL     1      -1.928   7.225 -28.885  1.00  0.00    -0.060 A 
HETATM   15  C   UNL     1      -3.054   7.594 -27.965  1.00  0.00     0.048 C 
HETATM   16  C   UNL     1      -0.684   6.848 -28.374  1.00  0.00     0.007 A 
HETATM   17  C   UNL     1       0.362   6.542 -29.241  1.00  0.00     0.003 A 
HETATM   18  C   UNL     1       0.184   6.657 -30.621  1.00  0.00     0.029 A 
ENDBRANCH   8  12
ENDBRANCH   1   6
BRANCH   4  19
HETATM   19  C   UNL     1      -5.100   3.349 -30.157  1.00  0.00     0.163 C 
BRANCH  19  20
HETATM   20  C   UNL     1      -5.232   1.856 -30.405  1.00  0.00     0.227 C 
HETATM   21  N   UNL     1      -4.598   1.457 -31.570  1.00  0.00    -0.327 N 
HETATM   22  H   UNL     1      -4.366   2.203 -32.218  1.00  0.00     0.169 HD
HETATM   23  O   UNL     1      -5.795   1.129 -29.591  1.00  0.00    -0.273 OA
BRANCH  21  24
HETATM   24  C   UNL     1      -4.329   0.144 -32.001  1.00  0.00     0.036 A 
HETATM   25  C   UNL     1      -5.121  -0.357 -33.045  1.00  0.00     0.056 A 
HETATM   26  C   UNL     1      -4.902  -1.643 -33.541  1.00  0.00     0.074 A 
HETATM   27 CL   UNL     1      -5.890  -2.232 -34.823  1.00  0.00    -0.081 Cl
HETATM   28  C   UNL     1      -3.896  -2.436 -32.998  1.00  0.00     0.138 A 
HETATM   29  F   UNL     1      -3.673  -3.675 -33.458  1.00  0.00    -0.204 F 
HETATM   30  C   UNL     1      -3.105  -1.953 -31.963  1.00  0.00     0.046 A 
HETATM   31  C   UNL     1      -3.318  -0.662 -31.468  1.00  0.00     0.032 A 
ENDBRANCH  21  24
ENDBRANCH  19  20
ENDBRANCH   4  19
TORSDOF 5
ENDMDL
MODEL 8
REMARK VINA RESULT:      -8.6      2.167      2.974
REMARK  5 active torsions:
REMARK  status: ('A' for Active; 'I' for Inactive)
REMARK    1  A    between atoms: C_4  and  N_5 
REMARK       I    between atoms: N_5  and  C_6 
REMARK       I    between atoms: C_6  and  N_7 
REMARK    2  A    between atoms: N_7  and  C_8 
REMARK    3  A    between atoms: C_11  and  C_12 
REMARK    4  A    between atoms: C_12  and  C_13 
REMARK       I    between atoms: C_13  and  N_14 
REMARK    5  A    between atoms: N_14  and  C_15 
ROOT
HETATM    1  C   UNL     1      -5.849   4.548 -31.578  1.00  0.00     0.174 A 
HETATM    2  S   UNL     1      -6.401   4.543 -29.963  1.00  0.00    -0.062 SA
HETATM    3  C   UNL     1      -5.690   3.001 -29.748  1.00  0.00     0.081 A 
HETATM    4  C   UNL     1      -5.043   2.611 -30.907  1.00  0.00     0.052 A 
HETATM    5  N   UNL     1      -5.115   3.528 -31.950  1.00  0.00    -0.228 NA
ENDROOT
BRANCH   1   6
HETATM    6  N   UNL     1      -6.249   5.650 -32.283  1.00  0.00    -0.287 N 
HETATM    7  C   UNL     1      -5.787   6.896 -32.076  1.00  0.00     0.326 C 
HETATM    8  N   UNL     1      -4.473   7.192 -31.943  1.00  0.00    -0.309 N 
HETATM    9  O   UNL     1      -6.600   7.826 -32.045  1.00  0.00    -0.247 OA
HETATM   10  H   UNL     1      -4.355   8.143 -31.614  1.00  0.00     0.170 HD
HETATM   11  H   UNL     1      -7.199   5.600 -32.624  1.00  0.00     0.172 HD
BRANCH   8  12
HETATM   12  C   UNL     1      -3.296   6.563 -32.395  1.00  0.00     0.036 A 
HETATM   13  C   UNL     1      -2.210   6.221 -31.587  1.00  0.00     0.036 A 
HETATM   14  C   UNL     1      -1.067   5.606 -32.125  1.00  0.00    -0.060 A 
HETATM   15  C   UNL     1       0.124   5.348 -31.252  1.00  0.00     0.048 C 
HETATM   16  C   UNL     1      -1.036   5.295 -33.486  1.00  0.00     0.007 A 
HETATM   17  C   UNL     1      -2.137   5.572 -34.291  1.00  0.00     0.003 A 
HETATM   18  C   UNL     1      -3.257   6.206 -33.750  1.00  0.00     0.029 A 
ENDBRANCH   8  12
ENDBRANCH   1   6
BRANCH   4  19
HETATM   19  C   UNL     1      -4.255   1.363 -31.088  1.00  0.00     0.163 C 
BRANCH  19  20
HETATM   20  C   UNL     1      -5.102   0.214 -31.605  1.00  0.00     0.227 C 
HETATM   21  N   UNL     1      -4.704  -0.211 -32.863  1.00  0.00    -0.327 N 
HETATM   22  H   UNL     1      -4.105   0.433 -33.371  1.00  0.00     0.169 HD
HETATM   23  O   UNL     1      -5.985  -0.282 -30.910  1.00  0.00    -0.273 OA
BRANCH  21  24
HETATM   24  C   UNL     1      -5.106  -1.372 -33.551  1.00  0.00     0.036 A 
HETATM   25  C   UNL     1      -4.214  -2.453 -33.549  1.00  0.00     0.056 A 
HETATM   26  C   UNL     1      -4.549  -3.646 -34.192  1.00  0.00     0.074 A 
HETATM   27 CL   UNL     1      -3.434  -4.957 -34.173  1.00  0.00    -0.081 Cl
HETATM   28  C   UNL     1      -5.774  -3.764 -34.841  1.00  0.00     0.138 A 
HETATM   29  F   UNL     1      -6.113  -4.900 -35.467  1.00  0.00    -0.204 F 
HETATM   30  C   UNL     1      -6.668  -2.701 -34.852  1.00  0.00     0.046 A 
HETATM   31  C   UNL     1      -6.336  -1.506 -34.203  1.00  0.00     0.032 A 
ENDBRANCH  21  24
ENDBRANCH  19  20
ENDBRANCH   4  19
TORSDOF 5
ENDMDL
MODEL 9
REMARK VINA RESULT:      -8.5      3.828      4.957
REMARK  5 active torsions:
REMARK  status: ('A' for Active; 'I' for Inactive)
REMARK    1  A    between atoms: C_4  and  N_5 
REMARK       I    between atoms: N_5  and  C_6 
REMARK       I    between atoms: C_6  and  N_7 
REMARK    2  A    between atoms: N_7  and  C_8 
REMARK    3  A    between atoms: C_11  and  C_12 
REMARK    4  A    between atoms: C_12  and  C_13 
REMARK       I    between atoms: C_13  and  N_14 
REMARK    5  A    between atoms: N_14  and  C_15 
ROOT
HETATM    1  C   UNL     1      -7.983   4.225 -33.125  1.00  0.00     0.174 A 
HETATM    2  S   UNL     1      -9.210   4.735 -32.053  1.00  0.00    -0.062 SA
HETATM    3  C   UNL     1      -9.972   3.214 -32.238  1.00  0.00     0.081 A 
HETATM    4  C   UNL     1      -9.220   2.403 -33.069  1.00  0.00     0.052 A 
HETATM    5  N   UNL     1      -8.054   2.988 -33.552  1.00  0.00    -0.228 NA
ENDROOT
BRANCH   1   6
HETATM    6  N   UNL     1      -7.060   5.199 -33.394  1.00  0.00    -0.287 N 
HETATM    7  C   UNL     1      -6.345   5.850 -32.458  1.00  0.00     0.326 C 
HETATM    8  N   UNL     1      -5.710   5.228 -31.437  1.00  0.00    -0.309 N 
HETATM    9  O   UNL     1      -6.228   7.076 -32.557  1.00  0.00    -0.247 OA
HETATM   10  H   UNL     1      -5.392   5.904 -30.754  1.00  0.00     0.170 HD
HETATM   11  H   UNL     1      -7.254   5.733 -34.228  1.00  0.00     0.172 HD
BRANCH   8  12
HETATM   12  C   UNL     1      -5.203   3.924 -31.274  1.00  0.00     0.036 A 
HETATM   13  C   UNL     1      -5.848   2.895 -30.584  1.00  0.00     0.036 A 
HETATM   14  C   UNL     1      -5.261   1.624 -30.458  1.00  0.00    -0.060 A 
HETATM   15  C   UNL     1      -5.929   0.573 -29.623  1.00  0.00     0.048 C 
HETATM   16  C   UNL     1      -4.031   1.376 -31.070  1.00  0.00     0.007 A 
HETATM   17  C   UNL     1      -3.407   2.373 -31.814  1.00  0.00     0.003 A 
HETATM   18  C   UNL     1      -3.988   3.639 -31.911  1.00  0.00     0.029 A 
ENDBRANCH   8  12
ENDBRANCH   1   6
BRANCH   4  19
HETATM   19  C   UNL     1      -9.522   0.989 -33.415  1.00  0.00     0.163 C 
BRANCH  19  20
HETATM   20  C   UNL     1      -8.367   0.309 -34.128  1.00  0.00     0.227 C 
HETATM   21  N   UNL     1      -7.553  -0.399 -33.257  1.00  0.00    -0.327 N 
HETATM   22  H   UNL     1      -7.664  -0.170 -32.274  1.00  0.00     0.169 HD
HETATM   23  O   UNL     1      -8.259   0.364 -35.350  1.00  0.00    -0.273 OA
BRANCH  21  24
HETATM   24  C   UNL     1      -6.534  -1.315 -33.579  1.00  0.00     0.036 A 
HETATM   25  C   UNL     1      -5.369  -1.269 -32.800  1.00  0.00     0.056 A 
HETATM   26  C   UNL     1      -4.321  -2.158 -33.044  1.00  0.00     0.074 A 
HETATM   27 CL   UNL     1      -2.903  -2.079 -32.071  1.00  0.00    -0.081 Cl
HETATM   28  C   UNL     1      -4.429  -3.094 -34.067  1.00  0.00     0.138 A 
HETATM   29  F   UNL     1      -3.432  -3.955 -34.320  1.00  0.00    -0.204 F 
HETATM   30  C   UNL     1      -5.576  -3.150 -34.848  1.00  0.00     0.046 A 
HETATM   31  C   UNL     1      -6.630  -2.264 -34.602  1.00  0.00     0.032 A 
ENDBRANCH  21  24
ENDBRANCH  19  20
ENDBRANCH   4  19
TORSDOF 5
ENDMDL
MODEL 10
REMARK VINA RESULT:      -8.5      3.991      5.344
REMARK  5 active torsions:
REMARK  status: ('A' for Active; 'I' for Inactive)
REMARK    1  A    between atoms: C_4  and  N_5 
REMARK       I    between atoms: N_5  and  C_6 
REMARK       I    between atoms: C_6  and  N_7 
REMARK    2  A    between atoms: N_7  and  C_8 
REMARK    3  A    between atoms: C_11  and  C_12 
REMARK    4  A    between atoms: C_12  and  C_13 
REMARK       I    between atoms: C_13  and  N_14 
REMARK    5  A    between atoms: N_14  and  C_15 
ROOT
HETATM    1  C   UNL     1      -5.011   4.441 -31.082  1.00  0.00     0.174 A 
HETATM    2  S   UNL     1      -4.669   5.917 -30.295  1.00  0.00    -0.062 SA
HETATM    3  C   UNL     1      -5.895   6.670 -31.223  1.00  0.00     0.081 A 
HETATM    4  C   UNL     1      -6.512   5.739 -32.039  1.00  0.00     0.052 A 
HETATM    5  N   UNL     1      -6.013   4.445 -31.926  1.00  0.00    -0.228 NA
ENDROOT
BRANCH   1   6
HETATM    6  N   UNL     1      -4.178   3.423 -30.707  1.00  0.00    -0.287 N 
HETATM    7  C   UNL     1      -3.458   2.675 -31.561  1.00  0.00     0.326 C 
HETATM    8  N   UNL     1      -2.720   3.195 -32.571  1.00  0.00    -0.309 N 
HETATM    9  O   UNL     1      -3.435   1.451 -31.394  1.00  0.00    -0.247 OA
HETATM   10  H   UNL     1      -2.411   2.462 -33.198  1.00  0.00     0.170 HD
HETATM   11  H   UNL     1      -4.459   2.950 -29.860  1.00  0.00     0.172 HD
BRANCH   8  12
HETATM   12  C   UNL     1      -2.112   4.450 -32.767  1.00  0.00     0.036 A 
HETATM   13  C   UNL     1      -1.119   4.995 -31.949  1.00  0.00     0.036 A 
HETATM   14  C   UNL     1      -0.576   6.264 -32.211  1.00  0.00    -0.060 A 
HETATM   15  C   UNL     1       0.412   6.865 -31.257  1.00  0.00     0.048 C 
HETATM   16  C   UNL     1      -1.008   6.974 -33.333  1.00  0.00     0.007 A 
HETATM   17  C   UNL     1      -1.951   6.416 -34.192  1.00  0.00     0.003 A 
HETATM   18  C   UNL     1      -2.502   5.165 -33.907  1.00  0.00     0.029 A 
ENDBRANCH   8  12
ENDBRANCH   1   6
BRANCH   4  19
HETATM   19  C   UNL     1      -7.665   5.998 -32.942  1.00  0.00     0.163 C 
BRANCH  19  20
HETATM   20  C   UNL     1      -8.795   5.004 -32.737  1.00  0.00     0.227 C 
HETATM   21  N   UNL     1      -8.566   3.803 -33.390  1.00  0.00    -0.327 N 
HETATM   22  H   UNL     1      -7.844   3.826 -34.103  1.00  0.00     0.169 HD
HETATM   23  O   UNL     1      -9.747   5.272 -32.009  1.00  0.00    -0.273 OA
BRANCH  21  24
HETATM   24  C   UNL     1      -9.276   2.595 -33.251  1.00  0.00     0.036 A 
HETATM   25  C   UNL     1     -10.466   2.471 -33.981  1.00  0.00     0.056 A 
HETATM   26  C   UNL     1     -11.217   1.295 -33.911  1.00  0.00     0.074 A 
HETATM   27 CL   UNL     1     -12.675   1.170 -34.819  1.00  0.00    -0.081 Cl
HETATM   28  C   UNL     1     -10.785   0.242 -33.112  1.00  0.00     0.138 A 
HETATM   29  F   UNL     1     -11.493  -0.894 -33.030  1.00  0.00    -0.204 F 
HETATM   30  C   UNL     1      -9.607   0.352 -32.383  1.00  0.00     0.046 A 
HETATM   31  C   UNL     1      -8.851   1.526 -32.455  1.00  0.00     0.032 A 
ENDBRANCH  21  24
ENDBRANCH  19  20
ENDBRANCH   4  19
TORSDOF 5
ENDMDL
