MODEL 1
REMARK VINA RESULT:      -8.0      0.000      0.000
REMARK  5 active torsions:
REMARK  status: ('A' for Active; 'I' for Inactive)
REMARK    1  A    between atoms: C_4  and  N_5 
REMARK    2  A    between atoms: C_6  and  C_8 
REMARK    3  A    between atoms: C_6  and  O_7 
REMARK       I    between atoms: C_8  and  N_9 
REMARK    4  A    between atoms: N_9  and  C_10 
REMARK    5  A    between atoms: C_10  and  C_11 
ROOT
HETATM    1  N   UNL     1      -7.387   2.234 -31.363  1.00  0.00    -0.254 N 
HETATM    2  C   UNL     1      -8.392   1.476 -32.130  1.00  0.00     0.256 C 
HETATM    3  C   UNL     1      -9.686   2.246 -32.321  1.00  0.00     0.035 A 
HETATM    4  C   UNL     1     -10.005   3.220 -31.377  1.00  0.00     0.048 A 
HETATM    5  N   UNL     1      -9.095   3.500 -30.367  1.00  0.00    -0.308 N 
HETATM    6  C   UNL     1      -7.805   3.052 -30.323  1.00  0.00     0.330 C 
HETATM    7  O   UNL     1      -7.088   3.462 -29.409  1.00  0.00    -0.246 OA
HETATM    8  C   UNL     1     -10.624   1.963 -33.329  1.00  0.00     0.034 A 
HETATM    9  C   UNL     1     -11.827   2.672 -33.393  1.00  0.00     0.011 A 
HETATM   10 BR   UNL     1     -13.063   2.297 -34.775  1.00  0.00    -0.051 Br
HETATM   11  C   UNL     1     -12.127   3.645 -32.444  1.00  0.00     0.021 A 
HETATM   12  C   UNL     1     -11.217   3.914 -31.424  1.00  0.00     0.031 A 
HETATM   13  H   UNL     1      -9.325   4.171 -29.645  1.00  0.00     0.170 HD
ENDROOT
BRANCH   2  14
HETATM   14  C   UNL     1      -7.863   0.922 -33.521  1.00  0.00     0.279 C 
HETATM   15  N   UNL     1      -7.826  -0.460 -33.587  1.00  0.00    -0.352 N 
HETATM   16  H   UNL     1      -8.397  -0.961 -32.912  1.00  0.00     0.162 HD
HETATM   17  O   UNL     1      -7.469   1.634 -34.443  1.00  0.00    -0.268 OA
BRANCH  15  18
HETATM   18  C   UNL     1      -7.385  -1.159 -34.767  1.00  0.00     0.168 C 
BRANCH  18  19
HETATM   19  C   UNL     1      -6.130  -1.890 -34.417  1.00  0.00     0.000 A 
HETATM   20  S   UNL     1      -5.898  -3.511 -34.918  1.00  0.00    -0.105 SA
HETATM   21  C   UNL     1      -4.365  -3.592 -34.164  1.00  0.00     0.050 A 
HETATM   22  C   UNL     1      -4.033  -2.411 -33.539  1.00  0.00     0.008 A 
HETATM   23  C   UNL     1      -5.054  -1.428 -33.682  1.00  0.00     0.017 A 
ENDBRANCH  18  19
ENDBRANCH  15  18
ENDBRANCH   2  14
BRANCH   2  24
HETATM   24  O   UNL     1      -8.747   0.342 -31.315  1.00  0.00    -0.359 OA
HETATM   25  H   UNL     1      -9.147  -0.281 -31.945  1.00  0.00     0.213 HD
ENDBRANCH   2  24
BRANCH   1  26
HETATM   26  C   UNL     1      -6.027   1.789 -31.382  1.00  0.00     0.042 A 
HETATM   27  C   UNL     1      -5.619   0.672 -30.642  1.00  0.00     0.030 A 
HETATM   28  C   UNL     1      -4.289   0.248 -30.676  1.00  0.00     0.002 A 
HETATM   29  C   UNL     1      -3.350   0.947 -31.432  1.00  0.00     0.000 A 
HETATM   30  C   UNL     1      -3.739   2.078 -32.144  1.00  0.00     0.002 A 
HETATM   31  C   UNL     1      -5.069   2.501 -32.113  1.00  0.00     0.030 A 
ENDBRANCH   1  26
TORSDOF 5
ENDMDL
MODEL 2
REMARK VINA RESULT:      -7.9      2.960      6.318
REMARK  5 active torsions:
REMARK  status: ('A' for Active; 'I' for Inactive)
REMARK    1  A    between atoms: C_4  and  N_5 
REMARK    2  A    between atoms: C_6  and  C_8 
REMARK    3  A    between atoms: C_6  and  O_7 
REMARK       I    between atoms: C_8  and  N_9 
REMARK    4  A    between atoms: N_9  and  C_10 
REMARK    5  A    between atoms: C_10  and  C_11 
ROOT
HETATM    1  N   UNL     1      -6.361   1.705 -32.437  1.00  0.00    -0.254 N 
HETATM    2  C   UNL     1      -6.916   0.863 -33.513  1.00  0.00     0.256 C 
HETATM    3  C   UNL     1      -6.165  -0.445 -33.679  1.00  0.00     0.035 A 
HETATM    4  C   UNL     1      -4.832  -0.482 -33.276  1.00  0.00     0.048 A 
HETATM    5  N   UNL     1      -4.282   0.638 -32.668  1.00  0.00    -0.308 N 
HETATM    6  C   UNL     1      -4.989   1.723 -32.231  1.00  0.00     0.330 C 
HETATM    7  O   UNL     1      -4.372   2.601 -31.625  1.00  0.00    -0.246 OA
HETATM    8  C   UNL     1      -6.703  -1.582 -34.306  1.00  0.00     0.034 A 
HETATM    9  C   UNL     1      -5.920  -2.726 -34.485  1.00  0.00     0.011 A 
HETATM   10 BR   UNL     1      -6.671  -4.256 -35.304  1.00  0.00    -0.051 Br
HETATM   11  C   UNL     1      -4.591  -2.747 -34.073  1.00  0.00     0.021 A 
HETATM   12  C   UNL     1      -4.040  -1.616 -33.474  1.00  0.00     0.031 A 
HETATM   13  H   UNL     1      -3.304   0.650 -32.409  1.00  0.00     0.170 HD
ENDROOT
BRANCH   2  14
HETATM   14  C   UNL     1      -8.476   0.599 -33.389  1.00  0.00     0.279 C 
HETATM   15  N   UNL     1      -9.221   1.203 -34.387  1.00  0.00    -0.352 N 
HETATM   16  H   UNL     1      -8.716   1.474 -35.226  1.00  0.00     0.162 HD
HETATM   17  O   UNL     1      -8.999  -0.035 -32.472  1.00  0.00    -0.268 OA
BRANCH  15  18
HETATM   18  C   UNL     1     -10.654   1.077 -34.458  1.00  0.00     0.168 C 
BRANCH  18  19
HETATM   19  C   UNL     1     -11.243   2.402 -34.100  1.00  0.00     0.000 A 
HETATM   20  S   UNL     1     -12.098   3.319 -35.267  1.00  0.00    -0.105 SA
HETATM   21  C   UNL     1     -12.397   4.580 -34.151  1.00  0.00     0.050 A 
HETATM   22  C   UNL     1     -11.856   4.314 -32.914  1.00  0.00     0.008 A 
HETATM   23  C   UNL     1     -11.186   3.057 -32.884  1.00  0.00     0.017 A 
ENDBRANCH  18  19
ENDBRANCH  15  18
ENDBRANCH   2  14
BRANCH   2  24
HETATM   24  O   UNL     1      -6.692   1.583 -34.741  1.00  0.00    -0.359 OA
HETATM   25  H   UNL     1      -6.849   2.510 -34.499  1.00  0.00     0.213 HD
ENDBRANCH   2  24
BRANCH   1  26
HETATM   26  C   UNL     1      -7.143   2.798 -31.945  1.00  0.00     0.042 A 
HETATM   27  C   UNL     1      -7.307   3.968 -32.695  1.00  0.00     0.030 A 
HETATM   28  C   UNL     1      -8.078   5.024 -32.203  1.00  0.00     0.002 A 
HETATM   29  C   UNL     1      -8.676   4.927 -30.948  1.00  0.00     0.000 A 
HETATM   30  C   UNL     1      -8.492   3.781 -30.179  1.00  0.00     0.002 A 
HETATM   31  C   UNL     1      -7.723   2.725 -30.673  1.00  0.00     0.030 A 
ENDBRANCH   1  26
TORSDOF 5
ENDMDL
MODEL 3
REMARK VINA RESULT:      -7.6      3.248      6.159
REMARK  5 active torsions:
REMARK  status: ('A' for Active; 'I' for Inactive)
REMARK    1  A    between atoms: C_4  and  N_5 
REMARK    2  A    between atoms: C_6  and  C_8 
REMARK    3  A    between atoms: C_6  and  O_7 
REMARK       I    between atoms: C_8  and  N_9 
REMARK    4  A    between atoms: N_9  and  C_10 
REMARK    5  A    between atoms: C_10  and  C_11 
ROOT
HETATM    1  N   UNL     1      -8.446   2.038 -32.771  1.00  0.00    -0.254 N 
HETATM    2  C   UNL     1      -7.502   1.244 -31.964  1.00  0.00     0.256 C 
HETATM    3  C   UNL     1      -6.852   0.125 -32.757  1.00  0.00     0.035 A 
HETATM    4  C   UNL     1      -7.546  -0.379 -33.855  1.00  0.00     0.048 A 
HETATM    5  N   UNL     1      -8.744   0.217 -34.222  1.00  0.00    -0.308 N 
HETATM    6  C   UNL     1      -9.220   1.400 -33.731  1.00  0.00     0.330 C 
HETATM    7  O   UNL     1     -10.255   1.849 -34.223  1.00  0.00    -0.246 OA
HETATM    8  C   UNL     1      -5.646  -0.498 -32.388  1.00  0.00     0.034 A 
HETATM    9  C   UNL     1      -5.151  -1.572 -33.131  1.00  0.00     0.011 A 
HETATM   10 BR   UNL     1      -3.513  -2.378 -32.637  1.00  0.00    -0.051 Br
HETATM   11  C   UNL     1      -5.856  -2.060 -34.228  1.00  0.00     0.021 A 
HETATM   12  C   UNL     1      -7.065  -1.467 -34.586  1.00  0.00     0.031 A 
HETATM   13  H   UNL     1      -9.288  -0.161 -34.988  1.00  0.00     0.170 HD
ENDROOT
BRANCH   2  14
HETATM   14  C   UNL     1      -6.401   2.111 -31.217  1.00  0.00     0.279 C 
HETATM   15  N   UNL     1      -5.540   2.772 -32.076  1.00  0.00    -0.352 N 
HETATM   16  H   UNL     1      -5.860   2.891 -33.033  1.00  0.00     0.162 HD
HETATM   17  O   UNL     1      -6.275   2.162 -29.994  1.00  0.00    -0.268 OA
BRANCH  15  18
HETATM   18  C   UNL     1      -4.478   3.618 -31.596  1.00  0.00     0.168 C 
BRANCH  18  19
HETATM   19  C   UNL     1      -3.812   4.227 -32.787  1.00  0.00     0.000 A 
HETATM   20  S   UNL     1      -4.741   4.980 -34.014  1.00  0.00    -0.105 SA
HETATM   21  C   UNL     1      -3.346   5.362 -34.925  1.00  0.00     0.050 A 
HETATM   22  C   UNL     1      -2.193   4.924 -34.313  1.00  0.00     0.008 A 
HETATM   23  C   UNL     1      -2.462   4.266 -33.079  1.00  0.00     0.017 A 
ENDBRANCH  18  19
ENDBRANCH  15  18
ENDBRANCH   2  14
BRANCH   2  24
HETATM   24  O   UNL     1      -8.292   0.581 -30.958  1.00  0.00    -0.359 OA
HETATM   25  H   UNL     1      -8.375  -0.328 -31.289  1.00  0.00     0.213 HD
ENDBRANCH   2  24
BRANCH   1  26
HETATM   26  C   UNL     1      -8.882   3.306 -32.271  1.00  0.00     0.042 A 
HETATM   27  C   UNL     1      -9.728   3.395 -31.159  1.00  0.00     0.030 A 
HETATM   28  C   UNL     1     -10.140   4.642 -30.681  1.00  0.00     0.002 A 
HETATM   29  C   UNL     1      -9.727   5.808 -31.321  1.00  0.00     0.000 A 
HETATM   30  C   UNL     1      -8.913   5.729 -32.448  1.00  0.00     0.002 A 
HETATM   31  C   UNL     1      -8.499   4.483 -32.925  1.00  0.00     0.030 A 
ENDBRANCH   1  26
TORSDOF 5
ENDMDL
MODEL 4
REMARK VINA RESULT:      -7.5      3.393      5.671
REMARK  5 active torsions:
REMARK  status: ('A' for Active; 'I' for Inactive)
REMARK    1  A    between atoms: C_4  and  N_5 
REMARK    2  A    between atoms: C_6  and  C_8 
REMARK    3  A    between atoms: C_6  and  O_7 
REMARK       I    between atoms: C_8  and  N_9 
REMARK    4  A    between atoms: N_9  and  C_10 
REMARK    5  A    between atoms: C_10  and  C_11 
ROOT
HETATM    1  N   UNL     1      -7.497   2.227 -31.647  1.00  0.00    -0.254 N 
HETATM    2  C   UNL     1      -8.734   2.987 -31.392  1.00  0.00     0.256 C 
HETATM    3  C   UNL     1      -8.520   4.154 -30.446  1.00  0.00     0.035 A 
HETATM    4  C   UNL     1      -7.463   4.070 -29.542  1.00  0.00     0.048 A 
HETATM    5  N   UNL     1      -6.611   2.976 -29.606  1.00  0.00    -0.308 N 
HETATM    6  C   UNL     1      -6.582   2.058 -30.617  1.00  0.00     0.330 C 
HETATM    7  O   UNL     1      -5.705   1.194 -30.580  1.00  0.00    -0.246 OA
HETATM    8  C   UNL     1      -9.383   5.261 -30.359  1.00  0.00     0.034 A 
HETATM    9  C   UNL     1      -9.157   6.260 -29.410  1.00  0.00     0.011 A 
HETATM   10 BR   UNL     1     -10.312   7.755 -29.329  1.00  0.00    -0.051 Br
HETATM   11  C   UNL     1      -8.093   6.161 -28.517  1.00  0.00     0.021 A 
HETATM   12  C   UNL     1      -7.247   5.056 -28.576  1.00  0.00     0.031 A 
HETATM   13  H   UNL     1      -5.864   2.871 -28.930  1.00  0.00     0.170 HD
ENDROOT
BRANCH   2  14
HETATM   14  C   UNL     1      -9.482   3.466 -32.708  1.00  0.00     0.279 C 
HETATM   15  N   UNL     1     -10.665   2.788 -32.950  1.00  0.00    -0.352 N 
HETATM   16  H   UNL     1     -11.079   2.304 -32.158  1.00  0.00     0.162 HD
HETATM   17  O   UNL     1      -9.045   4.319 -33.480  1.00  0.00    -0.268 OA
BRANCH  15  18
HETATM   18  C   UNL     1     -11.497   3.080 -34.088  1.00  0.00     0.168 C 
BRANCH  18  19
HETATM   19  C   UNL     1     -12.758   2.293 -33.940  1.00  0.00     0.000 A 
HETATM   20  S   UNL     1     -13.906   2.706 -32.738  1.00  0.00    -0.105 SA
HETATM   21  C   UNL     1     -14.942   1.424 -33.195  1.00  0.00     0.050 A 
HETATM   22  C   UNL     1     -14.426   0.691 -34.240  1.00  0.00     0.008 A 
HETATM   23  C   UNL     1     -13.163   1.190 -34.668  1.00  0.00     0.017 A 
ENDBRANCH  18  19
ENDBRANCH  15  18
ENDBRANCH   2  14
BRANCH   2  24
HETATM   24  O   UNL     1      -9.617   2.091 -30.689  1.00  0.00    -0.359 OA
HETATM   25  H   UNL     1      -9.732   1.349 -31.305  1.00  0.00     0.213 HD
ENDBRANCH   2  24
BRANCH   1  26
HETATM   26  C   UNL     1      -7.461   1.319 -32.752  1.00  0.00     0.042 A 
HETATM   27  C   UNL     1      -8.036   0.046 -32.662  1.00  0.00     0.030 A 
HETATM   28  C   UNL     1      -7.998  -0.827 -33.752  1.00  0.00     0.002 A 
HETATM   29  C   UNL     1      -7.368  -0.444 -34.934  1.00  0.00     0.000 A 
HETATM   30  C   UNL     1      -6.764   0.808 -35.022  1.00  0.00     0.002 A 
HETATM   31  C   UNL     1      -6.804   1.681 -33.934  1.00  0.00     0.030 A 
ENDBRANCH   1  26
TORSDOF 5
ENDMDL
MODEL 5
REMARK VINA RESULT:      -7.4      3.388      6.095
REMARK  5 active torsions:
REMARK  status: ('A' for Active; 'I' for Inactive)
REMARK    1  A    between atoms: C_4  and  N_5 
REMARK    2  A    between atoms: C_6  and  C_8 
REMARK    3  A    between atoms: C_6  and  O_7 
REMARK       I    between atoms: C_8  and  N_9 
REMARK    4  A    between atoms: N_9  and  C_10 
REMARK    5  A    between atoms: C_10  and  C_11 
ROOT
HETATM    1  N   UNL     1      -7.753   2.229 -32.569  1.00  0.00    -0.254 N 
HETATM    2  C   UNL     1      -7.010   1.117 -31.949  1.00  0.00     0.256 C 
HETATM    3  C   UNL     1      -6.615   0.046 -32.949  1.00  0.00     0.035 A 
HETATM    4  C   UNL     1      -7.396  -0.089 -34.095  1.00  0.00     0.048 A 
HETATM    5  N   UNL     1      -8.432   0.809 -34.311  1.00  0.00    -0.308 N 
HETATM    6  C   UNL     1      -8.640   1.958 -33.601  1.00  0.00     0.330 C 
HETATM    7  O   UNL     1      -9.549   2.702 -33.971  1.00  0.00    -0.246 OA
HETATM    8  C   UNL     1      -5.578  -0.880 -32.736  1.00  0.00     0.034 A 
HETATM    9  C   UNL     1      -5.325  -1.883 -33.675  1.00  0.00     0.011 A 
HETATM   10 BR   UNL     1      -3.906  -3.100 -33.386  1.00  0.00    -0.051 Br
HETATM   11  C   UNL     1      -6.112  -2.000 -34.817  1.00  0.00     0.021 A 
HETATM   12  C   UNL     1      -7.159  -1.105 -35.024  1.00  0.00     0.031 A 
HETATM   13  H   UNL     1      -9.040   0.702 -35.114  1.00  0.00     0.170 HD
ENDROOT
BRANCH   2  14
HETATM   14  C   UNL     1      -5.751   1.575 -31.096  1.00  0.00     0.279 C 
HETATM   15  N   UNL     1      -4.712   2.069 -31.866  1.00  0.00    -0.352 N 
HETATM   16  H   UNL     1      -4.949   2.368 -32.807  1.00  0.00     0.162 HD
HETATM   17  O   UNL     1      -5.667   1.463 -29.874  1.00  0.00    -0.268 OA
BRANCH  15  18
HETATM   18  C   UNL     1      -3.485   2.545 -31.282  1.00  0.00     0.168 C 
BRANCH  18  19
HETATM   19  C   UNL     1      -3.133   3.832 -31.954  1.00  0.00     0.000 A 
HETATM   20  S   UNL     1      -3.552   5.331 -31.239  1.00  0.00    -0.105 SA
HETATM   21  C   UNL     1      -2.867   6.213 -32.534  1.00  0.00     0.050 A 
HETATM   22  C   UNL     1      -2.331   5.387 -33.496  1.00  0.00     0.008 A 
HETATM   23  C   UNL     1      -2.487   4.011 -33.163  1.00  0.00     0.017 A 
ENDBRANCH  18  19
ENDBRANCH  15  18
ENDBRANCH   2  14
BRANCH   2  24
HETATM   24  O   UNL     1      -7.933   0.470 -31.050  1.00  0.00    -0.359 OA
HETATM   25  H   UNL     1      -8.001  -0.434 -31.399  1.00  0.00     0.213 HD
ENDBRANCH   2  24
BRANCH   1  26
HETATM   26  C   UNL     1      -7.904   3.450 -31.838  1.00  0.00     0.042 A 
HETATM   27  C   UNL     1      -8.776   3.538 -30.747  1.00  0.00     0.030 A 
HETATM   28  C   UNL     1      -8.908   4.736 -30.040  1.00  0.00     0.002 A 
HETATM   29  C   UNL     1      -8.184   5.861 -30.430  1.00  0.00     0.000 A 
HETATM   30  C   UNL     1      -7.339   5.793 -31.534  1.00  0.00     0.002 A 
HETATM   31  C   UNL     1      -7.205   4.595 -32.239  1.00  0.00     0.030 A 
ENDBRANCH   1  26
TORSDOF 5
ENDMDL
MODEL 6
REMARK VINA RESULT:      -7.2      8.163     10.223
REMARK  5 active torsions:
REMARK  status: ('A' for Active; 'I' for Inactive)
REMARK    1  A    between atoms: C_4  and  N_5 
REMARK    2  A    between atoms: C_6  and  C_8 
REMARK    3  A    between atoms: C_6  and  O_7 
REMARK       I    between atoms: C_8  and  N_9 
REMARK    4  A    between atoms: N_9  and  C_10 
REMARK    5  A    between atoms: C_10  and  C_11 
ROOT
HETATM    1  N   UNL     1      -0.359   7.523 -27.678  1.00  0.00    -0.254 N 
HETATM    2  C   UNL     1      -1.796   7.534 -27.346  1.00  0.00     0.256 C 
HETATM    3  C   UNL     1      -2.160   8.624 -26.355  1.00  0.00     0.035 A 
HETATM    4  C   UNL     1      -1.163   9.075 -25.494  1.00  0.00     0.048 A 
HETATM    5  N   UNL     1       0.125   8.577 -25.636  1.00  0.00    -0.308 N 
HETATM    6  C   UNL     1       0.566   7.826 -26.689  1.00  0.00     0.330 C 
HETATM    7  O   UNL     1       1.763   7.535 -26.722  1.00  0.00    -0.246 OA
HETATM    8  C   UNL     1      -3.462   9.127 -26.189  1.00  0.00     0.034 A 
HETATM    9  C   UNL     1      -3.730  10.081 -25.203  1.00  0.00     0.011 A 
HETATM   10 BR   UNL     1      -5.482  10.768 -25.015  1.00  0.00    -0.051 Br
HETATM   11  C   UNL     1      -2.720  10.523 -24.353  1.00  0.00     0.021 A 
HETATM   12  C   UNL     1      -1.432  10.011 -24.492  1.00  0.00     0.031 A 
HETATM   13  H   UNL     1       0.854   8.856 -24.992  1.00  0.00     0.170 HD
ENDROOT
BRANCH   2  14
HETATM   14  C   UNL     1      -2.752   7.587 -28.612  1.00  0.00     0.279 C 
HETATM   15  N   UNL     1      -3.288   6.358 -28.953  1.00  0.00    -0.352 N 
HETATM   16  H   UNL     1      -3.278   5.644 -28.230  1.00  0.00     0.162 HD
HETATM   17  O   UNL     1      -2.968   8.603 -29.272  1.00  0.00    -0.268 OA
BRANCH  15  18
HETATM   18  C   UNL     1      -4.188   6.196 -30.066  1.00  0.00     0.168 C 
BRANCH  18  19
HETATM   19  C   UNL     1      -3.382   5.731 -31.235  1.00  0.00     0.000 A 
HETATM   20  S   UNL     1      -3.014   6.802 -32.520  1.00  0.00    -0.105 SA
HETATM   21  C   UNL     1      -2.159   5.590 -33.370  1.00  0.00     0.050 A 
HETATM   22  C   UNL     1      -2.153   4.390 -32.695  1.00  0.00     0.008 A 
HETATM   23  C   UNL     1      -2.862   4.470 -31.463  1.00  0.00     0.017 A 
ENDBRANCH  18  19
ENDBRANCH  15  18
ENDBRANCH   2  14
BRANCH   2  24
HETATM   24  O   UNL     1      -2.057   6.296 -26.655  1.00  0.00    -0.359 OA
HETATM   25  H   UNL     1      -2.907   6.452 -26.212  1.00  0.00     0.213 HD
ENDBRANCH   2  24
BRANCH   1  26
HETATM   26  C   UNL     1       0.078   6.786 -28.824  1.00  0.00     0.042 A 
HETATM   27  C   UNL     1       0.431   5.435 -28.724  1.00  0.00     0.030 A 
HETATM   28  C   UNL     1       0.851   4.727 -29.854  1.00  0.00     0.002 A 
HETATM   29  C   UNL     1       0.940   5.368 -31.088  1.00  0.00     0.000 A 
HETATM   30  C   UNL     1       0.623   6.720 -31.190  1.00  0.00     0.002 A 
HETATM   31  C   UNL     1       0.202   7.427 -30.062  1.00  0.00     0.030 A 
ENDBRANCH   1  26
TORSDOF 5
ENDMDL
MODEL 7
REMARK VINA RESULT:      -7.2      7.849     10.418
REMARK  5 active torsions:
REMARK  status: ('A' for Active; 'I' for Inactive)
REMARK    1  A    between atoms: C_4  and  N_5 
REMARK    2  A    between atoms: C_6  and  C_8 
REMARK    3  A    between atoms: C_6  and  O_7 
REMARK       I    between atoms: C_8  and  N_9 
REMARK    4  A    between atoms: N_9  and  C_10 
REMARK    5  A    between atoms: C_10  and  C_11 
ROOT
HETATM    1  N   UNL     1      -0.818   6.173 -29.853  1.00  0.00    -0.254 N 
HETATM    2  C   UNL     1      -1.975   6.899 -30.408  1.00  0.00     0.256 C 
HETATM    3  C   UNL     1      -2.858   6.020 -31.274  1.00  0.00     0.035 A 
HETATM    4  C   UNL     1      -2.270   4.917 -31.888  1.00  0.00     0.048 A 
HETATM    5  N   UNL     1      -0.941   4.624 -31.614  1.00  0.00    -0.308 N 
HETATM    6  C   UNL     1      -0.195   5.201 -30.625  1.00  0.00     0.330 C 
HETATM    7  O   UNL     1       0.944   4.770 -30.442  1.00  0.00    -0.246 OA
HETATM    8  C   UNL     1      -4.200   6.312 -31.574  1.00  0.00     0.034 A 
HETATM    9  C   UNL     1      -4.925   5.490 -32.440  1.00  0.00     0.011 A 
HETATM   10 BR   UNL     1      -6.738   5.883 -32.806  1.00  0.00    -0.051 Br
HETATM   11  C   UNL     1      -4.322   4.389 -33.041  1.00  0.00     0.021 A 
HETATM   12  C   UNL     1      -2.985   4.106 -32.773  1.00  0.00     0.031 A 
HETATM   13  H   UNL     1      -0.481   3.854 -32.084  1.00  0.00     0.170 HD
ENDROOT
BRANCH   2  14
HETATM   14  C   UNL     1      -2.843   7.661 -29.319  1.00  0.00     0.279 C 
HETATM   15  N   UNL     1      -2.651   9.033 -29.320  1.00  0.00    -0.352 N 
HETATM   16  H   UNL     1      -2.247   9.432 -30.161  1.00  0.00     0.162 HD
HETATM   17  O   UNL     1      -3.581   7.102 -28.508  1.00  0.00    -0.268 OA
BRANCH  15  18
HETATM   18  C   UNL     1      -3.353   9.905 -28.414  1.00  0.00     0.168 C 
BRANCH  18  19
HETATM   19  C   UNL     1      -2.474  10.124 -27.226  1.00  0.00     0.000 A 
HETATM   20  S   UNL     1      -2.868   9.428 -25.711  1.00  0.00    -0.105 SA
HETATM   21  C   UNL     1      -1.491  10.115 -24.965  1.00  0.00     0.050 A 
HETATM   22  C   UNL     1      -0.745  10.863 -25.846  1.00  0.00     0.008 A 
HETATM   23  C   UNL     1      -1.314  10.872 -27.152  1.00  0.00     0.017 A 
ENDBRANCH  18  19
ENDBRANCH  15  18
ENDBRANCH   2  14
BRANCH   2  24
HETATM   24  O   UNL     1      -1.434   7.889 -31.306  1.00  0.00    -0.359 OA
HETATM   25  H   UNL     1      -0.792   7.392 -31.839  1.00  0.00     0.213 HD
ENDBRANCH   2  24
BRANCH   1  26
HETATM   26  C   UNL     1      -0.088   6.761 -28.772  1.00  0.00     0.042 A 
HETATM   27  C   UNL     1      -0.251   6.309 -27.457  1.00  0.00     0.030 A 
HETATM   28  C   UNL     1       0.473   6.890 -26.414  1.00  0.00     0.002 A 
HETATM   29  C   UNL     1       1.352   7.940 -26.671  1.00  0.00     0.000 A 
HETATM   30  C   UNL     1       1.496   8.419 -27.971  1.00  0.00     0.002 A 
HETATM   31  C   UNL     1       0.774   7.837 -29.014  1.00  0.00     0.030 A 
ENDBRANCH   1  26
TORSDOF 5
ENDMDL
MODEL 8
REMARK VINA RESULT:      -7.2      6.653      9.332
REMARK  5 active torsions:
REMARK  status: ('A' for Active; 'I' for Inactive)
REMARK    1  A    between atoms: C_4  and  N_5 
REMARK    2  A    between atoms: C_6  and  C_8 
REMARK    3  A    between atoms: C_6  and  O_7 
REMARK       I    between atoms: C_8  and  N_9 
REMARK    4  A    between atoms: N_9  and  C_10 
REMARK    5  A    between atoms: C_10  and  C_11 
ROOT
HETATM    1  N   UNL     1      -0.800   6.161 -29.846  1.00  0.00    -0.254 N 
HETATM    2  C   UNL     1      -1.996   6.863 -30.346  1.00  0.00     0.256 C 
HETATM    3  C   UNL     1      -2.862   5.986 -31.231  1.00  0.00     0.035 A 
HETATM    4  C   UNL     1      -2.244   4.935 -31.903  1.00  0.00     0.048 A 
HETATM    5  N   UNL     1      -0.900   4.684 -31.668  1.00  0.00    -0.308 N 
HETATM    6  C   UNL     1      -0.156   5.249 -30.670  1.00  0.00     0.330 C 
HETATM    7  O   UNL     1       1.003   4.857 -30.528  1.00  0.00    -0.246 OA
HETATM    8  C   UNL     1      -4.221   6.237 -31.491  1.00  0.00     0.034 A 
HETATM    9  C   UNL     1      -4.932   5.423 -32.377  1.00  0.00     0.011 A 
HETATM   10 BR   UNL     1      -6.766   5.757 -32.690  1.00  0.00    -0.051 Br
HETATM   11  C   UNL     1      -4.299   4.373 -33.037  1.00  0.00     0.021 A 
HETATM   12  C   UNL     1      -2.946   4.133 -32.808  1.00  0.00     0.031 A 
HETATM   13  H   UNL     1      -0.420   3.955 -32.180  1.00  0.00     0.170 HD
ENDROOT
BRANCH   2  14
HETATM   14  C   UNL     1      -2.870   7.543 -29.208  1.00  0.00     0.279 C 
HETATM   15  N   UNL     1      -3.533   6.634 -28.402  1.00  0.00    -0.352 N 
HETATM   16  H   UNL     1      -3.179   5.682 -28.407  1.00  0.00     0.162 HD
HETATM   17  O   UNL     1      -3.000   8.759 -29.071  1.00  0.00    -0.268 OA
BRANCH  15  18
HETATM   18  C   UNL     1      -4.371   7.050 -27.306  1.00  0.00     0.168 C 
BRANCH  18  19
HETATM   19  C   UNL     1      -5.792   6.893 -27.738  1.00  0.00     0.000 A 
HETATM   20  S   UNL     1      -6.799   8.264 -27.935  1.00  0.00    -0.105 SA
HETATM   21  C   UNL     1      -8.135   7.298 -28.387  1.00  0.00     0.050 A 
HETATM   22  C   UNL     1      -7.827   5.957 -28.386  1.00  0.00     0.008 A 
HETATM   23  C   UNL     1      -6.474   5.722 -28.009  1.00  0.00     0.017 A 
ENDBRANCH  18  19
ENDBRANCH  15  18
ENDBRANCH   2  14
BRANCH   2  24
HETATM   24  O   UNL     1      -1.514   7.911 -31.210  1.00  0.00    -0.359 OA
HETATM   25  H   UNL     1      -2.041   8.685 -30.952  1.00  0.00     0.213 HD
ENDBRANCH   2  24
BRANCH   1  26
HETATM   26  C   UNL     1      -0.071   6.733 -28.755  1.00  0.00     0.042 A 
HETATM   27  C   UNL     1      -0.181   6.214 -27.459  1.00  0.00     0.030 A 
HETATM   28  C   UNL     1       0.542   6.779 -26.406  1.00  0.00     0.002 A 
HETATM   29  C   UNL     1       1.366   7.880 -26.634  1.00  0.00     0.000 A 
HETATM   30  C   UNL     1       1.456   8.424 -27.913  1.00  0.00     0.002 A 
HETATM   31  C   UNL     1       0.735   7.857 -28.966  1.00  0.00     0.030 A 
ENDBRANCH   1  26
TORSDOF 5
ENDMDL
MODEL 9
REMARK VINA RESULT:      -7.1      3.419      6.563
REMARK  5 active torsions:
REMARK  status: ('A' for Active; 'I' for Inactive)
REMARK    1  A    between atoms: C_4  and  N_5 
REMARK    2  A    between atoms: C_6  and  C_8 
REMARK    3  A    between atoms: C_6  and  O_7 
REMARK       I    between atoms: C_8  and  N_9 
REMARK    4  A    between atoms: N_9  and  C_10 
REMARK    5  A    between atoms: C_10  and  C_11 
ROOT
HETATM    1  N   UNL     1      -8.333   2.145 -32.773  1.00  0.00    -0.254 N 
HETATM    2  C   UNL     1      -7.511   1.208 -31.987  1.00  0.00     0.256 C 
HETATM    3  C   UNL     1      -6.848   0.147 -32.846  1.00  0.00     0.035 A 
HETATM    4  C   UNL     1      -7.461  -0.185 -34.052  1.00  0.00     0.048 A 
HETATM    5  N   UNL     1      -8.587   0.522 -34.451  1.00  0.00    -0.308 N 
HETATM    6  C   UNL     1      -9.045   1.669 -33.866  1.00  0.00     0.330 C 
HETATM    7  O   UNL     1     -10.005   2.235 -34.391  1.00  0.00    -0.246 OA
HETATM    8  C   UNL     1      -5.717  -0.588 -32.449  1.00  0.00     0.034 A 
HETATM    9  C   UNL     1      -5.210  -1.600 -33.268  1.00  0.00     0.011 A 
HETATM   10 BR   UNL     1      -3.670  -2.556 -32.731  1.00  0.00    -0.051 Br
HETATM   11  C   UNL     1      -5.833  -1.915 -34.473  1.00  0.00     0.021 A 
HETATM   12  C   UNL     1      -6.970  -1.212 -34.863  1.00  0.00     0.031 A 
HETATM   13  H   UNL     1      -9.075   0.268 -35.300  1.00  0.00     0.170 HD
ENDROOT
BRANCH   2  14
HETATM   14  C   UNL     1      -6.442   1.914 -31.049  1.00  0.00     0.279 C 
HETATM   15  N   UNL     1      -5.447   2.578 -31.746  1.00  0.00    -0.352 N 
HETATM   16  H   UNL     1      -5.650   2.806 -32.715  1.00  0.00     0.162 HD
HETATM   17  O   UNL     1      -6.450   1.847 -29.820  1.00  0.00    -0.268 OA
BRANCH  15  18
HETATM   18  C   UNL     1      -4.389   3.290 -31.079  1.00  0.00     0.168 C 
BRANCH  18  19
HETATM   19  C   UNL     1      -4.792   4.726 -30.995  1.00  0.00     0.000 A 
HETATM   20  S   UNL     1      -4.486   5.793 -32.299  1.00  0.00    -0.105 SA
HETATM   21  C   UNL     1      -5.178   7.115 -31.464  1.00  0.00     0.050 A 
HETATM   22  C   UNL     1      -5.631   6.757 -30.215  1.00  0.00     0.008 A 
HETATM   23  C   UNL     1      -5.406   5.377 -29.942  1.00  0.00     0.017 A 
ENDBRANCH  18  19
ENDBRANCH  15  18
ENDBRANCH   2  14
BRANCH   2  24
HETATM   24  O   UNL     1      -8.426   0.486 -31.139  1.00  0.00    -0.359 OA
HETATM   25  H   UNL     1      -8.032  -0.399 -31.072  1.00  0.00     0.213 HD
ENDBRANCH   2  24
BRANCH   1  26
HETATM   26  C   UNL     1      -8.748   3.374 -32.168  1.00  0.00     0.042 A 
HETATM   27  C   UNL     1      -8.228   4.602 -32.592  1.00  0.00     0.030 A 
HETATM   28  C   UNL     1      -8.648   5.793 -31.994  1.00  0.00     0.002 A 
HETATM   29  C   UNL     1      -9.575   5.766 -30.955  1.00  0.00     0.000 A 
HETATM   30  C   UNL     1     -10.073   4.546 -30.503  1.00  0.00     0.002 A 
HETATM   31  C   UNL     1      -9.656   3.356 -31.102  1.00  0.00     0.030 A 
ENDBRANCH   1  26
TORSDOF 5
ENDMDL
MODEL 10
REMARK VINA RESULT:      -7.1     15.503     17.340
REMARK  5 active torsions:
REMARK  status: ('A' for Active; 'I' for Inactive)
REMARK    1  A    between atoms: C_4  and  N_5 
REMARK    2  A    between atoms: C_6  and  C_8 
REMARK    3  A    between atoms: C_6  and  O_7 
REMARK       I    between atoms: C_8  and  N_9 
REMARK    4  A    between atoms: N_9  and  C_10 
REMARK    5  A    between atoms: C_10  and  C_11 
ROOT
HETATM    1  N   UNL     1      -6.287 -13.377 -39.406  1.00  0.00    -0.254 N 
HETATM    2  C   UNL     1      -5.459 -14.468 -38.860  1.00  0.00     0.256 C 
HETATM    3  C   UNL     1      -4.129 -13.980 -38.318  1.00  0.00     0.035 A 
HETATM    4  C   UNL     1      -3.605 -12.804 -38.851  1.00  0.00     0.048 A 
HETATM    5  N   UNL     1      -4.356 -12.094 -39.778  1.00  0.00    -0.308 N 
HETATM    6  C   UNL     1      -5.669 -12.329 -40.074  1.00  0.00     0.330 C 
HETATM    7  O   UNL     1      -6.227 -11.553 -40.851  1.00  0.00    -0.246 OA
HETATM    8  C   UNL     1      -3.350 -14.696 -37.392  1.00  0.00     0.034 A 
HETATM    9  C   UNL     1      -2.100 -14.212 -36.997  1.00  0.00     0.011 A 
HETATM   10 BR   UNL     1      -1.082 -15.174 -35.727  1.00  0.00    -0.051 Br
HETATM   11  C   UNL     1      -1.595 -13.033 -37.537  1.00  0.00     0.021 A 
HETATM   12  C   UNL     1      -2.346 -12.330 -38.476  1.00  0.00     0.031 A 
HETATM   13  H   UNL     1      -3.976 -11.262 -40.211  1.00  0.00     0.170 HD
ENDROOT
BRANCH   2  14
HETATM   14  C   UNL     1      -6.204 -15.368 -37.784  1.00  0.00     0.279 C 
HETATM   15  N   UNL     1      -6.447 -14.714 -36.588  1.00  0.00    -0.352 N 
HETATM   16  H   UNL     1      -6.417 -13.699 -36.614  1.00  0.00     0.162 HD
HETATM   17  O   UNL     1      -6.498 -16.550 -37.957  1.00  0.00    -0.268 OA
BRANCH  15  18
HETATM   18  C   UNL     1      -7.120 -15.354 -35.488  1.00  0.00     0.168 C 
BRANCH  18  19
HETATM   19  C   UNL     1      -6.513 -14.835 -34.224  1.00  0.00     0.000 A 
HETATM   20  S   UNL     1      -6.260 -15.878 -32.889  1.00  0.00    -0.105 SA
HETATM   21  C   UNL     1      -5.607 -14.612 -31.943  1.00  0.00     0.050 A 
HETATM   22  C   UNL     1      -5.583 -13.416 -32.624  1.00  0.00     0.008 A 
HETATM   23  C   UNL     1      -6.110 -13.544 -33.942  1.00  0.00     0.017 A 
ENDBRANCH  18  19
ENDBRANCH  15  18
ENDBRANCH   2  14
BRANCH   2  24
HETATM   24  O   UNL     1      -5.122 -15.314 -39.977  1.00  0.00    -0.359 OA
HETATM   25  H   UNL     1      -4.260 -15.688 -39.733  1.00  0.00     0.213 HD
ENDBRANCH   2  24
BRANCH   1  26
HETATM   26  C   UNL     1      -7.676 -13.620 -39.647  1.00  0.00     0.042 A 
HETATM   27  C   UNL     1      -8.095 -14.483 -40.667  1.00  0.00     0.030 A 
HETATM   28  C   UNL     1      -9.455 -14.713 -40.885  1.00  0.00     0.002 A 
HETATM   29  C   UNL     1     -10.409 -14.068 -40.101  1.00  0.00     0.000 A 
HETATM   30  C   UNL     1     -10.004 -13.182 -39.106  1.00  0.00     0.002 A 
HETATM   31  C   UNL     1      -8.644 -12.954 -38.886  1.00  0.00     0.030 A 
ENDBRANCH   1  26
TORSDOF 5
ENDMDL
