MODEL 1
REMARK VINA RESULT:     -10.0      0.000      0.000
REMARK  7 active torsions:
REMARK  status: ('A' for Active; 'I' for Inactive)
REMARK    1  A    between atoms: C_4  and  N_5 
REMARK    2  A    between atoms: C_6  and  S_7 
REMARK    3  A    between atoms: S_7  and  C_8 
REMARK    4  A    between atoms: C_8  and  C_9 
REMARK       I    between atoms: C_9  and  N_10 
REMARK    5  A    between atoms: C_12  and  C_13 
REMARK    6  A    between atoms: C_13  and  N_14 
REMARK       I    between atoms: N_14  and  C_15 
REMARK       I    between atoms: C_15  and  N_16 
REMARK    7  A    between atoms: N_16  and  C_17 
ROOT
HETATM    1  C   UNL     1      -3.957  -0.504 -32.264  1.00  0.00     0.229 C 
HETATM    2  N   UNL     1      -4.850  -1.217 -33.079  1.00  0.00    -0.351 N 
HETATM    3  C   UNL     1      -6.294  -1.218 -32.868  1.00  0.00     0.132 C 
HETATM    4  C   UNL     1      -7.120  -1.636 -34.090  1.00  0.00     0.021 C 
HETATM    5  C   UNL     1      -6.551  -2.905 -34.736  1.00  0.00     0.009 C 
HETATM    6  C   UNL     1      -5.056  -2.789 -34.993  1.00  0.00     0.020 C 
HETATM    7  C   UNL     1      -4.307  -2.416 -33.720  1.00  0.00     0.126 C 
HETATM    8  O   UNL     1      -2.749  -0.775 -32.272  1.00  0.00    -0.273 OA
ENDROOT
BRANCH   1   9
HETATM    9  C   UNL     1      -4.413   0.747 -31.523  1.00  0.00     0.185 C 
BRANCH   9  10
HETATM   10  S   UNL     1      -3.445   2.263 -31.668  1.00  0.00    -0.082 SA
BRANCH  10  11
HETATM   11  C   UNL     1      -4.605   3.542 -31.542  1.00  0.00     0.173 A 
HETATM   12  N   UNL     1      -4.337   4.874 -31.849  1.00  0.00    -0.299 N 
HETATM   13  C   UNL     1      -5.484   5.560 -31.492  1.00  0.00     0.118 A 
HETATM   14  C   UNL     1      -6.358   4.625 -30.997  1.00  0.00     0.137 A 
HETATM   15  N   UNL     1      -5.800   3.381 -31.023  1.00  0.00    -0.235 NA
BRANCH  12  16
HETATM   16  C   UNL     1      -3.199   5.459 -32.484  1.00  0.00     0.047 A 
HETATM   17  C   UNL     1      -2.146   5.932 -31.677  1.00  0.00     0.037 A 
HETATM   18  C   UNL     1      -0.977   6.460 -32.236  1.00  0.00    -0.060 A 
HETATM   19  C   UNL     1       0.120   6.990 -31.357  1.00  0.00     0.048 C 
HETATM   20  C   UNL     1      -0.863   6.526 -33.623  1.00  0.00     0.007 A 
HETATM   21  C   UNL     1      -1.899   6.061 -34.436  1.00  0.00     0.009 A 
HETATM   22  C   UNL     1      -3.085   5.537 -33.888  1.00  0.00    -0.035 A 
HETATM   23  C   UNL     1      -4.168   5.139 -34.854  1.00  0.00     0.050 C 
ENDBRANCH  12  16
ENDBRANCH  10  11
ENDBRANCH   9  10
ENDBRANCH   1   9
BRANCH   4  24
HETATM   24  C   UNL     1      -7.237  -0.449 -35.065  1.00  0.00     0.130 C 
BRANCH  24  25
HETATM   25  N   UNL     1      -8.382   0.409 -34.816  1.00  0.00    -0.342 N 
HETATM   26  C   UNL     1      -8.231   1.656 -34.288  1.00  0.00     0.320 C 
HETATM   27  N   UNL     1      -9.346   2.433 -34.187  1.00  0.00    -0.309 N 
HETATM   28  O   UNL     1      -7.143   2.122 -33.957  1.00  0.00    -0.247 OA
HETATM   29  H   UNL     1      -9.094   3.391 -33.971  1.00  0.00     0.170 HD
HETATM   30  H   UNL     1      -9.102   0.371 -35.522  1.00  0.00     0.164 HD
BRANCH  27  31
HETATM   31  C   UNL     1     -10.720   2.156 -34.309  1.00  0.00     0.039 A 
HETATM   32  C   UNL     1     -11.368   1.083 -33.696  1.00  0.00     0.071 A 
HETATM   33  C   UNL     1     -12.732   0.889 -33.900  1.00  0.00     0.118 A 
HETATM   34  F   UNL     1     -13.340  -0.152 -33.316  1.00  0.00    -0.206 F 
HETATM   35  C   UNL     1     -13.476   1.757 -34.689  1.00  0.00     0.042 A 
HETATM   36  C   UNL     1     -12.848   2.851 -35.274  1.00  0.00     0.005 A 
HETATM   37  C   UNL     1     -11.478   3.053 -35.076  1.00  0.00     0.030 A 
ENDBRANCH  27  31
ENDBRANCH  24  25
ENDBRANCH   4  24
TORSDOF 7
ENDMDL
MODEL 2
REMARK VINA RESULT:      -9.8      4.102      9.918
REMARK  7 active torsions:
REMARK  status: ('A' for Active; 'I' for Inactive)
REMARK    1  A    between atoms: C_4  and  N_5 
REMARK    2  A    between atoms: C_6  and  S_7 
REMARK    3  A    between atoms: S_7  and  C_8 
REMARK    4  A    between atoms: C_8  and  C_9 
REMARK       I    between atoms: C_9  and  N_10 
REMARK    5  A    between atoms: C_12  and  C_13 
REMARK    6  A    between atoms: C_13  and  N_14 
REMARK       I    between atoms: N_14  and  C_15 
REMARK       I    between atoms: C_15  and  N_16 
REMARK    7  A    between atoms: N_16  and  C_17 
ROOT
HETATM    1  C   UNL     1      -5.105   5.287 -33.635  1.00  0.00     0.229 C 
HETATM    2  N   UNL     1      -3.749   5.650 -33.650  1.00  0.00    -0.351 N 
HETATM    3  C   UNL     1      -3.180   6.648 -32.750  1.00  0.00     0.132 C 
HETATM    4  C   UNL     1      -1.658   6.567 -32.582  1.00  0.00     0.021 C 
HETATM    5  C   UNL     1      -0.958   6.435 -33.941  1.00  0.00     0.009 C 
HETATM    6  C   UNL     1      -1.562   5.321 -34.783  1.00  0.00     0.020 C 
HETATM    7  C   UNL     1      -3.067   5.503 -34.938  1.00  0.00     0.126 C 
HETATM    8  O   UNL     1      -5.606   4.693 -34.599  1.00  0.00    -0.273 OA
ENDROOT
BRANCH   1   9
HETATM    9  C   UNL     1      -5.929   5.422 -32.359  1.00  0.00     0.185 C 
BRANCH   9  10
HETATM   10  S   UNL     1      -5.761   4.177 -31.064  1.00  0.00    -0.082 SA
BRANCH  10  11
HETATM   11  C   UNL     1      -7.374   3.618 -30.777  1.00  0.00     0.173 A 
HETATM   12  N   UNL     1      -7.873   2.401 -31.234  1.00  0.00    -0.299 N 
HETATM   13  C   UNL     1      -9.214   2.415 -30.897  1.00  0.00     0.118 A 
HETATM   14  C   UNL     1      -9.445   3.615 -30.272  1.00  0.00     0.137 A 
HETATM   15  N   UNL     1      -8.302   4.356 -30.213  1.00  0.00    -0.235 NA
BRANCH  12  16
HETATM   16  C   UNL     1      -7.192   1.296 -31.833  1.00  0.00     0.047 A 
HETATM   17  C   UNL     1      -7.400   1.039 -33.202  1.00  0.00     0.037 A 
HETATM   18  C   UNL     1      -6.718   0.012 -33.865  1.00  0.00    -0.060 A 
HETATM   19  C   UNL     1      -6.978  -0.266 -35.318  1.00  0.00     0.048 C 
HETATM   20  C   UNL     1      -5.824  -0.777 -33.145  1.00  0.00     0.007 A 
HETATM   21  C   UNL     1      -5.609  -0.535 -31.787  1.00  0.00     0.009 A 
HETATM   22  C   UNL     1      -6.295   0.488 -31.105  1.00  0.00    -0.035 A 
HETATM   23  C   UNL     1      -6.047   0.610 -29.626  1.00  0.00     0.050 C 
ENDBRANCH  12  16
ENDBRANCH  10  11
ENDBRANCH   9  10
ENDBRANCH   1   9
BRANCH   4  24
HETATM   24  C   UNL     1      -1.306   5.437 -31.597  1.00  0.00     0.130 C 
BRANCH  24  25
HETATM   25  N   UNL     1      -0.727   5.901 -30.349  1.00  0.00    -0.342 N 
HETATM   26  C   UNL     1       0.266   5.204 -29.726  1.00  0.00     0.320 C 
HETATM   27  N   UNL     1       0.825   5.766 -28.618  1.00  0.00    -0.309 N 
HETATM   28  O   UNL     1       0.707   4.137 -30.146  1.00  0.00    -0.247 OA
HETATM   29  H   UNL     1       1.668   5.269 -28.354  1.00  0.00     0.170 HD
HETATM   30  H   UNL     1      -0.597   6.900 -30.286  1.00  0.00     0.164 HD
BRANCH  27  31
HETATM   31  C   UNL     1       0.453   6.850 -27.802  1.00  0.00     0.039 A 
HETATM   32  C   UNL     1      -0.551   6.803 -26.833  1.00  0.00     0.071 A 
HETATM   33  C   UNL     1      -0.853   7.944 -26.093  1.00  0.00     0.118 A 
HETATM   34  F   UNL     1      -1.827   7.890 -25.176  1.00  0.00    -0.206 F 
HETATM   35  C   UNL     1      -0.160   9.134 -26.282  1.00  0.00     0.042 A 
HETATM   36  C   UNL     1       0.867   9.180 -27.218  1.00  0.00     0.005 A 
HETATM   37  C   UNL     1       1.177   8.040 -27.966  1.00  0.00     0.030 A 
ENDBRANCH  27  31
ENDBRANCH  24  25
ENDBRANCH   4  24
TORSDOF 7
ENDMDL
MODEL 3
REMARK VINA RESULT:      -9.5      4.377     10.029
REMARK  7 active torsions:
REMARK  status: ('A' for Active; 'I' for Inactive)
REMARK    1  A    between atoms: C_4  and  N_5 
REMARK    2  A    between atoms: C_6  and  S_7 
REMARK    3  A    between atoms: S_7  and  C_8 
REMARK    4  A    between atoms: C_8  and  C_9 
REMARK       I    between atoms: C_9  and  N_10 
REMARK    5  A    between atoms: C_12  and  C_13 
REMARK    6  A    between atoms: C_13  and  N_14 
REMARK       I    between atoms: N_14  and  C_15 
REMARK       I    between atoms: C_15  and  N_16 
REMARK    7  A    between atoms: N_16  and  C_17 
ROOT
HETATM    1  C   UNL     1      -4.910   4.569 -33.768  1.00  0.00     0.229 C 
HETATM    2  N   UNL     1      -3.684   5.249 -33.692  1.00  0.00    -0.351 N 
HETATM    3  C   UNL     1      -3.392   6.252 -32.673  1.00  0.00     0.132 C 
HETATM    4  C   UNL     1      -1.899   6.524 -32.452  1.00  0.00     0.021 C 
HETATM    5  C   UNL     1      -1.167   6.713 -33.787  1.00  0.00     0.009 C 
HETATM    6  C   UNL     1      -1.467   5.584 -34.762  1.00  0.00     0.020 C 
HETATM    7  C   UNL     1      -2.968   5.411 -34.958  1.00  0.00     0.126 C 
HETATM    8  O   UNL     1      -5.236   3.979 -34.807  1.00  0.00    -0.273 OA
ENDROOT
BRANCH   1   9
HETATM    9  C   UNL     1      -5.761   4.362 -32.521  1.00  0.00     0.185 C 
BRANCH   9  10
HETATM   10  S   UNL     1      -5.541   2.864 -31.540  1.00  0.00    -0.082 SA
BRANCH  10  11
HETATM   11  C   UNL     1      -7.102   2.116 -31.521  1.00  0.00     0.173 A 
HETATM   12  N   UNL     1      -7.414   0.940 -32.200  1.00  0.00    -0.299 N 
HETATM   13  C   UNL     1      -8.775   0.774 -32.018  1.00  0.00     0.118 A 
HETATM   14  C   UNL     1      -9.199   1.836 -31.259  1.00  0.00     0.137 A 
HETATM   15  N   UNL     1      -8.157   2.665 -30.966  1.00  0.00    -0.235 NA
BRANCH  12  16
HETATM   16  C   UNL     1      -6.559   0.011 -32.869  1.00  0.00     0.047 A 
HETATM   17  C   UNL     1      -5.473  -0.536 -32.159  1.00  0.00     0.037 A 
HETATM   18  C   UNL     1      -4.633  -1.497 -32.734  1.00  0.00    -0.060 A 
HETATM   19  C   UNL     1      -3.460  -2.043 -31.971  1.00  0.00     0.048 C 
HETATM   20  C   UNL     1      -4.878  -1.910 -34.042  1.00  0.00     0.007 A 
HETATM   21  C   UNL     1      -5.951  -1.376 -34.758  1.00  0.00     0.009 A 
HETATM   22  C   UNL     1      -6.797  -0.401 -34.197  1.00  0.00    -0.035 A 
HETATM   23  C   UNL     1      -7.874   0.164 -35.083  1.00  0.00     0.050 C 
ENDBRANCH  12  16
ENDBRANCH  10  11
ENDBRANCH   9  10
ENDBRANCH   1   9
BRANCH   4  24
HETATM   24  C   UNL     1      -1.296   5.413 -31.572  1.00  0.00     0.130 C 
BRANCH  24  25
HETATM   25  N   UNL     1      -0.703   5.896 -30.337  1.00  0.00    -0.342 N 
HETATM   26  C   UNL     1       0.278   5.195 -29.701  1.00  0.00     0.320 C 
HETATM   27  N   UNL     1       0.852   5.771 -28.608  1.00  0.00    -0.309 N 
HETATM   28  O   UNL     1       0.699   4.111 -30.098  1.00  0.00    -0.247 OA
HETATM   29  H   UNL     1       1.687   5.265 -28.336  1.00  0.00     0.170 HD
HETATM   30  H   UNL     1      -0.555   6.893 -30.297  1.00  0.00     0.164 HD
BRANCH  27  31
HETATM   31  C   UNL     1       0.502   6.881 -27.816  1.00  0.00     0.039 A 
HETATM   32  C   UNL     1       1.095   8.140 -27.915  1.00  0.00     0.071 A 
HETATM   33  C   UNL     1       0.686   9.166 -27.066  1.00  0.00     0.118 A 
HETATM   34  F   UNL     1       1.272  10.367 -27.162  1.00  0.00    -0.206 F 
HETATM   35  C   UNL     1      -0.320   8.972 -26.128  1.00  0.00     0.042 A 
HETATM   36  C   UNL     1      -0.944   7.732 -26.048  1.00  0.00     0.005 A 
HETATM   37  C   UNL     1      -0.539   6.695 -26.896  1.00  0.00     0.030 A 
ENDBRANCH  27  31
ENDBRANCH  24  25
ENDBRANCH   4  24
TORSDOF 7
ENDMDL
MODEL 4
REMARK VINA RESULT:      -9.5      3.669      5.440
REMARK  7 active torsions:
REMARK  status: ('A' for Active; 'I' for Inactive)
REMARK    1  A    between atoms: C_4  and  N_5 
REMARK    2  A    between atoms: C_6  and  S_7 
REMARK    3  A    between atoms: S_7  and  C_8 
REMARK    4  A    between atoms: C_8  and  C_9 
REMARK       I    between atoms: C_9  and  N_10 
REMARK    5  A    between atoms: C_12  and  C_13 
REMARK    6  A    between atoms: C_13  and  N_14 
REMARK       I    between atoms: N_14  and  C_15 
REMARK       I    between atoms: C_15  and  N_16 
REMARK    7  A    between atoms: N_16  and  C_17 
ROOT
HETATM    1  C   UNL     1      -3.564   3.699 -31.370  1.00  0.00     0.229 C 
HETATM    2  N   UNL     1      -4.076   2.417 -31.113  1.00  0.00    -0.351 N 
HETATM    3  C   UNL     1      -5.258   2.181 -30.290  1.00  0.00     0.132 C 
HETATM    4  C   UNL     1      -5.930   0.820 -30.509  1.00  0.00     0.021 C 
HETATM    5  C   UNL     1      -4.896  -0.313 -30.512  1.00  0.00     0.009 C 
HETATM    6  C   UNL     1      -3.738  -0.021 -31.455  1.00  0.00     0.020 C 
HETATM    7  C   UNL     1      -3.100   1.326 -31.140  1.00  0.00     0.126 C 
HETATM    8  O   UNL     1      -2.408   3.839 -31.791  1.00  0.00    -0.273 OA
ENDROOT
BRANCH   1   9
HETATM    9  C   UNL     1      -4.478   4.918 -31.343  1.00  0.00     0.185 C 
BRANCH   9  10
HETATM   10  S   UNL     1      -4.543   5.941 -29.858  1.00  0.00    -0.082 SA
BRANCH  10  11
HETATM   11  C   UNL     1      -4.497   7.570 -30.442  1.00  0.00     0.173 A 
HETATM   12  N   UNL     1      -3.324   8.288 -30.667  1.00  0.00    -0.299 N 
HETATM   13  C   UNL     1      -3.745   9.562 -31.001  1.00  0.00     0.118 A 
HETATM   14  C   UNL     1      -5.117   9.544 -30.956  1.00  0.00     0.137 A 
HETATM   15  N   UNL     1      -5.571   8.309 -30.599  1.00  0.00    -0.235 NA
BRANCH  12  16
HETATM   16  C   UNL     1      -1.965   7.848 -30.672  1.00  0.00     0.047 A 
HETATM   17  C   UNL     1      -1.219   7.955 -29.482  1.00  0.00     0.037 A 
HETATM   18  C   UNL     1       0.098   7.487 -29.400  1.00  0.00    -0.060 A 
HETATM   19  C   UNL     1       0.887   7.640 -28.131  1.00  0.00     0.048 C 
HETATM   20  C   UNL     1       0.681   6.913 -30.528  1.00  0.00     0.007 A 
HETATM   21  C   UNL     1      -0.047   6.801 -31.715  1.00  0.00     0.009 A 
HETATM   22  C   UNL     1      -1.368   7.277 -31.815  1.00  0.00    -0.035 A 
HETATM   23  C   UNL     1      -2.031   7.178 -33.162  1.00  0.00     0.050 C 
ENDBRANCH  12  16
ENDBRANCH  10  11
ENDBRANCH   9  10
ENDBRANCH   1   9
BRANCH   4  24
HETATM   24  C   UNL     1      -6.793   0.869 -31.783  1.00  0.00     0.130 C 
BRANCH  24  25
HETATM   25  N   UNL     1      -6.460  -0.151 -32.761  1.00  0.00    -0.342 N 
HETATM   26  C   UNL     1      -6.566   0.089 -34.099  1.00  0.00     0.320 C 
HETATM   27  N   UNL     1      -6.132  -0.886 -34.946  1.00  0.00    -0.309 N 
HETATM   28  O   UNL     1      -6.975   1.150 -34.564  1.00  0.00    -0.247 OA
HETATM   29  H   UNL     1      -6.073  -0.532 -35.894  1.00  0.00     0.170 HD
HETATM   30  H   UNL     1      -5.655  -0.714 -32.531  1.00  0.00     0.164 HD
BRANCH  27  31
HETATM   31  C   UNL     1      -5.782  -2.235 -34.755  1.00  0.00     0.039 A 
HETATM   32  C   UNL     1      -4.532  -2.672 -34.312  1.00  0.00     0.071 A 
HETATM   33  C   UNL     1      -4.285  -4.036 -34.175  1.00  0.00     0.118 A 
HETATM   34  F   UNL     1      -3.078  -4.444 -33.762  1.00  0.00    -0.206 F 
HETATM   35  C   UNL     1      -5.265  -4.981 -34.452  1.00  0.00     0.042 A 
HETATM   36  C   UNL     1      -6.525  -4.554 -34.857  1.00  0.00     0.005 A 
HETATM   37  C   UNL     1      -6.783  -3.187 -34.998  1.00  0.00     0.030 A 
ENDBRANCH  27  31
ENDBRANCH  24  25
ENDBRANCH   4  24
TORSDOF 7
ENDMDL
MODEL 5
REMARK VINA RESULT:      -9.5      4.391     10.163
REMARK  7 active torsions:
REMARK  status: ('A' for Active; 'I' for Inactive)
REMARK    1  A    between atoms: C_4  and  N_5 
REMARK    2  A    between atoms: C_6  and  S_7 
REMARK    3  A    between atoms: S_7  and  C_8 
REMARK    4  A    between atoms: C_8  and  C_9 
REMARK       I    between atoms: C_9  and  N_10 
REMARK    5  A    between atoms: C_12  and  C_13 
REMARK    6  A    between atoms: C_13  and  N_14 
REMARK       I    between atoms: N_14  and  C_15 
REMARK       I    between atoms: C_15  and  N_16 
REMARK    7  A    between atoms: N_16  and  C_17 
ROOT
HETATM    1  C   UNL     1      -3.276   3.966 -31.795  1.00  0.00     0.229 C 
HETATM    2  N   UNL     1      -2.519   5.122 -32.041  1.00  0.00    -0.351 N 
HETATM    3  C   UNL     1      -2.954   6.182 -32.944  1.00  0.00     0.132 C 
HETATM    4  C   UNL     1      -2.263   7.534 -32.726  1.00  0.00     0.021 C 
HETATM    5  C   UNL     1      -0.744   7.364 -32.598  1.00  0.00     0.009 C 
HETATM    6  C   UNL     1      -0.377   6.294 -31.581  1.00  0.00     0.020 C 
HETATM    7  C   UNL     1      -1.069   4.974 -31.896  1.00  0.00     0.126 C 
HETATM    8  O   UNL     1      -2.747   2.966 -31.291  1.00  0.00    -0.273 OA
ENDROOT
BRANCH   1   9
HETATM    9  C   UNL     1      -4.793   3.987 -31.940  1.00  0.00     0.185 C 
BRANCH   9  10
HETATM   10  S   UNL     1      -5.573   2.973 -33.211  1.00  0.00    -0.082 SA
BRANCH  10  11
HETATM   11  C   UNL     1      -6.858   2.150 -32.393  1.00  0.00     0.173 A 
HETATM   12  N   UNL     1      -7.103   0.783 -32.497  1.00  0.00    -0.299 N 
HETATM   13  C   UNL     1      -8.277   0.576 -31.796  1.00  0.00     0.118 A 
HETATM   14  C   UNL     1      -8.668   1.804 -31.322  1.00  0.00     0.137 A 
HETATM   15  N   UNL     1      -7.789   2.772 -31.707  1.00  0.00    -0.235 NA
BRANCH  12  16
HETATM   16  C   UNL     1      -6.312  -0.250 -33.090  1.00  0.00     0.047 A 
HETATM   17  C   UNL     1      -5.243  -0.788 -32.348  1.00  0.00     0.037 A 
HETATM   18  C   UNL     1      -4.468  -1.843 -32.843  1.00  0.00    -0.060 A 
HETATM   19  C   UNL     1      -3.311  -2.381 -32.050  1.00  0.00     0.048 C 
HETATM   20  C   UNL     1      -4.759  -2.359 -34.105  1.00  0.00     0.007 A 
HETATM   21  C   UNL     1      -5.816  -1.834 -34.852  1.00  0.00     0.009 A 
HETATM   22  C   UNL     1      -6.597  -0.767 -34.371  1.00  0.00    -0.035 A 
HETATM   23  C   UNL     1      -7.658  -0.226 -35.290  1.00  0.00     0.050 C 
ENDBRANCH  12  16
ENDBRANCH  10  11
ENDBRANCH   9  10
ENDBRANCH   1   9
BRANCH   4  24
HETATM   24  C   UNL     1      -2.904   8.254 -31.525  1.00  0.00     0.130 C 
BRANCH  24  25
HETATM   25  N   UNL     1      -2.195   8.061 -30.273  1.00  0.00    -0.342 N 
HETATM   26  C   UNL     1      -2.727   7.313 -29.266  1.00  0.00     0.320 C 
HETATM   27  N   UNL     1      -1.949   7.096 -28.169  1.00  0.00    -0.309 N 
HETATM   28  O   UNL     1      -3.837   6.790 -29.327  1.00  0.00    -0.247 OA
HETATM   29  H   UNL     1      -2.357   6.380 -27.579  1.00  0.00     0.170 HD
HETATM   30  H   UNL     1      -1.198   7.935 -30.365  1.00  0.00     0.164 HD
BRANCH  27  31
HETATM   31  C   UNL     1      -0.745   7.670 -27.719  1.00  0.00     0.039 A 
HETATM   32  C   UNL     1      -0.539   9.040 -27.545  1.00  0.00     0.071 A 
HETATM   33  C   UNL     1       0.701   9.503 -27.113  1.00  0.00     0.118 A 
HETATM   34  F   UNL     1       0.891  10.820 -26.961  1.00  0.00    -0.206 F 
HETATM   35  C   UNL     1       1.743   8.628 -26.829  1.00  0.00     0.042 A 
HETATM   36  C   UNL     1       1.536   7.260 -26.963  1.00  0.00     0.005 A 
HETATM   37  C   UNL     1       0.294   6.785 -27.397  1.00  0.00     0.030 A 
ENDBRANCH  27  31
ENDBRANCH  24  25
ENDBRANCH   4  24
TORSDOF 7
ENDMDL
MODEL 6
REMARK VINA RESULT:      -9.4      2.546      3.602
REMARK  7 active torsions:
REMARK  status: ('A' for Active; 'I' for Inactive)
REMARK    1  A    between atoms: C_4  and  N_5 
REMARK    2  A    between atoms: C_6  and  S_7 
REMARK    3  A    between atoms: S_7  and  C_8 
REMARK    4  A    between atoms: C_8  and  C_9 
REMARK       I    between atoms: C_9  and  N_10 
REMARK    5  A    between atoms: C_12  and  C_13 
REMARK    6  A    between atoms: C_13  and  N_14 
REMARK       I    between atoms: N_14  and  C_15 
REMARK       I    between atoms: C_15  and  N_16 
REMARK    7  A    between atoms: N_16  and  C_17 
ROOT
HETATM    1  C   UNL     1      -3.971   0.018 -32.328  1.00  0.00     0.229 C 
HETATM    2  N   UNL     1      -5.059  -0.627 -32.936  1.00  0.00    -0.351 N 
HETATM    3  C   UNL     1      -6.374  -0.731 -32.311  1.00  0.00     0.132 C 
HETATM    4  C   UNL     1      -7.523  -1.027 -33.283  1.00  0.00     0.021 C 
HETATM    5  C   UNL     1      -7.160  -2.170 -34.239  1.00  0.00     0.009 C 
HETATM    6  C   UNL     1      -5.811  -1.944 -34.905  1.00  0.00     0.020 C 
HETATM    7  C   UNL     1      -4.719  -1.703 -33.869  1.00  0.00     0.126 C 
HETATM    8  O   UNL     1      -2.817  -0.187 -32.729  1.00  0.00    -0.273 OA
ENDROOT
BRANCH   1   9
HETATM    9  C   UNL     1      -4.198   1.136 -31.317  1.00  0.00     0.185 C 
BRANCH   9  10
HETATM   10  S   UNL     1      -3.393   2.731 -31.568  1.00  0.00    -0.082 SA
BRANCH  10  11
HETATM   11  C   UNL     1      -4.349   3.523 -32.774  1.00  0.00     0.173 A 
HETATM   12  N   UNL     1      -4.172   4.848 -33.167  1.00  0.00    -0.299 N 
HETATM   13  C   UNL     1      -5.211   5.102 -34.043  1.00  0.00     0.118 A 
HETATM   14  C   UNL     1      -5.943   3.944 -34.125  1.00  0.00     0.137 A 
HETATM   15  N   UNL     1      -5.406   2.977 -33.328  1.00  0.00    -0.235 NA
BRANCH  12  16
HETATM   16  C   UNL     1      -3.121   5.765 -32.857  1.00  0.00     0.047 A 
HETATM   17  C   UNL     1      -3.252   6.576 -31.712  1.00  0.00     0.037 A 
HETATM   18  C   UNL     1      -2.234   7.451 -31.317  1.00  0.00    -0.060 A 
HETATM   19  C   UNL     1      -2.406   8.331 -30.112  1.00  0.00     0.048 C 
HETATM   20  C   UNL     1      -1.072   7.525 -32.083  1.00  0.00     0.007 A 
HETATM   21  C   UNL     1      -0.929   6.728 -33.221  1.00  0.00     0.009 A 
HETATM   22  C   UNL     1      -1.949   5.851 -33.636  1.00  0.00    -0.035 A 
HETATM   23  C   UNL     1      -1.724   5.098 -34.920  1.00  0.00     0.050 C 
ENDBRANCH  12  16
ENDBRANCH  10  11
ENDBRANCH   9  10
ENDBRANCH   1   9
BRANCH   4  24
HETATM   24  C   UNL     1      -7.937   0.270 -34.004  1.00  0.00     0.130 C 
BRANCH  24  25
HETATM   25  N   UNL     1      -8.110   1.408 -33.118  1.00  0.00    -0.342 N 
HETATM   26  C   UNL     1      -9.338   1.748 -32.634  1.00  0.00     0.320 C 
HETATM   27  N   UNL     1      -9.395   2.762 -31.726  1.00  0.00    -0.309 N 
HETATM   28  O   UNL     1     -10.371   1.153 -32.934  1.00  0.00    -0.247 OA
HETATM   29  H   UNL     1     -10.310   2.801 -31.293  1.00  0.00     0.170 HD
HETATM   30  H   UNL     1      -7.377   1.531 -32.435  1.00  0.00     0.164 HD
BRANCH  27  31
HETATM   31  C   UNL     1      -8.461   3.730 -31.312  1.00  0.00     0.039 A 
HETATM   32  C   UNL     1      -7.407   3.485 -30.430  1.00  0.00     0.071 A 
HETATM   33  C   UNL     1      -6.551   4.523 -30.071  1.00  0.00     0.118 A 
HETATM   34  F   UNL     1      -5.551   4.279 -29.214  1.00  0.00    -0.206 F 
HETATM   35  C   UNL     1      -6.707   5.804 -30.588  1.00  0.00     0.042 A 
HETATM   36  C   UNL     1      -7.731   6.049 -31.496  1.00  0.00     0.005 A 
HETATM   37  C   UNL     1      -8.597   5.013 -31.863  1.00  0.00     0.030 A 
ENDBRANCH  27  31
ENDBRANCH  24  25
ENDBRANCH   4  24
TORSDOF 7
ENDMDL
MODEL 7
REMARK VINA RESULT:      -9.4      3.442      5.763
REMARK  7 active torsions:
REMARK  status: ('A' for Active; 'I' for Inactive)
REMARK    1  A    between atoms: C_4  and  N_5 
REMARK    2  A    between atoms: C_6  and  S_7 
REMARK    3  A    between atoms: S_7  and  C_8 
REMARK    4  A    between atoms: C_8  and  C_9 
REMARK       I    between atoms: C_9  and  N_10 
REMARK    5  A    between atoms: C_12  and  C_13 
REMARK    6  A    between atoms: C_13  and  N_14 
REMARK       I    between atoms: N_14  and  C_15 
REMARK       I    between atoms: C_15  and  N_16 
REMARK    7  A    between atoms: N_16  and  C_17 
ROOT
HETATM    1  C   UNL     1      -3.871   3.149 -31.338  1.00  0.00     0.229 C 
HETATM    2  N   UNL     1      -4.679   2.015 -31.162  1.00  0.00    -0.351 N 
HETATM    3  C   UNL     1      -6.068   2.087 -30.720  1.00  0.00     0.132 C 
HETATM    4  C   UNL     1      -6.907   0.844 -31.039  1.00  0.00     0.021 C 
HETATM    5  C   UNL     1      -6.163  -0.441 -30.654  1.00  0.00     0.009 C 
HETATM    6  C   UNL     1      -4.751  -0.468 -31.221  1.00  0.00     0.020 C 
HETATM    7  C   UNL     1      -3.973   0.779 -30.819  1.00  0.00     0.126 C 
HETATM    8  O   UNL     1      -2.639   3.037 -31.399  1.00  0.00    -0.273 OA
ENDROOT
BRANCH   1   9
HETATM    9  C   UNL     1      -4.493   4.500 -31.670  1.00  0.00     0.185 C 
BRANCH   9  10
HETATM   10  S   UNL     1      -3.805   5.996 -30.932  1.00  0.00    -0.082 SA
BRANCH  10  11
HETATM   11  C   UNL     1      -2.575   6.508 -32.037  1.00  0.00     0.173 A 
HETATM   12  N   UNL     1      -1.371   7.093 -31.652  1.00  0.00    -0.299 N 
HETATM   13  C   UNL     1      -0.755   7.455 -32.836  1.00  0.00     0.118 A 
HETATM   14  C   UNL     1      -1.604   7.080 -33.847  1.00  0.00     0.137 A 
HETATM   15  N   UNL     1      -2.731   6.504 -33.341  1.00  0.00    -0.235 NA
BRANCH  12  16
HETATM   16  C   UNL     1      -0.791   7.231 -30.353  1.00  0.00     0.047 A 
HETATM   17  C   UNL     1      -1.169   8.332 -29.560  1.00  0.00     0.037 A 
HETATM   18  C   UNL     1      -0.687   8.495 -28.257  1.00  0.00    -0.060 A 
HETATM   19  C   UNL     1      -1.076   9.693 -27.440  1.00  0.00     0.048 C 
HETATM   20  C   UNL     1       0.196   7.547 -27.742  1.00  0.00     0.007 A 
HETATM   21  C   UNL     1       0.580   6.450 -28.516  1.00  0.00     0.009 A 
HETATM   22  C   UNL     1       0.111   6.280 -29.832  1.00  0.00    -0.035 A 
HETATM   23  C   UNL     1       0.650   5.107 -30.605  1.00  0.00     0.050 C 
ENDBRANCH  12  16
ENDBRANCH  10  11
ENDBRANCH   9  10
ENDBRANCH   1   9
BRANCH   4  24
HETATM   24  C   UNL     1      -7.346   0.882 -32.515  1.00  0.00     0.130 C 
BRANCH  24  25
HETATM   25  N   UNL     1      -6.833  -0.219 -33.312  1.00  0.00    -0.342 N 
HETATM   26  C   UNL     1      -6.925  -0.211 -34.672  1.00  0.00     0.320 C 
HETATM   27  N   UNL     1      -6.323  -1.231 -35.346  1.00  0.00    -0.309 N 
HETATM   28  O   UNL     1      -7.470   0.689 -35.307  1.00  0.00    -0.247 OA
HETATM   29  H   UNL     1      -6.284  -1.027 -36.338  1.00  0.00     0.170 HD
HETATM   30  H   UNL     1      -5.962  -0.610 -32.984  1.00  0.00     0.164 HD
BRANCH  27  31
HETATM   31  C   UNL     1      -5.785  -2.465 -34.935  1.00  0.00     0.039 A 
HETATM   32  C   UNL     1      -4.596  -2.609 -34.219  1.00  0.00     0.071 A 
HETATM   33  C   UNL     1      -4.143  -3.882 -33.880  1.00  0.00     0.118 A 
HETATM   34  F   UNL     1      -2.994  -4.009 -33.203  1.00  0.00    -0.206 F 
HETATM   35  C   UNL     1      -4.862  -5.022 -34.221  1.00  0.00     0.042 A 
HETATM   36  C   UNL     1      -6.067  -4.886 -34.901  1.00  0.00     0.005 A 
HETATM   37  C   UNL     1      -6.529  -3.612 -35.247  1.00  0.00     0.030 A 
ENDBRANCH  27  31
ENDBRANCH  24  25
ENDBRANCH   4  24
TORSDOF 7
ENDMDL
MODEL 8
REMARK VINA RESULT:      -9.4      3.149      7.051
REMARK  7 active torsions:
REMARK  status: ('A' for Active; 'I' for Inactive)
REMARK    1  A    between atoms: C_4  and  N_5 
REMARK    2  A    between atoms: C_6  and  S_7 
REMARK    3  A    between atoms: S_7  and  C_8 
REMARK    4  A    between atoms: C_8  and  C_9 
REMARK       I    between atoms: C_9  and  N_10 
REMARK    5  A    between atoms: C_12  and  C_13 
REMARK    6  A    between atoms: C_13  and  N_14 
REMARK       I    between atoms: N_14  and  C_15 
REMARK       I    between atoms: C_15  and  N_16 
REMARK    7  A    between atoms: N_16  and  C_17 
ROOT
HETATM    1  C   UNL     1      -4.538   3.971 -32.317  1.00  0.00     0.229 C 
HETATM    2  N   UNL     1      -4.601   2.692 -31.740  1.00  0.00    -0.351 N 
HETATM    3  C   UNL     1      -5.391   2.394 -30.549  1.00  0.00     0.132 C 
HETATM    4  C   UNL     1      -5.718   0.908 -30.354  1.00  0.00     0.021 C 
HETATM    5  C   UNL     1      -4.472   0.036 -30.550  1.00  0.00     0.009 C 
HETATM    6  C   UNL     1      -3.753   0.360 -31.851  1.00  0.00     0.020 C 
HETATM    7  C   UNL     1      -3.425   1.845 -31.944  1.00  0.00     0.126 C 
HETATM    8  O   UNL     1      -3.631   4.256 -33.110  1.00  0.00    -0.273 OA
ENDROOT
BRANCH   1   9
HETATM    9  C   UNL     1      -5.690   4.955 -32.149  1.00  0.00     0.185 C 
BRANCH   9  10
HETATM   10  S   UNL     1      -7.193   4.728 -33.121  1.00  0.00    -0.082 SA
BRANCH  10  11
HETATM   11  C   UNL     1      -8.484   5.115 -32.035  1.00  0.00     0.173 A 
HETATM   12  N   UNL     1      -9.768   4.584 -32.125  1.00  0.00    -0.299 N 
HETATM   13  C   UNL     1     -10.498   5.248 -31.156  1.00  0.00     0.118 A 
HETATM   14  C   UNL     1      -9.633   6.127 -30.552  1.00  0.00     0.137 A 
HETATM   15  N   UNL     1      -8.393   6.043 -31.110  1.00  0.00    -0.235 NA
BRANCH  12  16
HETATM   16  C   UNL     1     -10.267   3.521 -32.939  1.00  0.00     0.047 A 
HETATM   17  C   UNL     1     -10.025   2.193 -32.536  1.00  0.00     0.037 A 
HETATM   18  C   UNL     1     -10.537   1.106 -33.252  1.00  0.00    -0.060 A 
HETATM   19  C   UNL     1     -10.239  -0.302 -32.824  1.00  0.00     0.048 C 
HETATM   20  C   UNL     1     -11.295   1.350 -34.396  1.00  0.00     0.007 A 
HETATM   21  C   UNL     1     -11.544   2.661 -34.808  1.00  0.00     0.009 A 
HETATM   22  C   UNL     1     -11.026   3.764 -34.103  1.00  0.00    -0.035 A 
HETATM   23  C   UNL     1     -11.287   5.129 -34.679  1.00  0.00     0.050 C 
ENDBRANCH  12  16
ENDBRANCH  10  11
ENDBRANCH   9  10
ENDBRANCH   1   9
BRANCH   4  24
HETATM   24  C   UNL     1      -6.894   0.514 -31.266  1.00  0.00     0.130 C 
BRANCH  24  25
HETATM   25  N   UNL     1      -6.527  -0.381 -32.349  1.00  0.00    -0.342 N 
HETATM   26  C   UNL     1      -6.582   0.022 -33.650  1.00  0.00     0.320 C 
HETATM   27  N   UNL     1      -6.119  -0.844 -34.594  1.00  0.00    -0.309 N 
HETATM   28  O   UNL     1      -6.973   1.134 -33.997  1.00  0.00    -0.247 OA
HETATM   29  H   UNL     1      -6.024  -0.377 -35.489  1.00  0.00     0.170 HD
HETATM   30  H   UNL     1      -5.732  -0.973 -32.160  1.00  0.00     0.164 HD
BRANCH  27  31
HETATM   31  C   UNL     1      -5.777  -2.209 -34.557  1.00  0.00     0.039 A 
HETATM   32  C   UNL     1      -4.526  -2.701 -34.182  1.00  0.00     0.071 A 
HETATM   33  C   UNL     1      -4.289  -4.073 -34.200  1.00  0.00     0.118 A 
HETATM   34  F   UNL     1      -3.081  -4.533 -33.850  1.00  0.00    -0.206 F 
HETATM   35  C   UNL     1      -5.281  -4.975 -34.565  1.00  0.00     0.042 A 
HETATM   36  C   UNL     1      -6.542  -4.497 -34.903  1.00  0.00     0.005 A 
HETATM   37  C   UNL     1      -6.790  -3.120 -34.890  1.00  0.00     0.030 A 
ENDBRANCH  27  31
ENDBRANCH  24  25
ENDBRANCH   4  24
TORSDOF 7
ENDMDL
MODEL 9
REMARK VINA RESULT:      -9.4      2.253      7.854
REMARK  7 active torsions:
REMARK  status: ('A' for Active; 'I' for Inactive)
REMARK    1  A    between atoms: C_4  and  N_5 
REMARK    2  A    between atoms: C_6  and  S_7 
REMARK    3  A    between atoms: S_7  and  C_8 
REMARK    4  A    between atoms: C_8  and  C_9 
REMARK       I    between atoms: C_9  and  N_10 
REMARK    5  A    between atoms: C_12  and  C_13 
REMARK    6  A    between atoms: C_13  and  N_14 
REMARK       I    between atoms: N_14  and  C_15 
REMARK       I    between atoms: C_15  and  N_16 
REMARK    7  A    between atoms: N_16  and  C_17 
ROOT
HETATM    1  C   UNL     1      -7.031   4.211 -33.473  1.00  0.00     0.229 C 
HETATM    2  N   UNL     1      -5.841   4.451 -32.768  1.00  0.00    -0.351 N 
HETATM    3  C   UNL     1      -5.436   3.675 -31.600  1.00  0.00     0.132 C 
HETATM    4  C   UNL     1      -3.941   3.752 -31.267  1.00  0.00     0.021 C 
HETATM    5  C   UNL     1      -3.441   5.202 -31.296  1.00  0.00     0.009 C 
HETATM    6  C   UNL     1      -3.840   5.913 -32.581  1.00  0.00     0.020 C 
HETATM    7  C   UNL     1      -5.344   5.828 -32.812  1.00  0.00     0.126 C 
HETATM    8  O   UNL     1      -7.490   5.069 -34.239  1.00  0.00    -0.273 OA
ENDROOT
BRANCH   1   9
HETATM    9  C   UNL     1      -7.662   2.823 -33.479  1.00  0.00     0.185 C 
BRANCH   9  10
HETATM   10  S   UNL     1      -8.615   2.280 -32.047  1.00  0.00    -0.082 SA
BRANCH  10  11
HETATM   11  C   UNL     1      -9.690   3.594 -31.708  1.00  0.00     0.173 A 
HETATM   12  N   UNL     1     -10.822   3.894 -32.463  1.00  0.00    -0.299 N 
HETATM   13  C   UNL     1     -11.306   5.073 -31.926  1.00  0.00     0.118 A 
HETATM   14  C   UNL     1     -10.457   5.413 -30.903  1.00  0.00     0.137 A 
HETATM   15  N   UNL     1      -9.455   4.497 -30.784  1.00  0.00    -0.235 NA
BRANCH  12  16
HETATM   16  C   UNL     1     -11.456   3.147 -33.503  1.00  0.00     0.047 A 
HETATM   17  C   UNL     1     -12.135   1.961 -33.163  1.00  0.00     0.037 A 
HETATM   18  C   UNL     1     -12.829   1.215 -34.122  1.00  0.00    -0.060 A 
HETATM   19  C   UNL     1     -13.519  -0.064 -33.745  1.00  0.00     0.048 C 
HETATM   20  C   UNL     1     -12.836   1.656 -35.444  1.00  0.00     0.007 A 
HETATM   21  C   UNL     1     -12.167   2.831 -35.796  1.00  0.00     0.009 A 
HETATM   22  C   UNL     1     -11.456   3.585 -34.844  1.00  0.00    -0.035 A 
HETATM   23  C   UNL     1     -10.705   4.789 -35.346  1.00  0.00     0.050 C 
ENDBRANCH  12  16
ENDBRANCH  10  11
ENDBRANCH   9  10
ENDBRANCH   1   9
BRANCH   4  24
HETATM   24  C   UNL     1      -3.155   2.811 -32.199  1.00  0.00     0.130 C 
BRANCH  24  25
HETATM   25  N   UNL     1      -3.768   1.506 -32.373  1.00  0.00    -0.342 N 
HETATM   26  C   UNL     1      -3.329   0.419 -31.676  1.00  0.00     0.320 C 
HETATM   27  N   UNL     1      -4.028  -0.741 -31.820  1.00  0.00    -0.309 N 
HETATM   28  O   UNL     1      -2.381   0.456 -30.894  1.00  0.00    -0.247 OA
HETATM   29  H   UNL     1      -3.742  -1.417 -31.121  1.00  0.00     0.170 HD
HETATM   30  H   UNL     1      -4.771   1.518 -32.481  1.00  0.00     0.164 HD
BRANCH  27  31
HETATM   31  C   UNL     1      -5.018  -1.156 -32.730  1.00  0.00     0.039 A 
HETATM   32  C   UNL     1      -6.336  -0.699 -32.727  1.00  0.00     0.071 A 
HETATM   33  C   UNL     1      -7.242  -1.192 -33.663  1.00  0.00     0.118 A 
HETATM   34  F   UNL     1      -8.508  -0.755 -33.643  1.00  0.00    -0.206 F 
HETATM   35  C   UNL     1      -6.858  -2.122 -34.622  1.00  0.00     0.042 A 
HETATM   36  C   UNL     1      -5.537  -2.555 -34.657  1.00  0.00     0.005 A 
HETATM   37  C   UNL     1      -4.621  -2.066 -33.721  1.00  0.00     0.030 A 
ENDBRANCH  27  31
ENDBRANCH  24  25
ENDBRANCH   4  24
TORSDOF 7
ENDMDL
MODEL 10
REMARK VINA RESULT:      -9.3      4.326      7.300
REMARK  7 active torsions:
REMARK  status: ('A' for Active; 'I' for Inactive)
REMARK    1  A    between atoms: C_4  and  N_5 
REMARK    2  A    between atoms: C_6  and  S_7 
REMARK    3  A    between atoms: S_7  and  C_8 
REMARK    4  A    between atoms: C_8  and  C_9 
REMARK       I    between atoms: C_9  and  N_10 
REMARK    5  A    between atoms: C_12  and  C_13 
REMARK    6  A    between atoms: C_13  and  N_14 
REMARK       I    between atoms: N_14  and  C_15 
REMARK       I    between atoms: C_15  and  N_16 
REMARK    7  A    between atoms: N_16  and  C_17 
ROOT
HETATM    1  C   UNL     1      -1.671   7.776 -31.807  1.00  0.00     0.229 C 
HETATM    2  N   UNL     1      -2.056   6.593 -32.458  1.00  0.00    -0.351 N 
HETATM    3  C   UNL     1      -1.606   5.270 -32.037  1.00  0.00     0.132 C 
HETATM    4  C   UNL     1      -2.474   4.109 -32.538  1.00  0.00     0.021 C 
HETATM    5  C   UNL     1      -2.782   4.253 -34.034  1.00  0.00     0.009 C 
HETATM    6  C   UNL     1      -3.318   5.636 -34.372  1.00  0.00     0.020 C 
HETATM    7  C   UNL     1      -2.375   6.727 -33.881  1.00  0.00     0.126 C 
HETATM    8  O   UNL     1      -1.805   8.872 -32.367  1.00  0.00    -0.273 OA
ENDROOT
BRANCH   1   9
HETATM    9  C   UNL     1      -1.288   7.759 -30.331  1.00  0.00     0.185 C 
BRANCH   9  10
HETATM   10  S   UNL     1      -2.016   8.976 -29.216  1.00  0.00    -0.082 SA
BRANCH  10  11
HETATM   11  C   UNL     1      -2.619   8.050 -27.884  1.00  0.00     0.173 A 
HETATM   12  N   UNL     1      -1.852   7.668 -26.786  1.00  0.00    -0.299 N 
HETATM   13  C   UNL     1      -2.681   6.849 -26.040  1.00  0.00     0.118 A 
HETATM   14  C   UNL     1      -3.873   6.782 -26.716  1.00  0.00     0.137 A 
HETATM   15  N   UNL     1      -3.820   7.520 -27.861  1.00  0.00    -0.235 NA
BRANCH  12  16
HETATM   16  C   UNL     1      -0.537   8.071 -26.398  1.00  0.00     0.047 A 
HETATM   17  C   UNL     1      -0.399   9.171 -25.530  1.00  0.00     0.037 A 
HETATM   18  C   UNL     1       0.855   9.580 -25.062  1.00  0.00    -0.060 A 
HETATM   19  C   UNL     1       0.984  10.775 -24.162  1.00  0.00     0.048 C 
HETATM   20  C   UNL     1       1.989   8.886 -25.479  1.00  0.00     0.007 A 
HETATM   21  C   UNL     1       1.867   7.794 -26.340  1.00  0.00     0.009 A 
HETATM   22  C   UNL     1       0.613   7.377 -26.827  1.00  0.00    -0.035 A 
HETATM   23  C   UNL     1       0.604   6.240 -27.812  1.00  0.00     0.050 C 
ENDBRANCH  12  16
ENDBRANCH  10  11
ENDBRANCH   9  10
ENDBRANCH   1   9
BRANCH   4  24
HETATM   24  C   UNL     1      -3.734   3.991 -31.659  1.00  0.00     0.130 C 
BRANCH  24  25
HETATM   25  N   UNL     1      -4.536   2.812 -31.935  1.00  0.00    -0.342 N 
HETATM   26  C   UNL     1      -5.311   2.241 -30.969  1.00  0.00     0.320 C 
HETATM   27  N   UNL     1      -6.112   1.204 -31.341  1.00  0.00    -0.309 N 
HETATM   28  O   UNL     1      -5.357   2.650 -29.811  1.00  0.00    -0.247 OA
HETATM   29  H   UNL     1      -6.777   0.988 -30.606  1.00  0.00     0.170 HD
HETATM   30  H   UNL     1      -4.978   2.801 -32.842  1.00  0.00     0.164 HD
BRANCH  27  31
HETATM   31  C   UNL     1      -6.172   0.407 -32.499  1.00  0.00     0.039 A 
HETATM   32  C   UNL     1      -6.991   0.670 -33.598  1.00  0.00     0.071 A 
HETATM   33  C   UNL     1      -6.986  -0.198 -34.687  1.00  0.00     0.118 A 
HETATM   34  F   UNL     1      -7.786   0.057 -35.731  1.00  0.00    -0.206 F 
HETATM   35  C   UNL     1      -6.165  -1.319 -34.717  1.00  0.00     0.042 A 
HETATM   36  C   UNL     1      -5.317  -1.568 -33.643  1.00  0.00     0.005 A 
HETATM   37  C   UNL     1      -5.316  -0.703 -32.544  1.00  0.00     0.030 A 
ENDBRANCH  27  31
ENDBRANCH  24  25
ENDBRANCH   4  24
TORSDOF 7
ENDMDL
