MODEL 1
REMARK VINA RESULT:      -8.2      0.000      0.000
REMARK  6 active torsions:
REMARK  status: ('A' for Active; 'I' for Inactive)
REMARK    1  A    between atoms: C_7  and  C_8 
REMARK    2  A    between atoms: C_8  and  N_9 
REMARK       I    between atoms: N_9  and  C_10 
REMARK       I    between atoms: C_10  and  N_11 
REMARK    3  A    between atoms: N_11  and  C_12 
REMARK    4  A    between atoms: C_14  and  C_15 
REMARK    5  A    between atoms: C_15  and  O_16 
REMARK    6  A    between atoms: O_16  and  C_17 
ROOT
HETATM    1  C   UNL     1      -4.184   3.083 -32.564  1.00  0.00     0.036 A 
HETATM    2  C   UNL     1      -2.966   3.744 -32.755  1.00  0.00     0.038 A 
HETATM    3  C   UNL     1      -2.847   4.768 -33.714  1.00  0.00    -0.032 A 
HETATM    4  C   UNL     1      -3.968   5.132 -34.471  1.00  0.00     0.009 A 
HETATM    5  C   UNL     1      -5.191   4.501 -34.266  1.00  0.00     0.003 A 
HETATM    6  C   UNL     1      -5.296   3.487 -33.315  1.00  0.00     0.029 A 
ENDROOT
BRANCH   1   7
HETATM    7  N   UNL     1      -4.409   2.056 -31.630  1.00  0.00    -0.309 N 
HETATM    8  C   UNL     1      -4.132   0.727 -31.601  1.00  0.00     0.320 C 
HETATM    9  N   UNL     1      -3.747   0.120 -32.751  1.00  0.00    -0.339 N 
HETATM   10  O   UNL     1      -4.283   0.115 -30.544  1.00  0.00    -0.247 OA
HETATM   11  H   UNL     1      -4.158   0.510 -33.585  1.00  0.00     0.164 HD
HETATM   12  H   UNL     1      -4.836   2.339 -30.756  1.00  0.00     0.170 HD
BRANCH   9  13
HETATM   13  C   UNL     1      -3.547  -1.309 -32.758  1.00  0.00     0.166 C 
BRANCH  13  14
HETATM   14  C   UNL     1      -4.571  -1.941 -33.626  1.00  0.00     0.003 A 
HETATM   15  C   UNL     1      -4.630  -3.251 -34.083  1.00  0.00     0.035 A 
HETATM   16  C   UNL     1      -3.690  -4.384 -33.886  1.00  0.00     0.070 C 
HETATM   17  N   UNL     1      -5.811  -3.351 -34.776  1.00  0.00    -0.278 N 
HETATM   18  C   UNL     1      -6.398  -4.522 -35.382  1.00  0.00     0.179 C 
HETATM   19  N   UNL     1      -6.485  -2.189 -34.849  1.00  0.00    -0.185 NA
HETATM   20  C   UNL     1      -5.743  -1.342 -34.137  1.00  0.00     0.149 A 
ENDBRANCH  13  14
ENDBRANCH   9  13
ENDBRANCH   1   7
BRANCH   3  21
HETATM   21  C   UNL     1      -1.524   5.451 -33.958  1.00  0.00     0.206 C 
BRANCH  21  22
HETATM   22  O   UNL     1      -0.822   5.565 -32.722  1.00  0.00    -0.381 OA
BRANCH  22  23
HETATM   23  C   UNL     1      -0.441   6.909 -32.411  1.00  0.00     0.121 C 
HETATM   24  C   UNL     1      -1.683   7.759 -32.111  1.00  0.00     0.032 C 
HETATM   25  C   UNL     1      -2.408   7.299 -30.845  1.00  0.00     0.002 C 
HETATM   26  C   UNL     1      -1.470   7.253 -29.643  1.00  0.00     0.000 C 
HETATM   27  C   UNL     1      -0.236   6.402 -29.926  1.00  0.00     0.002 C 
HETATM   28  C   UNL     1       0.487   6.862 -31.192  1.00  0.00     0.032 C 
ENDBRANCH  22  23
ENDBRANCH  21  22
ENDBRANCH   3  21
TORSDOF 6
ENDMDL
MODEL 2
REMARK VINA RESULT:      -8.0      3.272      8.956
REMARK  6 active torsions:
REMARK  status: ('A' for Active; 'I' for Inactive)
REMARK    1  A    between atoms: C_7  and  C_8 
REMARK    2  A    between atoms: C_8  and  N_9 
REMARK       I    between atoms: N_9  and  C_10 
REMARK       I    between atoms: C_10  and  N_11 
REMARK    3  A    between atoms: N_11  and  C_12 
REMARK    4  A    between atoms: C_14  and  C_15 
REMARK    5  A    between atoms: C_15  and  O_16 
REMARK    6  A    between atoms: O_16  and  C_17 
ROOT
HETATM    1  C   UNL     1      -3.800   4.911 -33.791  1.00  0.00     0.036 A 
HETATM    2  C   UNL     1      -3.403   3.840 -32.983  1.00  0.00     0.038 A 
HETATM    3  C   UNL     1      -4.314   2.825 -32.636  1.00  0.00    -0.032 A 
HETATM    4  C   UNL     1      -5.628   2.888 -33.119  1.00  0.00     0.009 A 
HETATM    5  C   UNL     1      -6.023   3.934 -33.948  1.00  0.00     0.003 A 
HETATM    6  C   UNL     1      -5.112   4.934 -34.283  1.00  0.00     0.029 A 
ENDROOT
BRANCH   1   7
HETATM    7  N   UNL     1      -2.967   5.967 -34.200  1.00  0.00    -0.309 N 
HETATM    8  C   UNL     1      -2.362   6.999 -33.556  1.00  0.00     0.320 C 
HETATM    9  N   UNL     1      -2.743   7.283 -32.286  1.00  0.00    -0.339 N 
HETATM   10  O   UNL     1      -1.523   7.663 -34.163  1.00  0.00    -0.247 OA
HETATM   11  H   UNL     1      -3.715   7.094 -32.092  1.00  0.00     0.164 HD
HETATM   12  H   UNL     1      -2.709   5.972 -35.180  1.00  0.00     0.170 HD
BRANCH   9  13
HETATM   13  C   UNL     1      -2.182   8.437 -31.626  1.00  0.00     0.166 C 
BRANCH  13  14
HETATM   14  C   UNL     1      -1.611   8.023 -30.321  1.00  0.00     0.003 A 
HETATM   15  C   UNL     1      -0.456   7.294 -30.073  1.00  0.00     0.035 A 
HETATM   16  C   UNL     1       0.519   6.682 -31.013  1.00  0.00     0.070 C 
HETATM   17  N   UNL     1      -0.326   7.252 -28.708  1.00  0.00    -0.278 N 
HETATM   18  C   UNL     1       0.750   6.691 -27.926  1.00  0.00     0.179 C 
HETATM   19  N   UNL     1      -1.343   7.848 -28.059  1.00  0.00    -0.185 NA
HETATM   20  C   UNL     1      -2.109   8.330 -29.036  1.00  0.00     0.149 A 
ENDBRANCH  13  14
ENDBRANCH   9  13
ENDBRANCH   1   7
BRANCH   3  21
HETATM   21  C   UNL     1      -3.905   1.693 -31.726  1.00  0.00     0.206 C 
BRANCH  21  22
HETATM   22  O   UNL     1      -3.801   0.493 -32.490  1.00  0.00    -0.381 OA
BRANCH  22  23
HETATM   23  C   UNL     1      -4.389  -0.640 -31.844  1.00  0.00     0.121 C 
HETATM   24  C   UNL     1      -5.920  -0.554 -31.908  1.00  0.00     0.032 C 
HETATM   25  C   UNL     1      -6.447  -0.655 -33.340  1.00  0.00     0.002 C 
HETATM   26  C   UNL     1      -5.937  -1.910 -34.041  1.00  0.00     0.000 C 
HETATM   27  C   UNL     1      -4.414  -2.001 -33.993  1.00  0.00     0.002 C 
HETATM   28  C   UNL     1      -3.890  -1.899 -32.561  1.00  0.00     0.032 C 
ENDBRANCH  22  23
ENDBRANCH  21  22
ENDBRANCH   3  21
TORSDOF 6
ENDMDL
MODEL 3
REMARK VINA RESULT:      -7.9      4.580      8.214
REMARK  6 active torsions:
REMARK  status: ('A' for Active; 'I' for Inactive)
REMARK    1  A    between atoms: C_7  and  C_8 
REMARK    2  A    between atoms: C_8  and  N_9 
REMARK       I    between atoms: N_9  and  C_10 
REMARK       I    between atoms: C_10  and  N_11 
REMARK    3  A    between atoms: N_11  and  C_12 
REMARK    4  A    between atoms: C_14  and  C_15 
REMARK    5  A    between atoms: C_15  and  O_16 
REMARK    6  A    between atoms: O_16  and  C_17 
ROOT
HETATM    1  C   UNL     1      -5.841   2.339 -32.236  1.00  0.00     0.036 A 
HETATM    2  C   UNL     1      -5.116   1.221 -32.663  1.00  0.00     0.038 A 
HETATM    3  C   UNL     1      -4.751   0.210 -31.755  1.00  0.00    -0.032 A 
HETATM    4  C   UNL     1      -5.133   0.326 -30.411  1.00  0.00     0.009 A 
HETATM    5  C   UNL     1      -5.880   1.419 -29.984  1.00  0.00     0.003 A 
HETATM    6  C   UNL     1      -6.233   2.414 -30.893  1.00  0.00     0.029 A 
ENDROOT
BRANCH   1   7
HETATM    7  N   UNL     1      -6.259   3.396 -33.063  1.00  0.00    -0.309 N 
HETATM    8  C   UNL     1      -7.435   3.724 -33.659  1.00  0.00     0.320 C 
HETATM    9  N   UNL     1      -8.420   2.793 -33.701  1.00  0.00    -0.339 N 
HETATM   10  O   UNL     1      -7.546   4.834 -34.176  1.00  0.00    -0.247 OA
HETATM   11  H   UNL     1      -8.092   1.842 -33.768  1.00  0.00     0.164 HD
HETATM   12  H   UNL     1      -5.567   4.114 -33.247  1.00  0.00     0.170 HD
BRANCH   9  13
HETATM   13  C   UNL     1      -9.637   3.090 -34.418  1.00  0.00     0.166 C 
BRANCH  13  14
HETATM   14  C   UNL     1     -10.661   2.069 -34.086  1.00  0.00     0.003 A 
HETATM   15  C   UNL     1     -12.009   2.054 -34.420  1.00  0.00     0.035 A 
HETATM   16  C   UNL     1     -12.831   3.049 -35.155  1.00  0.00     0.070 C 
HETATM   17  N   UNL     1     -12.496   0.859 -33.953  1.00  0.00    -0.278 N 
HETATM   18  C   UNL     1     -13.820   0.307 -34.112  1.00  0.00     0.179 C 
HETATM   19  N   UNL     1     -11.576   0.132 -33.292  1.00  0.00    -0.185 NA
HETATM   20  C   UNL     1     -10.463   0.857 -33.390  1.00  0.00     0.149 A 
ENDBRANCH  13  14
ENDBRANCH   9  13
ENDBRANCH   1   7
BRANCH   3  21
HETATM   21  C   UNL     1      -3.928  -0.973 -32.201  1.00  0.00     0.206 C 
BRANCH  21  22
HETATM   22  O   UNL     1      -4.790  -1.947 -32.785  1.00  0.00    -0.381 OA
BRANCH  22  23
HETATM   23  C   UNL     1      -4.715  -1.983 -34.214  1.00  0.00     0.121 C 
HETATM   24  C   UNL     1      -4.177  -3.341 -34.684  1.00  0.00     0.032 C 
HETATM   25  C   UNL     1      -5.133  -4.489 -34.356  1.00  0.00     0.002 C 
HETATM   26  C   UNL     1      -6.533  -4.232 -34.904  1.00  0.00     0.000 C 
HETATM   27  C   UNL     1      -7.083  -2.889 -34.434  1.00  0.00     0.002 C 
HETATM   28  C   UNL     1      -6.126  -1.743 -34.763  1.00  0.00     0.032 C 
ENDBRANCH  22  23
ENDBRANCH  21  22
ENDBRANCH   3  21
TORSDOF 6
ENDMDL
MODEL 4
REMARK VINA RESULT:      -7.9      1.704      2.252
REMARK  6 active torsions:
REMARK  status: ('A' for Active; 'I' for Inactive)
REMARK    1  A    between atoms: C_7  and  C_8 
REMARK    2  A    between atoms: C_8  and  N_9 
REMARK       I    between atoms: N_9  and  C_10 
REMARK       I    between atoms: C_10  and  N_11 
REMARK    3  A    between atoms: N_11  and  C_12 
REMARK    4  A    between atoms: C_14  and  C_15 
REMARK    5  A    between atoms: C_15  and  O_16 
REMARK    6  A    between atoms: O_16  and  C_17 
ROOT
HETATM    1  C   UNL     1      -5.683   3.081 -33.143  1.00  0.00     0.036 A 
HETATM    2  C   UNL     1      -4.532   3.127 -32.350  1.00  0.00     0.038 A 
HETATM    3  C   UNL     1      -3.504   4.047 -32.626  1.00  0.00    -0.032 A 
HETATM    4  C   UNL     1      -3.648   4.933 -33.703  1.00  0.00     0.009 A 
HETATM    5  C   UNL     1      -4.803   4.915 -34.479  1.00  0.00     0.003 A 
HETATM    6  C   UNL     1      -5.813   3.998 -34.196  1.00  0.00     0.029 A 
ENDROOT
BRANCH   1   7
HETATM    7  N   UNL     1      -6.768   2.208 -32.946  1.00  0.00    -0.309 N 
HETATM    8  C   UNL     1      -7.037   0.932 -33.326  1.00  0.00     0.320 C 
HETATM    9  N   UNL     1      -6.252   0.360 -34.274  1.00  0.00    -0.339 N 
HETATM   10  O   UNL     1      -8.006   0.359 -32.831  1.00  0.00    -0.247 OA
HETATM   11  H   UNL     1      -5.893   1.005 -34.961  1.00  0.00     0.164 HD
HETATM   12  H   UNL     1      -7.519   2.561 -32.364  1.00  0.00     0.170 HD
BRANCH   9  13
HETATM   13  C   UNL     1      -6.586  -0.957 -34.760  1.00  0.00     0.166 C 
BRANCH  13  14
HETATM   14  C   UNL     1      -5.580  -1.929 -34.266  1.00  0.00     0.003 A 
HETATM   15  C   UNL     1      -5.495  -3.291 -34.522  1.00  0.00     0.035 A 
HETATM   16  C   UNL     1      -6.383  -4.182 -35.312  1.00  0.00     0.070 C 
HETATM   17  N   UNL     1      -4.345  -3.715 -33.904  1.00  0.00    -0.278 N 
HETATM   18  C   UNL     1      -3.745  -5.028 -33.931  1.00  0.00     0.179 C 
HETATM   19  N   UNL     1      -3.717  -2.740 -33.222  1.00  0.00    -0.185 NA
HETATM   20  C   UNL     1      -4.456  -1.657 -33.458  1.00  0.00     0.149 A 
ENDBRANCH  13  14
ENDBRANCH   9  13
ENDBRANCH   1   7
BRANCH   3  21
HETATM   21  C   UNL     1      -2.240   4.067 -31.803  1.00  0.00     0.206 C 
BRANCH  21  22
HETATM   22  O   UNL     1      -2.053   5.375 -31.267  1.00  0.00    -0.381 OA
BRANCH  22  23
HETATM   23  C   UNL     1      -0.851   6.006 -31.722  1.00  0.00     0.121 C 
HETATM   24  C   UNL     1      -0.854   7.493 -31.342  1.00  0.00     0.032 C 
HETATM   25  C   UNL     1      -0.808   7.704 -29.829  1.00  0.00     0.002 C 
HETATM   26  C   UNL     1       0.372   6.977 -29.193  1.00  0.00     0.000 C 
HETATM   27  C   UNL     1       0.379   5.494 -29.555  1.00  0.00     0.002 C 
HETATM   28  C   UNL     1       0.332   5.284 -31.068  1.00  0.00     0.032 C 
ENDBRANCH  22  23
ENDBRANCH  21  22
ENDBRANCH   3  21
TORSDOF 6
ENDMDL
MODEL 5
REMARK VINA RESULT:      -7.9      2.751      7.713
REMARK  6 active torsions:
REMARK  status: ('A' for Active; 'I' for Inactive)
REMARK    1  A    between atoms: C_7  and  C_8 
REMARK    2  A    between atoms: C_8  and  N_9 
REMARK       I    between atoms: N_9  and  C_10 
REMARK       I    between atoms: C_10  and  N_11 
REMARK    3  A    between atoms: N_11  and  C_12 
REMARK    4  A    between atoms: C_14  and  C_15 
REMARK    5  A    between atoms: C_15  and  O_16 
REMARK    6  A    between atoms: O_16  and  C_17 
ROOT
HETATM    1  C   UNL     1      -4.558  -1.081 -33.389  1.00  0.00     0.036 A 
HETATM    2  C   UNL     1      -5.639  -0.332 -33.868  1.00  0.00     0.038 A 
HETATM    3  C   UNL     1      -6.596  -0.913 -34.721  1.00  0.00    -0.032 A 
HETATM    4  C   UNL     1      -6.464  -2.262 -35.080  1.00  0.00     0.009 A 
HETATM    5  C   UNL     1      -5.410  -3.022 -34.584  1.00  0.00     0.003 A 
HETATM    6  C   UNL     1      -4.468  -2.434 -33.742  1.00  0.00     0.029 A 
ENDROOT
BRANCH   1   7
HETATM    7  N   UNL     1      -3.557  -0.597 -32.529  1.00  0.00    -0.309 N 
HETATM    8  C   UNL     1      -3.406   0.534 -31.794  1.00  0.00     0.320 C 
HETATM    9  N   UNL     1      -4.243   1.575 -32.028  1.00  0.00    -0.339 N 
HETATM   10  O   UNL     1      -2.490   0.589 -30.974  1.00  0.00    -0.247 OA
HETATM   11  H   UNL     1      -4.546   1.658 -32.987  1.00  0.00     0.164 HD
HETATM   12  H   UNL     1      -2.774  -1.220 -32.369  1.00  0.00     0.170 HD
BRANCH   9  13
HETATM   13  C   UNL     1      -4.032   2.818 -31.326  1.00  0.00     0.166 C 
BRANCH  13  14
HETATM   14  C   UNL     1      -3.874   3.915 -32.312  1.00  0.00     0.003 A 
HETATM   15  C   UNL     1      -2.801   4.780 -32.481  1.00  0.00     0.035 A 
HETATM   16  C   UNL     1      -1.531   4.901 -31.720  1.00  0.00     0.070 C 
HETATM   17  N   UNL     1      -3.109   5.549 -33.575  1.00  0.00    -0.278 N 
HETATM   18  C   UNL     1      -2.295   6.546 -34.228  1.00  0.00     0.179 C 
HETATM   19  N   UNL     1      -4.326   5.284 -34.085  1.00  0.00    -0.185 NA
HETATM   20  C   UNL     1      -4.779   4.283 -33.331  1.00  0.00     0.149 A 
ENDBRANCH  13  14
ENDBRANCH   9  13
ENDBRANCH   1   7
BRANCH   3  21
HETATM   21  C   UNL     1      -7.736  -0.098 -35.278  1.00  0.00     0.206 C 
BRANCH  21  22
HETATM   22  O   UNL     1      -7.811   1.141 -34.575  1.00  0.00    -0.381 OA
BRANCH  22  23
HETATM   23  C   UNL     1      -9.144   1.495 -34.195  1.00  0.00     0.121 C 
HETATM   24  C   UNL     1      -9.695   0.482 -33.182  1.00  0.00     0.032 C 
HETATM   25  C   UNL     1      -8.933   0.515 -31.857  1.00  0.00     0.002 C 
HETATM   26  C   UNL     1      -8.894   1.920 -31.263  1.00  0.00     0.000 C 
HETATM   27  C   UNL     1      -8.337   2.934 -32.258  1.00  0.00     0.002 C 
HETATM   28  C   UNL     1      -9.099   2.899 -33.583  1.00  0.00     0.032 C 
ENDBRANCH  22  23
ENDBRANCH  21  22
ENDBRANCH   3  21
TORSDOF 6
ENDMDL
MODEL 6
REMARK VINA RESULT:      -7.8      2.569      9.240
REMARK  6 active torsions:
REMARK  status: ('A' for Active; 'I' for Inactive)
REMARK    1  A    between atoms: C_7  and  C_8 
REMARK    2  A    between atoms: C_8  and  N_9 
REMARK       I    between atoms: N_9  and  C_10 
REMARK       I    between atoms: C_10  and  N_11 
REMARK    3  A    between atoms: N_11  and  C_12 
REMARK    4  A    between atoms: C_14  and  C_15 
REMARK    5  A    between atoms: C_15  and  O_16 
REMARK    6  A    between atoms: O_16  and  C_17 
ROOT
HETATM    1  C   UNL     1      -4.711   2.672 -31.941  1.00  0.00     0.036 A 
HETATM    2  C   UNL     1      -4.190   1.434 -32.333  1.00  0.00     0.038 A 
HETATM    3  C   UNL     1      -4.451   0.273 -31.581  1.00  0.00    -0.032 A 
HETATM    4  C   UNL     1      -5.253   0.365 -30.435  1.00  0.00     0.009 A 
HETATM    5  C   UNL     1      -5.800   1.586 -30.055  1.00  0.00     0.003 A 
HETATM    6  C   UNL     1      -5.533   2.729 -30.807  1.00  0.00     0.029 A 
ENDROOT
BRANCH   1   7
HETATM    7  N   UNL     1      -4.515   3.885 -32.625  1.00  0.00    -0.309 N 
HETATM    8  C   UNL     1      -3.422   4.620 -32.955  1.00  0.00     0.320 C 
HETATM    9  N   UNL     1      -2.237   4.317 -32.369  1.00  0.00    -0.339 N 
HETATM   10  O   UNL     1      -3.556   5.559 -33.738  1.00  0.00    -0.247 OA
HETATM   11  H   UNL     1      -2.317   3.964 -31.428  1.00  0.00     0.164 HD
HETATM   12  H   UNL     1      -5.350   4.318 -33.003  1.00  0.00     0.170 HD
BRANCH   9  13
HETATM   13  C   UNL     1      -1.090   5.151 -32.633  1.00  0.00     0.166 C 
BRANCH  13  14
HETATM   14  C   UNL     1      -0.682   5.831 -31.379  1.00  0.00     0.003 A 
HETATM   15  C   UNL     1      -1.014   7.105 -30.938  1.00  0.00     0.035 A 
HETATM   16  C   UNL     1      -1.821   8.170 -31.585  1.00  0.00     0.070 C 
HETATM   17  N   UNL     1      -0.458   7.224 -29.688  1.00  0.00    -0.278 N 
HETATM   18  C   UNL     1      -0.575   8.319 -28.755  1.00  0.00     0.179 C 
HETATM   19  N   UNL     1       0.256   6.144 -29.319  1.00  0.00    -0.185 NA
HETATM   20  C   UNL     1       0.103   5.296 -30.335  1.00  0.00     0.149 A 
ENDBRANCH  13  14
ENDBRANCH   9  13
ENDBRANCH   1   7
BRANCH   3  21
HETATM   21  C   UNL     1      -3.853  -1.055 -31.973  1.00  0.00     0.206 C 
BRANCH  21  22
HETATM   22  O   UNL     1      -4.844  -1.836 -32.637  1.00  0.00    -0.381 OA
BRANCH  22  23
HETATM   23  C   UNL     1      -4.769  -1.749 -34.063  1.00  0.00     0.121 C 
HETATM   24  C   UNL     1      -4.235  -3.063 -34.649  1.00  0.00     0.032 C 
HETATM   25  C   UNL     1      -5.194  -4.232 -34.420  1.00  0.00     0.002 C 
HETATM   26  C   UNL     1      -6.593  -3.925 -34.944  1.00  0.00     0.000 C 
HETATM   27  C   UNL     1      -7.139  -2.626 -34.359  1.00  0.00     0.002 C 
HETATM   28  C   UNL     1      -6.180  -1.459 -34.589  1.00  0.00     0.032 C 
ENDBRANCH  22  23
ENDBRANCH  21  22
ENDBRANCH   3  21
TORSDOF 6
ENDMDL
MODEL 7
REMARK VINA RESULT:      -7.7      1.686      2.464
REMARK  6 active torsions:
REMARK  status: ('A' for Active; 'I' for Inactive)
REMARK    1  A    between atoms: C_7  and  C_8 
REMARK    2  A    between atoms: C_8  and  N_9 
REMARK       I    between atoms: N_9  and  C_10 
REMARK       I    between atoms: C_10  and  N_11 
REMARK    3  A    between atoms: N_11  and  C_12 
REMARK    4  A    between atoms: C_14  and  C_15 
REMARK    5  A    between atoms: C_15  and  O_16 
REMARK    6  A    between atoms: O_16  and  C_17 
ROOT
HETATM    1  C   UNL     1      -3.066   4.240 -31.886  1.00  0.00     0.036 A 
HETATM    2  C   UNL     1      -1.910   4.695 -31.242  1.00  0.00     0.038 A 
HETATM    3  C   UNL     1      -0.879   5.319 -31.969  1.00  0.00    -0.032 A 
HETATM    4  C   UNL     1      -1.025   5.493 -33.352  1.00  0.00     0.009 A 
HETATM    5  C   UNL     1      -2.184   5.072 -33.996  1.00  0.00     0.003 A 
HETATM    6  C   UNL     1      -3.197   4.454 -33.265  1.00  0.00     0.029 A 
ENDROOT
BRANCH   1   7
HETATM    7  N   UNL     1      -4.153   3.614 -31.251  1.00  0.00    -0.309 N 
HETATM    8  C   UNL     1      -4.409   2.343 -30.848  1.00  0.00     0.320 C 
HETATM    9  N   UNL     1      -3.600   1.348 -31.291  1.00  0.00    -0.339 N 
HETATM   10  O   UNL     1      -5.389   2.135 -30.134  1.00  0.00    -0.247 OA
HETATM   11  H   UNL     1      -3.226   1.497 -32.215  1.00  0.00     0.164 HD
HETATM   12  H   UNL     1      -4.919   4.222 -30.985  1.00  0.00     0.170 HD
BRANCH   9  13
HETATM   13  C   UNL     1      -3.919  -0.018 -30.954  1.00  0.00     0.166 C 
BRANCH  13  14
HETATM   14  C   UNL     1      -4.276  -0.756 -32.191  1.00  0.00     0.003 A 
HETATM   15  C   UNL     1      -3.905  -2.039 -32.571  1.00  0.00     0.035 A 
HETATM   16  C   UNL     1      -3.027  -3.029 -31.897  1.00  0.00     0.070 C 
HETATM   17  N   UNL     1      -4.561  -2.282 -33.752  1.00  0.00    -0.278 N 
HETATM   18  C   UNL     1      -4.591  -3.499 -34.527  1.00  0.00     0.179 C 
HETATM   19  N   UNL     1      -5.277  -1.229 -34.189  1.00  0.00    -0.185 NA
HETATM   20  C   UNL     1      -5.118  -0.314 -33.234  1.00  0.00     0.149 A 
ENDBRANCH  13  14
ENDBRANCH   9  13
ENDBRANCH   1   7
BRANCH   3  21
HETATM   21  C   UNL     1       0.389   5.767 -31.287  1.00  0.00     0.206 C 
BRANCH  21  22
HETATM   22  O   UNL     1       0.168   5.823 -29.879  1.00  0.00    -0.381 OA
BRANCH  22  23
HETATM   23  C   UNL     1       0.341   7.134 -29.332  1.00  0.00     0.121 C 
HETATM   24  C   UNL     1      -0.983   7.909 -29.379  1.00  0.00     0.032 C 
HETATM   25  C   UNL     1      -2.049   7.290 -28.474  1.00  0.00     0.002 C 
HETATM   26  C   UNL     1      -1.551   7.137 -27.040  1.00  0.00     0.000 C 
HETATM   27  C   UNL     1      -0.240   6.358 -26.980  1.00  0.00     0.002 C 
HETATM   28  C   UNL     1       0.823   6.978 -27.886  1.00  0.00     0.032 C 
ENDBRANCH  22  23
ENDBRANCH  21  22
ENDBRANCH   3  21
TORSDOF 6
ENDMDL
MODEL 8
REMARK VINA RESULT:      -7.6      3.811      5.919
REMARK  6 active torsions:
REMARK  status: ('A' for Active; 'I' for Inactive)
REMARK    1  A    between atoms: C_7  and  C_8 
REMARK    2  A    between atoms: C_8  and  N_9 
REMARK       I    between atoms: N_9  and  C_10 
REMARK       I    between atoms: C_10  and  N_11 
REMARK    3  A    between atoms: N_11  and  C_12 
REMARK    4  A    between atoms: C_14  and  C_15 
REMARK    5  A    between atoms: C_15  and  O_16 
REMARK    6  A    between atoms: O_16  and  C_17 
ROOT
HETATM    1  C   UNL     1      -5.148   0.095 -33.240  1.00  0.00     0.036 A 
HETATM    2  C   UNL     1      -4.698   1.345 -32.804  1.00  0.00     0.038 A 
HETATM    3  C   UNL     1      -3.705   1.447 -31.812  1.00  0.00    -0.032 A 
HETATM    4  C   UNL     1      -3.156   0.277 -31.269  1.00  0.00     0.009 A 
HETATM    5  C   UNL     1      -3.576  -0.971 -31.720  1.00  0.00     0.003 A 
HETATM    6  C   UNL     1      -4.561  -1.058 -32.701  1.00  0.00     0.029 A 
ENDROOT
BRANCH   1   7
HETATM    7  N   UNL     1      -6.127  -0.113 -34.228  1.00  0.00    -0.309 N 
HETATM    8  C   UNL     1      -7.484  -0.061 -34.242  1.00  0.00     0.320 C 
HETATM    9  N   UNL     1      -8.142  -0.010 -33.057  1.00  0.00    -0.339 N 
HETATM   10  O   UNL     1      -8.066  -0.105 -35.325  1.00  0.00    -0.247 OA
HETATM   11  H   UNL     1      -7.684  -0.503 -32.306  1.00  0.00     0.164 HD
HETATM   12  H   UNL     1      -5.779  -0.312 -35.159  1.00  0.00     0.170 HD
BRANCH   9  13
HETATM   13  C   UNL     1      -9.584  -0.055 -33.052  1.00  0.00     0.166 C 
BRANCH  13  14
HETATM   14  C   UNL     1     -10.116   1.325 -32.939  1.00  0.00     0.003 A 
HETATM   15  C   UNL     1     -11.282   1.851 -33.478  1.00  0.00     0.035 A 
HETATM   16  C   UNL     1     -12.311   1.224 -34.347  1.00  0.00     0.070 C 
HETATM   17  N   UNL     1     -11.359   3.140 -33.014  1.00  0.00    -0.278 N 
HETATM   18  C   UNL     1     -12.421   4.100 -33.206  1.00  0.00     0.179 C 
HETATM   19  N   UNL     1     -10.300   3.501 -32.267  1.00  0.00    -0.185 NA
HETATM   20  C   UNL     1      -9.558   2.396 -32.207  1.00  0.00     0.149 A 
ENDBRANCH  13  14
ENDBRANCH   9  13
ENDBRANCH   1   7
BRANCH   3  21
HETATM   21  C   UNL     1      -3.252   2.793 -31.303  1.00  0.00     0.206 C 
BRANCH  21  22
HETATM   22  O   UNL     1      -2.386   3.389 -32.268  1.00  0.00    -0.381 OA
BRANCH  22  23
HETATM   23  C   UNL     1      -2.462   4.818 -32.287  1.00  0.00     0.121 C 
HETATM   24  C   UNL     1      -1.498   5.387 -33.337  1.00  0.00     0.032 C 
HETATM   25  C   UNL     1      -1.895   4.997 -34.761  1.00  0.00     0.002 C 
HETATM   26  C   UNL     1      -3.337   5.385 -35.071  1.00  0.00     0.000 C 
HETATM   27  C   UNL     1      -4.306   4.814 -34.040  1.00  0.00     0.002 C 
HETATM   28  C   UNL     1      -3.908   5.205 -32.617  1.00  0.00     0.032 C 
ENDBRANCH  22  23
ENDBRANCH  21  22
ENDBRANCH   3  21
TORSDOF 6
ENDMDL
MODEL 9
REMARK VINA RESULT:      -7.5      3.204      8.941
REMARK  6 active torsions:
REMARK  status: ('A' for Active; 'I' for Inactive)
REMARK    1  A    between atoms: C_7  and  C_8 
REMARK    2  A    between atoms: C_8  and  N_9 
REMARK       I    between atoms: N_9  and  C_10 
REMARK       I    between atoms: C_10  and  N_11 
REMARK    3  A    between atoms: N_11  and  C_12 
REMARK    4  A    between atoms: C_14  and  C_15 
REMARK    5  A    between atoms: C_15  and  O_16 
REMARK    6  A    between atoms: O_16  and  C_17 
ROOT
HETATM    1  C   UNL     1      -6.034   1.810 -30.404  1.00  0.00     0.036 A 
HETATM    2  C   UNL     1      -5.015   0.959 -30.843  1.00  0.00     0.038 A 
HETATM    3  C   UNL     1      -5.299  -0.124 -31.696  1.00  0.00    -0.032 A 
HETATM    4  C   UNL     1      -6.618  -0.337 -32.117  1.00  0.00     0.009 A 
HETATM    5  C   UNL     1      -7.634   0.523 -31.711  1.00  0.00     0.003 A 
HETATM    6  C   UNL     1      -7.340   1.591 -30.864  1.00  0.00     0.029 A 
ENDROOT
BRANCH   1   7
HETATM    7  N   UNL     1      -5.854   2.920 -29.560  1.00  0.00    -0.309 N 
HETATM    8  C   UNL     1      -5.523   4.221 -29.765  1.00  0.00     0.320 C 
HETATM    9  N   UNL     1      -5.039   4.582 -30.980  1.00  0.00    -0.339 N 
HETATM   10  O   UNL     1      -5.632   5.013 -28.830  1.00  0.00    -0.247 OA
HETATM   11  H   UNL     1      -4.500   3.867 -31.442  1.00  0.00     0.164 HD
HETATM   12  H   UNL     1      -6.041   2.762 -28.577  1.00  0.00     0.170 HD
BRANCH   9  13
HETATM   13  C   UNL     1      -4.589   5.939 -31.181  1.00  0.00     0.166 C 
BRANCH  13  14
HETATM   14  C   UNL     1      -3.158   6.040 -30.799  1.00  0.00     0.003 A 
HETATM   15  C   UNL     1      -2.058   5.443 -31.400  1.00  0.00     0.035 A 
HETATM   16  C   UNL     1      -1.976   4.510 -32.553  1.00  0.00     0.070 C 
HETATM   17  N   UNL     1      -0.961   5.917 -30.725  1.00  0.00    -0.278 N 
HETATM   18  C   UNL     1       0.435   5.678 -31.002  1.00  0.00     0.179 C 
HETATM   19  N   UNL     1      -1.279   6.727 -29.697  1.00  0.00    -0.185 NA
HETATM   20  C   UNL     1      -2.607   6.814 -29.756  1.00  0.00     0.149 A 
ENDBRANCH  13  14
ENDBRANCH   9  13
ENDBRANCH   1   7
BRANCH   3  21
HETATM   21  C   UNL     1      -4.211  -1.073 -32.133  1.00  0.00     0.206 C 
BRANCH  21  22
HETATM   22  O   UNL     1      -4.807  -2.225 -32.727  1.00  0.00    -0.381 OA
BRANCH  22  23
HETATM   23  C   UNL     1      -4.449  -2.400 -34.101  1.00  0.00     0.121 C 
HETATM   24  C   UNL     1      -3.911  -3.819 -34.335  1.00  0.00     0.032 C 
HETATM   25  C   UNL     1      -4.981  -4.888 -34.112  1.00  0.00     0.002 C 
HETATM   26  C   UNL     1      -6.224  -4.626 -34.956  1.00  0.00     0.000 C 
HETATM   27  C   UNL     1      -6.775  -3.222 -34.724  1.00  0.00     0.002 C 
HETATM   28  C   UNL     1      -5.704  -2.154 -34.946  1.00  0.00     0.032 C 
ENDBRANCH  22  23
ENDBRANCH  21  22
ENDBRANCH   3  21
TORSDOF 6
ENDMDL
MODEL 10
REMARK VINA RESULT:      -7.5      2.334      3.276
REMARK  6 active torsions:
REMARK  status: ('A' for Active; 'I' for Inactive)
REMARK    1  A    between atoms: C_7  and  C_8 
REMARK    2  A    between atoms: C_8  and  N_9 
REMARK       I    between atoms: N_9  and  C_10 
REMARK       I    between atoms: C_10  and  N_11 
REMARK    3  A    between atoms: N_11  and  C_12 
REMARK    4  A    between atoms: C_14  and  C_15 
REMARK    5  A    between atoms: C_15  and  O_16 
REMARK    6  A    between atoms: O_16  and  C_17 
ROOT
HETATM    1  C   UNL     1      -7.173   2.976 -31.676  1.00  0.00     0.036 A 
HETATM    2  C   UNL     1      -6.715   3.968 -32.549  1.00  0.00     0.038 A 
HETATM    3  C   UNL     1      -5.724   4.882 -32.143  1.00  0.00    -0.032 A 
HETATM    4  C   UNL     1      -5.186   4.781 -30.853  1.00  0.00     0.009 A 
HETATM    5  C   UNL     1      -5.614   3.778 -29.989  1.00  0.00     0.003 A 
HETATM    6  C   UNL     1      -6.597   2.881 -30.402  1.00  0.00     0.029 A 
ENDROOT
BRANCH   1   7
HETATM    7  N   UNL     1      -8.151   2.014 -31.986  1.00  0.00    -0.309 N 
HETATM    8  C   UNL     1      -8.152   0.866 -32.711  1.00  0.00     0.320 C 
HETATM    9  N   UNL     1      -7.094   0.610 -33.521  1.00  0.00    -0.339 N 
HETATM   10  O   UNL     1      -9.130   0.123 -32.641  1.00  0.00    -0.247 OA
HETATM   11  H   UNL     1      -6.666   1.432 -33.917  1.00  0.00     0.164 HD
HETATM   12  H   UNL     1      -9.060   2.155 -31.561  1.00  0.00     0.170 HD
BRANCH   9  13
HETATM   13  C   UNL     1      -7.127  -0.554 -34.372  1.00  0.00     0.166 C 
BRANCH  13  14
HETATM   14  C   UNL     1      -5.959  -1.416 -34.066  1.00  0.00     0.003 A 
HETATM   15  C   UNL     1      -5.789  -2.769 -34.328  1.00  0.00     0.035 A 
HETATM   16  C   UNL     1      -6.715  -3.757 -34.938  1.00  0.00     0.070 C 
HETATM   17  N   UNL     1      -4.510  -3.068 -33.929  1.00  0.00    -0.278 N 
HETATM   18  C   UNL     1      -3.799  -4.318 -34.060  1.00  0.00     0.179 C 
HETATM   19  N   UNL     1      -3.867  -2.023 -33.377  1.00  0.00    -0.185 NA
HETATM   20  C   UNL     1      -4.738  -1.020 -33.478  1.00  0.00     0.149 A 
ENDBRANCH  13  14
ENDBRANCH   9  13
ENDBRANCH   1   7
BRANCH   3  21
HETATM   21  C   UNL     1      -5.262   5.984 -33.064  1.00  0.00     0.206 C 
BRANCH  21  22
HETATM   22  O   UNL     1      -3.977   6.436 -32.642  1.00  0.00    -0.381 OA
BRANCH  22  23
HETATM   23  C   UNL     1      -2.969   6.291 -33.648  1.00  0.00     0.121 C 
HETATM   24  C   UNL     1      -1.869   7.343 -33.454  1.00  0.00     0.032 C 
HETATM   25  C   UNL     1      -1.095   7.140 -32.151  1.00  0.00     0.002 C 
HETATM   26  C   UNL     1      -0.529   5.728 -32.046  1.00  0.00     0.000 C 
HETATM   27  C   UNL     1      -1.616   4.672 -32.226  1.00  0.00     0.002 C 
HETATM   28  C   UNL     1      -2.389   4.877 -33.528  1.00  0.00     0.032 C 
ENDBRANCH  22  23
ENDBRANCH  21  22
ENDBRANCH   3  21
TORSDOF 6
ENDMDL
