MODEL 1
REMARK VINA RESULT:      -8.5      0.000      0.000
REMARK  6 active torsions:
REMARK  status: ('A' for Active; 'I' for Inactive)
REMARK    1  A    between atoms: C_2  and  C_3 
REMARK    2  A    between atoms: C_7  and  O_8 
REMARK    3  A    between atoms: O_8  and  C_9 
REMARK    4  A    between atoms: C_9  and  C_10 
REMARK       I    between atoms: C_10  and  N_11 
REMARK    5  A    between atoms: N_11  and  N_12 
REMARK    6  A    between atoms: C_13  and  C_14 
ROOT
HETATM    1  C   UNL     1      -6.035   0.979 -30.789  1.00  0.00     0.261 C 
HETATM    2  N   UNL     1      -7.397   0.909 -30.620  1.00  0.00    -0.246 N 
HETATM    3  O   UNL     1      -5.286   0.409 -29.991  1.00  0.00    -0.269 OA
HETATM    4  H   UNL     1      -7.727   0.337 -29.849  1.00  0.00     0.192 HD
ENDROOT
BRANCH   2   5
HETATM    5  N   UNL     1      -8.273   1.523 -31.460  1.00  0.00    -0.184 NA
HETATM    6  C   UNL     1      -8.797   0.761 -32.366  1.00  0.00     0.152 C 
BRANCH   6   7
HETATM    7  C   UNL     1      -9.718   1.322 -33.330  1.00  0.00     0.011 A 
HETATM    8  C   UNL     1     -11.053   0.887 -33.613  1.00  0.00     0.004 A 
HETATM    9  C   UNL     1     -11.556   1.710 -34.621  1.00  0.00     0.043 A 
HETATM   10  C   UNL     1     -11.887  -0.133 -33.103  1.00  0.00     0.014 A 
HETATM   11  C   UNL     1     -12.846   1.566 -35.147  1.00  0.00     0.030 A 
HETATM   12  N   UNL     1     -10.566   2.610 -34.942  1.00  0.00    -0.364 N 
HETATM   13  C   UNL     1     -13.650   0.550 -34.622  1.00  0.00     0.002 A 
HETATM   14  C   UNL     1     -13.180  -0.288 -33.615  1.00  0.00     0.001 A 
HETATM   15  H   UNL     1     -10.649   3.326 -35.651  1.00  0.00     0.165 HD
HETATM   16  C   UNL     1      -9.459   2.390 -34.170  1.00  0.00     0.102 A 
ENDBRANCH   6   7
ENDBRANCH   2   5
BRANCH   1  17
HETATM   17  C   UNL     1      -5.506   1.811 -31.953  1.00  0.00     0.280 C 
BRANCH  17  18
HETATM   18  O   UNL     1      -4.580   1.052 -32.718  1.00  0.00    -0.341 OA
BRANCH  18  19
HETATM   19  C   UNL     1      -5.057  -0.075 -33.335  1.00  0.00     0.086 A 
HETATM   20  C   UNL     1      -4.367  -1.274 -33.103  1.00  0.00     0.044 A 
HETATM   21  C   UNL     1      -4.768  -2.463 -33.723  1.00  0.00     0.029 A 
HETATM   22 BR   UNL     1      -2.872  -1.347 -31.930  1.00  0.00    -0.048 Br
HETATM   23  C   UNL     1      -5.867  -2.476 -34.589  1.00  0.00    -0.057 A 
HETATM   24  C   UNL     1      -6.551  -1.279 -34.827  1.00  0.00     0.010 A 
HETATM   25  C   UNL     1      -6.151  -0.090 -34.206  1.00  0.00     0.039 A 
BRANCH  23  26
HETATM   26  C   UNL     1      -6.281  -3.746 -35.287  1.00  0.00     0.034 C 
HETATM   27  C   UNL     1      -5.493  -4.948 -34.789  1.00  0.00     0.010 C 
ENDBRANCH  23  26
ENDBRANCH  18  19
ENDBRANCH  17  18
ENDBRANCH   1  17
TORSDOF 6
ENDMDL
MODEL 2
REMARK VINA RESULT:      -8.3      2.880      6.560
REMARK  6 active torsions:
REMARK  status: ('A' for Active; 'I' for Inactive)
REMARK    1  A    between atoms: C_2  and  C_3 
REMARK    2  A    between atoms: C_7  and  O_8 
REMARK    3  A    between atoms: O_8  and  C_9 
REMARK    4  A    between atoms: C_9  and  C_10 
REMARK       I    between atoms: C_10  and  N_11 
REMARK    5  A    between atoms: N_11  and  N_12 
REMARK    6  A    between atoms: C_13  and  C_14 
ROOT
HETATM    1  C   UNL     1      -9.881   1.505 -33.897  1.00  0.00     0.261 C 
HETATM    2  N   UNL     1      -9.069   0.746 -34.705  1.00  0.00    -0.246 N 
HETATM    3  O   UNL     1     -10.717   2.260 -34.402  1.00  0.00    -0.269 OA
HETATM    4  H   UNL     1      -9.235   0.815 -35.704  1.00  0.00     0.192 HD
ENDROOT
BRANCH   2   5
HETATM    5  N   UNL     1      -8.123  -0.097 -34.209  1.00  0.00    -0.184 NA
HETATM    6  C   UNL     1      -6.942   0.034 -34.723  1.00  0.00     0.152 C 
BRANCH   6   7
HETATM    7  C   UNL     1      -5.871  -0.836 -34.289  1.00  0.00     0.011 A 
HETATM    8  C   UNL     1      -5.782  -2.256 -34.460  1.00  0.00     0.004 A 
HETATM    9  C   UNL     1      -4.586  -2.673 -33.873  1.00  0.00     0.043 A 
HETATM   10  C   UNL     1      -6.607  -3.231 -35.062  1.00  0.00     0.014 A 
HETATM   11  C   UNL     1      -4.174  -4.011 -33.856  1.00  0.00     0.030 A 
HETATM   12  N   UNL     1      -3.972  -1.551 -33.363  1.00  0.00    -0.364 N 
HETATM   13  C   UNL     1      -5.009  -4.954 -34.461  1.00  0.00     0.002 A 
HETATM   14  C   UNL     1      -6.208  -4.573 -35.056  1.00  0.00     0.001 A 
HETATM   15  H   UNL     1      -3.088  -1.554 -32.873  1.00  0.00     0.165 HD
HETATM   16  C   UNL     1      -4.732  -0.442 -33.612  1.00  0.00     0.102 A 
ENDBRANCH   6   7
ENDBRANCH   2   5
BRANCH   1  17
HETATM   17  C   UNL     1      -9.675   1.408 -32.390  1.00  0.00     0.280 C 
BRANCH  17  18
HETATM   18  O   UNL     1      -9.040   2.582 -31.903  1.00  0.00    -0.341 OA
BRANCH  18  19
HETATM   19  C   UNL     1      -7.683   2.526 -31.717  1.00  0.00     0.086 A 
HETATM   20  C   UNL     1      -6.893   3.387 -32.492  1.00  0.00     0.044 A 
HETATM   21  C   UNL     1      -5.497   3.368 -32.388  1.00  0.00     0.029 A 
HETATM   22 BR   UNL     1      -7.673   4.627 -33.705  1.00  0.00    -0.048 Br
HETATM   23  C   UNL     1      -4.864   2.485 -31.506  1.00  0.00    -0.057 A 
HETATM   24  C   UNL     1      -5.651   1.620 -30.738  1.00  0.00     0.010 A 
HETATM   25  C   UNL     1      -7.047   1.640 -30.841  1.00  0.00     0.039 A 
BRANCH  23  26
HETATM   26  C   UNL     1      -3.361   2.434 -31.416  1.00  0.00     0.034 C 
HETATM   27  C   UNL     1      -2.732   3.793 -31.687  1.00  0.00     0.010 C 
ENDBRANCH  23  26
ENDBRANCH  18  19
ENDBRANCH  17  18
ENDBRANCH   1  17
TORSDOF 6
ENDMDL
MODEL 3
REMARK VINA RESULT:      -8.3      3.984      7.316
REMARK  6 active torsions:
REMARK  status: ('A' for Active; 'I' for Inactive)
REMARK    1  A    between atoms: C_2  and  C_3 
REMARK    2  A    between atoms: C_7  and  O_8 
REMARK    3  A    between atoms: O_8  and  C_9 
REMARK    4  A    between atoms: C_9  and  C_10 
REMARK       I    between atoms: C_10  and  N_11 
REMARK    5  A    between atoms: N_11  and  N_12 
REMARK    6  A    between atoms: C_13  and  C_14 
ROOT
HETATM    1  C   UNL     1      -5.931   1.316 -30.977  1.00  0.00     0.261 C 
HETATM    2  N   UNL     1      -4.952   2.100 -30.416  1.00  0.00    -0.246 N 
HETATM    3  O   UNL     1      -6.323   0.306 -30.386  1.00  0.00    -0.269 OA
HETATM    4  H   UNL     1      -4.625   1.824 -29.496  1.00  0.00     0.192 HD
ENDROOT
BRANCH   2   5
HETATM    5  N   UNL     1      -4.472   3.219 -31.022  1.00  0.00    -0.184 NA
HETATM    6  C   UNL     1      -3.265   3.124 -31.482  1.00  0.00     0.152 C 
BRANCH   6   7
HETATM    7  C   UNL     1      -2.648   4.268 -32.117  1.00  0.00     0.011 A 
HETATM    8  C   UNL     1      -1.540   5.037 -31.634  1.00  0.00     0.004 A 
HETATM    9  C   UNL     1      -1.296   6.049 -32.564  1.00  0.00     0.043 A 
HETATM   10  C   UNL     1      -0.714   4.967 -30.490  1.00  0.00     0.014 A 
HETATM   11  C   UNL     1      -0.275   6.994 -32.409  1.00  0.00     0.030 A 
HETATM   12  N   UNL     1      -2.222   5.903 -33.573  1.00  0.00    -0.364 N 
HETATM   13  C   UNL     1       0.527   6.900 -31.268  1.00  0.00     0.002 A 
HETATM   14  C   UNL     1       0.313   5.902 -30.321  1.00  0.00     0.001 A 
HETATM   15  H   UNL     1      -2.288   6.506 -34.381  1.00  0.00     0.165 HD
HETATM   16  C   UNL     1      -3.035   4.834 -33.317  1.00  0.00     0.102 A 
ENDBRANCH   6   7
ENDBRANCH   2   5
BRANCH   1  17
HETATM   17  C   UNL     1      -6.462   1.716 -32.349  1.00  0.00     0.280 C 
BRANCH  17  18
HETATM   18  O   UNL     1      -5.619   1.203 -33.371  1.00  0.00    -0.341 OA
BRANCH  18  19
HETATM   19  C   UNL     1      -5.825  -0.097 -33.756  1.00  0.00     0.086 A 
HETATM   20  C   UNL     1      -4.762  -0.994 -33.581  1.00  0.00     0.044 A 
HETATM   21  C   UNL     1      -4.879  -2.330 -33.980  1.00  0.00     0.029 A 
HETATM   22 BR   UNL     1      -3.124  -0.448 -32.784  1.00  0.00    -0.048 Br
HETATM   23  C   UNL     1      -6.063  -2.795 -34.564  1.00  0.00    -0.057 A 
HETATM   24  C   UNL     1      -7.122  -1.899 -34.746  1.00  0.00     0.010 A 
HETATM   25  C   UNL     1      -7.005  -0.562 -34.345  1.00  0.00     0.039 A 
BRANCH  23  26
HETATM   26  C   UNL     1      -6.182  -4.224 -35.028  1.00  0.00     0.034 C 
HETATM   27  C   UNL     1      -5.030  -5.080 -34.526  1.00  0.00     0.010 C 
ENDBRANCH  23  26
ENDBRANCH  18  19
ENDBRANCH  17  18
ENDBRANCH   1  17
TORSDOF 6
ENDMDL
MODEL 4
REMARK VINA RESULT:      -8.3      4.451      7.691
REMARK  6 active torsions:
REMARK  status: ('A' for Active; 'I' for Inactive)
REMARK    1  A    between atoms: C_2  and  C_3 
REMARK    2  A    between atoms: C_7  and  O_8 
REMARK    3  A    between atoms: O_8  and  C_9 
REMARK    4  A    between atoms: C_9  and  C_10 
REMARK       I    between atoms: C_10  and  N_11 
REMARK    5  A    between atoms: N_11  and  N_12 
REMARK    6  A    between atoms: C_13  and  C_14 
ROOT
HETATM    1  C   UNL     1      -6.583   4.085 -33.993  1.00  0.00     0.261 C 
HETATM    2  N   UNL     1      -6.877   2.864 -33.433  1.00  0.00    -0.246 N 
HETATM    3  O   UNL     1      -7.464   4.944 -34.094  1.00  0.00    -0.269 OA
HETATM    4  H   UNL     1      -7.822   2.746 -33.080  1.00  0.00     0.192 HD
ENDROOT
BRANCH   2   5
HETATM    5  N   UNL     1      -5.953   1.875 -33.303  1.00  0.00    -0.184 NA
HETATM    6  C   UNL     1      -6.298   0.729 -33.795  1.00  0.00     0.152 C 
BRANCH   6   7
HETATM    7  C   UNL     1      -5.400  -0.400 -33.681  1.00  0.00     0.011 A 
HETATM    8  C   UNL     1      -5.643  -1.749 -34.096  1.00  0.00     0.004 A 
HETATM    9  C   UNL     1      -4.507  -2.495 -33.778  1.00  0.00     0.043 A 
HETATM   10  C   UNL     1      -6.725  -2.411 -34.717  1.00  0.00     0.014 A 
HETATM   11  C   UNL     1      -4.398  -3.865 -34.046  1.00  0.00     0.030 A 
HETATM   12  N   UNL     1      -3.608  -1.634 -33.191  1.00  0.00    -0.364 N 
HETATM   13  C   UNL     1      -5.484  -4.494 -34.662  1.00  0.00     0.002 A 
HETATM   14  C   UNL     1      -6.631  -3.780 -34.994  1.00  0.00     0.001 A 
HETATM   15  H   UNL     1      -2.695  -1.903 -32.850  1.00  0.00     0.165 HD
HETATM   16  C   UNL     1      -4.131  -0.373 -33.132  1.00  0.00     0.102 A 
ENDBRANCH   6   7
ENDBRANCH   2   5
BRANCH   1  17
HETATM   17  C   UNL     1      -5.166   4.304 -34.512  1.00  0.00     0.280 C 
BRANCH  17  18
HETATM   18  O   UNL     1      -4.775   5.657 -34.317  1.00  0.00    -0.341 OA
BRANCH  18  19
HETATM   19  C   UNL     1      -3.572   5.875 -33.699  1.00  0.00     0.086 A 
HETATM   20  C   UNL     1      -3.604   6.418 -32.407  1.00  0.00     0.044 A 
HETATM   21  C   UNL     1      -2.419   6.705 -31.720  1.00  0.00     0.029 A 
HETATM   22 BR   UNL     1      -5.248   6.777 -31.522  1.00  0.00    -0.048 Br
HETATM   23  C   UNL     1      -1.177   6.453 -32.313  1.00  0.00    -0.057 A 
HETATM   24  C   UNL     1      -1.143   5.918 -33.606  1.00  0.00     0.010 A 
HETATM   25  C   UNL     1      -2.329   5.631 -34.292  1.00  0.00     0.039 A 
BRANCH  23  26
HETATM   26  C   UNL     1       0.103   6.792 -31.593  1.00  0.00     0.034 C 
HETATM   27  C   UNL     1       0.535   5.677 -30.652  1.00  0.00     0.010 C 
ENDBRANCH  23  26
ENDBRANCH  18  19
ENDBRANCH  17  18
ENDBRANCH   1  17
TORSDOF 6
ENDMDL
MODEL 5
REMARK VINA RESULT:      -8.2      1.620      2.099
REMARK  6 active torsions:
REMARK  status: ('A' for Active; 'I' for Inactive)
REMARK    1  A    between atoms: C_2  and  C_3 
REMARK    2  A    between atoms: C_7  and  O_8 
REMARK    3  A    between atoms: O_8  and  C_9 
REMARK    4  A    between atoms: C_9  and  C_10 
REMARK       I    between atoms: C_10  and  N_11 
REMARK    5  A    between atoms: N_11  and  N_12 
REMARK    6  A    between atoms: C_13  and  C_14 
ROOT
HETATM    1  C   UNL     1      -6.822   2.971 -32.526  1.00  0.00     0.261 C 
HETATM    2  N   UNL     1      -7.677   3.787 -33.227  1.00  0.00    -0.246 N 
HETATM    3  O   UNL     1      -5.607   3.189 -32.547  1.00  0.00    -0.269 OA
HETATM    4  H   UNL     1      -7.255   4.578 -33.704  1.00  0.00     0.192 HD
ENDROOT
BRANCH   2   5
HETATM    5  N   UNL     1      -9.023   3.593 -33.250  1.00  0.00    -0.184 NA
HETATM    6  C   UNL     1      -9.530   3.376 -34.421  1.00  0.00     0.152 C 
BRANCH   6   7
HETATM    7  C   UNL     1     -10.958   3.189 -34.560  1.00  0.00     0.011 A 
HETATM    8  C   UNL     1     -11.718   2.022 -34.222  1.00  0.00     0.004 A 
HETATM    9  C   UNL     1     -13.052   2.286 -34.537  1.00  0.00     0.043 A 
HETATM   10  C   UNL     1     -11.398   0.760 -33.674  1.00  0.00     0.014 A 
HETATM   11  C   UNL     1     -14.079   1.357 -34.334  1.00  0.00     0.030 A 
HETATM   12  N   UNL     1     -13.102   3.563 -35.048  1.00  0.00    -0.364 N 
HETATM   13  C   UNL     1     -13.733   0.117 -33.789  1.00  0.00     0.002 A 
HETATM   14  C   UNL     1     -12.413  -0.179 -33.462  1.00  0.00     0.001 A 
HETATM   15  H   UNL     1     -13.945   4.020 -35.369  1.00  0.00     0.165 HD
HETATM   16  C   UNL     1     -11.851   4.116 -35.062  1.00  0.00     0.102 A 
ENDBRANCH   6   7
ENDBRANCH   2   5
BRANCH   1  17
HETATM   17  C   UNL     1      -7.425   1.787 -31.778  1.00  0.00     0.280 C 
BRANCH  17  18
HETATM   18  O   UNL     1      -6.423   0.817 -31.502  1.00  0.00    -0.341 OA
BRANCH  18  19
HETATM   19  C   UNL     1      -6.275  -0.201 -32.408  1.00  0.00     0.086 A 
HETATM   20  C   UNL     1      -5.001  -0.775 -32.526  1.00  0.00     0.044 A 
HETATM   21  C   UNL     1      -4.758  -1.795 -33.452  1.00  0.00     0.029 A 
HETATM   22 BR   UNL     1      -3.553  -0.208 -31.431  1.00  0.00    -0.048 Br
HETATM   23  C   UNL     1      -5.785  -2.263 -34.279  1.00  0.00    -0.057 A 
HETATM   24  C   UNL     1      -7.055  -1.686 -34.167  1.00  0.00     0.010 A 
HETATM   25  C   UNL     1      -7.299  -0.665 -33.240  1.00  0.00     0.039 A 
BRANCH  23  26
HETATM   26  C   UNL     1      -5.521  -3.337 -35.302  1.00  0.00     0.034 C 
HETATM   27  C   UNL     1      -6.500  -4.494 -35.174  1.00  0.00     0.010 C 
ENDBRANCH  23  26
ENDBRANCH  18  19
ENDBRANCH  17  18
ENDBRANCH   1  17
TORSDOF 6
ENDMDL
MODEL 6
REMARK VINA RESULT:      -8.1      4.863      7.920
REMARK  6 active torsions:
REMARK  status: ('A' for Active; 'I' for Inactive)
REMARK    1  A    between atoms: C_2  and  C_3 
REMARK    2  A    between atoms: C_7  and  O_8 
REMARK    3  A    between atoms: O_8  and  C_9 
REMARK    4  A    between atoms: C_9  and  C_10 
REMARK       I    between atoms: C_10  and  N_11 
REMARK    5  A    between atoms: N_11  and  N_12 
REMARK    6  A    between atoms: C_13  and  C_14 
ROOT
HETATM    1  C   UNL     1      -6.943   4.455 -33.790  1.00  0.00     0.261 C 
HETATM    2  N   UNL     1      -6.297   5.658 -33.630  1.00  0.00    -0.246 N 
HETATM    3  O   UNL     1      -8.168   4.393 -33.651  1.00  0.00    -0.269 OA
HETATM    4  H   UNL     1      -6.884   6.464 -33.444  1.00  0.00     0.192 HD
ENDROOT
BRANCH   2   5
HETATM    5  N   UNL     1      -4.949   5.788 -33.761  1.00  0.00    -0.184 NA
HETATM    6  C   UNL     1      -4.344   6.317 -32.746  1.00  0.00     0.152 C 
BRANCH   6   7
HETATM    7  C   UNL     1      -2.914   6.530 -32.796  1.00  0.00     0.011 A 
HETATM    8  C   UNL     1      -2.009   6.614 -31.688  1.00  0.00     0.004 A 
HETATM    9  C   UNL     1      -0.733   6.840 -32.207  1.00  0.00     0.043 A 
HETATM   10  C   UNL     1      -2.153   6.517 -30.286  1.00  0.00     0.014 A 
HETATM   11  C   UNL     1       0.403   6.975 -31.400  1.00  0.00     0.030 A 
HETATM   12  N   UNL     1      -0.857   6.893 -33.577  1.00  0.00    -0.364 N 
HETATM   13  C   UNL     1       0.231   6.873 -30.017  1.00  0.00     0.002 A 
HETATM   14  C   UNL     1      -1.027   6.646 -29.465  1.00  0.00     0.001 A 
HETATM   15  H   UNL     1      -0.090   7.055 -34.216  1.00  0.00     0.165 HD
HETATM   16  C   UNL     1      -2.161   6.704 -33.942  1.00  0.00     0.102 A 
ENDBRANCH   6   7
ENDBRANCH   2   5
BRANCH   1  17
HETATM   17  C   UNL     1      -6.093   3.227 -34.093  1.00  0.00     0.280 C 
BRANCH  17  18
HETATM   18  O   UNL     1      -6.393   2.183 -33.177  1.00  0.00    -0.341 OA
BRANCH  18  19
HETATM   19  C   UNL     1      -6.289   0.897 -33.640  1.00  0.00     0.086 A 
HETATM   20  C   UNL     1      -5.191   0.144 -33.201  1.00  0.00     0.044 A 
HETATM   21  C   UNL     1      -4.991  -1.165 -33.654  1.00  0.00     0.029 A 
HETATM   22 BR   UNL     1      -3.933   0.854 -31.963  1.00  0.00    -0.048 Br
HETATM   23  C   UNL     1      -5.888  -1.746 -34.557  1.00  0.00    -0.057 A 
HETATM   24  C   UNL     1      -6.980  -0.994 -35.002  1.00  0.00     0.010 A 
HETATM   25  C   UNL     1      -7.180   0.316 -34.548  1.00  0.00     0.039 A 
BRANCH  23  26
HETATM   26  C   UNL     1      -5.659  -3.143 -35.076  1.00  0.00     0.034 C 
HETATM   27  C   UNL     1      -6.834  -4.059 -34.771  1.00  0.00     0.010 C 
ENDBRANCH  23  26
ENDBRANCH  18  19
ENDBRANCH  17  18
ENDBRANCH   1  17
TORSDOF 6
ENDMDL
MODEL 7
REMARK VINA RESULT:      -8.1      3.968      6.705
REMARK  6 active torsions:
REMARK  status: ('A' for Active; 'I' for Inactive)
REMARK    1  A    between atoms: C_2  and  C_3 
REMARK    2  A    between atoms: C_7  and  O_8 
REMARK    3  A    between atoms: O_8  and  C_9 
REMARK    4  A    between atoms: C_9  and  C_10 
REMARK       I    between atoms: C_10  and  N_11 
REMARK    5  A    between atoms: N_11  and  N_12 
REMARK    6  A    between atoms: C_13  and  C_14 
ROOT
HETATM    1  C   UNL     1      -6.803   2.097 -31.393  1.00  0.00     0.261 C 
HETATM    2  N   UNL     1      -6.881   3.433 -31.076  1.00  0.00    -0.246 N 
HETATM    3  O   UNL     1      -7.820   1.398 -31.360  1.00  0.00    -0.269 OA
HETATM    4  H   UNL     1      -7.806   3.794 -30.869  1.00  0.00     0.192 HD
ENDROOT
BRANCH   2   5
HETATM    5  N   UNL     1      -5.795   4.252 -31.085  1.00  0.00    -0.184 NA
HETATM    6  C   UNL     1      -5.745   5.092 -32.069  1.00  0.00     0.152 C 
BRANCH   6   7
HETATM    7  C   UNL     1      -4.615   5.988 -32.189  1.00  0.00     0.011 A 
HETATM    8  C   UNL     1      -3.485   5.849 -33.059  1.00  0.00     0.004 A 
HETATM    9  C   UNL     1      -2.642   6.937 -32.826  1.00  0.00     0.043 A 
HETATM   10  C   UNL     1      -3.098   4.899 -34.030  1.00  0.00     0.014 A 
HETATM   11  C   UNL     1      -1.434   7.122 -33.509  1.00  0.00     0.030 A 
HETATM   12  N   UNL     1      -3.235   7.707 -31.851  1.00  0.00    -0.364 N 
HETATM   13  C   UNL     1      -1.077   6.167 -34.465  1.00  0.00     0.002 A 
HETATM   14  C   UNL     1      -1.895   5.071 -34.724  1.00  0.00     0.001 A 
HETATM   15  H   UNL     1      -2.841   8.559 -31.475  1.00  0.00     0.165 HD
HETATM   16  C   UNL     1      -4.422   7.149 -31.465  1.00  0.00     0.102 A 
ENDBRANCH   6   7
ENDBRANCH   2   5
BRANCH   1  17
HETATM   17  C   UNL     1      -5.431   1.527 -31.733  1.00  0.00     0.280 C 
BRANCH  17  18
HETATM   18  O   UNL     1      -5.341   1.258 -33.125  1.00  0.00    -0.341 OA
BRANCH  18  19
HETATM   19  C   UNL     1      -5.259  -0.057 -33.502  1.00  0.00     0.086 A 
HETATM   20  C   UNL     1      -6.272  -0.549 -34.338  1.00  0.00     0.044 A 
HETATM   21  C   UNL     1      -6.282  -1.890 -34.740  1.00  0.00     0.029 A 
HETATM   22 BR   UNL     1      -7.667   0.575 -34.974  1.00  0.00    -0.048 Br
HETATM   23  C   UNL     1      -5.276  -2.765 -34.313  1.00  0.00    -0.057 A 
HETATM   24  C   UNL     1      -4.269  -2.277 -33.474  1.00  0.00     0.010 A 
HETATM   25  C   UNL     1      -4.260  -0.936 -33.072  1.00  0.00     0.039 A 
BRANCH  23  26
HETATM   26  C   UNL     1      -5.301  -4.218 -34.714  1.00  0.00     0.034 C 
HETATM   27  C   UNL     1      -6.601  -4.592 -35.409  1.00  0.00     0.010 C 
ENDBRANCH  23  26
ENDBRANCH  18  19
ENDBRANCH  17  18
ENDBRANCH   1  17
TORSDOF 6
ENDMDL
MODEL 8
REMARK VINA RESULT:      -8.1      3.001      6.118
REMARK  6 active torsions:
REMARK  status: ('A' for Active; 'I' for Inactive)
REMARK    1  A    between atoms: C_2  and  C_3 
REMARK    2  A    between atoms: C_7  and  O_8 
REMARK    3  A    between atoms: O_8  and  C_9 
REMARK    4  A    between atoms: C_9  and  C_10 
REMARK       I    between atoms: C_10  and  N_11 
REMARK    5  A    between atoms: N_11  and  N_12 
REMARK    6  A    between atoms: C_13  and  C_14 
ROOT
HETATM    1  C   UNL     1      -3.854   4.295 -31.575  1.00  0.00     0.261 C 
HETATM    2  N   UNL     1      -3.092   3.184 -31.302  1.00  0.00    -0.246 N 
HETATM    3  O   UNL     1      -3.717   5.317 -30.897  1.00  0.00    -0.269 OA
HETATM    4  H   UNL     1      -2.403   3.281 -30.563  1.00  0.00     0.192 HD
ENDROOT
BRANCH   2   5
HETATM    5  N   UNL     1      -3.203   2.026 -32.008  1.00  0.00    -0.184 NA
HETATM    6  C   UNL     1      -3.667   1.017 -31.343  1.00  0.00     0.152 C 
BRANCH   6   7
HETATM    7  C   UNL     1      -3.796  -0.270 -31.991  1.00  0.00     0.011 A 
HETATM    8  C   UNL     1      -4.740  -0.643 -33.002  1.00  0.00     0.004 A 
HETATM    9  C   UNL     1      -4.503  -1.981 -33.321  1.00  0.00     0.043 A 
HETATM   10  C   UNL     1      -5.776   0.033 -33.682  1.00  0.00     0.014 A 
HETATM   11  C   UNL     1      -5.249  -2.677 -34.280  1.00  0.00     0.030 A 
HETATM   12  N   UNL     1      -3.458  -2.407 -32.533  1.00  0.00    -0.364 N 
HETATM   13  C   UNL     1      -6.267  -1.983 -34.938  1.00  0.00     0.002 A 
HETATM   14  C   UNL     1      -6.529  -0.647 -34.646  1.00  0.00     0.001 A 
HETATM   15  H   UNL     1      -3.075  -3.342 -32.545  1.00  0.00     0.165 HD
HETATM   16  C   UNL     1      -3.022  -1.386 -31.734  1.00  0.00     0.102 A 
ENDBRANCH   6   7
ENDBRANCH   2   5
BRANCH   1  17
HETATM   17  C   UNL     1      -4.883   4.191 -32.696  1.00  0.00     0.280 C 
BRANCH  17  18
HETATM   18  O   UNL     1      -6.188   4.440 -32.190  1.00  0.00    -0.341 OA
BRANCH  18  19
HETATM   19  C   UNL     1      -7.146   3.494 -32.445  1.00  0.00     0.086 A 
HETATM   20  C   UNL     1      -7.466   2.609 -31.406  1.00  0.00     0.044 A 
HETATM   21  C   UNL     1      -8.408   1.592 -31.595  1.00  0.00     0.029 A 
HETATM   22 BR   UNL     1      -6.651   2.754 -29.693  1.00  0.00    -0.048 Br
HETATM   23  C   UNL     1      -9.050   1.440 -32.829  1.00  0.00    -0.057 A 
HETATM   24  C   UNL     1      -8.726   2.318 -33.869  1.00  0.00     0.010 A 
HETATM   25  C   UNL     1      -7.784   3.336 -33.680  1.00  0.00     0.039 A 
BRANCH  23  26
HETATM   26  C   UNL     1     -10.040   0.325 -33.050  1.00  0.00     0.034 C 
HETATM   27  C   UNL     1     -11.346   0.836 -33.637  1.00  0.00     0.010 C 
ENDBRANCH  23  26
ENDBRANCH  18  19
ENDBRANCH  17  18
ENDBRANCH   1  17
TORSDOF 6
ENDMDL
MODEL 9
REMARK VINA RESULT:      -7.9      3.693      6.646
REMARK  6 active torsions:
REMARK  status: ('A' for Active; 'I' for Inactive)
REMARK    1  A    between atoms: C_2  and  C_3 
REMARK    2  A    between atoms: C_7  and  O_8 
REMARK    3  A    between atoms: O_8  and  C_9 
REMARK    4  A    between atoms: C_9  and  C_10 
REMARK       I    between atoms: C_10  and  N_11 
REMARK    5  A    between atoms: N_11  and  N_12 
REMARK    6  A    between atoms: C_13  and  C_14 
ROOT
HETATM    1  C   UNL     1      -6.926   2.123 -31.444  1.00  0.00     0.261 C 
HETATM    2  N   UNL     1      -6.550   3.220 -30.707  1.00  0.00    -0.246 N 
HETATM    3  O   UNL     1      -7.608   1.236 -30.922  1.00  0.00    -0.269 OA
HETATM    4  H   UNL     1      -6.901   3.267 -29.756  1.00  0.00     0.192 HD
ENDROOT
BRANCH   2   5
HETATM    5  N   UNL     1      -5.792   4.225 -31.223  1.00  0.00    -0.184 NA
HETATM    6  C   UNL     1      -4.588   4.307 -30.754  1.00  0.00     0.152 C 
BRANCH   6   7
HETATM    7  C   UNL     1      -3.710   5.360 -31.213  1.00  0.00     0.011 A 
HETATM    8  C   UNL     1      -2.921   5.374 -32.409  1.00  0.00     0.004 A 
HETATM    9  C   UNL     1      -2.223   6.583 -32.434  1.00  0.00     0.043 A 
HETATM   10  C   UNL     1      -2.735   4.472 -33.479  1.00  0.00     0.014 A 
HETATM   11  C   UNL     1      -1.348   6.933 -33.470  1.00  0.00     0.030 A 
HETATM   12  N   UNL     1      -2.571   7.276 -31.297  1.00  0.00    -0.364 N 
HETATM   13  C   UNL     1      -1.185   6.022 -34.517  1.00  0.00     0.002 A 
HETATM   14  C   UNL     1      -1.867   4.809 -34.524  1.00  0.00     0.001 A 
HETATM   15  H   UNL     1      -2.209   8.186 -31.048  1.00  0.00     0.165 HD
HETATM   16  C   UNL     1      -3.467   6.554 -30.559  1.00  0.00     0.102 A 
ENDBRANCH   6   7
ENDBRANCH   2   5
BRANCH   1  17
HETATM   17  C   UNL     1      -6.436   2.033 -32.885  1.00  0.00     0.280 C 
BRANCH  17  18
HETATM   18  O   UNL     1      -5.238   1.270 -32.950  1.00  0.00    -0.341 OA
BRANCH  18  19
HETATM   19  C   UNL     1      -5.345  -0.021 -33.398  1.00  0.00     0.086 A 
HETATM   20  C   UNL     1      -4.371  -0.932 -32.966  1.00  0.00     0.044 A 
HETATM   21  C   UNL     1      -4.387  -2.261 -33.405  1.00  0.00     0.029 A 
HETATM   22 BR   UNL     1      -2.995  -0.416 -31.758  1.00  0.00    -0.048 Br
HETATM   23  C   UNL     1      -5.380  -2.704 -34.286  1.00  0.00    -0.057 A 
HETATM   24  C   UNL     1      -6.348  -1.794 -34.723  1.00  0.00     0.010 A 
HETATM   25  C   UNL     1      -6.332  -0.465 -34.283  1.00  0.00     0.039 A 
BRANCH  23  26
HETATM   26  C   UNL     1      -5.382  -4.125 -34.790  1.00  0.00     0.034 C 
HETATM   27  C   UNL     1      -6.740  -4.526 -35.345  1.00  0.00     0.010 C 
ENDBRANCH  23  26
ENDBRANCH  18  19
ENDBRANCH  17  18
ENDBRANCH   1  17
TORSDOF 6
ENDMDL
MODEL 10
REMARK VINA RESULT:      -7.8      4.678      7.959
REMARK  6 active torsions:
REMARK  status: ('A' for Active; 'I' for Inactive)
REMARK    1  A    between atoms: C_2  and  C_3 
REMARK    2  A    between atoms: C_7  and  O_8 
REMARK    3  A    between atoms: O_8  and  C_9 
REMARK    4  A    between atoms: C_9  and  C_10 
REMARK       I    between atoms: C_10  and  N_11 
REMARK    5  A    between atoms: N_11  and  N_12 
REMARK    6  A    between atoms: C_13  and  C_14 
ROOT
HETATM    1  C   UNL     1      -6.751   3.264 -31.566  1.00  0.00     0.261 C 
HETATM    2  N   UNL     1      -6.031   4.201 -30.864  1.00  0.00    -0.246 N 
HETATM    3  O   UNL     1      -7.984   3.272 -31.517  1.00  0.00    -0.269 OA
HETATM    4  H   UNL     1      -6.570   4.899 -30.362  1.00  0.00     0.192 HD
ENDROOT
BRANCH   2   5
HETATM    5  N   UNL     1      -4.671   4.237 -30.871  1.00  0.00    -0.184 NA
HETATM    6  C   UNL     1      -4.150   5.290 -31.415  1.00  0.00     0.152 C 
BRANCH   6   7
HETATM    7  C   UNL     1      -2.711   5.412 -31.503  1.00  0.00     0.011 A 
HETATM    8  C   UNL     1      -1.852   6.187 -30.657  1.00  0.00     0.004 A 
HETATM    9  C   UNL     1      -0.546   6.017 -31.121  1.00  0.00     0.043 A 
HETATM   10  C   UNL     1      -2.060   7.019 -29.535  1.00  0.00     0.014 A 
HETATM   11  C   UNL     1       0.559   6.635 -30.523  1.00  0.00     0.030 A 
HETATM   12  N   UNL     1      -0.608   5.173 -32.207  1.00  0.00    -0.364 N 
HETATM   13  C   UNL     1       0.323   7.452 -29.413  1.00  0.00     0.002 A 
HETATM   14  C   UNL     1      -0.966   7.642 -28.925  1.00  0.00     0.001 A 
HETATM   15  H   UNL     1       0.192   4.879 -32.751  1.00  0.00     0.165 HD
HETATM   16  C   UNL     1      -1.902   4.800 -32.442  1.00  0.00     0.102 A 
ENDBRANCH   6   7
ENDBRANCH   2   5
BRANCH   1  17
HETATM   17  C   UNL     1      -5.973   2.213 -32.351  1.00  0.00     0.280 C 
BRANCH  17  18
HETATM   18  O   UNL     1      -6.258   0.914 -31.849  1.00  0.00    -0.341 OA
BRANCH  18  19
HETATM   19  C   UNL     1      -6.011  -0.145 -32.684  1.00  0.00     0.086 A 
HETATM   20  C   UNL     1      -7.108  -0.702 -33.355  1.00  0.00     0.044 A 
HETATM   21  C   UNL     1      -6.947  -1.808 -34.198  1.00  0.00     0.029 A 
HETATM   22 BR   UNL     1      -8.857   0.020 -33.167  1.00  0.00    -0.048 Br
HETATM   23  C   UNL     1      -5.683  -2.378 -34.386  1.00  0.00    -0.057 A 
HETATM   24  C   UNL     1      -4.588  -1.827 -33.711  1.00  0.00     0.010 A 
HETATM   25  C   UNL     1      -4.750  -0.720 -32.868  1.00  0.00     0.039 A 
BRANCH  23  26
HETATM   26  C   UNL     1      -5.508  -3.590 -35.264  1.00  0.00     0.034 C 
HETATM   27  C   UNL     1      -6.717  -4.512 -35.203  1.00  0.00     0.010 C 
ENDBRANCH  23  26
ENDBRANCH  18  19
ENDBRANCH  17  18
ENDBRANCH   1  17
TORSDOF 6
ENDMDL
