MODEL 1
REMARK VINA RESULT:      -9.4      0.000      0.000
REMARK  6 active torsions:
REMARK  status: ('A' for Active; 'I' for Inactive)
REMARK    1  A    between atoms: C_7  and  S_8 
REMARK    2  A    between atoms: S_8  and  C_9 
REMARK    3  A    between atoms: C_9  and  C_10 
REMARK    4  A    between atoms: C_18  and  C_19 
REMARK    5  A    between atoms: C_27  and  C_28 
REMARK    6  A    between atoms: C_28  and  O_29 
ROOT
HETATM    1  C   UNL     1      -3.030  -2.861 -31.947  1.00  0.00     0.070 C 
HETATM    2  C   UNL     1      -3.579  -1.501 -32.299  1.00  0.00     0.037 A 
HETATM    3  N   UNL     1      -3.072  -0.439 -31.558  1.00  0.00    -0.192 N 
HETATM    4  C   UNL     1      -3.453   0.839 -31.736  1.00  0.00     0.726 A 
HETATM    5  N   UNL     1      -4.427   1.126 -32.652  1.00  0.00    -0.082 N 
HETATM    6  N   UNL     1      -4.647   2.453 -32.733  1.00  0.00    -0.128 NA
HETATM    7  C   UNL     1      -3.797   2.906 -31.803  1.00  0.00     0.226 A 
HETATM    8  N   UNL     1      -3.045   1.946 -31.171  1.00  0.00    -0.035 NA
HETATM    9  C   UNL     1      -5.088   0.121 -33.496  1.00  0.00     0.208 A 
HETATM   10  C   UNL     1      -4.525  -1.274 -33.246  1.00  0.00     0.070 A 
HETATM   11  H   UNL     1      -2.355  -0.645 -30.868  1.00  0.00     0.184 HD
ENDROOT
BRANCH   7  12
HETATM   12  S   UNL     1      -3.680   4.607 -31.447  1.00  0.00    -0.083 SA
BRANCH  12  13
HETATM   13  C   UNL     1      -1.889   4.835 -31.616  1.00  0.00     0.123 C 
BRANCH  13  14
HETATM   14  C   UNL     1      -1.376   5.937 -30.718  1.00  0.00    -0.027 A 
HETATM   15  C   UNL     1      -0.027   6.048 -30.343  1.00  0.00     0.041 A 
HETATM   16 CL   UNL     1       1.167   4.917 -30.872  1.00  0.00    -0.084 Cl
HETATM   17  C   UNL     1       0.397   7.092 -29.514  1.00  0.00     0.024 A 
HETATM   18  C   UNL     1      -0.516   8.039 -29.053  1.00  0.00     0.002 A 
HETATM   19  C   UNL     1      -1.854   7.949 -29.422  1.00  0.00     0.001 A 
HETATM   20  C   UNL     1      -2.281   6.909 -30.252  1.00  0.00     0.009 A 
ENDBRANCH  13  14
ENDBRANCH  12  13
ENDBRANCH   7  12
BRANCH   9  21
HETATM   21  C   UNL     1      -6.598   0.261 -33.385  1.00  0.00     0.032 A 
HETATM   22  C   UNL     1      -7.331   0.167 -32.191  1.00  0.00     0.045 A 
HETATM   23 CL   UNL     1      -6.591  -0.138 -30.661  1.00  0.00    -0.084 Cl
HETATM   24  C   UNL     1      -8.726   0.321 -32.192  1.00  0.00     0.024 A 
HETATM   25  C   UNL     1      -9.412   0.576 -33.377  1.00  0.00     0.005 A 
HETATM   26  C   UNL     1      -8.703   0.675 -34.568  1.00  0.00     0.043 A 
HETATM   27  C   UNL     1      -7.319   0.518 -34.561  1.00  0.00     0.126 A 
HETATM   28  F   UNL     1      -6.671   0.612 -35.732  1.00  0.00    -0.205 F 
ENDBRANCH   9  21
BRANCH  10  29
HETATM   29  C   UNL     1      -5.034  -2.330 -34.146  1.00  0.00     0.293 C 
HETATM   30  O   UNL     1      -4.378  -2.838 -35.040  1.00  0.00    -0.259 OA
BRANCH  29  31
HETATM   31  O   UNL     1      -6.286  -2.697 -33.772  1.00  0.00    -0.323 OA
HETATM   32  C   UNL     1      -6.914  -3.614 -34.668  1.00  0.00     0.213 C 
ENDBRANCH  29  31
ENDBRANCH  10  29
TORSDOF 6
ENDMDL
MODEL 2
REMARK VINA RESULT:      -9.1      2.880      3.672
REMARK  6 active torsions:
REMARK  status: ('A' for Active; 'I' for Inactive)
REMARK    1  A    between atoms: C_7  and  S_8 
REMARK    2  A    between atoms: S_8  and  C_9 
REMARK    3  A    between atoms: C_9  and  C_10 
REMARK    4  A    between atoms: C_18  and  C_19 
REMARK    5  A    between atoms: C_27  and  C_28 
REMARK    6  A    between atoms: C_28  and  O_29 
ROOT
HETATM    1  C   UNL     1      -3.302  -3.310 -32.236  1.00  0.00     0.070 C 
HETATM    2  C   UNL     1      -3.756  -1.900 -32.520  1.00  0.00     0.037 A 
HETATM    3  N   UNL     1      -3.168  -0.913 -31.737  1.00  0.00    -0.192 N 
HETATM    4  C   UNL     1      -3.459   0.396 -31.852  1.00  0.00     0.726 A 
HETATM    5  N   UNL     1      -4.417   0.793 -32.743  1.00  0.00    -0.082 N 
HETATM    6  N   UNL     1      -4.542   2.136 -32.760  1.00  0.00    -0.128 NA
HETATM    7  C   UNL     1      -3.656   2.483 -31.820  1.00  0.00     0.226 A 
HETATM    8  N   UNL     1      -2.969   1.443 -31.241  1.00  0.00    -0.035 NA
HETATM    9  C   UNL     1      -5.155  -0.121 -33.625  1.00  0.00     0.208 A 
HETATM   10  C   UNL     1      -4.690  -1.563 -33.445  1.00  0.00     0.070 A 
HETATM   11  H   UNL     1      -2.463  -1.201 -31.064  1.00  0.00     0.184 HD
ENDROOT
BRANCH   7  12
HETATM   12  S   UNL     1      -3.416   4.153 -31.387  1.00  0.00    -0.083 SA
BRANCH  12  13
HETATM   13  C   UNL     1      -4.863   4.892 -32.193  1.00  0.00     0.123 C 
BRANCH  13  14
HETATM   14  C   UNL     1      -6.144   4.552 -31.467  1.00  0.00    -0.027 A 
HETATM   15  C   UNL     1      -7.309   4.136 -32.132  1.00  0.00     0.041 A 
HETATM   16 CL   UNL     1      -7.380   3.989 -33.852  1.00  0.00    -0.084 Cl
HETATM   17  C   UNL     1      -8.468   3.826 -31.412  1.00  0.00     0.024 A 
HETATM   18  C   UNL     1      -8.478   3.923 -30.021  1.00  0.00     0.002 A 
HETATM   19  C   UNL     1      -7.330   4.325 -29.346  1.00  0.00     0.001 A 
HETATM   20  C   UNL     1      -6.171   4.633 -30.062  1.00  0.00     0.009 A 
ENDBRANCH  13  14
ENDBRANCH  12  13
ENDBRANCH   7  12
BRANCH   9  21
HETATM   21  C   UNL     1      -6.650   0.119 -33.491  1.00  0.00     0.032 A 
HETATM   22  C   UNL     1      -7.365   0.101 -32.283  1.00  0.00     0.045 A 
HETATM   23 CL   UNL     1      -6.618  -0.218 -30.759  1.00  0.00    -0.084 Cl
HETATM   24  C   UNL     1      -8.747   0.345 -32.263  1.00  0.00     0.024 A 
HETATM   25  C   UNL     1      -9.437   0.618 -33.443  1.00  0.00     0.005 A 
HETATM   26  C   UNL     1      -8.745   0.643 -34.647  1.00  0.00     0.043 A 
HETATM   27  C   UNL     1      -7.375   0.397 -34.660  1.00  0.00     0.126 A 
HETATM   28  F   UNL     1      -6.743   0.421 -35.844  1.00  0.00    -0.205 F 
ENDBRANCH   9  21
BRANCH  10  29
HETATM   29  C   UNL     1      -5.280  -2.538 -34.387  1.00  0.00     0.293 C 
HETATM   30  O   UNL     1      -4.722  -2.934 -35.397  1.00  0.00    -0.259 OA
BRANCH  29  31
HETATM   31  O   UNL     1      -6.474  -2.976 -33.916  1.00  0.00    -0.323 OA
HETATM   32  C   UNL     1      -6.967  -4.142 -34.577  1.00  0.00     0.213 C 
ENDBRANCH  29  31
ENDBRANCH  10  29
TORSDOF 6
ENDMDL
MODEL 3
REMARK VINA RESULT:      -9.1      3.902      8.350
REMARK  6 active torsions:
REMARK  status: ('A' for Active; 'I' for Inactive)
REMARK    1  A    between atoms: C_7  and  S_8 
REMARK    2  A    between atoms: S_8  and  C_9 
REMARK    3  A    between atoms: C_9  and  C_10 
REMARK    4  A    between atoms: C_18  and  C_19 
REMARK    5  A    between atoms: C_27  and  C_28 
REMARK    6  A    between atoms: C_28  and  O_29 
ROOT
HETATM    1  C   UNL     1      -6.170   5.301 -28.738  1.00  0.00     0.070 C 
HETATM    2  C   UNL     1      -5.713   4.438 -29.887  1.00  0.00     0.037 A 
HETATM    3  N   UNL     1      -5.345   3.139 -29.552  1.00  0.00    -0.192 N 
HETATM    4  C   UNL     1      -4.909   2.237 -30.449  1.00  0.00     0.726 A 
HETATM    5  N   UNL     1      -4.763   2.609 -31.757  1.00  0.00    -0.082 N 
HETATM    6  N   UNL     1      -4.366   1.571 -32.520  1.00  0.00    -0.128 NA
HETATM    7  C   UNL     1      -4.251   0.609 -31.596  1.00  0.00     0.226 A 
HETATM    8  N   UNL     1      -4.577   0.979 -30.314  1.00  0.00    -0.035 NA
HETATM    9  C   UNL     1      -5.078   3.948 -32.275  1.00  0.00     0.208 A 
HETATM   10  C   UNL     1      -5.621   4.856 -31.176  1.00  0.00     0.070 A 
HETATM   11  H   UNL     1      -5.441   2.858 -28.580  1.00  0.00     0.184 HD
ENDROOT
BRANCH   7  12
HETATM   12  S   UNL     1      -3.720  -0.991 -32.030  1.00  0.00    -0.083 SA
BRANCH  12  13
HETATM   13  C   UNL     1      -4.248  -1.033 -33.765  1.00  0.00     0.123 C 
BRANCH  13  14
HETATM   14  C   UNL     1      -4.890  -2.353 -34.124  1.00  0.00    -0.027 A 
HETATM   15  C   UNL     1      -6.202  -2.453 -34.616  1.00  0.00     0.041 A 
HETATM   16 CL   UNL     1      -7.205  -1.064 -34.840  1.00  0.00    -0.084 Cl
HETATM   17  C   UNL     1      -6.746  -3.700 -34.940  1.00  0.00     0.024 A 
HETATM   18  C   UNL     1      -5.990  -4.860 -34.784  1.00  0.00     0.002 A 
HETATM   19  C   UNL     1      -4.686  -4.777 -34.307  1.00  0.00     0.001 A 
HETATM   20  C   UNL     1      -4.138  -3.534 -33.983  1.00  0.00     0.009 A 
ENDBRANCH  13  14
ENDBRANCH  12  13
ENDBRANCH   7  12
BRANCH   9  21
HETATM   21  C   UNL     1      -3.898   4.491 -33.065  1.00  0.00     0.032 A 
HETATM   22  C   UNL     1      -2.596   4.653 -32.564  1.00  0.00     0.045 A 
HETATM   23 CL   UNL     1      -2.165   4.256 -30.940  1.00  0.00    -0.084 Cl
HETATM   24  C   UNL     1      -1.571   5.155 -33.379  1.00  0.00     0.024 A 
HETATM   25  C   UNL     1      -1.822   5.497 -34.706  1.00  0.00     0.005 A 
HETATM   26  C   UNL     1      -3.103   5.341 -35.220  1.00  0.00     0.043 A 
HETATM   27  C   UNL     1      -4.117   4.845 -34.405  1.00  0.00     0.126 A 
HETATM   28  F   UNL     1      -5.343   4.717 -34.935  1.00  0.00    -0.205 F 
ENDBRANCH   9  21
BRANCH  10  29
HETATM   29  C   UNL     1      -6.093   6.181 -31.628  1.00  0.00     0.293 C 
HETATM   30  O   UNL     1      -5.405   7.189 -31.618  1.00  0.00    -0.259 OA
BRANCH  29  31
HETATM   31  O   UNL     1      -7.351   6.084 -32.125  1.00  0.00    -0.323 OA
HETATM   32  C   UNL     1      -8.342   6.732 -31.327  1.00  0.00     0.213 C 
ENDBRANCH  29  31
ENDBRANCH  10  29
TORSDOF 6
ENDMDL
MODEL 4
REMARK VINA RESULT:      -9.0      3.729      8.181
REMARK  6 active torsions:
REMARK  status: ('A' for Active; 'I' for Inactive)
REMARK    1  A    between atoms: C_7  and  S_8 
REMARK    2  A    between atoms: S_8  and  C_9 
REMARK    3  A    between atoms: C_9  and  C_10 
REMARK    4  A    between atoms: C_18  and  C_19 
REMARK    5  A    between atoms: C_27  and  C_28 
REMARK    6  A    between atoms: C_28  and  O_29 
ROOT
HETATM    1  C   UNL     1     -10.119   3.794 -31.290  1.00  0.00     0.070 C 
HETATM    2  C   UNL     1      -8.752   3.360 -31.756  1.00  0.00     0.037 A 
HETATM    3  N   UNL     1      -8.328   2.119 -31.295  1.00  0.00    -0.192 N 
HETATM    4  C   UNL     1      -7.135   1.579 -31.607  1.00  0.00     0.726 A 
HETATM    5  N   UNL     1      -6.258   2.293 -32.376  1.00  0.00    -0.082 N 
HETATM    6  N   UNL     1      -5.140   1.584 -32.630  1.00  0.00    -0.128 NA
HETATM    7  C   UNL     1      -5.393   0.462 -31.945  1.00  0.00     0.226 A 
HETATM    8  N   UNL     1      -6.609   0.420 -31.306  1.00  0.00    -0.035 NA
HETATM    9  C   UNL     1      -6.535   3.629 -32.921  1.00  0.00     0.208 A 
HETATM   10  C   UNL     1      -7.938   4.101 -32.550  1.00  0.00     0.070 A 
HETATM   11  H   UNL     1      -8.970   1.586 -30.714  1.00  0.00     0.184 HD
ENDROOT
BRANCH   7  12
HETATM   12  S   UNL     1      -4.235  -0.837 -31.892  1.00  0.00    -0.083 SA
BRANCH  12  13
HETATM   13  C   UNL     1      -4.050  -1.158 -33.668  1.00  0.00     0.123 C 
BRANCH  13  14
HETATM   14  C   UNL     1      -4.795  -2.401 -34.095  1.00  0.00    -0.027 A 
HETATM   15  C   UNL     1      -6.096  -2.367 -34.622  1.00  0.00     0.041 A 
HETATM   16 CL   UNL     1      -6.967  -0.888 -34.817  1.00  0.00    -0.084 Cl
HETATM   17  C   UNL     1      -6.738  -3.548 -35.009  1.00  0.00     0.024 A 
HETATM   18  C   UNL     1      -6.091  -4.776 -34.879  1.00  0.00     0.002 A 
HETATM   19  C   UNL     1      -4.798  -4.826 -34.367  1.00  0.00     0.001 A 
HETATM   20  C   UNL     1      -4.153  -3.650 -33.982  1.00  0.00     0.009 A 
ENDBRANCH  13  14
ENDBRANCH  12  13
ENDBRANCH   7  12
BRANCH   9  21
HETATM   21  C   UNL     1      -5.400   4.578 -32.574  1.00  0.00     0.032 A 
HETATM   22  C   UNL     1      -5.015   4.937 -31.272  1.00  0.00     0.045 A 
HETATM   23 CL   UNL     1      -5.814   4.336 -29.864  1.00  0.00    -0.084 Cl
HETATM   24  C   UNL     1      -3.943   5.816 -31.057  1.00  0.00     0.024 A 
HETATM   25  C   UNL     1      -3.234   6.348 -32.132  1.00  0.00     0.005 A 
HETATM   26  C   UNL     1      -3.598   6.003 -33.427  1.00  0.00     0.043 A 
HETATM   27  C   UNL     1      -4.664   5.132 -33.634  1.00  0.00     0.126 A 
HETATM   28  F   UNL     1      -4.992   4.829 -34.900  1.00  0.00    -0.205 F 
ENDBRANCH   9  21
BRANCH  10  29
HETATM   29  C   UNL     1      -8.358   5.377 -33.167  1.00  0.00     0.293 C 
HETATM   30  O   UNL     1      -8.428   6.435 -32.564  1.00  0.00    -0.259 OA
BRANCH  29  31
HETATM   31  O   UNL     1      -8.564   5.206 -34.497  1.00  0.00    -0.323 OA
HETATM   32  C   UNL     1      -9.940   5.102 -34.863  1.00  0.00     0.213 C 
ENDBRANCH  29  31
ENDBRANCH  10  29
TORSDOF 6
ENDMDL
MODEL 5
REMARK VINA RESULT:      -8.7      1.398      1.756
REMARK  6 active torsions:
REMARK  status: ('A' for Active; 'I' for Inactive)
REMARK    1  A    between atoms: C_7  and  S_8 
REMARK    2  A    between atoms: S_8  and  C_9 
REMARK    3  A    between atoms: C_9  and  C_10 
REMARK    4  A    between atoms: C_18  and  C_19 
REMARK    5  A    between atoms: C_27  and  C_28 
REMARK    6  A    between atoms: C_28  and  O_29 
ROOT
HETATM    1  C   UNL     1      -3.038  -2.843 -31.746  1.00  0.00     0.070 C 
HETATM    2  C   UNL     1      -3.601  -1.494 -32.118  1.00  0.00     0.037 A 
HETATM    3  N   UNL     1      -3.033  -0.406 -31.464  1.00  0.00    -0.192 N 
HETATM    4  C   UNL     1      -3.416   0.867 -31.671  1.00  0.00     0.726 A 
HETATM    5  N   UNL     1      -4.452   1.124 -32.527  1.00  0.00    -0.082 N 
HETATM    6  N   UNL     1      -4.666   2.449 -32.651  1.00  0.00    -0.128 NA
HETATM    7  C   UNL     1      -3.749   2.933 -31.805  1.00  0.00     0.226 A 
HETATM    8  N   UNL     1      -2.961   1.993 -31.186  1.00  0.00    -0.035 NA
HETATM    9  C   UNL     1      -5.180   0.090 -33.276  1.00  0.00     0.208 A 
HETATM   10  C   UNL     1      -4.611  -1.299 -33.005  1.00  0.00     0.070 A 
HETATM   11  H   UNL     1      -2.270  -0.590 -30.818  1.00  0.00     0.184 HD
ENDROOT
BRANCH   7  12
HETATM   12  S   UNL     1      -3.594   4.646 -31.535  1.00  0.00    -0.083 SA
BRANCH  12  13
HETATM   13  C   UNL     1      -1.789   4.810 -31.619  1.00  0.00     0.123 C 
BRANCH  13  14
HETATM   14  C   UNL     1      -1.282   5.911 -30.716  1.00  0.00    -0.027 A 
HETATM   15  C   UNL     1       0.059   6.006 -30.311  1.00  0.00     0.041 A 
HETATM   16 CL   UNL     1       1.250   4.856 -30.804  1.00  0.00    -0.084 Cl
HETATM   17  C   UNL     1       0.477   7.050 -29.479  1.00  0.00     0.024 A 
HETATM   18  C   UNL     1      -0.433   8.012 -29.045  1.00  0.00     0.002 A 
HETATM   19  C   UNL     1      -1.764   7.937 -29.445  1.00  0.00     0.001 A 
HETATM   20  C   UNL     1      -2.185   6.898 -30.277  1.00  0.00     0.009 A 
ENDBRANCH  13  14
ENDBRANCH  12  13
ENDBRANCH   7  12
BRANCH   9  21
HETATM   21  C   UNL     1      -6.676   0.251 -33.063  1.00  0.00     0.032 A 
HETATM   22  C   UNL     1      -7.624   0.420 -34.085  1.00  0.00     0.045 A 
HETATM   23 CL   UNL     1      -7.195   0.479 -35.756  1.00  0.00    -0.084 Cl
HETATM   24  C   UNL     1      -8.989   0.551 -33.784  1.00  0.00     0.024 A 
HETATM   25  C   UNL     1      -9.432   0.510 -32.464  1.00  0.00     0.005 A 
HETATM   26  C   UNL     1      -8.509   0.341 -31.439  1.00  0.00     0.043 A 
HETATM   27  C   UNL     1      -7.156   0.214 -31.744  1.00  0.00     0.126 A 
HETATM   28  F   UNL     1      -6.294   0.062 -30.727  1.00  0.00    -0.205 F 
ENDBRANCH   9  21
BRANCH  10  29
HETATM   29  C   UNL     1      -5.191  -2.388 -33.817  1.00  0.00     0.293 C 
HETATM   30  O   UNL     1      -6.387  -2.620 -33.891  1.00  0.00    -0.259 OA
BRANCH  29  31
HETATM   31  O   UNL     1      -4.215  -3.018 -34.517  1.00  0.00    -0.323 OA
HETATM   32  C   UNL     1      -4.355  -4.438 -34.560  1.00  0.00     0.213 C 
ENDBRANCH  29  31
ENDBRANCH  10  29
TORSDOF 6
ENDMDL
MODEL 6
REMARK VINA RESULT:      -8.6      2.933      4.548
REMARK  6 active torsions:
REMARK  status: ('A' for Active; 'I' for Inactive)
REMARK    1  A    between atoms: C_7  and  S_8 
REMARK    2  A    between atoms: S_8  and  C_9 
REMARK    3  A    between atoms: C_9  and  C_10 
REMARK    4  A    between atoms: C_18  and  C_19 
REMARK    5  A    between atoms: C_27  and  C_28 
REMARK    6  A    between atoms: C_28  and  O_29 
ROOT
HETATM    1  C   UNL     1      -9.392   4.933 -33.753  1.00  0.00     0.070 C 
HETATM    2  C   UNL     1      -8.000   4.472 -33.399  1.00  0.00     0.037 A 
HETATM    3  N   UNL     1      -6.965   5.153 -34.031  1.00  0.00    -0.192 N 
HETATM    4  C   UNL     1      -5.664   4.870 -33.836  1.00  0.00     0.726 A 
HETATM    5  N   UNL     1      -5.320   3.830 -33.017  1.00  0.00    -0.082 N 
HETATM    6  N   UNL     1      -3.981   3.723 -32.899  1.00  0.00    -0.128 NA
HETATM    7  C   UNL     1      -3.577   4.708 -33.710  1.00  0.00     0.226 A 
HETATM    8  N   UNL     1      -4.581   5.436 -34.302  1.00  0.00    -0.035 NA
HETATM    9  C   UNL     1      -6.288   2.991 -32.297  1.00  0.00     0.208 A 
HETATM   10  C   UNL     1      -7.720   3.451 -32.550  1.00  0.00     0.070 A 
HETATM   11  H   UNL     1      -7.213   5.920 -34.649  1.00  0.00     0.184 HD
ENDROOT
BRANCH   7  12
HETATM   12  S   UNL     1      -1.884   5.016 -33.972  1.00  0.00    -0.083 SA
BRANCH  12  13
HETATM   13  C   UNL     1      -1.815   6.771 -33.521  1.00  0.00     0.123 C 
BRANCH  13  14
HETATM   14  C   UNL     1      -1.391   6.965 -32.083  1.00  0.00    -0.027 A 
HETATM   15  C   UNL     1      -2.301   7.242 -31.051  1.00  0.00     0.041 A 
HETATM   16 CL   UNL     1      -3.997   7.397 -31.341  1.00  0.00    -0.084 Cl
HETATM   17  C   UNL     1      -1.856   7.406 -29.735  1.00  0.00     0.024 A 
HETATM   18  C   UNL     1      -0.500   7.293 -29.431  1.00  0.00     0.002 A 
HETATM   19  C   UNL     1       0.414   7.010 -30.442  1.00  0.00     0.001 A 
HETATM   20  C   UNL     1      -0.027   6.843 -31.756  1.00  0.00     0.009 A 
ENDBRANCH  13  14
ENDBRANCH  12  13
ENDBRANCH   7  12
BRANCH   9  21
HETATM   21  C   UNL     1      -6.002   1.522 -32.563  1.00  0.00     0.032 A 
HETATM   22  C   UNL     1      -5.601   0.589 -31.594  1.00  0.00     0.045 A 
HETATM   23 CL   UNL     1      -5.364   1.007 -29.936  1.00  0.00    -0.084 Cl
HETATM   24  C   UNL     1      -5.370  -0.752 -31.941  1.00  0.00     0.024 A 
HETATM   25  C   UNL     1      -5.541  -1.185 -33.254  1.00  0.00     0.005 A 
HETATM   26  C   UNL     1      -5.940  -0.276 -34.226  1.00  0.00     0.043 A 
HETATM   27  C   UNL     1      -6.164   1.053 -33.876  1.00  0.00     0.126 A 
HETATM   28  F   UNL     1      -6.540   1.902 -34.845  1.00  0.00    -0.205 F 
ENDBRANCH   9  21
BRANCH  10  29
HETATM   29  C   UNL     1      -8.755   2.752 -31.760  1.00  0.00     0.293 C 
HETATM   30  O   UNL     1      -9.026   3.021 -30.601  1.00  0.00    -0.259 OA
BRANCH  29  31
HETATM   31  O   UNL     1      -9.400   1.846 -32.536  1.00  0.00    -0.323 OA
HETATM   32  C   UNL     1      -9.346   0.510 -32.035  1.00  0.00     0.213 C 
ENDBRANCH  29  31
ENDBRANCH  10  29
TORSDOF 6
ENDMDL
MODEL 7
REMARK VINA RESULT:      -8.6      2.020      2.437
REMARK  6 active torsions:
REMARK  status: ('A' for Active; 'I' for Inactive)
REMARK    1  A    between atoms: C_7  and  S_8 
REMARK    2  A    between atoms: S_8  and  C_9 
REMARK    3  A    between atoms: C_9  and  C_10 
REMARK    4  A    between atoms: C_18  and  C_19 
REMARK    5  A    between atoms: C_27  and  C_28 
REMARK    6  A    between atoms: C_28  and  O_29 
ROOT
HETATM    1  C   UNL     1      -2.898  -1.521 -31.706  1.00  0.00     0.070 C 
HETATM    2  C   UNL     1      -3.749  -0.320 -32.032  1.00  0.00     0.037 A 
HETATM    3  N   UNL     1      -3.499   0.817 -31.271  1.00  0.00    -0.192 N 
HETATM    4  C   UNL     1      -4.168   1.974 -31.424  1.00  0.00     0.726 A 
HETATM    5  N   UNL     1      -5.185   2.044 -32.335  1.00  0.00    -0.082 N 
HETATM    6  N   UNL     1      -5.708   3.286 -32.390  1.00  0.00    -0.128 NA
HETATM    7  C   UNL     1      -4.983   3.906 -31.451  1.00  0.00     0.226 A 
HETATM    8  N   UNL     1      -4.026   3.134 -30.838  1.00  0.00    -0.035 NA
HETATM    9  C   UNL     1      -5.599   0.929 -33.199  1.00  0.00     0.208 A 
HETATM   10  C   UNL     1      -4.726  -0.301 -32.975  1.00  0.00     0.070 A 
HETATM   11  H   UNL     1      -2.751   0.770 -30.584  1.00  0.00     0.184 HD
ENDROOT
BRANCH   7  12
HETATM   12  S   UNL     1      -5.263   5.580 -31.063  1.00  0.00    -0.083 SA
BRANCH  12  13
HETATM   13  C   UNL     1      -5.008   6.323 -32.698  1.00  0.00     0.123 C 
BRANCH  13  14
HETATM   14  C   UNL     1      -3.540   6.479 -33.021  1.00  0.00    -0.027 A 
HETATM   15  C   UNL     1      -2.955   5.948 -34.182  1.00  0.00     0.041 A 
HETATM   16 CL   UNL     1      -3.870   5.054 -35.343  1.00  0.00    -0.084 Cl
HETATM   17  C   UNL     1      -1.591   6.127 -34.437  1.00  0.00     0.024 A 
HETATM   18  C   UNL     1      -0.795   6.840 -33.541  1.00  0.00     0.002 A 
HETATM   19  C   UNL     1      -1.362   7.380 -32.390  1.00  0.00     0.001 A 
HETATM   20  C   UNL     1      -2.723   7.205 -32.133  1.00  0.00     0.009 A 
ENDBRANCH  13  14
ENDBRANCH  12  13
ENDBRANCH   7  12
BRANCH   9  21
HETATM   21  C   UNL     1      -7.099   0.712 -33.085  1.00  0.00     0.032 A 
HETATM   22  C   UNL     1      -7.776   0.356 -31.908  1.00  0.00     0.045 A 
HETATM   23 CL   UNL     1      -6.966   0.103 -30.404  1.00  0.00    -0.084 Cl
HETATM   24  C   UNL     1      -9.170   0.188 -31.904  1.00  0.00     0.024 A 
HETATM   25  C   UNL     1      -9.911   0.377 -33.069  1.00  0.00     0.005 A 
HETATM   26  C   UNL     1      -9.258   0.732 -34.243  1.00  0.00     0.043 A 
HETATM   27  C   UNL     1      -7.875   0.895 -34.240  1.00  0.00     0.126 A 
HETATM   28  F   UNL     1      -7.280   1.229 -35.395  1.00  0.00    -0.205 F 
ENDBRANCH   9  21
BRANCH  10  29
HETATM   29  C   UNL     1      -4.979  -1.430 -33.895  1.00  0.00     0.293 C 
HETATM   30  O   UNL     1      -4.215  -1.771 -34.783  1.00  0.00    -0.259 OA
BRANCH  29  31
HETATM   31  O   UNL     1      -6.127  -2.064 -33.548  1.00  0.00    -0.323 OA
HETATM   32  C   UNL     1      -6.707  -2.833 -34.603  1.00  0.00     0.213 C 
ENDBRANCH  29  31
ENDBRANCH  10  29
TORSDOF 6
ENDMDL
MODEL 8
REMARK VINA RESULT:      -8.5      6.256      9.120
REMARK  6 active torsions:
REMARK  status: ('A' for Active; 'I' for Inactive)
REMARK    1  A    between atoms: C_7  and  S_8 
REMARK    2  A    between atoms: S_8  and  C_9 
REMARK    3  A    between atoms: C_9  and  C_10 
REMARK    4  A    between atoms: C_18  and  C_19 
REMARK    5  A    between atoms: C_27  and  C_28 
REMARK    6  A    between atoms: C_28  and  O_29 
ROOT
HETATM    1  C   UNL     1     -10.481   6.487 -35.705  1.00  0.00     0.070 C 
HETATM    2  C   UNL     1     -10.563   5.352 -34.715  1.00  0.00     0.037 A 
HETATM    3  N   UNL     1      -9.487   4.472 -34.720  1.00  0.00    -0.192 N 
HETATM    4  C   UNL     1      -9.398   3.404 -33.908  1.00  0.00     0.726 A 
HETATM    5  N   UNL     1     -10.432   3.119 -33.060  1.00  0.00    -0.082 N 
HETATM    6  N   UNL     1     -10.153   2.048 -32.290  1.00  0.00    -0.128 NA
HETATM    7  C   UNL     1      -8.946   1.709 -32.758  1.00  0.00     0.226 A 
HETATM    8  N   UNL     1      -8.448   2.519 -33.750  1.00  0.00    -0.035 NA
HETATM    9  C   UNL     1     -11.655   3.927 -32.949  1.00  0.00     0.208 A 
HETATM   10  C   UNL     1     -11.606   5.140 -33.871  1.00  0.00     0.070 A 
HETATM   11  H   UNL     1      -8.718   4.671 -35.355  1.00  0.00     0.184 HD
ENDROOT
BRANCH   7  12
HETATM   12  S   UNL     1      -8.094   0.329 -32.125  1.00  0.00    -0.083 SA
BRANCH  12  13
HETATM   13  C   UNL     1      -6.549   0.461 -33.067  1.00  0.00     0.123 C 
BRANCH  13  14
HETATM   14  C   UNL     1      -6.127  -0.871 -33.643  1.00  0.00    -0.027 A 
HETATM   15  C   UNL     1      -4.788  -1.292 -33.687  1.00  0.00     0.041 A 
HETATM   16 CL   UNL     1      -3.498  -0.307 -33.094  1.00  0.00    -0.084 Cl
HETATM   17  C   UNL     1      -4.451  -2.538 -34.225  1.00  0.00     0.024 A 
HETATM   18  C   UNL     1      -5.444  -3.382 -34.721  1.00  0.00     0.002 A 
HETATM   19  C   UNL     1      -6.777  -2.984 -34.676  1.00  0.00     0.001 A 
HETATM   20  C   UNL     1      -7.117  -1.741 -34.138  1.00  0.00     0.009 A 
ENDBRANCH  13  14
ENDBRANCH  12  13
ENDBRANCH   7  12
BRANCH   9  21
HETATM   21  C   UNL     1     -12.880   3.036 -33.082  1.00  0.00     0.032 A 
HETATM   22  C   UNL     1     -13.163   2.212 -34.183  1.00  0.00     0.045 A 
HETATM   23 CL   UNL     1     -12.132   2.112 -35.564  1.00  0.00    -0.084 Cl
HETATM   24  C   UNL     1     -14.320   1.418 -34.206  1.00  0.00     0.024 A 
HETATM   25  C   UNL     1     -15.210   1.427 -33.134  1.00  0.00     0.005 A 
HETATM   26  C   UNL     1     -14.944   2.235 -32.035  1.00  0.00     0.043 A 
HETATM   27  C   UNL     1     -13.796   3.023 -32.019  1.00  0.00     0.126 A 
HETATM   28  F   UNL     1     -13.580   3.796 -30.944  1.00  0.00    -0.205 F 
ENDBRANCH   9  21
BRANCH  10  29
HETATM   29  C   UNL     1     -12.733   6.086 -33.730  1.00  0.00     0.293 C 
HETATM   30  O   UNL     1     -13.714   6.090 -34.456  1.00  0.00    -0.259 OA
BRANCH  29  31
HETATM   31  O   UNL     1     -12.548   6.872 -32.640  1.00  0.00    -0.323 OA
HETATM   32  C   UNL     1     -13.736   7.103 -31.883  1.00  0.00     0.213 C 
ENDBRANCH  29  31
ENDBRANCH  10  29
TORSDOF 6
ENDMDL
MODEL 9
REMARK VINA RESULT:      -8.5      4.154      8.354
REMARK  6 active torsions:
REMARK  status: ('A' for Active; 'I' for Inactive)
REMARK    1  A    between atoms: C_7  and  S_8 
REMARK    2  A    between atoms: S_8  and  C_9 
REMARK    3  A    between atoms: C_9  and  C_10 
REMARK    4  A    between atoms: C_18  and  C_19 
REMARK    5  A    between atoms: C_27  and  C_28 
REMARK    6  A    between atoms: C_28  and  O_29 
ROOT
HETATM    1  C   UNL     1      -1.113   6.009 -34.393  1.00  0.00     0.070 C 
HETATM    2  C   UNL     1      -2.035   5.564 -33.284  1.00  0.00     0.037 A 
HETATM    3  N   UNL     1      -2.616   4.313 -33.453  1.00  0.00    -0.192 N 
HETATM    4  C   UNL     1      -3.465   3.763 -32.566  1.00  0.00     0.726 A 
HETATM    5  N   UNL     1      -3.830   4.477 -31.458  1.00  0.00    -0.082 N 
HETATM    6  N   UNL     1      -4.643   3.757 -30.659  1.00  0.00    -0.128 NA
HETATM    7  C   UNL     1      -4.761   2.629 -31.370  1.00  0.00     0.226 A 
HETATM    8  N   UNL     1      -4.051   2.594 -32.546  1.00  0.00    -0.035 NA
HETATM    9  C   UNL     1      -3.333   5.823 -31.142  1.00  0.00     0.208 A 
HETATM   10  C   UNL     1      -2.333   6.306 -32.187  1.00  0.00     0.070 A 
HETATM   11  H   UNL     1      -2.358   3.780 -34.280  1.00  0.00     0.184 HD
ENDROOT
BRANCH   7  12
HETATM   12  S   UNL     1      -5.757   1.316 -30.809  1.00  0.00    -0.083 SA
BRANCH  12  13
HETATM   13  C   UNL     1      -4.624  -0.073 -31.089  1.00  0.00     0.123 C 
BRANCH  13  14
HETATM   14  C   UNL     1      -4.974  -0.840 -32.343  1.00  0.00    -0.027 A 
HETATM   15  C   UNL     1      -4.258  -1.970 -32.769  1.00  0.00     0.041 A 
HETATM   16 CL   UNL     1      -2.896  -2.576 -31.895  1.00  0.00    -0.084 Cl
HETATM   17  C   UNL     1      -4.629  -2.648 -33.935  1.00  0.00     0.024 A 
HETATM   18  C   UNL     1      -5.718  -2.212 -34.687  1.00  0.00     0.002 A 
HETATM   19  C   UNL     1      -6.444  -1.099 -34.273  1.00  0.00     0.001 A 
HETATM   20  C   UNL     1      -6.078  -0.420 -33.109  1.00  0.00     0.009 A 
ENDBRANCH  13  14
ENDBRANCH  12  13
ENDBRANCH   7  12
BRANCH   9  21
HETATM   21  C   UNL     1      -4.500   6.754 -30.855  1.00  0.00     0.032 A 
HETATM   22  C   UNL     1      -4.735   7.401 -29.632  1.00  0.00     0.045 A 
HETATM   23 CL   UNL     1      -3.705   7.207 -28.259  1.00  0.00    -0.084 Cl
HETATM   24  C   UNL     1      -5.840   8.251 -29.470  1.00  0.00     0.024 A 
HETATM   25  C   UNL     1      -6.725   8.475 -30.523  1.00  0.00     0.005 A 
HETATM   26  C   UNL     1      -6.507   7.845 -31.742  1.00  0.00     0.043 A 
HETATM   27  C   UNL     1      -5.410   7.000 -31.895  1.00  0.00     0.126 A 
HETATM   28  F   UNL     1      -5.239   6.403 -33.084  1.00  0.00    -0.205 F 
ENDBRANCH   9  21
BRANCH  10  29
HETATM   29  C   UNL     1      -1.677   7.595 -31.883  1.00  0.00     0.293 C 
HETATM   30  O   UNL     1      -1.872   8.624 -32.509  1.00  0.00    -0.259 OA
BRANCH  29  31
HETATM   31  O   UNL     1      -0.908   7.476 -30.772  1.00  0.00    -0.323 OA
HETATM   32  C   UNL     1       0.398   6.955 -31.022  1.00  0.00     0.213 C 
ENDBRANCH  29  31
ENDBRANCH  10  29
TORSDOF 6
ENDMDL
MODEL 10
REMARK VINA RESULT:      -8.4      5.438      8.088
REMARK  6 active torsions:
REMARK  status: ('A' for Active; 'I' for Inactive)
REMARK    1  A    between atoms: C_7  and  S_8 
REMARK    2  A    between atoms: S_8  and  C_9 
REMARK    3  A    between atoms: C_9  and  C_10 
REMARK    4  A    between atoms: C_18  and  C_19 
REMARK    5  A    between atoms: C_27  and  C_28 
REMARK    6  A    between atoms: C_28  and  O_29 
ROOT
HETATM    1  C   UNL     1     -13.154   0.398 -33.846  1.00  0.00     0.070 C 
HETATM    2  C   UNL     1     -11.805   1.055 -33.688  1.00  0.00     0.037 A 
HETATM    3  N   UNL     1     -10.871   0.335 -32.952  1.00  0.00    -0.192 N 
HETATM    4  C   UNL     1      -9.622   0.773 -32.709  1.00  0.00     0.726 A 
HETATM    5  N   UNL     1      -9.246   2.009 -33.156  1.00  0.00    -0.082 N 
HETATM    6  N   UNL     1      -7.954   2.262 -32.868  1.00  0.00    -0.128 NA
HETATM    7  C   UNL     1      -7.621   1.148 -32.206  1.00  0.00     0.226 A 
HETATM    8  N   UNL     1      -8.617   0.209 -32.090  1.00  0.00    -0.035 NA
HETATM    9  C   UNL     1     -10.118   2.910 -33.923  1.00  0.00     0.208 A 
HETATM   10  C   UNL     1     -11.480   2.275 -34.186  1.00  0.00     0.070 A 
HETATM   11  H   UNL     1     -11.145  -0.580 -32.607  1.00  0.00     0.184 HD
ENDROOT
BRANCH   7  12
HETATM   12  S   UNL     1      -6.021   0.938 -31.552  1.00  0.00    -0.083 SA
BRANCH  12  13
HETATM   13  C   UNL     1      -5.080   0.747 -33.091  1.00  0.00     0.123 C 
BRANCH  13  14
HETATM   14  C   UNL     1      -5.077  -0.685 -33.573  1.00  0.00    -0.027 A 
HETATM   15  C   UNL     1      -5.950  -1.157 -34.567  1.00  0.00     0.041 A 
HETATM   16 CL   UNL     1      -7.120  -0.133 -35.320  1.00  0.00    -0.084 Cl
HETATM   17  C   UNL     1      -5.900  -2.492 -34.982  1.00  0.00     0.024 A 
HETATM   18  C   UNL     1      -4.979  -3.371 -34.416  1.00  0.00     0.002 A 
HETATM   19  C   UNL     1      -4.101  -2.918 -33.436  1.00  0.00     0.001 A 
HETATM   20  C   UNL     1      -4.145  -1.585 -33.021  1.00  0.00     0.009 A 
ENDBRANCH  13  14
ENDBRANCH  12  13
ENDBRANCH   7  12
BRANCH   9  21
HETATM   21  C   UNL     1     -10.138   4.287 -33.279  1.00  0.00     0.032 A 
HETATM   22  C   UNL     1     -10.523   4.555 -31.956  1.00  0.00     0.045 A 
HETATM   23 CL   UNL     1     -11.047   3.320 -30.868  1.00  0.00    -0.084 Cl
HETATM   24  C   UNL     1     -10.497   5.864 -31.451  1.00  0.00     0.024 A 
HETATM   25  C   UNL     1     -10.083   6.926 -32.252  1.00  0.00     0.005 A 
HETATM   26  C   UNL     1      -9.695   6.680 -33.564  1.00  0.00     0.043 A 
HETATM   27  C   UNL     1      -9.726   5.379 -34.059  1.00  0.00     0.126 A 
HETATM   28  F   UNL     1      -9.353   5.183 -35.333  1.00  0.00    -0.205 F 
ENDBRANCH   9  21
BRANCH  10  29
HETATM   29  C   UNL     1     -12.378   3.052 -35.066  1.00  0.00     0.293 C 
HETATM   30  O   UNL     1     -12.473   2.877 -36.270  1.00  0.00    -0.259 OA
BRANCH  29  31
HETATM   31  O   UNL     1     -13.126   3.910 -34.328  1.00  0.00    -0.323 OA
HETATM   32  C   UNL     1     -13.164   5.240 -34.846  1.00  0.00     0.213 C 
ENDBRANCH  29  31
ENDBRANCH  10  29
TORSDOF 6
ENDMDL
