MODEL 1
REMARK VINA RESULT:      -8.7      0.000      0.000
REMARK  3 active torsions:
REMARK  status: ('A' for Active; 'I' for Inactive)
REMARK    1  A    between atoms: C_2  and  O_3 
REMARK    2  A    between atoms: O_3  and  C_4 
REMARK    3  A    between atoms: C_8  and  N_9 
REMARK       I    between atoms: N_9  and  C_10 
REMARK       I    between atoms: C_10  and  N_11 
ROOT
HETATM    1  N   UNL     1      -4.690   3.625 -31.128  1.00  0.00    -0.306 N 
HETATM    2  C   UNL     1      -3.855   2.533 -31.212  1.00  0.00     0.323 C 
HETATM    3  N   UNL     1      -4.500   1.303 -31.283  1.00  0.00    -0.328 N 
HETATM    4  C   UNL     1      -3.640   0.112 -31.377  1.00  0.00     0.185 C 
HETATM    5  C   UNL     1      -4.294  -0.884 -32.269  1.00  0.00     0.035 A 
HETATM    6  C   UNL     1      -5.589  -0.851 -32.746  1.00  0.00    -0.020 A 
HETATM    7  C   UNL     1      -6.500   0.275 -32.419  1.00  0.00     0.061 C 
HETATM    8  C   UNL     1      -5.959   1.054 -31.202  1.00  0.00     0.132 C 
HETATM    9  N   UNL     1      -3.685  -1.999 -32.775  1.00  0.00    -0.357 N 
HETATM   10  H   UNL     1      -2.725  -2.270 -32.614  1.00  0.00     0.166 HD
HETATM   11  C   UNL     1      -4.573  -2.698 -33.567  1.00  0.00     0.043 A 
HETATM   12  C   UNL     1      -5.782  -1.998 -33.561  1.00  0.00    -0.001 A 
HETATM   13  C   UNL     1      -4.393  -3.883 -34.291  1.00  0.00     0.030 A 
HETATM   14  C   UNL     1      -5.480  -4.365 -35.026  1.00  0.00     0.002 A 
HETATM   15  C   UNL     1      -6.699  -3.690 -35.034  1.00  0.00     0.001 A 
HETATM   16  C   UNL     1      -6.863  -2.505 -34.308  1.00  0.00     0.014 A 
HETATM   17  O   UNL     1      -2.629   2.615 -31.194  1.00  0.00    -0.247 OA
HETATM   18  H   UNL     1      -5.514   3.487 -30.567  1.00  0.00     0.171 HD
ENDROOT
BRANCH   1  19
HETATM   19  C   UNL     1      -4.304   4.971 -31.328  1.00  0.00     0.075 A 
HETATM   20  C   UNL     1      -3.773   5.475 -32.522  1.00  0.00     0.145 A 
HETATM   21  C   UNL     1      -3.386   6.813 -32.638  1.00  0.00     0.081 A 
HETATM   22  F   UNL     1      -3.690   4.720 -33.626  1.00  0.00    -0.204 F 
HETATM   23  C   UNL     1      -3.543   7.677 -31.560  1.00  0.00     0.072 A 
HETATM   24  C   UNL     1      -4.139   7.203 -30.389  1.00  0.00     0.039 A 
HETATM   25  C   UNL     1      -4.516   5.861 -30.270  1.00  0.00     0.035 A 
BRANCH  23  26
HETATM   26  O   UNL     1      -3.202   9.000 -31.536  1.00  0.00    -0.347 OA
BRANCH  26  27
HETATM   27  C   UNL     1      -3.618   9.788 -30.413  1.00  0.00     0.120 C 
HETATM   28  C   UNL     1      -4.742  10.743 -30.815  1.00  0.00     0.040 C 
HETATM   29  C   UNL     1      -2.395  10.588 -29.968  1.00  0.00     0.040 C 
ENDBRANCH  26  27
ENDBRANCH  23  26
ENDBRANCH   1  19
TORSDOF 3
ENDMDL
MODEL 2
REMARK VINA RESULT:      -8.4      6.790     10.028
REMARK  3 active torsions:
REMARK  status: ('A' for Active; 'I' for Inactive)
REMARK    1  A    between atoms: C_2  and  O_3 
REMARK    2  A    between atoms: O_3  and  C_4 
REMARK    3  A    between atoms: C_8  and  N_9 
REMARK       I    between atoms: N_9  and  C_10 
REMARK       I    between atoms: C_10  and  N_11 
ROOT
HETATM    1  N   UNL     1      -9.560   0.877 -34.485  1.00  0.00    -0.306 N 
HETATM    2  C   UNL     1      -9.974   2.158 -34.196  1.00  0.00     0.323 C 
HETATM    3  N   UNL     1     -11.333   2.392 -34.377  1.00  0.00    -0.328 N 
HETATM    4  C   UNL     1     -11.814   3.750 -34.075  1.00  0.00     0.185 C 
HETATM    5  C   UNL     1     -13.170   3.656 -33.468  1.00  0.00     0.035 A 
HETATM    6  C   UNL     1     -13.980   2.540 -33.407  1.00  0.00    -0.020 A 
HETATM    7  C   UNL     1     -13.528   1.233 -33.950  1.00  0.00     0.061 C 
HETATM    8  C   UNL     1     -12.339   1.443 -34.909  1.00  0.00     0.132 C 
HETATM    9  N   UNL     1     -13.822   4.686 -32.848  1.00  0.00    -0.357 N 
HETATM   10  H   UNL     1     -13.459   5.620 -32.719  1.00  0.00     0.166 HD
HETATM   11  C   UNL     1     -15.052   4.256 -32.395  1.00  0.00     0.043 A 
HETATM   12  C   UNL     1     -15.178   2.907 -32.740  1.00  0.00    -0.001 A 
HETATM   13  C   UNL     1     -16.050   4.950 -31.700  1.00  0.00     0.030 A 
HETATM   14  C   UNL     1     -17.208   4.249 -31.354  1.00  0.00     0.002 A 
HETATM   15  C   UNL     1     -17.362   2.905 -31.689  1.00  0.00     0.001 A 
HETATM   16  C   UNL     1     -16.355   2.222 -32.380  1.00  0.00     0.014 A 
HETATM   17  O   UNL     1      -9.211   3.052 -33.835  1.00  0.00    -0.247 OA
HETATM   18  H   UNL     1     -10.014   0.452 -35.275  1.00  0.00     0.171 HD
ENDROOT
BRANCH   1  19
HETATM   19  C   UNL     1      -8.314   0.315 -34.120  1.00  0.00     0.075 A 
HETATM   20  C   UNL     1      -7.888   0.119 -32.800  1.00  0.00     0.145 A 
HETATM   21  C   UNL     1      -6.629  -0.416 -32.514  1.00  0.00     0.081 A 
HETATM   22  F   UNL     1      -8.698   0.358 -31.759  1.00  0.00    -0.204 F 
HETATM   23  C   UNL     1      -5.779  -0.783 -33.552  1.00  0.00     0.072 A 
HETATM   24  C   UNL     1      -6.222  -0.660 -34.870  1.00  0.00     0.039 A 
HETATM   25  C   UNL     1      -7.478  -0.115 -35.156  1.00  0.00     0.035 A 
BRANCH  23  26
HETATM   26  O   UNL     1      -4.526  -1.310 -33.413  1.00  0.00    -0.347 OA
BRANCH  26  27
HETATM   27  C   UNL     1      -4.001  -1.473 -32.089  1.00  0.00     0.120 C 
HETATM   28  C   UNL     1      -3.016  -0.352 -31.761  1.00  0.00     0.040 C 
HETATM   29  C   UNL     1      -3.278  -2.819 -32.072  1.00  0.00     0.040 C 
ENDBRANCH  26  27
ENDBRANCH  23  26
ENDBRANCH   1  19
TORSDOF 3
ENDMDL
MODEL 3
REMARK VINA RESULT:      -8.3      3.144      9.934
REMARK  3 active torsions:
REMARK  status: ('A' for Active; 'I' for Inactive)
REMARK    1  A    between atoms: C_2  and  O_3 
REMARK    2  A    between atoms: O_3  and  C_4 
REMARK    3  A    between atoms: C_8  and  N_9 
REMARK       I    between atoms: N_9  and  C_10 
REMARK       I    between atoms: C_10  and  N_11 
ROOT
HETATM    1  N   UNL     1      -4.029   4.294 -31.693  1.00  0.00    -0.306 N 
HETATM    2  C   UNL     1      -2.734   4.743 -31.819  1.00  0.00     0.323 C 
HETATM    3  N   UNL     1      -2.459   5.938 -31.163  1.00  0.00    -0.328 N 
HETATM    4  C   UNL     1      -1.083   6.449 -31.273  1.00  0.00     0.185 C 
HETATM    5  C   UNL     1      -0.702   7.085 -29.980  1.00  0.00     0.035 A 
HETATM    6  C   UNL     1      -1.536   7.390 -28.924  1.00  0.00    -0.020 A 
HETATM    7  C   UNL     1      -2.984   7.059 -28.969  1.00  0.00     0.061 C 
HETATM    8  C   UNL     1      -3.419   6.791 -30.424  1.00  0.00     0.132 C 
HETATM    9  N   UNL     1       0.569   7.452 -29.635  1.00  0.00    -0.357 N 
HETATM   10  H   UNL     1       1.393   7.327 -30.206  1.00  0.00     0.166 HD
HETATM   11  C   UNL     1       0.569   8.004 -28.371  1.00  0.00     0.043 A 
HETATM   12  C   UNL     1      -0.747   7.981 -27.902  1.00  0.00    -0.001 A 
HETATM   13  C   UNL     1       1.630   8.506 -27.608  1.00  0.00     0.030 A 
HETATM   14  C   UNL     1       1.335   9.002 -26.334  1.00  0.00     0.002 A 
HETATM   15  C   UNL     1       0.031   8.995 -25.844  1.00  0.00     0.001 A 
HETATM   16  C   UNL     1      -1.019   8.486 -26.616  1.00  0.00     0.014 A 
HETATM   17  O   UNL     1      -1.877   4.164 -32.484  1.00  0.00    -0.247 OA
HETATM   18  H   UNL     1      -4.731   5.013 -31.703  1.00  0.00     0.171 HD
ENDROOT
BRANCH   1  19
HETATM   19  C   UNL     1      -4.481   2.992 -32.015  1.00  0.00     0.075 A 
HETATM   20  C   UNL     1      -5.369   2.695 -33.057  1.00  0.00     0.145 A 
HETATM   21  C   UNL     1      -5.796   1.387 -33.299  1.00  0.00     0.081 A 
HETATM   22  F   UNL     1      -5.782   3.639 -33.915  1.00  0.00    -0.204 F 
HETATM   23  C   UNL     1      -5.322   0.346 -32.509  1.00  0.00     0.072 A 
HETATM   24  C   UNL     1      -4.380   0.620 -31.515  1.00  0.00     0.039 A 
HETATM   25  C   UNL     1      -3.962   1.931 -31.266  1.00  0.00     0.035 A 
BRANCH  23  26
HETATM   26  O   UNL     1      -5.660  -0.972 -32.633  1.00  0.00    -0.347 OA
BRANCH  26  27
HETATM   27  C   UNL     1      -5.622  -1.562 -33.939  1.00  0.00     0.120 C 
HETATM   28  C   UNL     1      -6.929  -2.299 -34.234  1.00  0.00     0.040 C 
HETATM   29  C   UNL     1      -4.460  -2.554 -33.933  1.00  0.00     0.040 C 
ENDBRANCH  26  27
ENDBRANCH  23  26
ENDBRANCH   1  19
TORSDOF 3
ENDMDL
MODEL 4
REMARK VINA RESULT:      -8.3      3.651      9.682
REMARK  3 active torsions:
REMARK  status: ('A' for Active; 'I' for Inactive)
REMARK    1  A    between atoms: C_2  and  O_3 
REMARK    2  A    between atoms: O_3  and  C_4 
REMARK    3  A    between atoms: C_8  and  N_9 
REMARK       I    between atoms: N_9  and  C_10 
REMARK       I    between atoms: C_10  and  N_11 
ROOT
HETATM    1  N   UNL     1      -3.774   4.888 -32.207  1.00  0.00    -0.306 N 
HETATM    2  C   UNL     1      -2.617   4.494 -31.573  1.00  0.00     0.323 C 
HETATM    3  N   UNL     1      -1.755   5.528 -31.226  1.00  0.00    -0.328 N 
HETATM    4  C   UNL     1      -0.508   5.146 -30.543  1.00  0.00     0.185 C 
HETATM    5  C   UNL     1      -0.178   6.185 -29.528  1.00  0.00     0.035 A 
HETATM    6  C   UNL     1      -0.764   7.427 -29.387  1.00  0.00    -0.020 A 
HETATM    7  C   UNL     1      -1.876   7.857 -30.272  1.00  0.00     0.061 C 
HETATM    8  C   UNL     1      -1.920   6.969 -31.532  1.00  0.00     0.132 C 
HETATM    9  N   UNL     1       0.768   6.049 -28.550  1.00  0.00    -0.357 N 
HETATM   10  H   UNL     1       1.341   5.232 -28.395  1.00  0.00     0.166 HD
HETATM   11  C   UNL     1       0.813   7.193 -27.781  1.00  0.00     0.043 A 
HETATM   12  C   UNL     1      -0.140   8.080 -28.291  1.00  0.00    -0.001 A 
HETATM   13  C   UNL     1       1.610   7.504 -26.673  1.00  0.00     0.030 A 
HETATM   14  C   UNL     1       1.431   8.754 -26.074  1.00  0.00     0.002 A 
HETATM   15  C   UNL     1       0.492   9.658 -26.564  1.00  0.00     0.001 A 
HETATM   16  C   UNL     1      -0.302   9.334 -27.670  1.00  0.00     0.014 A 
HETATM   17  O   UNL     1      -2.333   3.319 -31.350  1.00  0.00    -0.247 OA
HETATM   18  H   UNL     1      -3.666   5.652 -32.851  1.00  0.00     0.171 HD
ENDROOT
BRANCH   1  19
HETATM   19  C   UNL     1      -4.918   4.080 -32.403  1.00  0.00     0.075 A 
HETATM   20  C   UNL     1      -5.695   3.540 -31.370  1.00  0.00     0.145 A 
HETATM   21  C   UNL     1      -6.798   2.725 -31.638  1.00  0.00     0.081 A 
HETATM   22  F   UNL     1      -5.464   3.848 -30.085  1.00  0.00    -0.204 F 
HETATM   23  C   UNL     1      -7.154   2.451 -32.954  1.00  0.00     0.072 A 
HETATM   24  C   UNL     1      -6.432   3.043 -33.992  1.00  0.00     0.039 A 
HETATM   25  C   UNL     1      -5.322   3.850 -33.722  1.00  0.00     0.035 A 
BRANCH  23  26
HETATM   26  O   UNL     1      -8.201   1.670 -33.355  1.00  0.00    -0.347 OA
BRANCH  26  27
HETATM   27  C   UNL     1      -8.298   0.341 -32.823  1.00  0.00     0.120 C 
HETATM   28  C   UNL     1      -7.615  -0.661 -33.752  1.00  0.00     0.040 C 
HETATM   29  C   UNL     1      -9.790   0.022 -32.725  1.00  0.00     0.040 C 
ENDBRANCH  26  27
ENDBRANCH  23  26
ENDBRANCH   1  19
TORSDOF 3
ENDMDL
MODEL 5
REMARK VINA RESULT:      -8.3      6.491     10.512
REMARK  3 active torsions:
REMARK  status: ('A' for Active; 'I' for Inactive)
REMARK    1  A    between atoms: C_2  and  O_3 
REMARK    2  A    between atoms: O_3  and  C_4 
REMARK    3  A    between atoms: C_8  and  N_9 
REMARK       I    between atoms: N_9  and  C_10 
REMARK       I    between atoms: C_10  and  N_11 
ROOT
HETATM    1  N   UNL     1      -8.436   1.806 -33.346  1.00  0.00    -0.306 N 
HETATM    2  C   UNL     1      -9.797   1.877 -33.535  1.00  0.00     0.323 C 
HETATM    3  N   UNL     1     -10.330   3.162 -33.502  1.00  0.00    -0.328 N 
HETATM    4  C   UNL     1     -11.783   3.279 -33.703  1.00  0.00     0.185 C 
HETATM    5  C   UNL     1     -12.062   4.516 -34.484  1.00  0.00     0.035 A 
HETATM    6  C   UNL     1     -11.177   5.535 -34.775  1.00  0.00    -0.020 A 
HETATM    7  C   UNL     1      -9.760   5.470 -34.334  1.00  0.00     0.061 C 
HETATM    8  C   UNL     1      -9.603   4.421 -33.214  1.00  0.00     0.132 C 
HETATM    9  N   UNL     1     -13.264   4.823 -35.059  1.00  0.00    -0.357 N 
HETATM   10  H   UNL     1     -14.094   4.247 -35.031  1.00  0.00     0.166 HD
HETATM   11  C   UNL     1     -13.175   6.035 -35.710  1.00  0.00     0.043 A 
HETATM   12  C   UNL     1     -11.871   6.508 -35.542  1.00  0.00    -0.001 A 
HETATM   13  C   UNL     1     -14.141   6.739 -36.440  1.00  0.00     0.030 A 
HETATM   14  C   UNL     1     -13.764   7.958 -37.009  1.00  0.00     0.002 A 
HETATM   15  C   UNL     1     -12.471   8.455 -36.853  1.00  0.00     0.001 A 
HETATM   16  C   UNL     1     -11.515   7.740 -36.124  1.00  0.00     0.014 A 
HETATM   17  O   UNL     1     -10.513   0.890 -33.691  1.00  0.00    -0.247 OA
HETATM   18  H   UNL     1      -8.065   2.456 -32.674  1.00  0.00     0.171 HD
ENDROOT
BRANCH   1  19
HETATM   19  C   UNL     1      -7.628   0.675 -33.613  1.00  0.00     0.075 A 
HETATM   20  C   UNL     1      -7.004  -0.104 -32.631  1.00  0.00     0.145 A 
HETATM   21  C   UNL     1      -6.195  -1.192 -32.971  1.00  0.00     0.081 A 
HETATM   22  F   UNL     1      -7.221   0.108 -31.325  1.00  0.00    -0.204 F 
HETATM   23  C   UNL     1      -6.013  -1.530 -34.307  1.00  0.00     0.072 A 
HETATM   24  C   UNL     1      -6.689  -0.805 -35.291  1.00  0.00     0.039 A 
HETATM   25  C   UNL     1      -7.489   0.290 -34.950  1.00  0.00     0.035 A 
BRANCH  23  26
HETATM   26  O   UNL     1      -5.248  -2.560 -34.776  1.00  0.00    -0.347 OA
BRANCH  26  27
HETATM   27  C   UNL     1      -5.566  -3.891 -34.349  1.00  0.00     0.120 C 
HETATM   28  C   UNL     1      -4.292  -4.713 -34.157  1.00  0.00     0.040 C 
HETATM   29  C   UNL     1      -6.419  -4.510 -35.457  1.00  0.00     0.040 C 
ENDBRANCH  26  27
ENDBRANCH  23  26
ENDBRANCH   1  19
TORSDOF 3
ENDMDL
MODEL 6
REMARK VINA RESULT:      -8.2      5.361      6.423
REMARK  3 active torsions:
REMARK  status: ('A' for Active; 'I' for Inactive)
REMARK    1  A    between atoms: C_2  and  O_3 
REMARK    2  A    between atoms: O_3  and  C_4 
REMARK    3  A    between atoms: C_8  and  N_9 
REMARK       I    between atoms: N_9  and  C_10 
REMARK       I    between atoms: C_10  and  N_11 
ROOT
HETATM    1  N   UNL     1      -8.514   2.829 -33.212  1.00  0.00    -0.306 N 
HETATM    2  C   UNL     1      -8.748   1.715 -33.986  1.00  0.00     0.323 C 
HETATM    3  N   UNL     1      -7.609   1.008 -34.359  1.00  0.00    -0.328 N 
HETATM    4  C   UNL     1      -7.819  -0.191 -35.186  1.00  0.00     0.185 C 
HETATM    5  C   UNL     1      -6.828  -1.229 -34.786  1.00  0.00     0.035 A 
HETATM    6  C   UNL     1      -5.728  -1.060 -33.970  1.00  0.00    -0.020 A 
HETATM    7  C   UNL     1      -5.430   0.254 -33.345  1.00  0.00     0.061 C 
HETATM    8  C   UNL     1      -6.201   1.373 -34.076  1.00  0.00     0.132 C 
HETATM    9  N   UNL     1      -6.875  -2.542 -35.166  1.00  0.00    -0.357 N 
HETATM   10  H   UNL     1      -7.587  -2.961 -35.747  1.00  0.00     0.166 HD
HETATM   11  C   UNL     1      -5.812  -3.226 -34.616  1.00  0.00     0.043 A 
HETATM   12  C   UNL     1      -5.069  -2.313 -33.861  1.00  0.00    -0.001 A 
HETATM   13  C   UNL     1      -5.459  -4.577 -34.718  1.00  0.00     0.030 A 
HETATM   14  C   UNL     1      -4.317  -5.005 -34.035  1.00  0.00     0.002 A 
HETATM   15  C   UNL     1      -3.557  -4.115 -33.279  1.00  0.00     0.001 A 
HETATM   16  C   UNL     1      -3.923  -2.768 -33.182  1.00  0.00     0.014 A 
HETATM   17  O   UNL     1      -9.867   1.370 -34.358  1.00  0.00    -0.247 OA
HETATM   18  H   UNL     1      -7.691   3.352 -33.457  1.00  0.00     0.171 HD
ENDROOT
BRANCH   1  19
HETATM   19  C   UNL     1      -9.494   3.539 -32.480  1.00  0.00     0.075 A 
HETATM   20  C   UNL     1      -9.854   3.259 -31.156  1.00  0.00     0.145 A 
HETATM   21  C   UNL     1     -10.854   3.985 -30.504  1.00  0.00     0.081 A 
HETATM   22  F   UNL     1      -9.201   2.339 -30.432  1.00  0.00    -0.204 F 
HETATM   23  C   UNL     1     -11.500   5.024 -31.165  1.00  0.00     0.072 A 
HETATM   24  C   UNL     1     -11.099   5.360 -32.460  1.00  0.00     0.039 A 
HETATM   25  C   UNL     1     -10.106   4.625 -33.115  1.00  0.00     0.035 A 
BRANCH  23  26
HETATM   26  O   UNL     1     -12.494   5.807 -30.650  1.00  0.00    -0.347 OA
BRANCH  26  27
HETATM   27  C   UNL     1     -13.686   5.166 -30.176  1.00  0.00     0.120 C 
HETATM   28  C   UNL     1     -14.520   4.649 -31.348  1.00  0.00     0.040 C 
HETATM   29  C   UNL     1     -14.474   6.228 -29.410  1.00  0.00     0.040 C 
ENDBRANCH  26  27
ENDBRANCH  23  26
ENDBRANCH   1  19
TORSDOF 3
ENDMDL
MODEL 7
REMARK VINA RESULT:      -7.9      3.187      9.855
REMARK  3 active torsions:
REMARK  status: ('A' for Active; 'I' for Inactive)
REMARK    1  A    between atoms: C_2  and  O_3 
REMARK    2  A    between atoms: O_3  and  C_4 
REMARK    3  A    between atoms: C_8  and  N_9 
REMARK       I    between atoms: N_9  and  C_10 
REMARK       I    between atoms: C_10  and  N_11 
ROOT
HETATM    1  N   UNL     1      -4.107   5.045 -32.071  1.00  0.00    -0.306 N 
HETATM    2  C   UNL     1      -2.746   5.032 -31.867  1.00  0.00     0.323 C 
HETATM    3  N   UNL     1      -2.198   6.246 -31.467  1.00  0.00    -0.328 N 
HETATM    4  C   UNL     1      -0.745   6.270 -31.237  1.00  0.00     0.185 C 
HETATM    5  C   UNL     1      -0.455   7.170 -30.086  1.00  0.00     0.035 A 
HETATM    6  C   UNL     1      -1.330   8.044 -29.471  1.00  0.00    -0.020 A 
HETATM    7  C   UNL     1      -2.745   8.149 -29.909  1.00  0.00     0.061 C 
HETATM    8  C   UNL     1      -2.908   7.538 -31.316  1.00  0.00     0.132 C 
HETATM    9  N   UNL     1       0.747   7.251 -29.440  1.00  0.00    -0.357 N 
HETATM   10  H   UNL     1       1.570   6.708 -29.658  1.00  0.00     0.166 HD
HETATM   11  C   UNL     1       0.669   8.176 -28.420  1.00  0.00     0.043 A 
HETATM   12  C   UNL     1      -0.629   8.695 -28.421  1.00  0.00    -0.001 A 
HETATM   13  C   UNL     1       1.639   8.582 -27.495  1.00  0.00     0.030 A 
HETATM   14  C   UNL     1       1.272   9.545 -26.550  1.00  0.00     0.002 A 
HETATM   15  C   UNL     1      -0.014  10.081 -26.532  1.00  0.00     0.001 A 
HETATM   16  C   UNL     1      -0.974   9.664 -27.460  1.00  0.00     0.014 A 
HETATM   17  O   UNL     1      -2.043   4.040 -32.051  1.00  0.00    -0.247 OA
HETATM   18  H   UNL     1      -4.466   5.887 -32.486  1.00  0.00     0.171 HD
ENDROOT
BRANCH   1  19
HETATM   19  C   UNL     1      -4.929   3.901 -32.199  1.00  0.00     0.075 A 
HETATM   20  C   UNL     1      -5.494   3.460 -33.403  1.00  0.00     0.145 A 
HETATM   21  C   UNL     1      -6.321   2.335 -33.449  1.00  0.00     0.081 A 
HETATM   22  F   UNL     1      -5.200   4.048 -34.571  1.00  0.00    -0.204 F 
HETATM   23  C   UNL     1      -6.582   1.618 -32.287  1.00  0.00     0.072 A 
HETATM   24  C   UNL     1      -5.966   2.004 -31.096  1.00  0.00     0.039 A 
HETATM   25  C   UNL     1      -5.146   3.137 -31.048  1.00  0.00     0.035 A 
BRANCH  23  26
HETATM   26  O   UNL     1      -7.374   0.508 -32.191  1.00  0.00    -0.347 OA
BRANCH  26  27
HETATM   27  C   UNL     1      -8.238   0.194 -33.291  1.00  0.00     0.120 C 
HETATM   28  C   UNL     1      -9.658  -0.083 -32.797  1.00  0.00     0.040 C 
HETATM   29  C   UNL     1      -7.665  -1.061 -33.948  1.00  0.00     0.040 C 
ENDBRANCH  26  27
ENDBRANCH  23  26
ENDBRANCH   1  19
TORSDOF 3
ENDMDL
MODEL 8
REMARK VINA RESULT:      -7.8      3.725      4.894
REMARK  3 active torsions:
REMARK  status: ('A' for Active; 'I' for Inactive)
REMARK    1  A    between atoms: C_2  and  O_3 
REMARK    2  A    between atoms: O_3  and  C_4 
REMARK    3  A    between atoms: C_8  and  N_9 
REMARK       I    between atoms: N_9  and  C_10 
REMARK       I    between atoms: C_10  and  N_11 
ROOT
HETATM    1  N   UNL     1      -1.863   5.035 -30.966  1.00  0.00    -0.306 N 
HETATM    2  C   UNL     1      -2.755   5.229 -31.997  1.00  0.00     0.323 C 
HETATM    3  N   UNL     1      -3.448   4.092 -32.398  1.00  0.00    -0.328 N 
HETATM    4  C   UNL     1      -4.413   4.261 -33.496  1.00  0.00     0.185 C 
HETATM    5  C   UNL     1      -5.589   3.383 -33.242  1.00  0.00     0.035 A 
HETATM    6  C   UNL     1      -5.694   2.385 -32.295  1.00  0.00    -0.020 A 
HETATM    7  C   UNL     1      -4.580   2.097 -31.355  1.00  0.00     0.061 C 
HETATM    8  C   UNL     1      -3.269   2.712 -31.888  1.00  0.00     0.132 C 
HETATM    9  N   UNL     1      -6.776   3.452 -33.918  1.00  0.00    -0.357 N 
HETATM   10  H   UNL     1      -6.998   4.107 -34.654  1.00  0.00     0.166 HD
HETATM   11  C   UNL     1      -7.648   2.502 -33.428  1.00  0.00     0.043 A 
HETATM   12  C   UNL     1      -6.988   1.811 -32.407  1.00  0.00    -0.001 A 
HETATM   13  C   UNL     1      -8.966   2.211 -33.801  1.00  0.00     0.030 A 
HETATM   14  C   UNL     1      -9.624   1.186 -33.116  1.00  0.00     0.002 A 
HETATM   15  C   UNL     1      -8.988   0.479 -32.097  1.00  0.00     0.001 A 
HETATM   16  C   UNL     1      -7.672   0.783 -31.732  1.00  0.00     0.014 A 
HETATM   17  O   UNL     1      -2.918   6.311 -32.557  1.00  0.00    -0.247 OA
HETATM   18  H   UNL     1      -1.367   4.161 -30.993  1.00  0.00     0.171 HD
ENDROOT
BRANCH   1  19
HETATM   19  C   UNL     1      -1.259   6.059 -30.200  1.00  0.00     0.075 A 
HETATM   20  C   UNL     1       0.092   6.418 -30.279  1.00  0.00     0.145 A 
HETATM   21  C   UNL     1       0.628   7.422 -29.469  1.00  0.00     0.081 A 
HETATM   22  F   UNL     1       0.909   5.872 -31.191  1.00  0.00    -0.204 F 
HETATM   23  C   UNL     1      -0.191   8.101 -28.573  1.00  0.00     0.072 A 
HETATM   24  C   UNL     1      -1.555   7.802 -28.538  1.00  0.00     0.039 A 
HETATM   25  C   UNL     1      -2.087   6.790 -29.342  1.00  0.00     0.035 A 
BRANCH  23  26
HETATM   26  O   UNL     1       0.202   9.095 -27.723  1.00  0.00    -0.347 OA
BRANCH  26  27
HETATM   27  C   UNL     1       0.468   8.753 -26.356  1.00  0.00     0.120 C 
HETATM   28  C   UNL     1      -0.003   9.868 -25.422  1.00  0.00     0.040 C 
HETATM   29  C   UNL     1       1.982   8.585 -26.237  1.00  0.00     0.040 C 
ENDBRANCH  26  27
ENDBRANCH  23  26
ENDBRANCH   1  19
TORSDOF 3
ENDMDL
MODEL 9
REMARK VINA RESULT:      -7.7     17.352     19.998
REMARK  3 active torsions:
REMARK  status: ('A' for Active; 'I' for Inactive)
REMARK    1  A    between atoms: C_2  and  O_3 
REMARK    2  A    between atoms: O_3  and  C_4 
REMARK    3  A    between atoms: C_8  and  N_9 
REMARK       I    between atoms: N_9  and  C_10 
REMARK       I    between atoms: C_10  and  N_11 
ROOT
HETATM    1  N   UNL     1      -7.496 -13.452 -38.717  1.00  0.00    -0.306 N 
HETATM    2  C   UNL     1      -6.384 -12.886 -39.298  1.00  0.00     0.323 C 
HETATM    3  N   UNL     1      -5.237 -12.903 -38.512  1.00  0.00    -0.328 N 
HETATM    4  C   UNL     1      -4.026 -12.308 -39.100  1.00  0.00     0.185 C 
HETATM    5  C   UNL     1      -2.842 -13.101 -38.668  1.00  0.00     0.035 A 
HETATM    6  C   UNL     1      -2.804 -14.075 -37.691  1.00  0.00    -0.020 A 
HETATM    7  C   UNL     1      -4.031 -14.472 -36.954  1.00  0.00     0.061 C 
HETATM    8  C   UNL     1      -5.118 -13.390 -37.117  1.00  0.00     0.132 C 
HETATM    9  N   UNL     1      -1.589 -12.990 -39.203  1.00  0.00    -0.357 N 
HETATM   10  H   UNL     1      -1.323 -12.370 -39.956  1.00  0.00     0.166 HD
HETATM   11  C   UNL     1      -0.733 -13.872 -38.578  1.00  0.00     0.043 A 
HETATM   12  C   UNL     1      -1.473 -14.565 -37.616  1.00  0.00    -0.001 A 
HETATM   13  C   UNL     1       0.628 -14.116 -38.797  1.00  0.00     0.030 A 
HETATM   14  C   UNL     1       1.249 -15.090 -38.010  1.00  0.00     0.002 A 
HETATM   15  C   UNL     1       0.535 -15.793 -37.041  1.00  0.00     0.001 A 
HETATM   16  C   UNL     1      -0.826 -15.542 -36.835  1.00  0.00     0.014 A 
HETATM   17  O   UNL     1      -6.391 -12.369 -40.413  1.00  0.00    -0.247 OA
HETATM   18  H   UNL     1      -7.594 -13.283 -37.731  1.00  0.00     0.171 HD
ENDROOT
BRANCH   1  19
HETATM   19  C   UNL     1      -8.684 -13.811 -39.397  1.00  0.00     0.075 A 
HETATM   20  C   UNL     1      -9.674 -12.905 -39.798  1.00  0.00     0.145 A 
HETATM   21  C   UNL     1     -10.837 -13.336 -40.441  1.00  0.00     0.081 A 
HETATM   22  F   UNL     1      -9.511 -11.582 -39.657  1.00  0.00    -0.204 F 
HETATM   23  C   UNL     1     -11.021 -14.688 -40.711  1.00  0.00     0.072 A 
HETATM   24  C   UNL     1     -10.008 -15.591 -40.381  1.00  0.00     0.039 A 
HETATM   25  C   UNL     1      -8.849 -15.160 -39.728  1.00  0.00     0.035 A 
BRANCH  23  26
HETATM   26  O   UNL     1     -12.108 -15.242 -41.325  1.00  0.00    -0.347 OA
BRANCH  26  27
HETATM   27  C   UNL     1     -11.943 -16.501 -41.991  1.00  0.00     0.120 C 
HETATM   28  C   UNL     1     -11.437 -16.291 -43.418  1.00  0.00     0.040 C 
HETATM   29  C   UNL     1     -13.322 -17.159 -42.023  1.00  0.00     0.040 C 
ENDBRANCH  26  27
ENDBRANCH  23  26
ENDBRANCH   1  19
TORSDOF 3
ENDMDL
MODEL 10
REMARK VINA RESULT:      -7.7      5.342      5.827
REMARK  3 active torsions:
REMARK  status: ('A' for Active; 'I' for Inactive)
REMARK    1  A    between atoms: C_2  and  O_3 
REMARK    2  A    between atoms: O_3  and  C_4 
REMARK    3  A    between atoms: C_8  and  N_9 
REMARK       I    between atoms: N_9  and  C_10 
REMARK       I    between atoms: C_10  and  N_11 
ROOT
HETATM    1  N   UNL     1      -9.722   3.739 -33.000  1.00  0.00    -0.306 N 
HETATM    2  C   UNL     1      -8.413   3.434 -32.703  1.00  0.00     0.323 C 
HETATM    3  N   UNL     1      -8.160   2.085 -32.477  1.00  0.00    -0.328 N 
HETATM    4  C   UNL     1      -6.770   1.720 -32.159  1.00  0.00     0.185 C 
HETATM    5  C   UNL     1      -6.465   0.402 -32.784  1.00  0.00     0.035 A 
HETATM    6  C   UNL     1      -7.363  -0.476 -33.355  1.00  0.00    -0.020 A 
HETATM    7  C   UNL     1      -8.810  -0.152 -33.436  1.00  0.00     0.061 C 
HETATM    8  C   UNL     1      -9.151   0.984 -32.449  1.00  0.00     0.132 C 
HETATM    9  N   UNL     1      -5.213  -0.135 -32.901  1.00  0.00    -0.357 N 
HETATM   10  H   UNL     1      -4.355   0.298 -32.592  1.00  0.00     0.166 HD
HETATM   11  C   UNL     1      -5.288  -1.359 -33.533  1.00  0.00     0.043 A 
HETATM   12  C   UNL     1      -6.633  -1.600 -33.826  1.00  0.00    -0.001 A 
HETATM   13  C   UNL     1      -4.272  -2.259 -33.876  1.00  0.00     0.030 A 
HETATM   14  C   UNL     1      -4.642  -3.438 -34.531  1.00  0.00     0.002 A 
HETATM   15  C   UNL     1      -5.976  -3.704 -34.830  1.00  0.00     0.001 A 
HETATM   16  C   UNL     1      -6.981  -2.794 -34.485  1.00  0.00     0.014 A 
HETATM   17  O   UNL     1      -7.525   4.278 -32.608  1.00  0.00    -0.247 OA
HETATM   18  H   UNL     1     -10.408   3.206 -32.494  1.00  0.00     0.171 HD
ENDROOT
BRANCH   1  19
HETATM   19  C   UNL     1     -10.177   4.965 -33.541  1.00  0.00     0.075 A 
HETATM   20  C   UNL     1     -10.630   6.049 -32.779  1.00  0.00     0.145 A 
HETATM   21  C   UNL     1     -11.093   7.221 -33.383  1.00  0.00     0.081 A 
HETATM   22  F   UNL     1     -10.564   6.041 -31.440  1.00  0.00    -0.204 F 
HETATM   23  C   UNL     1     -11.091   7.334 -34.769  1.00  0.00     0.072 A 
HETATM   24  C   UNL     1     -10.572   6.288 -35.536  1.00  0.00     0.039 A 
HETATM   25  C   UNL     1     -10.119   5.112 -34.931  1.00  0.00     0.035 A 
BRANCH  23  26
HETATM   26  O   UNL     1     -11.518   8.415 -35.486  1.00  0.00    -0.347 OA
BRANCH  26  27
HETATM   27  C   UNL     1     -10.639   8.964 -36.477  1.00  0.00     0.120 C 
HETATM   28  C   UNL     1     -10.133  10.339 -36.043  1.00  0.00     0.040 C 
HETATM   29  C   UNL     1     -11.460   9.096 -37.759  1.00  0.00     0.040 C 
ENDBRANCH  26  27
ENDBRANCH  23  26
ENDBRANCH   1  19
TORSDOF 3
ENDMDL
