MODEL 1
REMARK VINA RESULT:      -7.1      0.000      0.000
REMARK  4 active torsions:
REMARK  status: ('A' for Active; 'I' for Inactive)
REMARK    1  A    between atoms: C_4  and  C_5 
REMARK       I    between atoms: C_5  and  N_6 
REMARK    2  A    between atoms: N_6  and  C_7 
REMARK    3  A    between atoms: C_7  and  N_8 
REMARK    4  A    between atoms: N_8  and  C_9 
ROOT
HETATM    1  C   UNL     1      -9.643   0.185 -32.561  1.00  0.00     0.257 C 
HETATM    2  N   UNL     1      -9.411   0.668 -31.278  1.00  0.00    -0.299 N 
HETATM    3  O   UNL     1     -10.794  -0.064 -32.914  1.00  0.00    -0.267 OA
HETATM    4  H   UNL     1     -10.269   0.554 -30.754  1.00  0.00     0.171 HD
ENDROOT
BRANCH   2   5
HETATM    5  C   UNL     1      -8.749   1.847 -30.861  1.00  0.00     0.180 C 
HETATM    6  S   UNL     1      -9.444   3.365 -30.872  1.00  0.00    -0.040 SA
BRANCH   5   7
HETATM    7  N   UNL     1      -7.466   1.504 -30.456  1.00  0.00    -0.318 N 
HETATM    8  H   UNL     1      -7.327   1.377 -29.461  1.00  0.00     0.170 HD
BRANCH   7   9
HETATM    9  C   UNL     1      -6.275   1.185 -31.117  1.00  0.00     0.129 A 
HETATM   10  N   UNL     1      -5.813   2.232 -31.838  1.00  0.00    -0.243 NA
HETATM   11  C   UNL     1      -4.680   2.054 -32.552  1.00  0.00     0.119 A 
HETATM   12  C   UNL     1      -3.971   0.869 -32.588  1.00  0.00     0.026 A 
HETATM   13  C   UNL     1      -4.452  -0.208 -31.847  1.00  0.00    -0.057 A 
HETATM   14  C   UNL     1      -3.721  -1.516 -31.857  1.00  0.00     0.048 C 
HETATM   15  C   UNL     1      -5.631  -0.044 -31.108  1.00  0.00     0.057 A 
ENDBRANCH   7   9
ENDBRANCH   5   7
ENDBRANCH   2   5
BRANCH   1  16
HETATM   16  C   UNL     1      -8.503  -0.062 -33.481  1.00  0.00     0.032 A 
HETATM   17  C   UNL     1      -7.848  -1.300 -33.533  1.00  0.00     0.023 A 
HETATM   18  C   UNL     1      -6.785  -1.501 -34.426  1.00  0.00    -0.061 A 
HETATM   19  C   UNL     1      -6.092  -2.829 -34.498  1.00  0.00     0.048 C 
HETATM   20  C   UNL     1      -6.414  -0.463 -35.291  1.00  0.00     0.007 A 
HETATM   21  C   UNL     1      -7.078   0.763 -35.254  1.00  0.00     0.002 A 
HETATM   22  C   UNL     1      -8.123   0.964 -34.354  1.00  0.00     0.017 A 
ENDBRANCH   1  16
TORSDOF 4
ENDMDL
MODEL 2
REMARK VINA RESULT:      -7.0      3.032      5.649
REMARK  4 active torsions:
REMARK  status: ('A' for Active; 'I' for Inactive)
REMARK    1  A    between atoms: C_4  and  C_5 
REMARK       I    between atoms: C_5  and  N_6 
REMARK    2  A    between atoms: N_6  and  C_7 
REMARK    3  A    between atoms: C_7  and  N_8 
REMARK    4  A    between atoms: N_8  and  C_9 
ROOT
HETATM    1  C   UNL     1      -7.250   0.320 -34.838  1.00  0.00     0.257 C 
HETATM    2  N   UNL     1      -8.517   0.420 -34.276  1.00  0.00    -0.299 N 
HETATM    3  O   UNL     1      -6.845   1.212 -35.580  1.00  0.00    -0.267 OA
HETATM    4  H   UNL     1      -8.997   1.177 -34.748  1.00  0.00     0.171 HD
ENDROOT
BRANCH   2   5
HETATM    5  C   UNL     1      -8.910   0.381 -32.917  1.00  0.00     0.180 C 
HETATM    6  S   UNL     1      -7.851   0.490 -31.632  1.00  0.00    -0.040 SA
BRANCH   5   7
HETATM    7  N   UNL     1     -10.292   0.245 -32.869  1.00  0.00    -0.318 N 
HETATM    8  H   UNL     1     -10.658  -0.378 -32.160  1.00  0.00     0.170 HD
BRANCH   7   9
HETATM    9  C   UNL     1     -11.366   0.851 -33.530  1.00  0.00     0.129 A 
HETATM   10  N   UNL     1     -11.005   2.030 -34.086  1.00  0.00    -0.243 NA
HETATM   11  C   UNL     1     -11.955   2.739 -34.734  1.00  0.00     0.119 A 
HETATM   12  C   UNL     1     -13.269   2.329 -34.860  1.00  0.00     0.026 A 
HETATM   13  C   UNL     1     -13.637   1.116 -34.283  1.00  0.00    -0.057 A 
HETATM   14  C   UNL     1     -15.051   0.631 -34.389  1.00  0.00     0.048 C 
HETATM   15  C   UNL     1     -12.666   0.373 -33.599  1.00  0.00     0.057 A 
ENDBRANCH   7   9
ENDBRANCH   5   7
ENDBRANCH   2   5
BRANCH   1  16
HETATM   16  C   UNL     1      -6.411  -0.877 -34.572  1.00  0.00     0.032 A 
HETATM   17  C   UNL     1      -6.791  -2.158 -34.996  1.00  0.00     0.023 A 
HETATM   18  C   UNL     1      -5.965  -3.261 -34.740  1.00  0.00    -0.061 A 
HETATM   19  C   UNL     1      -6.358  -4.631 -35.208  1.00  0.00     0.048 C 
HETATM   20  C   UNL     1      -4.739  -3.062 -34.091  1.00  0.00     0.007 A 
HETATM   21  C   UNL     1      -4.350  -1.785 -33.687  1.00  0.00     0.002 A 
HETATM   22  C   UNL     1      -5.182  -0.693 -33.929  1.00  0.00     0.017 A 
ENDBRANCH   1  16
TORSDOF 4
ENDMDL
MODEL 3
REMARK VINA RESULT:      -6.6     14.390     15.815
REMARK  4 active torsions:
REMARK  status: ('A' for Active; 'I' for Inactive)
REMARK    1  A    between atoms: C_4  and  C_5 
REMARK       I    between atoms: C_5  and  N_6 
REMARK    2  A    between atoms: N_6  and  C_7 
REMARK    3  A    between atoms: C_7  and  N_8 
REMARK    4  A    between atoms: N_8  and  C_9 
ROOT
HETATM    1  C   UNL     1      -3.991 -12.442 -37.955  1.00  0.00     0.257 C 
HETATM    2  N   UNL     1      -4.578 -12.475 -36.695  1.00  0.00    -0.299 N 
HETATM    3  O   UNL     1      -2.830 -12.057 -38.070  1.00  0.00    -0.267 OA
HETATM    4  H   UNL     1      -3.966 -11.972 -36.064  1.00  0.00     0.171 HD
ENDROOT
BRANCH   2   5
HETATM    5  C   UNL     1      -5.188 -13.552 -36.009  1.00  0.00     0.180 C 
HETATM    6  S   UNL     1      -4.348 -14.736 -35.187  1.00  0.00    -0.040 SA
BRANCH   5   7
HETATM    7  N   UNL     1      -6.565 -13.430 -36.149  1.00  0.00    -0.318 N 
HETATM    8  H   UNL     1      -7.043 -12.890 -35.439  1.00  0.00     0.170 HD
BRANCH   7   9
HETATM    9  C   UNL     1      -7.495 -13.811 -37.122  1.00  0.00     0.129 A 
HETATM   10  N   UNL     1      -7.568 -15.156 -37.239  1.00  0.00    -0.243 NA
HETATM   11  C   UNL     1      -8.410 -15.663 -38.166  1.00  0.00     0.119 A 
HETATM   12  C   UNL     1      -9.197 -14.889 -38.997  1.00  0.00     0.026 A 
HETATM   13  C   UNL     1      -9.116 -13.504 -38.875  1.00  0.00    -0.057 A 
HETATM   14  C   UNL     1      -9.946 -12.621 -39.758  1.00  0.00     0.048 C 
HETATM   15  C   UNL     1      -8.240 -12.961 -37.926  1.00  0.00     0.057 A 
ENDBRANCH   7   9
ENDBRANCH   5   7
ENDBRANCH   2   5
BRANCH   1  16
HETATM   16  C   UNL     1      -4.779 -12.832 -39.153  1.00  0.00     0.032 A 
HETATM   17  C   UNL     1      -4.900 -14.168 -39.556  1.00  0.00     0.023 A 
HETATM   18  C   UNL     1      -5.665 -14.499 -40.684  1.00  0.00    -0.061 A 
HETATM   19  C   UNL     1      -5.813 -15.930 -41.110  1.00  0.00     0.048 C 
HETATM   20  C   UNL     1      -6.338 -13.483 -41.376  1.00  0.00     0.007 A 
HETATM   21  C   UNL     1      -6.235 -12.155 -40.963  1.00  0.00     0.002 A 
HETATM   22  C   UNL     1      -5.460 -11.829 -39.851  1.00  0.00     0.017 A 
ENDBRANCH   1  16
TORSDOF 4
ENDMDL
MODEL 4
REMARK VINA RESULT:      -6.5      3.065      4.106
REMARK  4 active torsions:
REMARK  status: ('A' for Active; 'I' for Inactive)
REMARK    1  A    between atoms: C_4  and  C_5 
REMARK       I    between atoms: C_5  and  N_6 
REMARK    2  A    between atoms: N_6  and  C_7 
REMARK    3  A    between atoms: C_7  and  N_8 
REMARK    4  A    between atoms: N_8  and  C_9 
ROOT
HETATM    1  C   UNL     1      -6.509   1.227 -31.387  1.00  0.00     0.257 C 
HETATM    2  N   UNL     1      -5.365   0.943 -30.650  1.00  0.00    -0.299 N 
HETATM    3  O   UNL     1      -7.383   1.939 -30.897  1.00  0.00    -0.267 OA
HETATM    4  H   UNL     1      -5.537   1.245 -29.699  1.00  0.00     0.171 HD
ENDROOT
BRANCH   2   5
HETATM    5  C   UNL     1      -4.004   1.150 -30.977  1.00  0.00     0.180 C 
HETATM    6  S   UNL     1      -2.926  -0.076 -31.322  1.00  0.00    -0.040 SA
BRANCH   5   7
HETATM    7  N   UNL     1      -3.757   2.517 -30.959  1.00  0.00    -0.318 N 
HETATM    8  H   UNL     1      -3.950   2.997 -30.088  1.00  0.00     0.170 HD
BRANCH   7   9
HETATM    9  C   UNL     1      -3.196   3.430 -31.858  1.00  0.00     0.129 A 
HETATM   10  N   UNL     1      -2.021   3.919 -31.400  1.00  0.00    -0.243 NA
HETATM   11  C   UNL     1      -1.381   4.836 -32.159  1.00  0.00     0.119 A 
HETATM   12  C   UNL     1      -1.858   5.300 -33.370  1.00  0.00     0.026 A 
HETATM   13  C   UNL     1      -3.070   4.797 -33.835  1.00  0.00    -0.057 A 
HETATM   14  C   UNL     1      -3.632   5.274 -35.141  1.00  0.00     0.048 C 
HETATM   15  C   UNL     1      -3.752   3.853 -33.056  1.00  0.00     0.057 A 
ENDBRANCH   7   9
ENDBRANCH   5   7
ENDBRANCH   2   5
BRANCH   1  16
HETATM   16  C   UNL     1      -6.687   0.641 -32.741  1.00  0.00     0.032 A 
HETATM   17  C   UNL     1      -6.624  -0.742 -32.963  1.00  0.00     0.023 A 
HETATM   18  C   UNL     1      -6.813  -1.259 -34.253  1.00  0.00    -0.061 A 
HETATM   19  C   UNL     1      -6.764  -2.739 -34.494  1.00  0.00     0.048 C 
HETATM   20  C   UNL     1      -7.104  -0.382 -35.306  1.00  0.00     0.007 A 
HETATM   21  C   UNL     1      -7.187   0.993 -35.082  1.00  0.00     0.002 A 
HETATM   22  C   UNL     1      -6.983   1.504 -33.802  1.00  0.00     0.017 A 
ENDBRANCH   1  16
TORSDOF 4
ENDMDL
MODEL 5
REMARK VINA RESULT:      -6.4      3.218      4.827
REMARK  4 active torsions:
REMARK  status: ('A' for Active; 'I' for Inactive)
REMARK    1  A    between atoms: C_4  and  C_5 
REMARK       I    between atoms: C_5  and  N_6 
REMARK    2  A    between atoms: N_6  and  C_7 
REMARK    3  A    between atoms: C_7  and  N_8 
REMARK    4  A    between atoms: N_8  and  C_9 
ROOT
HETATM    1  C   UNL     1      -3.395  -0.381 -32.329  1.00  0.00     0.257 C 
HETATM    2  N   UNL     1      -3.388   0.943 -31.905  1.00  0.00    -0.299 N 
HETATM    3  O   UNL     1      -2.482  -1.130 -31.988  1.00  0.00    -0.267 OA
HETATM    4  H   UNL     1      -2.475   1.127 -31.508  1.00  0.00     0.171 HD
ENDROOT
BRANCH   2   5
HETATM    5  C   UNL     1      -4.372   1.671 -31.196  1.00  0.00     0.180 C 
HETATM    6  S   UNL     1      -5.534   0.974 -30.222  1.00  0.00    -0.040 SA
BRANCH   5   7
HETATM    7  N   UNL     1      -4.183   3.022 -31.458  1.00  0.00    -0.318 N 
HETATM    8  H   UNL     1      -4.144   3.635 -30.653  1.00  0.00     0.170 HD
BRANCH   7   9
HETATM    9  C   UNL     1      -3.932   3.778 -32.608  1.00  0.00     0.129 A 
HETATM   10  N   UNL     1      -5.072   4.040 -33.288  1.00  0.00    -0.243 NA
HETATM   11  C   UNL     1      -4.972   4.741 -34.439  1.00  0.00     0.119 A 
HETATM   12  C   UNL     1      -3.778   5.203 -34.957  1.00  0.00     0.026 A 
HETATM   13  C   UNL     1      -2.607   4.927 -34.256  1.00  0.00    -0.057 A 
HETATM   14  C   UNL     1      -1.285   5.402 -34.781  1.00  0.00     0.048 C 
HETATM   15  C   UNL     1      -2.691   4.193 -33.066  1.00  0.00     0.057 A 
ENDBRANCH   7   9
ENDBRANCH   5   7
ENDBRANCH   2   5
BRANCH   1  16
HETATM   16  C   UNL     1      -4.480  -0.872 -33.218  1.00  0.00     0.032 A 
HETATM   17  C   UNL     1      -5.449  -0.010 -33.750  1.00  0.00     0.023 A 
HETATM   18  C   UNL     1      -6.448  -0.507 -34.599  1.00  0.00    -0.061 A 
HETATM   19  C   UNL     1      -7.477   0.413 -35.184  1.00  0.00     0.048 C 
HETATM   20  C   UNL     1      -6.441  -1.866 -34.940  1.00  0.00     0.007 A 
HETATM   21  C   UNL     1      -5.465  -2.722 -34.428  1.00  0.00     0.002 A 
HETATM   22  C   UNL     1      -4.483  -2.226 -33.572  1.00  0.00     0.017 A 
ENDBRANCH   1  16
TORSDOF 4
ENDMDL
MODEL 6
REMARK VINA RESULT:      -6.4      1.744      2.544
REMARK  4 active torsions:
REMARK  status: ('A' for Active; 'I' for Inactive)
REMARK    1  A    between atoms: C_4  and  C_5 
REMARK       I    between atoms: C_5  and  N_6 
REMARK    2  A    between atoms: N_6  and  C_7 
REMARK    3  A    between atoms: C_7  and  N_8 
REMARK    4  A    between atoms: N_8  and  C_9 
ROOT
HETATM    1  C   UNL     1      -9.754   0.313 -32.763  1.00  0.00     0.257 C 
HETATM    2  N   UNL     1     -10.095   1.561 -32.254  1.00  0.00    -0.299 N 
HETATM    3  O   UNL     1     -10.586  -0.591 -32.752  1.00  0.00    -0.267 OA
HETATM    4  H   UNL     1     -10.974   1.456 -31.763  1.00  0.00     0.171 HD
ENDROOT
BRANCH   2   5
HETATM    5  C   UNL     1     -10.042   2.834 -32.870  1.00  0.00     0.180 C 
HETATM    6  S   UNL     1     -11.095   3.344 -34.061  1.00  0.00    -0.040 SA
BRANCH   5   7
HETATM    7  N   UNL     1      -8.988   3.543 -32.308  1.00  0.00    -0.318 N 
HETATM    8  H   UNL     1      -9.150   4.528 -32.137  1.00  0.00     0.170 HD
BRANCH   7   9
HETATM    9  C   UNL     1      -7.725   3.204 -31.811  1.00  0.00     0.129 A 
HETATM   10  N   UNL     1      -7.786   2.838 -30.511  1.00  0.00    -0.243 NA
HETATM   11  C   UNL     1      -6.630   2.511 -29.893  1.00  0.00     0.119 A 
HETATM   12  C   UNL     1      -5.394   2.529 -30.513  1.00  0.00     0.026 A 
HETATM   13  C   UNL     1      -5.336   2.910 -31.851  1.00  0.00    -0.057 A 
HETATM   14  C   UNL     1      -4.019   2.951 -32.566  1.00  0.00     0.048 C 
HETATM   15  C   UNL     1      -6.525   3.263 -32.504  1.00  0.00     0.057 A 
ENDBRANCH   7   9
ENDBRANCH   5   7
ENDBRANCH   2   5
BRANCH   1  16
HETATM   16  C   UNL     1      -8.382   0.069 -33.277  1.00  0.00     0.032 A 
HETATM   17  C   UNL     1      -7.328  -0.303 -32.430  1.00  0.00     0.023 A 
HETATM   18  C   UNL     1      -6.050  -0.540 -32.955  1.00  0.00    -0.061 A 
HETATM   19  C   UNL     1      -4.923  -0.954 -32.056  1.00  0.00     0.048 C 
HETATM   20  C   UNL     1      -5.849  -0.441 -34.338  1.00  0.00     0.007 A 
HETATM   21  C   UNL     1      -6.902  -0.091 -35.185  1.00  0.00     0.002 A 
HETATM   22  C   UNL     1      -8.167   0.160 -34.657  1.00  0.00     0.017 A 
ENDBRANCH   1  16
TORSDOF 4
ENDMDL
MODEL 7
REMARK VINA RESULT:      -6.3      2.634      4.017
REMARK  4 active torsions:
REMARK  status: ('A' for Active; 'I' for Inactive)
REMARK    1  A    between atoms: C_4  and  C_5 
REMARK       I    between atoms: C_5  and  N_6 
REMARK    2  A    between atoms: N_6  and  C_7 
REMARK    3  A    between atoms: C_7  and  N_8 
REMARK    4  A    between atoms: N_8  and  C_9 
ROOT
HETATM    1  C   UNL     1      -6.389   0.399 -34.031  1.00  0.00     0.257 C 
HETATM    2  N   UNL     1      -6.600   1.009 -32.800  1.00  0.00    -0.299 N 
HETATM    3  O   UNL     1      -6.688   0.999 -35.061  1.00  0.00    -0.267 OA
HETATM    4  H   UNL     1      -7.169   1.830 -32.964  1.00  0.00     0.171 HD
ENDROOT
BRANCH   2   5
HETATM    5  C   UNL     1      -5.687   1.265 -31.749  1.00  0.00     0.180 C 
HETATM    6  S   UNL     1      -5.989   0.929 -30.142  1.00  0.00    -0.040 SA
BRANCH   5   7
HETATM    7  N   UNL     1      -4.539   1.822 -32.298  1.00  0.00    -0.318 N 
HETATM    8  H   UNL     1      -3.776   1.184 -32.489  1.00  0.00     0.170 HD
BRANCH   7   9
HETATM    9  C   UNL     1      -4.185   3.094 -32.761  1.00  0.00     0.129 A 
HETATM   10  N   UNL     1      -5.257   3.762 -33.244  1.00  0.00    -0.243 NA
HETATM   11  C   UNL     1      -5.053   4.998 -33.752  1.00  0.00     0.119 A 
HETATM   12  C   UNL     1      -3.817   5.614 -33.805  1.00  0.00     0.026 A 
HETATM   13  C   UNL     1      -2.716   4.920 -33.310  1.00  0.00    -0.057 A 
HETATM   14  C   UNL     1      -1.353   5.544 -33.351  1.00  0.00     0.048 C 
HETATM   15  C   UNL     1      -2.907   3.634 -32.789  1.00  0.00     0.057 A 
ENDBRANCH   7   9
ENDBRANCH   5   7
ENDBRANCH   2   5
BRANCH   1  16
HETATM   16  C   UNL     1      -5.844  -0.981 -34.093  1.00  0.00     0.032 A 
HETATM   17  C   UNL     1      -6.564  -2.037 -34.669  1.00  0.00     0.023 A 
HETATM   18  C   UNL     1      -6.010  -3.324 -34.724  1.00  0.00    -0.061 A 
HETATM   19  C   UNL     1      -6.769  -4.453 -35.354  1.00  0.00     0.048 C 
HETATM   20  C   UNL     1      -4.713  -3.531 -34.234  1.00  0.00     0.007 A 
HETATM   21  C   UNL     1      -3.987  -2.477 -33.680  1.00  0.00     0.002 A 
HETATM   22  C   UNL     1      -4.549  -1.203 -33.612  1.00  0.00     0.017 A 
ENDBRANCH   1  16
TORSDOF 4
ENDMDL
MODEL 8
REMARK VINA RESULT:      -6.3      2.909      4.901
REMARK  4 active torsions:
REMARK  status: ('A' for Active; 'I' for Inactive)
REMARK    1  A    between atoms: C_4  and  C_5 
REMARK       I    between atoms: C_5  and  N_6 
REMARK    2  A    between atoms: N_6  and  C_7 
REMARK    3  A    between atoms: C_7  and  N_8 
REMARK    4  A    between atoms: N_8  and  C_9 
ROOT
HETATM    1  C   UNL     1      -6.424  -0.124 -31.027  1.00  0.00     0.257 C 
HETATM    2  N   UNL     1      -5.248  -0.627 -31.571  1.00  0.00    -0.299 N 
HETATM    3  O   UNL     1      -6.569  -0.115 -29.806  1.00  0.00    -0.267 OA
HETATM    4  H   UNL     1      -4.749  -1.099 -30.826  1.00  0.00     0.171 HD
ENDROOT
BRANCH   2   5
HETATM    5  C   UNL     1      -4.323  -0.015 -32.450  1.00  0.00     0.180 C 
HETATM    6  S   UNL     1      -3.611   1.469 -32.176  1.00  0.00    -0.040 SA
BRANCH   5   7
HETATM    7  N   UNL     1      -4.133  -0.860 -33.536  1.00  0.00    -0.318 N 
HETATM    8  H   UNL     1      -3.629  -0.474 -34.324  1.00  0.00     0.170 HD
BRANCH   7   9
HETATM    9  C   UNL     1      -4.399  -2.210 -33.794  1.00  0.00     0.129 A 
HETATM   10  N   UNL     1      -3.525  -3.018 -33.153  1.00  0.00    -0.243 NA
HETATM   11  C   UNL     1      -3.648  -4.351 -33.336  1.00  0.00     0.119 A 
HETATM   12  C   UNL     1      -4.613  -4.931 -34.138  1.00  0.00     0.026 A 
HETATM   13  C   UNL     1      -5.508  -4.095 -34.799  1.00  0.00    -0.057 A 
HETATM   14  C   UNL     1      -6.569  -4.676 -35.684  1.00  0.00     0.048 C 
HETATM   15  C   UNL     1      -5.388  -2.709 -34.628  1.00  0.00     0.057 A 
ENDBRANCH   7   9
ENDBRANCH   5   7
ENDBRANCH   2   5
BRANCH   1  16
HETATM   16  C   UNL     1      -7.508   0.360 -31.919  1.00  0.00     0.032 A 
HETATM   17  C   UNL     1      -8.304   1.464 -31.585  1.00  0.00     0.023 A 
HETATM   18  C   UNL     1      -9.309   1.902 -32.460  1.00  0.00    -0.061 A 
HETATM   19  C   UNL     1     -10.152   3.094 -32.116  1.00  0.00     0.048 C 
HETATM   20  C   UNL     1      -9.478   1.249 -33.688  1.00  0.00     0.007 A 
HETATM   21  C   UNL     1      -8.672   0.163 -34.031  1.00  0.00     0.002 A 
HETATM   22  C   UNL     1      -7.686  -0.279 -33.151  1.00  0.00     0.017 A 
ENDBRANCH   1  16
TORSDOF 4
ENDMDL
MODEL 9
REMARK VINA RESULT:      -6.2      3.288      5.838
REMARK  4 active torsions:
REMARK  status: ('A' for Active; 'I' for Inactive)
REMARK    1  A    between atoms: C_4  and  C_5 
REMARK       I    between atoms: C_5  and  N_6 
REMARK    2  A    between atoms: N_6  and  C_7 
REMARK    3  A    between atoms: C_7  and  N_8 
REMARK    4  A    between atoms: N_8  and  C_9 
ROOT
HETATM    1  C   UNL     1      -3.790   2.042 -31.659  1.00  0.00     0.257 C 
HETATM    2  N   UNL     1      -5.109   1.611 -31.752  1.00  0.00    -0.299 N 
HETATM    3  O   UNL     1      -2.934   1.277 -31.221  1.00  0.00    -0.267 OA
HETATM    4  H   UNL     1      -5.177   0.740 -31.239  1.00  0.00     0.171 HD
ENDROOT
BRANCH   2   5
HETATM    5  C   UNL     1      -5.972   1.574 -32.872  1.00  0.00     0.180 C 
HETATM    6  S   UNL     1      -6.300   2.889 -33.847  1.00  0.00    -0.040 SA
BRANCH   5   7
HETATM    7  N   UNL     1      -6.467   0.282 -32.995  1.00  0.00    -0.318 N 
HETATM    8  H   UNL     1      -7.436   0.145 -32.737  1.00  0.00     0.170 HD
BRANCH   7   9
HETATM    9  C   UNL     1      -5.963  -0.923 -33.497  1.00  0.00     0.129 A 
HETATM   10  N   UNL     1      -4.620  -0.997 -33.354  1.00  0.00    -0.243 NA
HETATM   11  C   UNL     1      -3.996  -2.099 -33.823  1.00  0.00     0.119 A 
HETATM   12  C   UNL     1      -4.649  -3.151 -34.436  1.00  0.00     0.026 A 
HETATM   13  C   UNL     1      -6.031  -3.070 -34.584  1.00  0.00    -0.057 A 
HETATM   14  C   UNL     1      -6.784  -4.183 -35.248  1.00  0.00     0.048 C 
HETATM   15  C   UNL     1      -6.693  -1.928 -34.113  1.00  0.00     0.057 A 
ENDBRANCH   7   9
ENDBRANCH   5   7
ENDBRANCH   2   5
BRANCH   1  16
HETATM   16  C   UNL     1      -3.433   3.430 -32.051  1.00  0.00     0.032 A 
HETATM   17  C   UNL     1      -2.642   3.701 -33.176  1.00  0.00     0.023 A 
HETATM   18  C   UNL     1      -2.338   5.025 -33.524  1.00  0.00    -0.061 A 
HETATM   19  C   UNL     1      -1.507   5.322 -34.736  1.00  0.00     0.048 C 
HETATM   20  C   UNL     1      -2.868   6.072 -32.757  1.00  0.00     0.007 A 
HETATM   21  C   UNL     1      -3.672   5.804 -31.650  1.00  0.00     0.002 A 
HETATM   22  C   UNL     1      -3.958   4.486 -31.298  1.00  0.00     0.017 A 
ENDBRANCH   1  16
TORSDOF 4
ENDMDL
MODEL 10
REMARK VINA RESULT:      -6.2      3.692      4.972
REMARK  4 active torsions:
REMARK  status: ('A' for Active; 'I' for Inactive)
REMARK    1  A    between atoms: C_4  and  C_5 
REMARK       I    between atoms: C_5  and  N_6 
REMARK    2  A    between atoms: N_6  and  C_7 
REMARK    3  A    between atoms: C_7  and  N_8 
REMARK    4  A    between atoms: N_8  and  C_9 
ROOT
HETATM    1  C   UNL     1      -5.055   0.676 -30.986  1.00  0.00     0.257 C 
HETATM    2  N   UNL     1      -4.164   1.717 -31.220  1.00  0.00    -0.299 N 
HETATM    3  O   UNL     1      -5.379   0.406 -29.832  1.00  0.00    -0.267 OA
HETATM    4  H   UNL     1      -3.766   1.979 -30.326  1.00  0.00     0.171 HD
ENDROOT
BRANCH   2   5
HETATM    5  C   UNL     1      -4.308   2.866 -32.033  1.00  0.00     0.180 C 
HETATM    6  S   UNL     1      -5.736   3.712 -32.216  1.00  0.00    -0.040 SA
BRANCH   5   7
HETATM    7  N   UNL     1      -3.079   3.140 -32.619  1.00  0.00    -0.318 N 
HETATM    8  H   UNL     1      -2.609   2.361 -33.063  1.00  0.00     0.170 HD
BRANCH   7   9
HETATM    9  C   UNL     1      -2.327   4.299 -32.839  1.00  0.00     0.129 A 
HETATM   10  N   UNL     1      -2.461   4.743 -34.109  1.00  0.00    -0.243 NA
HETATM   11  C   UNL     1      -1.765   5.843 -34.469  1.00  0.00     0.119 A 
HETATM   12  C   UNL     1      -0.928   6.538 -33.616  1.00  0.00     0.026 A 
HETATM   13  C   UNL     1      -0.791   6.075 -32.310  1.00  0.00    -0.057 A 
HETATM   14  C   UNL     1       0.109   6.791 -31.348  1.00  0.00     0.048 C 
HETATM   15  C   UNL     1      -1.498   4.929 -31.923  1.00  0.00     0.057 A 
ENDBRANCH   7   9
ENDBRANCH   5   7
ENDBRANCH   2   5
BRANCH   1  16
HETATM   16  C   UNL     1      -5.577  -0.125 -32.123  1.00  0.00     0.032 A 
HETATM   17  C   UNL     1      -4.787  -1.077 -32.783  1.00  0.00     0.023 A 
HETATM   18  C   UNL     1      -5.320  -1.825 -33.843  1.00  0.00    -0.061 A 
HETATM   19  C   UNL     1      -4.485  -2.857 -34.542  1.00  0.00     0.048 C 
HETATM   20  C   UNL     1      -6.661  -1.639 -34.204  1.00  0.00     0.007 A 
HETATM   21  C   UNL     1      -7.455  -0.708 -33.534  1.00  0.00     0.002 A 
HETATM   22  C   UNL     1      -6.916   0.046 -32.493  1.00  0.00     0.017 A 
ENDBRANCH   1  16
TORSDOF 4
ENDMDL
