MODEL 1
REMARK VINA RESULT:      -8.4      0.000      0.000
REMARK  7 active torsions:
REMARK  status: ('A' for Active; 'I' for Inactive)
REMARK    1  A    between atoms: C_2  and  C_3 
REMARK    2  A    between atoms: C_3  and  C_4 
REMARK    3  A    between atoms: C_8  and  C_9 
REMARK       I    between atoms: C_9  and  N_10 
REMARK    4  A    between atoms: N_10  and  C_11 
REMARK    5  A    between atoms: C_11  and  C_12 
REMARK    6  A    between atoms: C_12  and  N_13 
REMARK    7  A    between atoms: C_16  and  C_17 
ROOT
HETATM    1  C   UNL     1      -5.666   3.946 -33.895  1.00  0.00     0.150 C 
ENDROOT
BRANCH   1   2
HETATM    2  N   UNL     1      -4.292   4.322 -33.596  1.00  0.00    -0.354 N 
HETATM    3  C   UNL     1      -3.611   5.207 -34.419  1.00  0.00     0.272 C 
HETATM    4  O   UNL     1      -3.889   5.338 -35.607  1.00  0.00    -0.266 OA
HETATM    5  H   UNL     1      -4.029   4.456 -32.617  1.00  0.00     0.162 HD
BRANCH   3   6
HETATM    6  C   UNL     1      -2.556   5.953 -33.725  1.00  0.00     0.146 A 
HETATM    7  N   UNL     1      -2.187   7.182 -34.142  1.00  0.00    -0.169 NA
HETATM    8  N   UNL     1      -1.187   7.522 -33.305  1.00  0.00    -0.282 N 
HETATM    9  C   UNL     1      -0.883   6.551 -32.391  1.00  0.00     0.030 A 
HETATM   10  H   UNL     1      -0.738   8.425 -33.425  1.00  0.00     0.189 HD
HETATM   11  C   UNL     1      -1.777   5.529 -32.622  1.00  0.00     0.065 A 
BRANCH   9  12
HETATM   12  C   UNL     1       0.233   6.693 -31.414  1.00  0.00     0.058 C 
BRANCH  12  13
HETATM   13  C   UNL     1       0.663   5.332 -30.864  1.00  0.00     0.002 C 
HETATM   14  C   UNL     1       0.523   5.270 -29.351  1.00  0.00     0.005 C 
ENDBRANCH  12  13
ENDBRANCH   9  12
ENDBRANCH   3   6
ENDBRANCH   1   2
BRANCH   1  15
HETATM   15  C   UNL     1      -6.003   2.476 -33.584  1.00  0.00     0.254 C 
BRANCH  15  16
HETATM   16  N   UNL     1      -6.055   2.263 -32.081  1.00  0.00    -0.069 N 
HETATM   17  H   UNL     1      -5.905   3.202 -31.680  1.00  0.00     0.280 HD
HETATM   18  C   UNL     1      -4.955   1.355 -31.566  1.00  0.00     0.244 C 
HETATM   19  C   UNL     1      -5.639   0.008 -31.304  1.00  0.00     0.046 C 
HETATM   20  C   UNL     1      -6.983   0.486 -30.743  1.00  0.00     0.039 C 
HETATM   21  C   UNL     1      -7.362   1.703 -31.574  1.00  0.00     0.235 C 
BRANCH  19  22
HETATM   22  C   UNL     1      -5.645  -0.883 -32.543  1.00  0.00    -0.046 A 
HETATM   23  C   UNL     1      -4.494  -1.635 -32.897  1.00  0.00    -0.055 A 
HETATM   24  C   UNL     1      -3.233  -1.673 -32.070  1.00  0.00     0.049 C 
HETATM   25  C   UNL     1      -4.488  -2.378 -34.093  1.00  0.00     0.007 A 
HETATM   26  C   UNL     1      -5.610  -2.433 -34.912  1.00  0.00     0.001 A 
HETATM   27  C   UNL     1      -6.762  -1.756 -34.541  1.00  0.00     0.001 A 
HETATM   28  C   UNL     1      -6.781  -0.997 -33.368  1.00  0.00     0.008 A 
ENDBRANCH  19  22
ENDBRANCH  15  16
ENDBRANCH   1  15
TORSDOF 7
ENDMDL
MODEL 2
REMARK VINA RESULT:      -8.3      2.387      2.988
REMARK  7 active torsions:
REMARK  status: ('A' for Active; 'I' for Inactive)
REMARK    1  A    between atoms: C_2  and  C_3 
REMARK    2  A    between atoms: C_3  and  C_4 
REMARK    3  A    between atoms: C_8  and  C_9 
REMARK       I    between atoms: C_9  and  N_10 
REMARK    4  A    between atoms: N_10  and  C_11 
REMARK    5  A    between atoms: C_11  and  C_12 
REMARK    6  A    between atoms: C_12  and  N_13 
REMARK    7  A    between atoms: C_16  and  C_17 
ROOT
HETATM    1  C   UNL     1      -4.043   4.082 -31.951  1.00  0.00     0.150 C 
ENDROOT
BRANCH   1   2
HETATM    2  N   UNL     1      -2.790   4.170 -31.217  1.00  0.00    -0.354 N 
HETATM    3  C   UNL     1      -1.680   4.772 -31.792  1.00  0.00     0.272 C 
HETATM    4  O   UNL     1      -1.520   4.820 -33.008  1.00  0.00    -0.266 OA
HETATM    5  H   UNL     1      -2.828   4.358 -30.212  1.00  0.00     0.162 HD
BRANCH   3   6
HETATM    6  C   UNL     1      -0.750   5.338 -30.810  1.00  0.00     0.146 A 
HETATM    7  N   UNL     1       0.132   4.553 -30.157  1.00  0.00    -0.169 NA
HETATM    8  N   UNL     1       0.770   5.401 -29.326  1.00  0.00    -0.282 N 
HETATM    9  C   UNL     1       0.312   6.688 -29.401  1.00  0.00     0.030 A 
HETATM   10  H   UNL     1       1.494   5.034 -28.717  1.00  0.00     0.189 HD
HETATM   11  C   UNL     1      -0.659   6.683 -30.378  1.00  0.00     0.065 A 
BRANCH   9  12
HETATM   12  C   UNL     1       0.832   7.774 -28.522  1.00  0.00     0.058 C 
BRANCH  12  13
HETATM   13  C   UNL     1       1.169   7.244 -27.128  1.00  0.00     0.002 C 
HETATM   14  C   UNL     1       1.946   8.265 -26.312  1.00  0.00     0.005 C 
ENDBRANCH  12  13
ENDBRANCH   9  12
ENDBRANCH   3   6
ENDBRANCH   1   2
BRANCH   1  15
HETATM   15  C   UNL     1      -4.441   2.652 -32.358  1.00  0.00     0.254 C 
BRANCH  15  16
HETATM   16  N   UNL     1      -4.420   1.741 -31.141  1.00  0.00    -0.069 N 
HETATM   17  H   UNL     1      -3.607   2.061 -30.592  1.00  0.00     0.280 HD
HETATM   18  C   UNL     1      -4.202   0.281 -31.489  1.00  0.00     0.244 C 
HETATM   19  C   UNL     1      -5.586  -0.369 -31.363  1.00  0.00     0.046 C 
HETATM   20  C   UNL     1      -6.126   0.369 -30.134  1.00  0.00     0.039 C 
HETATM   21  C   UNL     1      -5.663   1.810 -30.287  1.00  0.00     0.235 C 
BRANCH  19  22
HETATM   22  C   UNL     1      -6.378  -0.290 -32.665  1.00  0.00    -0.046 A 
HETATM   23  C   UNL     1      -5.989  -1.056 -33.795  1.00  0.00    -0.055 A 
HETATM   24  C   UNL     1      -4.840  -2.034 -33.787  1.00  0.00     0.049 C 
HETATM   25  C   UNL     1      -6.676  -0.899 -35.013  1.00  0.00     0.007 A 
HETATM   26  C   UNL     1      -7.768  -0.045 -35.119  1.00  0.00     0.001 A 
HETATM   27  C   UNL     1      -8.198   0.658 -34.004  1.00  0.00     0.001 A 
HETATM   28  C   UNL     1      -7.516   0.531 -32.791  1.00  0.00     0.008 A 
ENDBRANCH  19  22
ENDBRANCH  15  16
ENDBRANCH   1  15
TORSDOF 7
ENDMDL
MODEL 3
REMARK VINA RESULT:      -7.8      2.272      8.804
REMARK  7 active torsions:
REMARK  status: ('A' for Active; 'I' for Inactive)
REMARK    1  A    between atoms: C_2  and  C_3 
REMARK    2  A    between atoms: C_3  and  C_4 
REMARK    3  A    between atoms: C_8  and  C_9 
REMARK       I    between atoms: C_9  and  N_10 
REMARK    4  A    between atoms: N_10  and  C_11 
REMARK    5  A    between atoms: C_11  and  C_12 
REMARK    6  A    between atoms: C_12  and  N_13 
REMARK    7  A    between atoms: C_16  and  C_17 
ROOT
HETATM    1  C   UNL     1      -4.430   4.005 -31.393  1.00  0.00     0.150 C 
ENDROOT
BRANCH   1   2
HETATM    2  N   UNL     1      -4.518   2.850 -32.273  1.00  0.00    -0.354 N 
HETATM    3  C   UNL     1      -3.883   1.662 -31.939  1.00  0.00     0.272 C 
HETATM    4  O   UNL     1      -2.889   1.634 -31.220  1.00  0.00    -0.266 OA
HETATM    5  H   UNL     1      -5.405   2.668 -32.749  1.00  0.00     0.162 HD
BRANCH   3   6
HETATM    6  C   UNL     1      -4.522   0.476 -32.520  1.00  0.00     0.146 A 
HETATM    7  N   UNL     1      -5.833   0.228 -32.321  1.00  0.00    -0.169 NA
HETATM    8  N   UNL     1      -6.042  -0.943 -32.955  1.00  0.00    -0.282 N 
HETATM    9  C   UNL     1      -4.913  -1.465 -33.526  1.00  0.00     0.030 A 
HETATM   10  H   UNL     1      -6.975  -1.343 -32.944  1.00  0.00     0.189 HD
HETATM   11  C   UNL     1      -3.914  -0.549 -33.282  1.00  0.00     0.065 A 
BRANCH   9  12
HETATM   12  C   UNL     1      -4.905  -2.784 -34.220  1.00  0.00     0.058 C 
BRANCH  12  13
HETATM   13  C   UNL     1      -6.246  -3.056 -34.904  1.00  0.00     0.002 C 
HETATM   14  C   UNL     1      -6.445  -4.539 -35.178  1.00  0.00     0.005 C 
ENDBRANCH  12  13
ENDBRANCH   9  12
ENDBRANCH   3   6
ENDBRANCH   1   2
BRANCH   1  15
HETATM   15  C   UNL     1      -4.011   5.308 -32.096  1.00  0.00     0.254 C 
BRANCH  15  16
HETATM   16  N   UNL     1      -2.831   5.044 -33.016  1.00  0.00    -0.069 N 
HETATM   17  H   UNL     1      -3.028   4.122 -33.434  1.00  0.00     0.280 HD
HETATM   18  C   UNL     1      -1.507   4.951 -32.282  1.00  0.00     0.244 C 
HETATM   19  C   UNL     1      -0.808   6.290 -32.548  1.00  0.00     0.046 C 
HETATM   20  C   UNL     1      -1.208   6.524 -34.008  1.00  0.00     0.039 C 
HETATM   21  C   UNL     1      -2.654   6.065 -34.114  1.00  0.00     0.235 C 
BRANCH  19  22
HETATM   22  C   UNL     1      -1.183   7.348 -31.513  1.00  0.00    -0.046 A 
HETATM   23  C   UNL     1      -0.647   7.296 -30.200  1.00  0.00    -0.055 A 
HETATM   24  C   UNL     1       0.359   6.266 -29.747  1.00  0.00     0.049 C 
HETATM   25  C   UNL     1      -1.076   8.226 -29.235  1.00  0.00     0.007 A 
HETATM   26  C   UNL     1      -1.978   9.233 -29.557  1.00  0.00     0.001 A 
HETATM   27  C   UNL     1      -2.457   9.334 -30.855  1.00  0.00     0.001 A 
HETATM   28  C   UNL     1      -2.059   8.407 -31.822  1.00  0.00     0.008 A 
ENDBRANCH  19  22
ENDBRANCH  15  16
ENDBRANCH   1  15
TORSDOF 7
ENDMDL
MODEL 4
REMARK VINA RESULT:      -7.7      1.813      2.480
REMARK  7 active torsions:
REMARK  status: ('A' for Active; 'I' for Inactive)
REMARK    1  A    between atoms: C_2  and  C_3 
REMARK    2  A    between atoms: C_3  and  C_4 
REMARK    3  A    between atoms: C_8  and  C_9 
REMARK       I    between atoms: C_9  and  N_10 
REMARK    4  A    between atoms: N_10  and  C_11 
REMARK    5  A    between atoms: C_11  and  C_12 
REMARK    6  A    between atoms: C_12  and  N_13 
REMARK    7  A    between atoms: C_16  and  C_17 
ROOT
HETATM    1  C   UNL     1      -6.784   3.189 -33.153  1.00  0.00     0.150 C 
ENDROOT
BRANCH   1   2
HETATM    2  N   UNL     1      -5.695   3.908 -33.797  1.00  0.00    -0.354 N 
HETATM    3  C   UNL     1      -5.563   5.279 -33.630  1.00  0.00     0.272 C 
HETATM    4  O   UNL     1      -6.523   6.001 -33.379  1.00  0.00    -0.266 OA
HETATM    5  H   UNL     1      -4.779   3.456 -33.848  1.00  0.00     0.162 HD
BRANCH   3   6
HETATM    6  C   UNL     1      -4.183   5.753 -33.774  1.00  0.00     0.146 A 
HETATM    7  N   UNL     1      -3.558   5.718 -34.969  1.00  0.00    -0.169 NA
HETATM    8  N   UNL     1      -2.321   6.182 -34.704  1.00  0.00    -0.282 N 
HETATM    9  C   UNL     1      -2.122   6.485 -33.385  1.00  0.00     0.030 A 
HETATM   10  H   UNL     1      -1.652   6.248 -35.465  1.00  0.00     0.189 HD
HETATM   11  C   UNL     1      -3.325   6.242 -32.760  1.00  0.00     0.065 A 
BRANCH   9  12
HETATM   12  C   UNL     1      -0.806   6.952 -32.862  1.00  0.00     0.058 C 
BRANCH  12  13
HETATM   13  C   UNL     1      -0.354   6.106 -31.670  1.00  0.00     0.002 C 
HETATM   14  C   UNL     1       0.070   6.974 -30.496  1.00  0.00     0.005 C 
ENDBRANCH  12  13
ENDBRANCH   9  12
ENDBRANCH   3   6
ENDBRANCH   1   2
BRANCH   1  15
HETATM   15  C   UNL     1      -8.027   2.994 -34.039  1.00  0.00     0.254 C 
BRANCH  15  16
HETATM   16  N   UNL     1      -9.187   2.482 -33.200  1.00  0.00    -0.069 N 
HETATM   17  H   UNL     1      -9.734   3.326 -32.971  1.00  0.00     0.280 HD
HETATM   18  C   UNL     1      -8.747   1.843 -31.897  1.00  0.00     0.244 C 
HETATM   19  C   UNL     1      -8.869   0.332 -32.133  1.00  0.00     0.046 C 
HETATM   20  C   UNL     1     -10.153   0.287 -32.969  1.00  0.00     0.039 C 
HETATM   21  C   UNL     1     -10.074   1.484 -33.903  1.00  0.00     0.235 C 
BRANCH  19  22
HETATM   22  C   UNL     1      -7.594  -0.260 -32.728  1.00  0.00    -0.046 A 
HETATM   23  C   UNL     1      -6.397  -0.308 -31.967  1.00  0.00    -0.055 A 
HETATM   24  C   UNL     1      -6.301   0.142 -30.530  1.00  0.00     0.049 C 
HETATM   25  C   UNL     1      -5.210  -0.773 -32.564  1.00  0.00     0.007 A 
HETATM   26  C   UNL     1      -5.197  -1.239 -33.874  1.00  0.00     0.001 A 
HETATM   27  C   UNL     1      -6.376  -1.258 -34.605  1.00  0.00     0.001 A 
HETATM   28  C   UNL     1      -7.560  -0.782 -34.036  1.00  0.00     0.008 A 
ENDBRANCH  19  22
ENDBRANCH  15  16
ENDBRANCH   1  15
TORSDOF 7
ENDMDL
MODEL 5
REMARK VINA RESULT:      -7.5      2.233      3.213
REMARK  7 active torsions:
REMARK  status: ('A' for Active; 'I' for Inactive)
REMARK    1  A    between atoms: C_2  and  C_3 
REMARK    2  A    between atoms: C_3  and  C_4 
REMARK    3  A    between atoms: C_8  and  C_9 
REMARK       I    between atoms: C_9  and  N_10 
REMARK    4  A    between atoms: N_10  and  C_11 
REMARK    5  A    between atoms: C_11  and  C_12 
REMARK    6  A    between atoms: C_12  and  N_13 
REMARK    7  A    between atoms: C_16  and  C_17 
ROOT
HETATM    1  C   UNL     1      -4.201   3.713 -31.662  1.00  0.00     0.150 C 
ENDROOT
BRANCH   1   2
HETATM    2  N   UNL     1      -2.821   3.820 -31.215  1.00  0.00    -0.354 N 
HETATM    3  C   UNL     1      -2.034   4.892 -31.612  1.00  0.00     0.272 C 
HETATM    4  O   UNL     1      -2.240   5.499 -32.658  1.00  0.00    -0.266 OA
HETATM    5  H   UNL     1      -2.599   3.540 -30.256  1.00  0.00     0.162 HD
BRANCH   3   6
HETATM    6  C   UNL     1      -0.965   5.213 -30.662  1.00  0.00     0.146 A 
HETATM    7  N   UNL     1       0.186   4.509 -30.647  1.00  0.00    -0.169 NA
HETATM    8  N   UNL     1       0.888   5.055 -29.635  1.00  0.00    -0.282 N 
HETATM    9  C   UNL     1       0.223   6.058 -28.986  1.00  0.00     0.030 A 
HETATM   10  H   UNL     1       1.809   4.681 -29.425  1.00  0.00     0.189 HD
HETATM   11  C   UNL     1      -0.975   6.203 -29.650  1.00  0.00     0.065 A 
BRANCH   9  12
HETATM   12  C   UNL     1       0.791   6.754 -27.796  1.00  0.00     0.058 C 
BRANCH  12  13
HETATM   13  C   UNL     1       1.174   8.197 -28.130  1.00  0.00     0.002 C 
HETATM   14  C   UNL     1       1.827   8.892 -26.945  1.00  0.00     0.005 C 
ENDBRANCH  12  13
ENDBRANCH   9  12
ENDBRANCH   3   6
ENDBRANCH   1   2
BRANCH   1  15
HETATM   15  C   UNL     1      -5.022   2.632 -30.936  1.00  0.00     0.254 C 
BRANCH  15  16
HETATM   16  N   UNL     1      -6.461   2.659 -31.424  1.00  0.00    -0.069 N 
HETATM   17  H   UNL     1      -6.898   3.434 -30.901  1.00  0.00     0.280 HD
HETATM   18  C   UNL     1      -7.226   1.389 -31.103  1.00  0.00     0.244 C 
HETATM   19  C   UNL     1      -7.290   0.617 -32.426  1.00  0.00     0.046 C 
HETATM   20  C   UNL     1      -7.498   1.773 -33.410  1.00  0.00     0.039 C 
HETATM   21  C   UNL     1      -6.614   2.903 -32.906  1.00  0.00     0.235 C 
BRANCH  19  22
HETATM   22  C   UNL     1      -6.079  -0.292 -32.619  1.00  0.00    -0.046 A 
HETATM   23  C   UNL     1      -5.971  -1.118 -33.768  1.00  0.00    -0.055 A 
HETATM   24  C   UNL     1      -6.974  -1.119 -34.895  1.00  0.00     0.049 C 
HETATM   25  C   UNL     1      -4.893  -2.016 -33.881  1.00  0.00     0.007 A 
HETATM   26  C   UNL     1      -3.898  -2.073 -32.912  1.00  0.00     0.001 A 
HETATM   27  C   UNL     1      -3.958  -1.223 -31.818  1.00  0.00     0.001 A 
HETATM   28  C   UNL     1      -5.032  -0.339 -31.677  1.00  0.00     0.008 A 
ENDBRANCH  19  22
ENDBRANCH  15  16
ENDBRANCH   1  15
TORSDOF 7
ENDMDL
MODEL 6
REMARK VINA RESULT:      -7.3      1.587      2.215
REMARK  7 active torsions:
REMARK  status: ('A' for Active; 'I' for Inactive)
REMARK    1  A    between atoms: C_2  and  C_3 
REMARK    2  A    between atoms: C_3  and  C_4 
REMARK    3  A    between atoms: C_8  and  C_9 
REMARK       I    between atoms: C_9  and  N_10 
REMARK    4  A    between atoms: N_10  and  C_11 
REMARK    5  A    between atoms: C_11  and  C_12 
REMARK    6  A    between atoms: C_12  and  N_13 
REMARK    7  A    between atoms: C_16  and  C_17 
ROOT
HETATM    1  C   UNL     1      -4.758   4.842 -34.599  1.00  0.00     0.150 C 
ENDROOT
BRANCH   1   2
HETATM    2  N   UNL     1      -3.762   5.042 -33.557  1.00  0.00    -0.354 N 
HETATM    3  C   UNL     1      -2.441   5.307 -33.889  1.00  0.00     0.272 C 
HETATM    4  O   UNL     1      -1.948   4.934 -34.949  1.00  0.00    -0.266 OA
HETATM    5  H   UNL     1      -4.037   5.553 -32.715  1.00  0.00     0.162 HD
BRANCH   3   6
HETATM    6  C   UNL     1      -1.724   6.070 -32.863  1.00  0.00     0.146 A 
HETATM    7  N   UNL     1      -1.928   7.395 -32.714  1.00  0.00    -0.169 NA
HETATM    8  N   UNL     1      -1.081   7.746 -31.726  1.00  0.00    -0.282 N 
HETATM    9  C   UNL     1      -0.325   6.706 -31.258  1.00  0.00     0.030 A 
HETATM   10  H   UNL     1      -1.052   8.717 -31.432  1.00  0.00     0.189 HD
HETATM   11  C   UNL     1      -0.742   5.596 -31.960  1.00  0.00     0.065 A 
BRANCH   9  12
HETATM   12  C   UNL     1       0.721   6.885 -30.212  1.00  0.00     0.058 C 
BRANCH  12  13
HETATM   13  C   UNL     1       0.146   7.559 -28.965  1.00  0.00     0.002 C 
HETATM   14  C   UNL     1       1.222   8.286 -28.174  1.00  0.00     0.005 C 
ENDBRANCH  12  13
ENDBRANCH   9  12
ENDBRANCH   3   6
ENDBRANCH   1   2
BRANCH   1  15
HETATM   15  C   UNL     1      -5.694   3.644 -34.360  1.00  0.00     0.254 C 
BRANCH  15  16
HETATM   16  N   UNL     1      -6.635   3.943 -33.205  1.00  0.00    -0.069 N 
HETATM   17  H   UNL     1      -6.350   4.877 -32.872  1.00  0.00     0.280 HD
HETATM   18  C   UNL     1      -6.492   2.972 -32.048  1.00  0.00     0.244 C 
HETATM   19  C   UNL     1      -7.697   2.031 -32.166  1.00  0.00     0.046 C 
HETATM   20  C   UNL     1      -8.780   3.023 -32.603  1.00  0.00     0.039 C 
HETATM   21  C   UNL     1      -8.097   3.968 -33.580  1.00  0.00     0.235 C 
BRANCH  19  22
HETATM   22  C   UNL     1      -7.404   0.833 -33.065  1.00  0.00    -0.046 A 
HETATM   23  C   UNL     1      -6.616  -0.250 -32.592  1.00  0.00    -0.055 A 
HETATM   24  C   UNL     1      -6.078  -0.340 -31.186  1.00  0.00     0.049 C 
HETATM   25  C   UNL     1      -6.280  -1.300 -33.466  1.00  0.00     0.007 A 
HETATM   26  C   UNL     1      -6.750  -1.327 -34.774  1.00  0.00     0.001 A 
HETATM   27  C   UNL     1      -7.575  -0.308 -35.226  1.00  0.00     0.001 A 
HETATM   28  C   UNL     1      -7.903   0.754 -34.380  1.00  0.00     0.008 A 
ENDBRANCH  19  22
ENDBRANCH  15  16
ENDBRANCH   1  15
TORSDOF 7
ENDMDL
MODEL 7
REMARK VINA RESULT:      -7.3      4.752      8.583
REMARK  7 active torsions:
REMARK  status: ('A' for Active; 'I' for Inactive)
REMARK    1  A    between atoms: C_2  and  C_3 
REMARK    2  A    between atoms: C_3  and  C_4 
REMARK    3  A    between atoms: C_8  and  C_9 
REMARK       I    between atoms: C_9  and  N_10 
REMARK    4  A    between atoms: N_10  and  C_11 
REMARK    5  A    between atoms: C_11  and  C_12 
REMARK    6  A    between atoms: C_12  and  N_13 
REMARK    7  A    between atoms: C_16  and  C_17 
ROOT
HETATM    1  C   UNL     1      -8.158   3.416 -33.722  1.00  0.00     0.150 C 
ENDROOT
BRANCH   1   2
HETATM    2  N   UNL     1      -9.535   3.100 -33.377  1.00  0.00    -0.354 N 
HETATM    3  C   UNL     1     -10.530   3.140 -34.344  1.00  0.00     0.272 C 
HETATM    4  O   UNL     1     -10.444   3.854 -35.338  1.00  0.00    -0.266 OA
HETATM    5  H   UNL     1      -9.706   2.345 -32.708  1.00  0.00     0.162 HD
BRANCH   3   6
HETATM    6  C   UNL     1     -11.658   2.249 -34.056  1.00  0.00     0.146 A 
HETATM    7  N   UNL     1     -11.457   1.019 -33.539  1.00  0.00    -0.169 NA
HETATM    8  N   UNL     1     -12.696   0.495 -33.456  1.00  0.00    -0.282 N 
HETATM    9  C   UNL     1     -13.675   1.326 -33.926  1.00  0.00     0.030 A 
HETATM   10  H   UNL     1     -12.803  -0.446 -33.089  1.00  0.00     0.189 HD
HETATM   11  C   UNL     1     -13.032   2.487 -34.298  1.00  0.00     0.065 A 
BRANCH   9  12
HETATM   12  C   UNL     1     -15.108   0.920 -33.989  1.00  0.00     0.058 C 
BRANCH  12  13
HETATM   13  C   UNL     1     -15.992   1.887 -33.200  1.00  0.00     0.002 C 
HETATM   14  C   UNL     1     -15.435   2.148 -31.809  1.00  0.00     0.005 C 
ENDBRANCH  12  13
ENDBRANCH   9  12
ENDBRANCH   3   6
ENDBRANCH   1   2
BRANCH   1  15
HETATM   15  C   UNL     1      -7.193   2.219 -33.644  1.00  0.00     0.254 C 
BRANCH  15  16
HETATM   16  N   UNL     1      -7.866   0.973 -34.196  1.00  0.00    -0.069 N 
HETATM   17  H   UNL     1      -8.797   1.296 -34.503  1.00  0.00     0.280 HD
HETATM   18  C   UNL     1      -8.068  -0.110 -33.154  1.00  0.00     0.244 C 
HETATM   19  C   UNL     1      -6.977  -1.148 -33.441  1.00  0.00     0.046 C 
HETATM   20  C   UNL     1      -6.970  -1.124 -34.973  1.00  0.00     0.039 C 
HETATM   21  C   UNL     1      -7.146   0.337 -35.359  1.00  0.00     0.235 C 
BRANCH  19  22
HETATM   22  C   UNL     1      -5.678  -0.834 -32.704  1.00  0.00    -0.046 A 
HETATM   23  C   UNL     1      -4.474  -1.505 -33.042  1.00  0.00    -0.055 A 
HETATM   24  C   UNL     1      -4.361  -2.504 -34.167  1.00  0.00     0.049 C 
HETATM   25  C   UNL     1      -3.309  -1.268 -32.290  1.00  0.00     0.007 A 
HETATM   26  C   UNL     1      -3.298  -0.345 -31.250  1.00  0.00     0.001 A 
HETATM   27  C   UNL     1      -4.452   0.366 -30.954  1.00  0.00     0.001 A 
HETATM   28  C   UNL     1      -5.624   0.129 -31.677  1.00  0.00     0.008 A 
ENDBRANCH  19  22
ENDBRANCH  15  16
ENDBRANCH   1  15
TORSDOF 7
ENDMDL
MODEL 8
REMARK VINA RESULT:      -7.3     17.010     18.543
REMARK  7 active torsions:
REMARK  status: ('A' for Active; 'I' for Inactive)
REMARK    1  A    between atoms: C_2  and  C_3 
REMARK    2  A    between atoms: C_3  and  C_4 
REMARK    3  A    between atoms: C_8  and  C_9 
REMARK       I    between atoms: C_9  and  N_10 
REMARK    4  A    between atoms: N_10  and  C_11 
REMARK    5  A    between atoms: C_11  and  C_12 
REMARK    6  A    between atoms: C_12  and  N_13 
REMARK    7  A    between atoms: C_16  and  C_17 
ROOT
HETATM    1  C   UNL     1      -7.111 -16.021 -41.699  1.00  0.00     0.150 C 
ENDROOT
BRANCH   1   2
HETATM    2  N   UNL     1      -5.671 -15.958 -41.508  1.00  0.00    -0.354 N 
HETATM    3  C   UNL     1      -4.917 -14.990 -42.156  1.00  0.00     0.272 C 
HETATM    4  O   UNL     1      -5.276 -14.487 -43.216  1.00  0.00    -0.266 OA
HETATM    5  H   UNL     1      -5.296 -16.148 -40.575  1.00  0.00     0.162 HD
BRANCH   3   6
HETATM    6  C   UNL     1      -3.683 -14.640 -41.446  1.00  0.00     0.146 A 
HETATM    7  N   UNL     1      -2.688 -13.975 -42.070  1.00  0.00    -0.169 NA
HETATM    8  N   UNL     1      -1.725 -13.876 -41.132  1.00  0.00    -0.282 N 
HETATM    9  C   UNL     1      -2.053 -14.473 -39.946  1.00  0.00     0.030 A 
HETATM   10  H   UNL     1      -0.858 -13.405 -41.373  1.00  0.00     0.189 HD
HETATM   11  C   UNL     1      -3.333 -14.955 -40.112  1.00  0.00     0.065 A 
BRANCH   9  12
HETATM   12  C   UNL     1      -1.108 -14.537 -38.795  1.00  0.00     0.058 C 
BRANCH  12  13
HETATM   13  C   UNL     1      -1.494 -13.535 -37.706  1.00  0.00     0.002 C 
HETATM   14  C   UNL     1      -1.645 -12.129 -38.266  1.00  0.00     0.005 C 
ENDBRANCH  12  13
ENDBRANCH   9  12
ENDBRANCH   3   6
ENDBRANCH   1   2
BRANCH   1  15
HETATM   15  C   UNL     1      -7.934 -15.649 -40.451  1.00  0.00     0.254 C 
BRANCH  15  16
HETATM   16  N   UNL     1      -8.820 -14.452 -40.752  1.00  0.00    -0.069 N 
HETATM   17  H   UNL     1      -9.196 -14.638 -41.695  1.00  0.00     0.280 HD
HETATM   18  C   UNL     1      -8.060 -13.141 -40.802  1.00  0.00     0.244 C 
HETATM   19  C   UNL     1      -8.379 -12.444 -39.474  1.00  0.00     0.046 C 
HETATM   20  C   UNL     1      -9.856 -12.820 -39.312  1.00  0.00     0.039 C 
HETATM   21  C   UNL     1      -9.963 -14.263 -39.784  1.00  0.00     0.235 C 
BRANCH  19  22
HETATM   22  C   UNL     1      -7.403 -12.842 -38.369  1.00  0.00    -0.046 A 
HETATM   23  C   UNL     1      -6.011 -12.607 -38.516  1.00  0.00    -0.055 A 
HETATM   24  C   UNL     1      -5.403 -11.905 -39.705  1.00  0.00     0.049 C 
HETATM   25  C   UNL     1      -5.119 -13.064 -37.529  1.00  0.00     0.007 A 
HETATM   26  C   UNL     1      -5.580 -13.696 -36.380  1.00  0.00     0.001 A 
HETATM   27  C   UNL     1      -6.943 -13.872 -36.195  1.00  0.00     0.001 A 
HETATM   28  C   UNL     1      -7.843 -13.443 -37.174  1.00  0.00     0.008 A 
ENDBRANCH  19  22
ENDBRANCH  15  16
ENDBRANCH   1  15
TORSDOF 7
ENDMDL
MODEL 9
REMARK VINA RESULT:      -7.3     16.772     18.815
REMARK  7 active torsions:
REMARK  status: ('A' for Active; 'I' for Inactive)
REMARK    1  A    between atoms: C_2  and  C_3 
REMARK    2  A    between atoms: C_3  and  C_4 
REMARK    3  A    between atoms: C_8  and  C_9 
REMARK       I    between atoms: C_9  and  N_10 
REMARK    4  A    between atoms: N_10  and  C_11 
REMARK    5  A    between atoms: C_11  and  C_12 
REMARK    6  A    between atoms: C_12  and  N_13 
REMARK    7  A    between atoms: C_16  and  C_17 
ROOT
HETATM    1  C   UNL     1      -2.013 -14.774 -41.402  1.00  0.00     0.150 C 
ENDROOT
BRANCH   1   2
HETATM    2  N   UNL     1      -3.095 -13.855 -41.086  1.00  0.00    -0.354 N 
HETATM    3  C   UNL     1      -4.230 -13.805 -41.883  1.00  0.00     0.272 C 
HETATM    4  O   UNL     1      -4.208 -14.119 -43.069  1.00  0.00    -0.266 OA
HETATM    5  H   UNL     1      -3.333 -13.706 -40.102  1.00  0.00     0.162 HD
BRANCH   3   6
HETATM    6  C   UNL     1      -5.427 -13.355 -41.165  1.00  0.00     0.146 A 
HETATM    7  N   UNL     1      -6.484 -12.845 -41.829  1.00  0.00    -0.169 NA
HETATM    8  N   UNL     1      -7.351 -12.511 -40.854  1.00  0.00    -0.282 N 
HETATM    9  C   UNL     1      -6.880 -12.760 -39.594  1.00  0.00     0.030 A 
HETATM   10  H   UNL     1      -8.241 -12.096 -41.114  1.00  0.00     0.189 HD
HETATM   11  C   UNL     1      -5.641 -13.335 -39.766  1.00  0.00     0.065 A 
BRANCH   9  12
HETATM   12  C   UNL     1      -7.650 -12.406 -38.368  1.00  0.00     0.058 C 
BRANCH  12  13
HETATM   13  C   UNL     1      -7.961 -13.648 -37.532  1.00  0.00     0.002 C 
HETATM   14  C   UNL     1      -7.271 -13.600 -36.178  1.00  0.00     0.005 C 
ENDBRANCH  12  13
ENDBRANCH   9  12
ENDBRANCH   3   6
ENDBRANCH   1   2
BRANCH   1  15
HETATM   15  C   UNL     1      -1.878 -15.956 -40.425  1.00  0.00     0.254 C 
BRANCH  15  16
HETATM   16  N   UNL     1      -0.450 -16.043 -39.910  1.00  0.00    -0.069 N 
HETATM   17  H   UNL     1      -0.035 -16.831 -40.430  1.00  0.00     0.280 HD
HETATM   18  C   UNL     1      -0.366 -16.364 -38.430  1.00  0.00     0.244 C 
HETATM   19  C   UNL     1      -0.026 -15.030 -37.752  1.00  0.00     0.046 C 
HETATM   20  C   UNL     1       0.947 -14.440 -38.778  1.00  0.00     0.039 C 
HETATM   21  C   UNL     1       0.373 -14.799 -40.140  1.00  0.00     0.235 C 
BRANCH  19  22
HETATM   22  C   UNL     1      -1.279 -14.233 -37.396  1.00  0.00    -0.046 A 
HETATM   23  C   UNL     1      -2.128 -14.655 -36.340  1.00  0.00    -0.055 A 
HETATM   24  C   UNL     1      -1.840 -15.848 -35.462  1.00  0.00     0.049 C 
HETATM   25  C   UNL     1      -3.325 -13.960 -36.088  1.00  0.00     0.007 A 
HETATM   26  C   UNL     1      -3.669 -12.830 -36.821  1.00  0.00     0.001 A 
HETATM   27  C   UNL     1      -2.814 -12.370 -37.812  1.00  0.00     0.001 A 
HETATM   28  C   UNL     1      -1.631 -13.059 -38.090  1.00  0.00     0.008 A 
ENDBRANCH  19  22
ENDBRANCH  15  16
ENDBRANCH   1  15
TORSDOF 7
ENDMDL
MODEL 10
REMARK VINA RESULT:      -7.2      1.866      2.706
REMARK  7 active torsions:
REMARK  status: ('A' for Active; 'I' for Inactive)
REMARK    1  A    between atoms: C_2  and  C_3 
REMARK    2  A    between atoms: C_3  and  C_4 
REMARK    3  A    between atoms: C_8  and  C_9 
REMARK       I    between atoms: C_9  and  N_10 
REMARK    4  A    between atoms: N_10  and  C_11 
REMARK    5  A    between atoms: C_11  and  C_12 
REMARK    6  A    between atoms: C_12  and  N_13 
REMARK    7  A    between atoms: C_16  and  C_17 
ROOT
HETATM    1  C   UNL     1      -6.337   3.788 -33.821  1.00  0.00     0.150 C 
ENDROOT
BRANCH   1   2
HETATM    2  N   UNL     1      -5.178   4.620 -33.536  1.00  0.00    -0.354 N 
HETATM    3  C   UNL     1      -4.811   4.889 -32.226  1.00  0.00     0.272 C 
HETATM    4  O   UNL     1      -5.622   4.878 -31.306  1.00  0.00    -0.266 OA
HETATM    5  H   UNL     1      -4.354   4.526 -34.135  1.00  0.00     0.162 HD
BRANCH   3   6
HETATM    6  C   UNL     1      -3.380   5.169 -32.068  1.00  0.00     0.146 A 
HETATM    7  N   UNL     1      -2.518   4.195 -31.708  1.00  0.00    -0.169 NA
HETATM    8  N   UNL     1      -1.331   4.827 -31.624  1.00  0.00    -0.282 N 
HETATM    9  C   UNL     1      -1.404   6.168 -31.886  1.00  0.00     0.030 A 
HETATM   10  H   UNL     1      -0.510   4.289 -31.361  1.00  0.00     0.189 HD
HETATM   11  C   UNL     1      -2.721   6.414 -32.205  1.00  0.00     0.065 A 
BRANCH   9  12
HETATM   12  C   UNL     1      -0.221   7.069 -31.784  1.00  0.00     0.058 C 
BRANCH  12  13
HETATM   13  C   UNL     1       0.701   6.644 -30.640  1.00  0.00     0.002 C 
HETATM   14  C   UNL     1       0.416   7.429 -29.369  1.00  0.00     0.005 C 
ENDBRANCH  12  13
ENDBRANCH   9  12
ENDBRANCH   3   6
ENDBRANCH   1   2
BRANCH   1  15
HETATM   15  C   UNL     1      -6.108   2.283 -33.596  1.00  0.00     0.254 C 
BRANCH  15  16
HETATM   16  N   UNL     1      -7.326   1.498 -34.055  1.00  0.00    -0.069 N 
HETATM   17  H   UNL     1      -8.068   2.207 -34.158  1.00  0.00     0.280 HD
HETATM   18  C   UNL     1      -7.796   0.473 -33.041  1.00  0.00     0.244 C 
HETATM   19  C   UNL     1      -7.310  -0.877 -33.585  1.00  0.00     0.046 C 
HETATM   20  C   UNL     1      -7.542  -0.670 -35.085  1.00  0.00     0.039 C 
HETATM   21  C   UNL     1      -7.142   0.771 -35.365  1.00  0.00     0.235 C 
BRANCH  19  22
HETATM   22  C   UNL     1      -5.899  -1.213 -33.108  1.00  0.00    -0.046 A 
HETATM   23  C   UNL     1      -5.134  -2.212 -33.763  1.00  0.00    -0.055 A 
HETATM   24  C   UNL     1      -5.603  -2.955 -34.989  1.00  0.00     0.049 C 
HETATM   25  C   UNL     1      -3.873  -2.571 -33.252  1.00  0.00     0.007 A 
HETATM   26  C   UNL     1      -3.335  -1.927 -32.143  1.00  0.00     0.001 A 
HETATM   27  C   UNL     1      -4.046  -0.903 -31.535  1.00  0.00     0.001 A 
HETATM   28  C   UNL     1      -5.309  -0.546 -32.016  1.00  0.00     0.008 A 
ENDBRANCH  19  22
ENDBRANCH  15  16
ENDBRANCH   1  15
TORSDOF 7
ENDMDL
