MODEL 1
REMARK VINA RESULT:      -9.6      0.000      0.000
REMARK  4 active torsions:
REMARK  status: ('A' for Active; 'I' for Inactive)
REMARK    1  A    between atoms: C_3  and  C_4 
REMARK    2  A    between atoms: C_9  and  N_10 
REMARK       I    between atoms: N_10  and  C_11 
REMARK    3  A    between atoms: C_11  and  C_12 
REMARK    4  A    between atoms: C_12  and  C_13 
ROOT
HETATM    1  N   UNL     1      -4.921   0.424 -32.987  1.00  0.00    -0.327 N 
HETATM    2  C   UNL     1      -5.076   0.839 -31.687  1.00  0.00     0.227 C 
HETATM    3  O   UNL     1      -5.479   0.132 -30.761  1.00  0.00    -0.273 OA
HETATM    4  H   UNL     1      -4.612   1.143 -33.643  1.00  0.00     0.169 HD
ENDROOT
BRANCH   2   5
HETATM    5  C   UNL     1      -4.731   2.285 -31.382  1.00  0.00     0.165 C 
BRANCH   5   6
HETATM    6  C   UNL     1      -4.443   3.289 -32.483  1.00  0.00     0.074 A 
HETATM    7  N   UNL     1      -5.297   3.438 -33.455  1.00  0.00    -0.175 NA
HETATM    8  N   UNL     1      -5.019   4.337 -34.435  1.00  0.00    -0.243 N 
HETATM    9  C   UNL     1      -3.900   5.129 -34.517  1.00  0.00     0.272 A 
HETATM   10  H   UNL     1      -5.698   4.433 -35.186  1.00  0.00     0.192 HD
HETATM   11  O   UNL     1      -3.717   5.909 -35.445  1.00  0.00    -0.266 OA
HETATM   12  C   UNL     1      -2.930   4.994 -33.420  1.00  0.00     0.046 A 
HETATM   13  C   UNL     1      -3.191   4.090 -32.393  1.00  0.00     0.006 A 
HETATM   14  C   UNL     1      -1.769   5.775 -33.409  1.00  0.00     0.018 A 
HETATM   15  C   UNL     1      -2.282   3.979 -31.333  1.00  0.00     0.014 A 
HETATM   16  C   UNL     1      -1.121   4.758 -31.320  1.00  0.00     0.001 A 
HETATM   17  C   UNL     1      -0.863   5.653 -32.357  1.00  0.00     0.001 A 
ENDBRANCH   5   6
ENDBRANCH   2   5
BRANCH   1  18
HETATM   18  C   UNL     1      -5.143  -0.854 -33.533  1.00  0.00     0.035 A 
HETATM   19  C   UNL     1      -4.331  -1.963 -33.293  1.00  0.00     0.046 A 
HETATM   20  C   UNL     1      -4.609  -3.218 -33.878  1.00  0.00     0.056 A 
HETATM   21  C   UNL     1      -5.744  -3.357 -34.706  1.00  0.00    -0.047 A 
HETATM   22  C   UNL     1      -6.092  -4.666 -35.360  1.00  0.00     0.049 C 
HETATM   23  C   UNL     1      -6.548  -2.236 -34.954  1.00  0.00     0.010 A 
HETATM   24  C   UNL     1      -6.250  -1.001 -34.372  1.00  0.00     0.030 A 
BRANCH  20  25
HETATM   25  C   UNL     1      -3.695  -4.388 -33.583  1.00  0.00     0.418 C 
HETATM   26  F   UNL     1      -2.859  -4.156 -32.531  1.00  0.00    -0.166 F 
HETATM   27  F   UNL     1      -4.353  -5.540 -33.274  1.00  0.00    -0.166 F 
HETATM   28  F   UNL     1      -2.888  -4.696 -34.637  1.00  0.00    -0.166 F 
ENDBRANCH  20  25
ENDBRANCH   1  18
TORSDOF 4
ENDMDL
MODEL 2
REMARK VINA RESULT:      -9.2      5.985      8.630
REMARK  4 active torsions:
REMARK  status: ('A' for Active; 'I' for Inactive)
REMARK    1  A    between atoms: C_3  and  C_4 
REMARK    2  A    between atoms: C_9  and  N_10 
REMARK       I    between atoms: N_10  and  C_11 
REMARK    3  A    between atoms: C_11  and  C_12 
REMARK    4  A    between atoms: C_12  and  C_13 
ROOT
HETATM    1  N   UNL     1      -9.403   1.216 -34.670  1.00  0.00    -0.327 N 
HETATM    2  C   UNL     1      -8.605   0.265 -34.081  1.00  0.00     0.227 C 
HETATM    3  O   UNL     1      -8.812  -0.252 -32.982  1.00  0.00    -0.273 OA
HETATM    4  H   UNL     1      -9.073   1.571 -35.569  1.00  0.00     0.169 HD
ENDROOT
BRANCH   2   5
HETATM    5  C   UNL     1      -7.369  -0.165 -34.850  1.00  0.00     0.165 C 
BRANCH   5   6
HETATM    6  C   UNL     1      -6.103  -0.615 -34.145  1.00  0.00     0.074 A 
HETATM    7  N   UNL     1      -5.411   0.248 -33.457  1.00  0.00    -0.175 NA
HETATM    8  N   UNL     1      -4.276  -0.171 -32.838  1.00  0.00    -0.243 N 
HETATM    9  C   UNL     1      -3.761  -1.444 -32.863  1.00  0.00     0.272 A 
HETATM   10  H   UNL     1      -3.751   0.521 -32.310  1.00  0.00     0.192 HD
HETATM   11  O   UNL     1      -2.720  -1.739 -32.287  1.00  0.00    -0.266 OA
HETATM   12  C   UNL     1      -4.535  -2.441 -33.617  1.00  0.00     0.046 A 
HETATM   13  C   UNL     1      -5.710  -2.047 -34.253  1.00  0.00     0.006 A 
HETATM   14  C   UNL     1      -4.097  -3.769 -33.681  1.00  0.00     0.018 A 
HETATM   15  C   UNL     1      -6.464  -3.001 -34.950  1.00  0.00     0.014 A 
HETATM   16  C   UNL     1      -6.028  -4.328 -35.014  1.00  0.00     0.001 A 
HETATM   17  C   UNL     1      -4.845  -4.711 -34.384  1.00  0.00     0.001 A 
ENDBRANCH   5   6
ENDBRANCH   2   5
BRANCH   1  18
HETATM   18  C   UNL     1     -10.606   1.770 -34.193  1.00  0.00     0.035 A 
HETATM   19  C   UNL     1     -11.805   1.066 -34.079  1.00  0.00     0.046 A 
HETATM   20  C   UNL     1     -12.978   1.686 -33.596  1.00  0.00     0.056 A 
HETATM   21  C   UNL     1     -12.930   3.041 -33.202  1.00  0.00    -0.047 A 
HETATM   22  C   UNL     1     -14.146   3.758 -32.682  1.00  0.00     0.049 C 
HETATM   23  C   UNL     1     -11.726   3.746 -33.332  1.00  0.00     0.010 A 
HETATM   24  C   UNL     1     -10.579   3.116 -33.820  1.00  0.00     0.030 A 
BRANCH  20  25
HETATM   25  C   UNL     1     -14.252   0.875 -33.492  1.00  0.00     0.418 C 
HETATM   26  F   UNL     1     -14.990   1.185 -32.389  1.00  0.00    -0.166 F 
HETATM   27  F   UNL     1     -15.098   1.035 -34.549  1.00  0.00    -0.166 F 
HETATM   28  F   UNL     1     -14.010  -0.464 -33.414  1.00  0.00    -0.166 F 
ENDBRANCH  20  25
ENDBRANCH   1  18
TORSDOF 4
ENDMDL
MODEL 3
REMARK VINA RESULT:      -8.9      4.389      8.160
REMARK  4 active torsions:
REMARK  status: ('A' for Active; 'I' for Inactive)
REMARK    1  A    between atoms: C_3  and  C_4 
REMARK    2  A    between atoms: C_9  and  N_10 
REMARK       I    between atoms: N_10  and  C_11 
REMARK    3  A    between atoms: C_11  and  C_12 
REMARK    4  A    between atoms: C_12  and  C_13 
ROOT
HETATM    1  N   UNL     1      -3.484   2.362 -31.683  1.00  0.00    -0.327 N 
HETATM    2  C   UNL     1      -4.543   2.190 -30.825  1.00  0.00     0.227 C 
HETATM    3  O   UNL     1      -5.093   3.090 -30.189  1.00  0.00    -0.273 OA
HETATM    4  H   UNL     1      -3.119   1.508 -32.106  1.00  0.00     0.169 HD
ENDROOT
BRANCH   2   5
HETATM    5  C   UNL     1      -5.060   0.774 -30.648  1.00  0.00     0.165 C 
BRANCH   5   6
HETATM    6  C   UNL     1      -4.829  -0.300 -31.696  1.00  0.00     0.074 A 
HETATM    7  N   UNL     1      -3.817  -1.109 -31.572  1.00  0.00    -0.175 NA
HETATM    8  N   UNL     1      -3.622  -2.061 -32.523  1.00  0.00    -0.243 N 
HETATM    9  C   UNL     1      -4.399  -2.266 -33.637  1.00  0.00     0.272 A 
HETATM   10  H   UNL     1      -2.823  -2.678 -32.408  1.00  0.00     0.192 HD
HETATM   11  O   UNL     1      -4.148  -3.141 -34.457  1.00  0.00    -0.266 OA
HETATM   12  C   UNL     1      -5.561  -1.377 -33.788  1.00  0.00     0.046 A 
HETATM   13  C   UNL     1      -5.796  -0.399 -32.824  1.00  0.00     0.006 A 
HETATM   14  C   UNL     1      -6.421  -1.525 -34.882  1.00  0.00     0.018 A 
HETATM   15  C   UNL     1      -6.917   0.432 -32.951  1.00  0.00     0.014 A 
HETATM   16  C   UNL     1      -7.777   0.285 -34.044  1.00  0.00     0.001 A 
HETATM   17  C   UNL     1      -7.529  -0.689 -35.010  1.00  0.00     0.001 A 
ENDBRANCH   5   6
ENDBRANCH   2   5
BRANCH   1  18
HETATM   18  C   UNL     1      -2.833   3.557 -32.044  1.00  0.00     0.035 A 
HETATM   19  C   UNL     1      -1.911   4.224 -31.238  1.00  0.00     0.046 A 
HETATM   20  C   UNL     1      -1.298   5.424 -31.661  1.00  0.00     0.056 A 
HETATM   21  C   UNL     1      -1.611   5.946 -32.935  1.00  0.00    -0.047 A 
HETATM   22  C   UNL     1      -0.994   7.222 -33.441  1.00  0.00     0.049 C 
HETATM   23  C   UNL     1      -2.549   5.279 -33.734  1.00  0.00     0.010 A 
HETATM   24  C   UNL     1      -3.150   4.098 -33.293  1.00  0.00     0.030 A 
BRANCH  20  25
HETATM   25  C   UNL     1      -0.303   6.106 -30.746  1.00  0.00     0.418 C 
HETATM   26  F   UNL     1      -0.101   5.426 -29.582  1.00  0.00    -0.166 F 
HETATM   27  F   UNL     1       0.935   6.262 -31.293  1.00  0.00    -0.166 F 
HETATM   28  F   UNL     1      -0.705   7.356 -30.382  1.00  0.00    -0.166 F 
ENDBRANCH  20  25
ENDBRANCH   1  18
TORSDOF 4
ENDMDL
MODEL 4
REMARK VINA RESULT:      -8.9      4.279      8.752
REMARK  4 active torsions:
REMARK  status: ('A' for Active; 'I' for Inactive)
REMARK    1  A    between atoms: C_3  and  C_4 
REMARK    2  A    between atoms: C_9  and  N_10 
REMARK       I    between atoms: N_10  and  C_11 
REMARK    3  A    between atoms: C_11  and  C_12 
REMARK    4  A    between atoms: C_12  and  C_13 
ROOT
HETATM    1  N   UNL     1      -3.593   3.577 -32.024  1.00  0.00    -0.327 N 
HETATM    2  C   UNL     1      -4.628   2.836 -31.507  1.00  0.00     0.227 C 
HETATM    3  O   UNL     1      -5.166   3.035 -30.416  1.00  0.00    -0.273 OA
HETATM    4  H   UNL     1      -3.234   3.261 -32.926  1.00  0.00     0.169 HD
ENDROOT
BRANCH   2   5
HETATM    5  C   UNL     1      -5.131   1.679 -32.350  1.00  0.00     0.165 C 
BRANCH   5   6
HETATM    6  C   UNL     1      -4.502   0.299 -32.275  1.00  0.00     0.074 A 
HETATM    7  N   UNL     1      -3.565   0.069 -31.401  1.00  0.00    -0.175 NA
HETATM    8  N   UNL     1      -3.010  -1.171 -31.352  1.00  0.00    -0.243 N 
HETATM    9  C   UNL     1      -3.337  -2.239 -32.151  1.00  0.00     0.272 A 
HETATM   10  H   UNL     1      -2.277  -1.326 -30.665  1.00  0.00     0.192 HD
HETATM   11  O   UNL     1      -2.777  -3.325 -32.053  1.00  0.00    -0.266 OA
HETATM   12  C   UNL     1      -4.407  -2.009 -33.133  1.00  0.00     0.046 A 
HETATM   13  C   UNL     1      -5.006  -0.753 -33.200  1.00  0.00     0.006 A 
HETATM   14  C   UNL     1      -4.821  -3.046 -33.977  1.00  0.00     0.018 A 
HETATM   15  C   UNL     1      -6.045  -0.539 -34.116  1.00  0.00     0.014 A 
HETATM   16  C   UNL     1      -6.460  -1.574 -34.959  1.00  0.00     0.001 A 
HETATM   17  C   UNL     1      -5.848  -2.824 -34.893  1.00  0.00     0.001 A 
ENDBRANCH   5   6
ENDBRANCH   2   5
BRANCH   1  18
HETATM   18  C   UNL     1      -2.959   4.705 -31.469  1.00  0.00     0.035 A 
HETATM   19  C   UNL     1      -1.578   4.840 -31.326  1.00  0.00     0.046 A 
HETATM   20  C   UNL     1      -1.008   5.998 -30.755  1.00  0.00     0.056 A 
HETATM   21  C   UNL     1      -1.853   7.050 -30.339  1.00  0.00    -0.047 A 
HETATM   22  C   UNL     1      -1.307   8.308 -29.720  1.00  0.00     0.049 C 
HETATM   23  C   UNL     1      -3.240   6.903 -30.473  1.00  0.00     0.010 A 
HETATM   24  C   UNL     1      -3.785   5.745 -31.033  1.00  0.00     0.030 A 
BRANCH  20  25
HETATM   25  C   UNL     1       0.497   6.092 -30.624  1.00  0.00     0.418 C 
HETATM   26  F   UNL     1       1.138   4.968 -31.054  1.00  0.00    -0.166 F 
HETATM   27  F   UNL     1       1.052   7.116 -31.332  1.00  0.00    -0.166 F 
HETATM   28  F   UNL     1       0.897   6.277 -29.335  1.00  0.00    -0.166 F 
ENDBRANCH  20  25
ENDBRANCH   1  18
TORSDOF 4
ENDMDL
MODEL 5
REMARK VINA RESULT:      -8.9      6.695      8.835
REMARK  4 active torsions:
REMARK  status: ('A' for Active; 'I' for Inactive)
REMARK    1  A    between atoms: C_3  and  C_4 
REMARK    2  A    between atoms: C_9  and  N_10 
REMARK       I    between atoms: N_10  and  C_11 
REMARK    3  A    between atoms: C_11  and  C_12 
REMARK    4  A    between atoms: C_12  and  C_13 
ROOT
HETATM    1  N   UNL     1     -10.257   1.380 -34.476  1.00  0.00    -0.327 N 
HETATM    2  C   UNL     1      -9.237   0.616 -33.962  1.00  0.00     0.227 C 
HETATM    3  O   UNL     1      -9.278   0.009 -32.890  1.00  0.00    -0.273 OA
HETATM    4  H   UNL     1     -10.052   1.848 -35.359  1.00  0.00     0.169 HD
ENDROOT
BRANCH   2   5
HETATM    5  C   UNL     1      -7.964   0.531 -34.783  1.00  0.00     0.165 C 
BRANCH   5   6
HETATM    6  C   UNL     1      -6.618   0.233 -34.146  1.00  0.00     0.074 A 
HETATM    7  N   UNL     1      -5.986   1.177 -33.512  1.00  0.00    -0.175 NA
HETATM    8  N   UNL     1      -4.779   0.893 -32.954  1.00  0.00    -0.243 N 
HETATM    9  C   UNL     1      -4.133  -0.318 -32.991  1.00  0.00     0.272 A 
HETATM   10  H   UNL     1      -4.302   1.648 -32.468  1.00  0.00     0.192 HD
HETATM   11  O   UNL     1      -3.035  -0.489 -32.473  1.00  0.00    -0.266 OA
HETATM   12  C   UNL     1      -4.837  -1.406 -33.685  1.00  0.00     0.046 A 
HETATM   13  C   UNL     1      -6.081  -1.152 -34.256  1.00  0.00     0.006 A 
HETATM   14  C   UNL     1      -4.264  -2.681 -33.755  1.00  0.00     0.018 A 
HETATM   15  C   UNL     1      -6.767  -2.194 -34.895  1.00  0.00     0.014 A 
HETATM   16  C   UNL     1      -6.196  -3.469 -34.966  1.00  0.00     0.001 A 
HETATM   17  C   UNL     1      -4.945  -3.712 -34.401  1.00  0.00     0.001 A 
ENDBRANCH   5   6
ENDBRANCH   2   5
BRANCH   1  18
HETATM   18  C   UNL     1     -11.538   1.608 -33.939  1.00  0.00     0.035 A 
HETATM   19  C   UNL     1     -11.893   2.739 -33.204  1.00  0.00     0.046 A 
HETATM   20  C   UNL     1     -13.197   2.902 -32.689  1.00  0.00     0.056 A 
HETATM   21  C   UNL     1     -14.168   1.908 -32.941  1.00  0.00    -0.047 A 
HETATM   22  C   UNL     1     -15.574   2.022 -32.417  1.00  0.00     0.049 C 
HETATM   23  C   UNL     1     -13.802   0.768 -33.668  1.00  0.00     0.010 A 
HETATM   24  C   UNL     1     -12.503   0.622 -34.162  1.00  0.00     0.030 A 
BRANCH  20  25
HETATM   25  C   UNL     1     -13.528   4.150 -31.898  1.00  0.00     0.418 C 
HETATM   26  F   UNL     1     -13.910   3.881 -30.617  1.00  0.00    -0.166 F 
HETATM   27  F   UNL     1     -12.491   5.027 -31.789  1.00  0.00    -0.166 F 
HETATM   28  F   UNL     1     -14.552   4.859 -32.450  1.00  0.00    -0.166 F 
ENDBRANCH  20  25
ENDBRANCH   1  18
TORSDOF 4
ENDMDL
MODEL 6
REMARK VINA RESULT:      -8.8      5.545      7.637
REMARK  4 active torsions:
REMARK  status: ('A' for Active; 'I' for Inactive)
REMARK    1  A    between atoms: C_3  and  C_4 
REMARK    2  A    between atoms: C_9  and  N_10 
REMARK       I    between atoms: N_10  and  C_11 
REMARK    3  A    between atoms: C_11  and  C_12 
REMARK    4  A    between atoms: C_12  and  C_13 
ROOT
HETATM    1  N   UNL     1      -8.146   0.553 -34.555  1.00  0.00    -0.327 N 
HETATM    2  C   UNL     1      -9.328   0.703 -33.869  1.00  0.00     0.227 C 
HETATM    3  O   UNL     1      -9.698  -0.008 -32.933  1.00  0.00    -0.273 OA
HETATM    4  H   UNL     1      -8.004   1.202 -35.329  1.00  0.00     0.169 HD
ENDROOT
BRANCH   2   5
HETATM    5  C   UNL     1     -10.243   1.828 -34.316  1.00  0.00     0.165 C 
BRANCH   5   6
HETATM    6  C   UNL     1     -11.236   2.476 -33.370  1.00  0.00     0.074 A 
HETATM    7  N   UNL     1     -10.828   3.393 -32.540  1.00  0.00    -0.175 NA
HETATM    8  N   UNL     1     -11.731   3.958 -31.696  1.00  0.00    -0.243 N 
HETATM    9  C   UNL     1     -13.068   3.656 -31.618  1.00  0.00     0.272 A 
HETATM   10  H   UNL     1     -11.387   4.668 -31.055  1.00  0.00     0.192 HD
HETATM   11  O   UNL     1     -13.816   4.204 -30.816  1.00  0.00    -0.266 OA
HETATM   12  C   UNL     1     -13.558   2.638 -32.559  1.00  0.00     0.046 A 
HETATM   13  C   UNL     1     -12.661   2.048 -33.446  1.00  0.00     0.006 A 
HETATM   14  C   UNL     1     -14.911   2.280 -32.565  1.00  0.00     0.018 A 
HETATM   15  C   UNL     1     -13.130   1.097 -34.362  1.00  0.00     0.014 A 
HETATM   16  C   UNL     1     -14.481   0.739 -34.370  1.00  0.00     0.001 A 
HETATM   17  C   UNL     1     -15.370   1.326 -33.471  1.00  0.00     0.001 A 
ENDBRANCH   5   6
ENDBRANCH   2   5
BRANCH   1  18
HETATM   18  C   UNL     1      -7.117  -0.381 -34.336  1.00  0.00     0.035 A 
HETATM   19  C   UNL     1      -7.208  -1.738 -34.647  1.00  0.00     0.046 A 
HETATM   20  C   UNL     1      -6.137  -2.623 -34.394  1.00  0.00     0.056 A 
HETATM   21  C   UNL     1      -4.943  -2.119 -33.836  1.00  0.00    -0.047 A 
HETATM   22  C   UNL     1      -3.767  -3.012 -33.541  1.00  0.00     0.049 C 
HETATM   23  C   UNL     1      -4.863  -0.758 -33.512  1.00  0.00     0.010 A 
HETATM   24  C   UNL     1      -5.937   0.099 -33.762  1.00  0.00     0.030 A 
BRANCH  20  25
HETATM   25  C   UNL     1      -6.289  -4.086 -34.753  1.00  0.00     0.418 C 
HETATM   26  F   UNL     1      -6.245  -4.311 -36.097  1.00  0.00    -0.166 F 
HETATM   27  F   UNL     1      -5.326  -4.890 -34.221  1.00  0.00    -0.166 F 
HETATM   28  F   UNL     1      -7.476  -4.605 -34.328  1.00  0.00    -0.166 F 
ENDBRANCH  20  25
ENDBRANCH   1  18
TORSDOF 4
ENDMDL
MODEL 7
REMARK VINA RESULT:      -8.7      6.242      7.789
REMARK  4 active torsions:
REMARK  status: ('A' for Active; 'I' for Inactive)
REMARK    1  A    between atoms: C_3  and  C_4 
REMARK    2  A    between atoms: C_9  and  N_10 
REMARK       I    between atoms: N_10  and  C_11 
REMARK    3  A    between atoms: C_11  and  C_12 
REMARK    4  A    between atoms: C_12  and  C_13 
ROOT
HETATM    1  N   UNL     1      -9.001   0.876 -34.704  1.00  0.00    -0.327 N 
HETATM    2  C   UNL     1     -10.087   1.018 -33.874  1.00  0.00     0.227 C 
HETATM    3  O   UNL     1     -10.154   0.596 -32.718  1.00  0.00    -0.273 OA
HETATM    4  H   UNL     1      -9.117   1.251 -35.646  1.00  0.00     0.169 HD
ENDROOT
BRANCH   2   5
HETATM    5  C   UNL     1     -11.293   1.744 -34.440  1.00  0.00     0.165 C 
BRANCH   5   6
HETATM    6  C   UNL     1     -12.602   1.838 -33.679  1.00  0.00     0.074 A 
HETATM    7  N   UNL     1     -13.447   0.848 -33.733  1.00  0.00    -0.175 NA
HETATM    8  N   UNL     1     -14.618   0.952 -33.050  1.00  0.00    -0.243 N 
HETATM    9  C   UNL     1     -15.021   2.022 -32.289  1.00  0.00     0.272 A 
HETATM   10  H   UNL     1     -15.263   0.169 -33.110  1.00  0.00     0.192 HD
HETATM   11  O   UNL     1     -16.103   2.044 -31.713  1.00  0.00    -0.266 OA
HETATM   12  C   UNL     1     -14.075   3.144 -32.197  1.00  0.00     0.046 A 
HETATM   13  C   UNL     1     -12.861   3.064 -32.875  1.00  0.00     0.006 A 
HETATM   14  C   UNL     1     -14.393   4.269 -31.428  1.00  0.00     0.018 A 
HETATM   15  C   UNL     1     -11.946   4.120 -32.767  1.00  0.00     0.014 A 
HETATM   16  C   UNL     1     -12.262   5.245 -31.999  1.00  0.00     0.001 A 
HETATM   17  C   UNL     1     -13.484   5.322 -31.333  1.00  0.00     0.001 A 
ENDBRANCH   5   6
ENDBRANCH   2   5
BRANCH   1  18
HETATM   18  C   UNL     1      -7.759   0.274 -34.429  1.00  0.00     0.035 A 
HETATM   19  C   UNL     1      -7.422  -1.032 -34.787  1.00  0.00     0.046 A 
HETATM   20  C   UNL     1      -6.158  -1.576 -34.473  1.00  0.00     0.056 A 
HETATM   21  C   UNL     1      -5.208  -0.776 -33.803  1.00  0.00    -0.047 A 
HETATM   22  C   UNL     1      -3.845  -1.299 -33.438  1.00  0.00     0.049 C 
HETATM   23  C   UNL     1      -5.558   0.530 -33.433  1.00  0.00     0.010 A 
HETATM   24  C   UNL     1      -6.818   1.047 -33.745  1.00  0.00     0.030 A 
BRANCH  20  25
HETATM   25  C   UNL     1      -5.844  -2.999 -34.887  1.00  0.00     0.418 C 
HETATM   26  F   UNL     1      -5.227  -3.713 -33.903  1.00  0.00    -0.166 F 
HETATM   27  F   UNL     1      -6.942  -3.731 -35.228  1.00  0.00    -0.166 F 
HETATM   28  F   UNL     1      -5.014  -3.056 -35.965  1.00  0.00    -0.166 F 
ENDBRANCH  20  25
ENDBRANCH   1  18
TORSDOF 4
ENDMDL
MODEL 8
REMARK VINA RESULT:      -8.6      3.820      5.486
REMARK  4 active torsions:
REMARK  status: ('A' for Active; 'I' for Inactive)
REMARK    1  A    between atoms: C_3  and  C_4 
REMARK    2  A    between atoms: C_9  and  N_10 
REMARK       I    between atoms: N_10  and  C_11 
REMARK    3  A    between atoms: C_11  and  C_12 
REMARK    4  A    between atoms: C_12  and  C_13 
ROOT
HETATM    1  N   UNL     1      -2.544   3.624 -31.454  1.00  0.00    -0.327 N 
HETATM    2  C   UNL     1      -2.041   4.381 -32.484  1.00  0.00     0.227 C 
HETATM    3  O   UNL     1      -2.443   4.349 -33.648  1.00  0.00    -0.273 OA
HETATM    4  H   UNL     1      -2.077   3.740 -30.554  1.00  0.00     0.169 HD
ENDROOT
BRANCH   2   5
HETATM    5  C   UNL     1      -0.894   5.317 -32.150  1.00  0.00     0.165 C 
BRANCH   5   6
HETATM    6  C   UNL     1      -0.541   5.673 -30.718  1.00  0.00     0.074 A 
HETATM    7  N   UNL     1       0.155   4.837 -30.002  1.00  0.00    -0.175 NA
HETATM    8  N   UNL     1       0.456   5.170 -28.719  1.00  0.00    -0.243 N 
HETATM    9  C   UNL     1       0.092   6.327 -28.074  1.00  0.00     0.272 A 
HETATM   10  H   UNL     1       0.996   4.500 -28.178  1.00  0.00     0.192 HD
HETATM   11  O   UNL     1       0.393   6.547 -26.906  1.00  0.00    -0.266 OA
HETATM   12  C   UNL     1      -0.677   7.296 -28.868  1.00  0.00     0.046 A 
HETATM   13  C   UNL     1      -0.992   6.991 -30.190  1.00  0.00     0.006 A 
HETATM   14  C   UNL     1      -1.075   8.512 -28.300  1.00  0.00     0.018 A 
HETATM   15  C   UNL     1      -1.702   7.924 -30.958  1.00  0.00     0.014 A 
HETATM   16  C   UNL     1      -2.100   9.139 -30.392  1.00  0.00     0.001 A 
HETATM   17  C   UNL     1      -1.790   9.432 -29.065  1.00  0.00     0.001 A 
ENDBRANCH   5   6
ENDBRANCH   2   5
BRANCH   1  18
HETATM   18  C   UNL     1      -3.610   2.704 -31.480  1.00  0.00     0.035 A 
HETATM   19  C   UNL     1      -3.606   1.517 -32.214  1.00  0.00     0.046 A 
HETATM   20  C   UNL     1      -4.713   0.641 -32.200  1.00  0.00     0.056 A 
HETATM   21  C   UNL     1      -5.838   0.963 -31.411  1.00  0.00    -0.047 A 
HETATM   22  C   UNL     1      -7.049   0.072 -31.357  1.00  0.00     0.049 C 
HETATM   23  C   UNL     1      -5.841   2.163 -30.688  1.00  0.00     0.010 A 
HETATM   24  C   UNL     1      -4.739   3.021 -30.722  1.00  0.00     0.030 A 
BRANCH  20  25
HETATM   25  C   UNL     1      -4.654  -0.634 -33.015  1.00  0.00     0.418 C 
HETATM   26  F   UNL     1      -4.653  -1.757 -32.242  1.00  0.00    -0.166 F 
HETATM   27  F   UNL     1      -5.699  -0.789 -33.876  1.00  0.00    -0.166 F 
HETATM   28  F   UNL     1      -3.531  -0.710 -33.782  1.00  0.00    -0.166 F 
ENDBRANCH  20  25
ENDBRANCH   1  18
TORSDOF 4
ENDMDL
MODEL 9
REMARK VINA RESULT:      -8.5      4.909      6.409
REMARK  4 active torsions:
REMARK  status: ('A' for Active; 'I' for Inactive)
REMARK    1  A    between atoms: C_3  and  C_4 
REMARK    2  A    between atoms: C_9  and  N_10 
REMARK       I    between atoms: N_10  and  C_11 
REMARK    3  A    between atoms: C_11  and  C_12 
REMARK    4  A    between atoms: C_12  and  C_13 
ROOT
HETATM    1  N   UNL     1      -7.464   0.367 -33.610  1.00  0.00    -0.327 N 
HETATM    2  C   UNL     1      -7.914   0.945 -32.447  1.00  0.00     0.227 C 
HETATM    3  O   UNL     1      -7.582   0.602 -31.311  1.00  0.00    -0.273 OA
HETATM    4  H   UNL     1      -7.863   0.744 -34.470  1.00  0.00     0.169 HD
ENDROOT
BRANCH   2   5
HETATM    5  C   UNL     1      -8.903   2.088 -32.587  1.00  0.00     0.165 C 
BRANCH   5   6
HETATM    6  C   UNL     1     -10.268   1.892 -33.221  1.00  0.00     0.074 A 
HETATM    7  N   UNL     1     -10.891   0.760 -33.066  1.00  0.00    -0.175 NA
HETATM    8  N   UNL     1     -12.110   0.601 -33.646  1.00  0.00    -0.243 N 
HETATM    9  C   UNL     1     -12.776   1.532 -34.404  1.00  0.00     0.272 A 
HETATM   10  H   UNL     1     -12.575  -0.294 -33.516  1.00  0.00     0.192 HD
HETATM   11  O   UNL     1     -13.871   1.305 -34.906  1.00  0.00    -0.266 OA
HETATM   12  C   UNL     1     -12.101   2.828 -34.577  1.00  0.00     0.046 A 
HETATM   13  C   UNL     1     -10.857   3.028 -33.984  1.00  0.00     0.006 A 
HETATM   14  C   UNL     1     -12.714   3.845 -35.317  1.00  0.00     0.018 A 
HETATM   15  C   UNL     1     -10.224   4.270 -34.124  1.00  0.00     0.014 A 
HETATM   16  C   UNL     1     -10.834   5.288 -34.864  1.00  0.00     0.001 A 
HETATM   17  C   UNL     1     -12.075   5.076 -35.462  1.00  0.00     0.001 A 
ENDBRANCH   5   6
ENDBRANCH   2   5
BRANCH   1  18
HETATM   18  C   UNL     1      -6.537  -0.681 -33.767  1.00  0.00     0.035 A 
HETATM   19  C   UNL     1      -6.870  -1.969 -34.186  1.00  0.00     0.046 A 
HETATM   20  C   UNL     1      -5.889  -2.975 -34.317  1.00  0.00     0.056 A 
HETATM   21  C   UNL     1      -4.541  -2.665 -34.037  1.00  0.00    -0.047 A 
HETATM   22  C   UNL     1      -3.449  -3.695 -34.155  1.00  0.00     0.049 C 
HETATM   23  C   UNL     1      -4.215  -1.374 -33.602  1.00  0.00     0.010 A 
HETATM   24  C   UNL     1      -5.202  -0.394 -33.471  1.00  0.00     0.030 A 
BRANCH  20  25
HETATM   25  C   UNL     1      -6.306  -4.356 -34.777  1.00  0.00     0.418 C 
HETATM   26  F   UNL     1      -5.534  -5.348 -34.248  1.00  0.00    -0.166 F 
HETATM   27  F   UNL     1      -7.588  -4.685 -34.451  1.00  0.00    -0.166 F 
HETATM   28  F   UNL     1      -6.221  -4.501 -36.129  1.00  0.00    -0.166 F 
ENDBRANCH  20  25
ENDBRANCH   1  18
TORSDOF 4
ENDMDL
MODEL 10
REMARK VINA RESULT:      -8.5      6.460      8.126
REMARK  4 active torsions:
REMARK  status: ('A' for Active; 'I' for Inactive)
REMARK    1  A    between atoms: C_3  and  C_4 
REMARK    2  A    between atoms: C_9  and  N_10 
REMARK       I    between atoms: N_10  and  C_11 
REMARK    3  A    between atoms: C_11  and  C_12 
REMARK    4  A    between atoms: C_12  and  C_13 
ROOT
HETATM    1  N   UNL     1      -8.873   1.113 -34.753  1.00  0.00    -0.327 N 
HETATM    2  C   UNL     1     -10.097   1.084 -34.129  1.00  0.00     0.227 C 
HETATM    3  O   UNL     1     -10.374   0.397 -33.145  1.00  0.00    -0.273 OA
HETATM    4  H   UNL     1      -8.815   1.709 -35.580  1.00  0.00     0.169 HD
ENDROOT
BRANCH   2   5
HETATM    5  C   UNL     1     -11.185   1.965 -34.714  1.00  0.00     0.165 C 
BRANCH   5   6
HETATM    6  C   UNL     1     -12.612   1.926 -34.198  1.00  0.00     0.074 A 
HETATM    7  N   UNL     1     -13.484   1.158 -34.784  1.00  0.00    -0.175 NA
HETATM    8  N   UNL     1     -14.759   1.140 -34.312  1.00  0.00    -0.243 N 
HETATM    9  C   UNL     1     -15.243   1.870 -33.254  1.00  0.00     0.272 A 
HETATM   10  H   UNL     1     -15.424   0.536 -34.788  1.00  0.00     0.192 HD
HETATM   11  O   UNL     1     -16.414   1.807 -32.898  1.00  0.00    -0.266 OA
HETATM   12  C   UNL     1     -14.271   2.730 -32.563  1.00  0.00     0.046 A 
HETATM   13  C   UNL     1     -12.953   2.761 -33.014  1.00  0.00     0.006 A 
HETATM   14  C   UNL     1     -14.669   3.495 -31.461  1.00  0.00     0.018 A 
HETATM   15  C   UNL     1     -12.019   3.560 -32.341  1.00  0.00     0.014 A 
HETATM   16  C   UNL     1     -12.415   4.325 -31.239  1.00  0.00     0.001 A 
HETATM   17  C   UNL     1     -13.738   4.296 -30.802  1.00  0.00     0.001 A 
ENDBRANCH   5   6
ENDBRANCH   2   5
BRANCH   1  18
HETATM   18  C   UNL     1      -7.696   0.421 -34.408  1.00  0.00     0.035 A 
HETATM   19  C   UNL     1      -6.739   0.896 -33.512  1.00  0.00     0.046 A 
HETATM   20  C   UNL     1      -5.576   0.152 -33.215  1.00  0.00     0.056 A 
HETATM   21  C   UNL     1      -5.391  -1.109 -33.823  1.00  0.00    -0.047 A 
HETATM   22  C   UNL     1      -4.172  -1.948 -33.550  1.00  0.00     0.049 C 
HETATM   23  C   UNL     1      -6.349  -1.574 -34.733  1.00  0.00     0.010 A 
HETATM   24  C   UNL     1      -7.488  -0.818 -35.020  1.00  0.00     0.030 A 
BRANCH  20  25
HETATM   25  C   UNL     1      -4.570   0.715 -32.234  1.00  0.00     0.418 C 
HETATM   26  F   UNL     1      -3.355   0.959 -32.802  1.00  0.00    -0.166 F 
HETATM   27  F   UNL     1      -4.948   1.897 -31.671  1.00  0.00    -0.166 F 
HETATM   28  F   UNL     1      -4.331  -0.129 -31.192  1.00  0.00    -0.166 F 
ENDBRANCH  20  25
ENDBRANCH   1  18
TORSDOF 4
ENDMDL
