MODEL 1
REMARK VINA RESULT:      -9.7      0.000      0.000
REMARK  7 active torsions:
REMARK  status: ('A' for Active; 'I' for Inactive)
REMARK    1  A    between atoms: C_8  and  C_9 
REMARK    2  A    between atoms: C_9  and  N_10 
REMARK    3  A    between atoms: C_14  and  C_15 
REMARK    4  A    between atoms: C_15  and  C_16 
REMARK    5  A    between atoms: C_16  and  C_17 
REMARK    6  A    between atoms: N_27  and  C_28 
REMARK    7  A    between atoms: C_28  and  C_29 
ROOT
HETATM    1  C   UNL     1      -7.278   1.736 -33.433  1.00  0.00     0.123 C 
HETATM    2  N   UNL     1      -7.794   3.014 -33.906  1.00  0.00    -0.324 N 
HETATM    3  C   UNL     1      -6.895   4.037 -33.676  1.00  0.00     0.326 C 
HETATM    4  O   UNL     1      -7.033   5.140 -34.174  1.00  0.00    -0.247 OA
HETATM    5  N   UNL     1      -5.913   3.590 -32.855  1.00  0.00    -0.268 N 
HETATM    6  C   UNL     1      -6.088   2.260 -32.591  1.00  0.00     0.257 C 
HETATM    7  O   UNL     1      -5.419   1.583 -31.826  1.00  0.00    -0.270 OA
HETATM    8  H   UNL     1      -8.314   3.129 -34.771  1.00  0.00     0.165 HD
ENDROOT
BRANCH   1   9
HETATM    9  C   UNL     1      -8.309   0.965 -32.545  1.00  0.00     0.027 C 
HETATM   10  C   UNL     1      -9.444   0.265 -33.314  1.00  0.00     0.035 C 
HETATM   11  C   UNL     1     -10.546   1.195 -33.808  1.00  0.00     0.235 C 
HETATM   12  N   UNL     1     -11.093   2.040 -32.688  1.00  0.00    -0.067 N 
HETATM   13  H   UNL     1     -11.596   1.412 -32.046  1.00  0.00     0.280 HD
HETATM   14  C   UNL     1     -10.042   2.759 -31.882  1.00  0.00     0.235 C 
HETATM   15  C   UNL     1      -8.960   1.795 -31.417  1.00  0.00     0.035 C 
BRANCH  12  16
HETATM   16  C   UNL     1     -12.133   3.038 -33.183  1.00  0.00     0.278 C 
BRANCH  16  17
HETATM   17  C   UNL     1     -13.532   2.608 -32.980  1.00  0.00     0.034 A 
HETATM   18  C   UNL     1     -14.214   1.505 -33.570  1.00  0.00     0.062 A 
HETATM   19  C   UNL     1     -13.694   0.489 -34.524  1.00  0.00     0.073 C 
HETATM   20  N   UNL     1     -15.478   1.418 -33.145  1.00  0.00    -0.176 NA
HETATM   21  N   UNL     1     -15.647   2.486 -32.341  1.00  0.00    -0.262 N 
HETATM   22  C   UNL     1     -16.950   2.750 -31.773  1.00  0.00     0.181 C 
HETATM   23  C   UNL     1     -14.494   3.195 -32.192  1.00  0.00     0.131 A 
HETATM   24 CL   UNL     1     -14.412   4.555 -31.177  1.00  0.00    -0.062 Cl
ENDBRANCH  16  17
ENDBRANCH  12  16
ENDBRANCH   1   9
BRANCH   1  25
HETATM   25  C   UNL     1      -6.727   0.957 -34.663  1.00  0.00     0.080 C 
BRANCH  25  26
HETATM   26  C   UNL     1      -6.216  -0.443 -34.432  1.00  0.00    -0.052 A 
HETATM   27  C   UNL     1      -6.942  -1.564 -34.847  1.00  0.00     0.049 A 
HETATM   28  C   UNL     1      -6.435  -2.844 -34.630  1.00  0.00     0.116 A 
HETATM   29  F   UNL     1      -7.148  -3.904 -35.030  1.00  0.00    -0.206 F 
HETATM   30  C   UNL     1      -5.207  -3.036 -34.012  1.00  0.00     0.042 A 
HETATM   31  C   UNL     1      -4.469  -1.929 -33.603  1.00  0.00     0.003 A 
HETATM   32  C   UNL     1      -4.970  -0.642 -33.812  1.00  0.00     0.007 A 
ENDBRANCH  25  26
ENDBRANCH   1  25
BRANCH   5  33
HETATM   33  C   UNL     1      -4.790   4.388 -32.392  1.00  0.00     0.140 C 
BRANCH  33  34
HETATM   34  C   UNL     1      -3.510   4.276 -33.241  1.00  0.00    -0.004 C 
HETATM   35  C   UNL     1      -3.501   5.243 -34.425  1.00  0.00     0.011 C 
HETATM   36  C   UNL     1      -2.235   4.435 -32.414  1.00  0.00     0.011 C 
ENDBRANCH  33  34
ENDBRANCH   5  33
TORSDOF 7
ENDMDL
MODEL 2
REMARK VINA RESULT:      -9.3      1.496      2.006
REMARK  7 active torsions:
REMARK  status: ('A' for Active; 'I' for Inactive)
REMARK    1  A    between atoms: C_8  and  C_9 
REMARK    2  A    between atoms: C_9  and  N_10 
REMARK    3  A    between atoms: C_14  and  C_15 
REMARK    4  A    between atoms: C_15  and  C_16 
REMARK    5  A    between atoms: C_16  and  C_17 
REMARK    6  A    between atoms: N_27  and  C_28 
REMARK    7  A    between atoms: C_28  and  C_29 
ROOT
HETATM    1  C   UNL     1      -6.817   0.845 -33.529  1.00  0.00     0.123 C 
HETATM    2  N   UNL     1      -7.093   2.211 -33.957  1.00  0.00    -0.324 N 
HETATM    3  C   UNL     1      -6.030   3.050 -33.679  1.00  0.00     0.326 C 
HETATM    4  O   UNL     1      -5.964   4.177 -34.136  1.00  0.00    -0.247 OA
HETATM    5  N   UNL     1      -5.156   2.406 -32.868  1.00  0.00    -0.268 N 
HETATM    6  C   UNL     1      -5.567   1.120 -32.657  1.00  0.00     0.257 C 
HETATM    7  O   UNL     1      -5.039   0.307 -31.913  1.00  0.00    -0.270 OA
HETATM    8  H   UNL     1      -7.570   2.447 -34.822  1.00  0.00     0.165 HD
ENDROOT
BRANCH   1   9
HETATM    9  C   UNL     1      -7.982   0.237 -32.681  1.00  0.00     0.027 C 
HETATM   10  C   UNL     1      -9.263  -0.096 -33.467  1.00  0.00     0.035 C 
HETATM   11  C   UNL     1     -10.128   1.111 -33.813  1.00  0.00     0.235 C 
HETATM   12  N   UNL     1     -10.443   1.929 -32.590  1.00  0.00    -0.067 N 
HETATM   13  H   UNL     1     -11.066   1.365 -31.994  1.00  0.00     0.280 HD
HETATM   14  C   UNL     1      -9.239   2.294 -31.761  1.00  0.00     0.235 C 
HETATM   15  C   UNL     1      -8.401   1.064 -31.446  1.00  0.00     0.035 C 
BRANCH  12  16
HETATM   16  C   UNL     1     -11.232   3.186 -32.932  1.00  0.00     0.278 C 
BRANCH  16  17
HETATM   17  C   UNL     1     -12.664   3.123 -32.570  1.00  0.00     0.034 A 
HETATM   18  C   UNL     1     -13.339   3.787 -31.506  1.00  0.00     0.062 A 
HETATM   19  C   UNL     1     -12.788   4.729 -30.496  1.00  0.00     0.073 C 
HETATM   20  N   UNL     1     -14.644   3.497 -31.487  1.00  0.00    -0.176 NA
HETATM   21  N   UNL     1     -14.813   2.603 -32.482  1.00  0.00    -0.262 N 
HETATM   22  C   UNL     1     -16.112   2.003 -32.686  1.00  0.00     0.181 C 
HETATM   23  C   UNL     1     -13.658   2.388 -33.171  1.00  0.00     0.131 A 
HETATM   24 CL   UNL     1     -13.607   1.353 -34.519  1.00  0.00    -0.062 Cl
ENDBRANCH  16  17
ENDBRANCH  12  16
ENDBRANCH   1   9
BRANCH   1  25
HETATM   25  C   UNL     1      -6.394   0.027 -34.783  1.00  0.00     0.080 C 
BRANCH  25  26
HETATM   26  C   UNL     1      -5.964  -1.403 -34.572  1.00  0.00    -0.052 A 
HETATM   27  C   UNL     1      -6.835  -2.471 -34.816  1.00  0.00     0.049 A 
HETATM   28  C   UNL     1      -6.402  -3.782 -34.623  1.00  0.00     0.116 A 
HETATM   29  F   UNL     1      -7.253  -4.789 -34.856  1.00  0.00    -0.206 F 
HETATM   30  C   UNL     1      -5.110  -4.059 -34.199  1.00  0.00     0.042 A 
HETATM   31  C   UNL     1      -4.230  -3.006 -33.963  1.00  0.00     0.003 A 
HETATM   32  C   UNL     1      -4.654  -1.688 -34.149  1.00  0.00     0.007 A 
ENDBRANCH  25  26
ENDBRANCH   1  25
BRANCH   5  33
HETATM   33  C   UNL     1      -3.917   2.976 -32.364  1.00  0.00     0.140 C 
BRANCH  33  34
HETATM   34  C   UNL     1      -4.062   3.859 -31.110  1.00  0.00    -0.004 C 
HETATM   35  C   UNL     1      -4.044   5.352 -31.436  1.00  0.00     0.011 C 
HETATM   36  C   UNL     1      -5.296   3.510 -30.279  1.00  0.00     0.011 C 
ENDBRANCH  33  34
ENDBRANCH   5  33
TORSDOF 7
ENDMDL
MODEL 3
REMARK VINA RESULT:      -9.3      2.968      3.821
REMARK  7 active torsions:
REMARK  status: ('A' for Active; 'I' for Inactive)
REMARK    1  A    between atoms: C_8  and  C_9 
REMARK    2  A    between atoms: C_9  and  N_10 
REMARK    3  A    between atoms: C_14  and  C_15 
REMARK    4  A    between atoms: C_15  and  C_16 
REMARK    5  A    between atoms: C_16  and  C_17 
REMARK    6  A    between atoms: N_27  and  C_28 
REMARK    7  A    between atoms: C_28  and  C_29 
ROOT
HETATM    1  C   UNL     1      -4.975   1.118 -32.426  1.00  0.00     0.123 C 
HETATM    2  N   UNL     1      -5.850   1.882 -33.307  1.00  0.00    -0.324 N 
HETATM    3  C   UNL     1      -5.338   3.141 -33.557  1.00  0.00     0.326 C 
HETATM    4  O   UNL     1      -5.798   3.861 -34.425  1.00  0.00    -0.247 OA
HETATM    5  N   UNL     1      -4.306   3.378 -32.711  1.00  0.00    -0.268 N 
HETATM    6  C   UNL     1      -4.059   2.271 -31.947  1.00  0.00     0.257 C 
HETATM    7  O   UNL     1      -3.246   2.190 -31.039  1.00  0.00    -0.270 OA
HETATM    8  H   UNL     1      -6.336   1.484 -34.105  1.00  0.00     0.165 HD
ENDROOT
BRANCH   1   9
HETATM    9  C   UNL     1      -5.746   0.468 -31.231  1.00  0.00     0.027 C 
HETATM   10  C   UNL     1      -7.166  -0.028 -31.558  1.00  0.00     0.035 C 
HETATM   11  C   UNL     1      -8.218   1.071 -31.657  1.00  0.00     0.235 C 
HETATM   12  N   UNL     1      -8.220   1.940 -30.427  1.00  0.00    -0.067 N 
HETATM   13  H   UNL     1      -8.563   1.365 -29.644  1.00  0.00     0.280 HD
HETATM   14  C   UNL     1      -6.863   2.465 -30.036  1.00  0.00     0.235 C 
HETATM   15  C   UNL     1      -5.844   1.338 -29.958  1.00  0.00     0.035 C 
BRANCH  12  16
HETATM   16  C   UNL     1      -9.204   3.097 -30.548  1.00  0.00     0.278 C 
BRANCH  16  17
HETATM   17  C   UNL     1      -9.259   3.710 -31.891  1.00  0.00     0.034 A 
HETATM   18  C   UNL     1      -8.489   4.795 -32.402  1.00  0.00     0.062 A 
HETATM   19  C   UNL     1      -7.421   5.580 -31.727  1.00  0.00     0.073 C 
HETATM   20  N   UNL     1      -8.806   5.076 -33.669  1.00  0.00    -0.176 NA
HETATM   21  N   UNL     1      -9.816   4.234 -33.968  1.00  0.00    -0.262 N 
HETATM   22  C   UNL     1     -10.466   4.332 -35.254  1.00  0.00     0.181 C 
HETATM   23  C   UNL     1     -10.083   3.380 -32.941  1.00  0.00     0.131 A 
HETATM   24 CL   UNL     1     -11.269   2.170 -33.077  1.00  0.00    -0.062 Cl
ENDBRANCH  16  17
ENDBRANCH  12  16
ENDBRANCH   1   9
BRANCH   1  25
HETATM   25  C   UNL     1      -4.144   0.140 -33.307  1.00  0.00     0.080 C 
BRANCH  25  26
HETATM   26  C   UNL     1      -4.839  -1.093 -33.828  1.00  0.00    -0.052 A 
HETATM   27  C   UNL     1      -4.291  -2.368 -33.652  1.00  0.00     0.049 A 
HETATM   28  C   UNL     1      -4.966  -3.489 -34.134  1.00  0.00     0.116 A 
HETATM   29  F   UNL     1      -4.423  -4.700 -33.961  1.00  0.00    -0.206 F 
HETATM   30  C   UNL     1      -6.187  -3.371 -34.784  1.00  0.00     0.042 A 
HETATM   31  C   UNL     1      -6.747  -2.108 -34.956  1.00  0.00     0.003 A 
HETATM   32  C   UNL     1      -6.078  -0.978 -34.480  1.00  0.00     0.007 A 
ENDBRANCH  25  26
ENDBRANCH   1  25
BRANCH   5  33
HETATM   33  C   UNL     1      -3.522   4.602 -32.678  1.00  0.00     0.140 C 
BRANCH  33  34
HETATM   34  C   UNL     1      -2.179   4.541 -33.430  1.00  0.00    -0.004 C 
HETATM   35  C   UNL     1      -2.255   5.157 -34.826  1.00  0.00     0.011 C 
HETATM   36  C   UNL     1      -1.029   5.159 -32.636  1.00  0.00     0.011 C 
ENDBRANCH  33  34
ENDBRANCH   5  33
TORSDOF 7
ENDMDL
MODEL 4
REMARK VINA RESULT:      -9.2      1.999      2.563
REMARK  7 active torsions:
REMARK  status: ('A' for Active; 'I' for Inactive)
REMARK    1  A    between atoms: C_8  and  C_9 
REMARK    2  A    between atoms: C_9  and  N_10 
REMARK    3  A    between atoms: C_14  and  C_15 
REMARK    4  A    between atoms: C_15  and  C_16 
REMARK    5  A    between atoms: C_16  and  C_17 
REMARK    6  A    between atoms: N_27  and  C_28 
REMARK    7  A    between atoms: C_28  and  C_29 
ROOT
HETATM    1  C   UNL     1      -6.977   1.762 -33.392  1.00  0.00     0.123 C 
HETATM    2  N   UNL     1      -7.603   2.992 -33.861  1.00  0.00    -0.324 N 
HETATM    3  C   UNL     1      -6.742   4.068 -33.754  1.00  0.00     0.326 C 
HETATM    4  O   UNL     1      -6.984   5.140 -34.277  1.00  0.00    -0.247 OA
HETATM    5  N   UNL     1      -5.666   3.704 -33.014  1.00  0.00    -0.268 N 
HETATM    6  C   UNL     1      -5.745   2.379 -32.686  1.00  0.00     0.257 C 
HETATM    7  O   UNL     1      -4.972   1.768 -31.964  1.00  0.00    -0.270 OA
HETATM    8  H   UNL     1      -8.206   3.045 -34.676  1.00  0.00     0.165 HD
ENDROOT
BRANCH   1   9
HETATM    9  C   UNL     1      -7.879   0.978 -32.383  1.00  0.00     0.027 C 
HETATM   10  C   UNL     1      -9.190   0.422 -32.968  1.00  0.00     0.035 C 
HETATM   11  C   UNL     1     -10.290   1.460 -33.164  1.00  0.00     0.235 C 
HETATM   12  N   UNL     1     -10.548   2.231 -31.897  1.00  0.00    -0.067 N 
HETATM   13  H   UNL     1     -10.968   1.578 -31.220  1.00  0.00     0.280 HD
HETATM   14  C   UNL     1      -9.311   2.807 -31.258  1.00  0.00     0.235 C 
HETATM   15  C   UNL     1      -8.239   1.740 -31.089  1.00  0.00     0.035 C 
BRANCH  12  16
HETATM   16  C   UNL     1     -11.581   3.331 -32.101  1.00  0.00     0.278 C 
BRANCH  16  17
HETATM   17  C   UNL     1     -11.439   4.071 -33.373  1.00  0.00     0.034 A 
HETATM   18  C   UNL     1     -12.039   3.788 -34.634  1.00  0.00     0.062 A 
HETATM   19  C   UNL     1     -12.976   2.691 -34.995  1.00  0.00     0.073 C 
HETATM   20  N   UNL     1     -11.687   4.681 -35.563  1.00  0.00    -0.176 NA
HETATM   21  N   UNL     1     -10.816   5.501 -34.942  1.00  0.00    -0.262 N 
HETATM   22  C   UNL     1     -10.162   6.546 -35.696  1.00  0.00     0.181 C 
HETATM   23  C   UNL     1     -10.676   5.186 -33.624  1.00  0.00     0.131 A 
HETATM   24 CL   UNL     1      -9.686   6.104 -32.592  1.00  0.00    -0.062 Cl
ENDBRANCH  16  17
ENDBRANCH  12  16
ENDBRANCH   1   9
BRANCH   1  25
HETATM   25  C   UNL     1      -6.502   0.961 -34.640  1.00  0.00     0.080 C 
BRANCH  25  26
HETATM   26  C   UNL     1      -6.071  -0.468 -34.429  1.00  0.00    -0.052 A 
HETATM   27  C   UNL     1      -6.859  -1.540 -34.863  1.00  0.00     0.049 A 
HETATM   28  C   UNL     1      -6.425  -2.850 -34.665  1.00  0.00     0.116 A 
HETATM   29  F   UNL     1      -7.196  -3.861 -35.082  1.00  0.00    -0.206 F 
HETATM   30  C   UNL     1      -5.211  -3.121 -34.049  1.00  0.00     0.042 A 
HETATM   31  C   UNL     1      -4.413  -2.064 -33.622  1.00  0.00     0.003 A 
HETATM   32  C   UNL     1      -4.839  -0.747 -33.812  1.00  0.00     0.007 A 
ENDBRANCH  25  26
ENDBRANCH   1  25
BRANCH   5  33
HETATM   33  C   UNL     1      -4.548   4.575 -32.688  1.00  0.00     0.140 C 
BRANCH  33  34
HETATM   34  C   UNL     1      -3.318   4.437 -33.605  1.00  0.00    -0.004 C 
HETATM   35  C   UNL     1      -3.365   5.386 -34.802  1.00  0.00     0.011 C 
HETATM   36  C   UNL     1      -1.998   4.592 -32.852  1.00  0.00     0.011 C 
ENDBRANCH  33  34
ENDBRANCH   5  33
TORSDOF 7
ENDMDL
MODEL 5
REMARK VINA RESULT:      -9.0      3.330      7.826
REMARK  7 active torsions:
REMARK  status: ('A' for Active; 'I' for Inactive)
REMARK    1  A    between atoms: C_8  and  C_9 
REMARK    2  A    between atoms: C_9  and  N_10 
REMARK    3  A    between atoms: C_14  and  C_15 
REMARK    4  A    between atoms: C_15  and  C_16 
REMARK    5  A    between atoms: C_16  and  C_17 
REMARK    6  A    between atoms: N_27  and  C_28 
REMARK    7  A    between atoms: C_28  and  C_29 
ROOT
HETATM    1  C   UNL     1      -6.482   0.588 -32.341  1.00  0.00     0.123 C 
HETATM    2  N   UNL     1      -7.643  -0.259 -32.099  1.00  0.00    -0.324 N 
HETATM    3  C   UNL     1      -8.821   0.414 -32.361  1.00  0.00     0.326 C 
HETATM    4  O   UNL     1      -9.891  -0.164 -32.425  1.00  0.00    -0.247 OA
HETATM    5  N   UNL     1      -8.553   1.733 -32.522  1.00  0.00    -0.268 N 
HETATM    6  C   UNL     1      -7.206   1.952 -32.453  1.00  0.00     0.257 C 
HETATM    7  O   UNL     1      -6.651   3.040 -32.483  1.00  0.00    -0.270 OA
HETATM    8  H   UNL     1      -7.685  -1.244 -32.343  1.00  0.00     0.165 HD
ENDROOT
BRANCH   1   9
HETATM    9  C   UNL     1      -5.471   0.575 -31.148  1.00  0.00     0.027 C 
HETATM   10  C   UNL     1      -5.847   1.477 -29.958  1.00  0.00     0.035 C 
HETATM   11  C   UNL     1      -5.587   2.963 -30.179  1.00  0.00     0.235 C 
HETATM   12  N   UNL     1      -4.169   3.211 -30.618  1.00  0.00    -0.067 N 
HETATM   13  H   UNL     1      -3.556   2.988 -29.821  1.00  0.00     0.280 HD
HETATM   14  C   UNL     1      -3.720   2.363 -31.780  1.00  0.00     0.235 C 
HETATM   15  C   UNL     1      -4.006   0.891 -31.520  1.00  0.00     0.035 C 
BRANCH  12  16
HETATM   16  C   UNL     1      -3.918   4.682 -30.929  1.00  0.00     0.278 C 
BRANCH  16  17
HETATM   17  C   UNL     1      -2.812   4.921 -31.880  1.00  0.00     0.034 A 
HETATM   18  C   UNL     1      -1.429   5.121 -31.599  1.00  0.00     0.062 A 
HETATM   19  C   UNL     1      -0.736   5.121 -30.283  1.00  0.00     0.073 C 
HETATM   20  N   UNL     1      -0.716   5.302 -32.715  1.00  0.00    -0.176 NA
HETATM   21  N   UNL     1      -1.625   5.290 -33.711  1.00  0.00    -0.262 N 
HETATM   22  C   UNL     1      -1.197   5.551 -35.066  1.00  0.00     0.181 C 
HETATM   23  C   UNL     1      -2.879   5.027 -33.249  1.00  0.00     0.131 A 
HETATM   24 CL   UNL     1      -4.204   4.889 -34.305  1.00  0.00    -0.062 Cl
ENDBRANCH  16  17
ENDBRANCH  12  16
ENDBRANCH   1   9
BRANCH   1  25
HETATM   25  C   UNL     1      -5.893   0.208 -33.731  1.00  0.00     0.080 C 
BRANCH  25  26
HETATM   26  C   UNL     1      -5.765  -1.259 -34.058  1.00  0.00    -0.052 A 
HETATM   27  C   UNL     1      -4.588  -1.966 -33.794  1.00  0.00     0.049 A 
HETATM   28  C   UNL     1      -4.507  -3.324 -34.096  1.00  0.00     0.116 A 
HETATM   29  F   UNL     1      -3.369  -3.982 -33.841  1.00  0.00    -0.206 F 
HETATM   30  C   UNL     1      -5.583  -4.004 -34.652  1.00  0.00     0.042 A 
HETATM   31  C   UNL     1      -6.764  -3.314 -34.911  1.00  0.00     0.003 A 
HETATM   32  C   UNL     1      -6.855  -1.952 -34.614  1.00  0.00     0.007 A 
ENDBRANCH  25  26
ENDBRANCH   1  25
BRANCH   5  33
HETATM   33  C   UNL     1      -9.548   2.753 -32.810  1.00  0.00     0.140 C 
BRANCH  33  34
HETATM   34  C   UNL     1      -9.940   2.888 -34.293  1.00  0.00    -0.004 C 
HETATM   35  C   UNL     1     -11.256   2.185 -34.622  1.00  0.00     0.011 C 
HETATM   36  C   UNL     1      -9.979   4.341 -34.765  1.00  0.00     0.011 C 
ENDBRANCH  33  34
ENDBRANCH   5  33
TORSDOF 7
ENDMDL
MODEL 6
REMARK VINA RESULT:      -9.0      3.106      4.054
REMARK  7 active torsions:
REMARK  status: ('A' for Active; 'I' for Inactive)
REMARK    1  A    between atoms: C_8  and  C_9 
REMARK    2  A    between atoms: C_9  and  N_10 
REMARK    3  A    between atoms: C_14  and  C_15 
REMARK    4  A    between atoms: C_15  and  C_16 
REMARK    5  A    between atoms: C_16  and  C_17 
REMARK    6  A    between atoms: N_27  and  C_28 
REMARK    7  A    between atoms: C_28  and  C_29 
ROOT
HETATM    1  C   UNL     1      -6.495   1.274 -33.299  1.00  0.00     0.123 C 
HETATM    2  N   UNL     1      -7.131   2.543 -33.627  1.00  0.00    -0.324 N 
HETATM    3  C   UNL     1      -6.206   3.569 -33.690  1.00  0.00     0.326 C 
HETATM    4  O   UNL     1      -6.488   4.661 -34.148  1.00  0.00    -0.247 OA
HETATM    5  N   UNL     1      -5.027   3.135 -33.181  1.00  0.00    -0.268 N 
HETATM    6  C   UNL     1      -5.114   1.812 -32.851  1.00  0.00     0.257 C 
HETATM    7  O   UNL     1      -4.248   1.148 -32.301  1.00  0.00    -0.270 OA
HETATM    8  H   UNL     1      -7.880   2.642 -34.305  1.00  0.00     0.165 HD
ENDROOT
BRANCH   1   9
HETATM    9  C   UNL     1      -7.220   0.524 -32.134  1.00  0.00     0.027 C 
HETATM   10  C   UNL     1      -8.737   0.337 -32.317  1.00  0.00     0.035 C 
HETATM   11  C   UNL     1      -9.569   1.586 -32.047  1.00  0.00     0.235 C 
HETATM   12  N   UNL     1      -9.256   2.173 -30.697  1.00  0.00    -0.067 N 
HETATM   13  H   UNL     1      -9.601   1.512 -29.986  1.00  0.00     0.280 HD
HETATM   14  C   UNL     1      -7.787   2.384 -30.437  1.00  0.00     0.235 C 
HETATM   15  C   UNL     1      -6.995   1.117 -30.726  1.00  0.00     0.035 C 
BRANCH  12  16
HETATM   16  C   UNL     1     -10.013   3.471 -30.450  1.00  0.00     0.278 C 
BRANCH  16  17
HETATM   17  C   UNL     1      -9.369   4.670 -31.027  1.00  0.00     0.034 A 
HETATM   18  C   UNL     1      -9.481   5.185 -32.350  1.00  0.00     0.062 A 
HETATM   19  C   UNL     1     -10.286   4.666 -33.488  1.00  0.00     0.073 C 
HETATM   20  N   UNL     1      -8.758   6.298 -32.513  1.00  0.00    -0.176 NA
HETATM   21  N   UNL     1      -8.126   6.475 -31.335  1.00  0.00    -0.262 N 
HETATM   22  C   UNL     1      -7.178   7.556 -31.193  1.00  0.00     0.181 C 
HETATM   23  C   UNL     1      -8.500   5.542 -30.416  1.00  0.00     0.131 A 
HETATM   24 CL   UNL     1      -7.902   5.574 -28.825  1.00  0.00    -0.062 Cl
ENDBRANCH  16  17
ENDBRANCH  12  16
ENDBRANCH   1   9
BRANCH   1  25
HETATM   25  C   UNL     1      -6.324   0.469 -34.620  1.00  0.00     0.080 C 
BRANCH  25  26
HETATM   26  C   UNL     1      -6.067  -1.013 -34.507  1.00  0.00    -0.052 A 
HETATM   27  C   UNL     1      -4.835  -1.508 -34.066  1.00  0.00     0.049 A 
HETATM   28  C   UNL     1      -4.634  -2.883 -33.960  1.00  0.00     0.116 A 
HETATM   29  F   UNL     1      -3.446  -3.337 -33.541  1.00  0.00    -0.206 F 
HETATM   30  C   UNL     1      -5.640  -3.785 -34.276  1.00  0.00     0.042 A 
HETATM   31  C   UNL     1      -6.874  -3.305 -34.707  1.00  0.00     0.003 A 
HETATM   32  C   UNL     1      -7.086  -1.929 -34.820  1.00  0.00     0.007 A 
ENDBRANCH  25  26
ENDBRANCH   1  25
BRANCH   5  33
HETATM   33  C   UNL     1      -3.820   3.939 -33.081  1.00  0.00     0.140 C 
BRANCH  33  34
HETATM   34  C   UNL     1      -3.362   4.261 -31.646  1.00  0.00    -0.004 C 
HETATM   35  C   UNL     1      -2.000   4.952 -31.602  1.00  0.00     0.011 C 
HETATM   36  C   UNL     1      -4.395   5.069 -30.862  1.00  0.00     0.011 C 
ENDBRANCH  33  34
ENDBRANCH   5  33
TORSDOF 7
ENDMDL
MODEL 7
REMARK VINA RESULT:      -8.9      3.461      4.034
REMARK  7 active torsions:
REMARK  status: ('A' for Active; 'I' for Inactive)
REMARK    1  A    between atoms: C_8  and  C_9 
REMARK    2  A    between atoms: C_9  and  N_10 
REMARK    3  A    between atoms: C_14  and  C_15 
REMARK    4  A    between atoms: C_15  and  C_16 
REMARK    5  A    between atoms: C_16  and  C_17 
REMARK    6  A    between atoms: N_27  and  C_28 
REMARK    7  A    between atoms: C_28  and  C_29 
ROOT
HETATM    1  C   UNL     1      -4.728   1.590 -32.120  1.00  0.00     0.123 C 
HETATM    2  N   UNL     1      -5.678   2.289 -32.976  1.00  0.00    -0.324 N 
HETATM    3  C   UNL     1      -5.185   3.516 -33.380  1.00  0.00     0.326 C 
HETATM    4  O   UNL     1      -5.721   4.167 -34.258  1.00  0.00    -0.247 OA
HETATM    5  N   UNL     1      -4.075   3.808 -32.658  1.00  0.00    -0.268 N 
HETATM    6  C   UNL     1      -3.763   2.766 -31.829  1.00  0.00     0.257 C 
HETATM    7  O   UNL     1      -2.868   2.749 -30.999  1.00  0.00    -0.270 OA
HETATM    8  H   UNL     1      -6.241   1.833 -33.688  1.00  0.00     0.165 HD
ENDROOT
BRANCH   1   9
HETATM    9  C   UNL     1      -5.386   1.054 -30.807  1.00  0.00     0.027 C 
HETATM   10  C   UNL     1      -6.618   0.153 -31.009  1.00  0.00     0.035 C 
HETATM   11  C   UNL     1      -7.900   0.898 -31.363  1.00  0.00     0.235 C 
HETATM   12  N   UNL     1      -8.190   1.993 -30.372  1.00  0.00    -0.067 N 
HETATM   13  H   UNL     1      -8.427   1.543 -29.476  1.00  0.00     0.280 HD
HETATM   14  C   UNL     1      -7.030   2.920 -30.114  1.00  0.00     0.235 C 
HETATM   15  C   UNL     1      -5.772   2.136 -29.773  1.00  0.00     0.035 C 
BRANCH  12  16
HETATM   16  C   UNL     1      -9.419   2.804 -30.761  1.00  0.00     0.278 C 
BRANCH  16  17
HETATM   17  C   UNL     1      -9.123   4.010 -31.562  1.00  0.00     0.034 A 
HETATM   18  C   UNL     1      -8.949   4.117 -32.972  1.00  0.00     0.062 A 
HETATM   19  C   UNL     1      -9.039   3.052 -34.006  1.00  0.00     0.073 C 
HETATM   20  N   UNL     1      -8.698   5.375 -33.348  1.00  0.00    -0.176 NA
HETATM   21  N   UNL     1      -8.640   6.074 -32.197  1.00  0.00    -0.262 N 
HETATM   22  C   UNL     1      -8.292   7.476 -32.234  1.00  0.00     0.181 C 
HETATM   23  C   UNL     1      -8.927   5.296 -31.117  1.00  0.00     0.131 A 
HETATM   24 CL   UNL     1      -8.988   5.944 -29.546  1.00  0.00    -0.062 Cl
ENDBRANCH  16  17
ENDBRANCH  12  16
ENDBRANCH   1   9
BRANCH   1  25
HETATM   25  C   UNL     1      -3.991   0.530 -32.990  1.00  0.00     0.080 C 
BRANCH  25  26
HETATM   26  C   UNL     1      -4.825  -0.555 -33.624  1.00  0.00    -0.052 A 
HETATM   27  C   UNL     1      -6.016  -0.261 -34.297  1.00  0.00     0.049 A 
HETATM   28  C   UNL     1      -6.756  -1.286 -34.885  1.00  0.00     0.116 A 
HETATM   29  F   UNL     1      -7.896  -0.984 -35.520  1.00  0.00    -0.206 F 
HETATM   30  C   UNL     1      -6.333  -2.606 -34.825  1.00  0.00     0.042 A 
HETATM   31  C   UNL     1      -5.145  -2.911 -34.166  1.00  0.00     0.003 A 
HETATM   32  C   UNL     1      -4.396  -1.892 -33.571  1.00  0.00     0.007 A 
ENDBRANCH  25  26
ENDBRANCH   1  25
BRANCH   5  33
HETATM   33  C   UNL     1      -3.284   5.019 -32.804  1.00  0.00     0.140 C 
BRANCH  33  34
HETATM   34  C   UNL     1      -1.862   4.811 -33.358  1.00  0.00    -0.004 C 
HETATM   35  C   UNL     1      -1.770   5.074 -34.860  1.00  0.00     0.011 C 
HETATM   36  C   UNL     1      -0.809   5.626 -32.608  1.00  0.00     0.011 C 
ENDBRANCH  33  34
ENDBRANCH   5  33
TORSDOF 7
ENDMDL
MODEL 8
REMARK VINA RESULT:      -8.9      3.247      8.098
REMARK  7 active torsions:
REMARK  status: ('A' for Active; 'I' for Inactive)
REMARK    1  A    between atoms: C_8  and  C_9 
REMARK    2  A    between atoms: C_9  and  N_10 
REMARK    3  A    between atoms: C_14  and  C_15 
REMARK    4  A    between atoms: C_15  and  C_16 
REMARK    5  A    between atoms: C_16  and  C_17 
REMARK    6  A    between atoms: N_27  and  C_28 
REMARK    7  A    between atoms: C_28  and  C_29 
ROOT
HETATM    1  C   UNL     1      -8.849   2.651 -33.236  1.00  0.00     0.123 C 
HETATM    2  N   UNL     1      -9.235   1.442 -32.521  1.00  0.00    -0.324 N 
HETATM    3  C   UNL     1     -10.285   0.799 -33.150  1.00  0.00     0.326 C 
HETATM    4  O   UNL     1     -10.626  -0.329 -32.842  1.00  0.00    -0.247 OA
HETATM    5  N   UNL     1     -10.802   1.617 -34.099  1.00  0.00    -0.268 N 
HETATM    6  C   UNL     1     -10.071   2.769 -34.179  1.00  0.00     0.257 C 
HETATM    7  O   UNL     1     -10.325   3.736 -34.880  1.00  0.00    -0.270 OA
HETATM    8  H   UNL     1      -8.574   0.800 -32.096  1.00  0.00     0.165 HD
ENDROOT
BRANCH   1   9
HETATM    9  C   UNL     1      -8.734   3.894 -32.293  1.00  0.00     0.027 C 
HETATM   10  C   UNL     1      -7.810   5.018 -32.796  1.00  0.00     0.035 C 
HETATM   11  C   UNL     1      -6.320   4.738 -32.631  1.00  0.00     0.235 C 
HETATM   12  N   UNL     1      -5.987   4.360 -31.212  1.00  0.00    -0.067 N 
HETATM   13  H   UNL     1      -6.128   5.197 -30.629  1.00  0.00     0.280 HD
HETATM   14  C   UNL     1      -6.851   3.265 -30.642  1.00  0.00     0.235 C 
HETATM   15  C   UNL     1      -8.327   3.581 -30.835  1.00  0.00     0.035 C 
BRANCH  12  16
HETATM   16  C   UNL     1      -4.518   3.991 -31.051  1.00  0.00     0.278 C 
BRANCH  16  17
HETATM   17  C   UNL     1      -3.582   5.117 -31.259  1.00  0.00     0.034 A 
HETATM   18  C   UNL     1      -3.428   6.298 -30.477  1.00  0.00     0.062 A 
HETATM   19  C   UNL     1      -4.152   6.698 -29.241  1.00  0.00     0.073 C 
HETATM   20  N   UNL     1      -2.473   7.096 -30.965  1.00  0.00    -0.176 NA
HETATM   21  N   UNL     1      -2.051   6.483 -32.089  1.00  0.00    -0.262 N 
HETATM   22  C   UNL     1      -1.067   7.130 -32.925  1.00  0.00     0.181 C 
HETATM   23  C   UNL     1      -2.666   5.281 -32.271  1.00  0.00     0.131 A 
HETATM   24 CL   UNL     1      -2.270   4.270 -33.579  1.00  0.00    -0.062 Cl
ENDBRANCH  16  17
ENDBRANCH  12  16
ENDBRANCH   1   9
BRANCH   1  25
HETATM   25  C   UNL     1      -7.583   2.324 -34.081  1.00  0.00     0.080 C 
BRANCH  25  26
HETATM   26  C   UNL     1      -7.040   0.919 -34.011  1.00  0.00    -0.052 A 
HETATM   27  C   UNL     1      -6.256   0.492 -32.934  1.00  0.00     0.049 A 
HETATM   28  C   UNL     1      -5.781  -0.818 -32.893  1.00  0.00     0.116 A 
HETATM   29  F   UNL     1      -5.028  -1.206 -31.857  1.00  0.00    -0.206 F 
HETATM   30  C   UNL     1      -6.078  -1.724 -33.903  1.00  0.00     0.042 A 
HETATM   31  C   UNL     1      -6.865  -1.315 -34.975  1.00  0.00     0.003 A 
HETATM   32  C   UNL     1      -7.344  -0.003 -35.028  1.00  0.00     0.007 A 
ENDBRANCH  25  26
ENDBRANCH   1  25
BRANCH   5  33
HETATM   33  C   UNL     1     -11.921   1.281 -34.965  1.00  0.00     0.140 C 
BRANCH  33  34
HETATM   34  C   UNL     1     -13.316   1.473 -34.340  1.00  0.00    -0.004 C 
HETATM   35  C   UNL     1     -13.911   0.168 -33.814  1.00  0.00     0.011 C 
HETATM   36  C   UNL     1     -13.334   2.545 -33.252  1.00  0.00     0.011 C 
ENDBRANCH  33  34
ENDBRANCH   5  33
TORSDOF 7
ENDMDL
MODEL 9
REMARK VINA RESULT:      -8.9      3.562      7.995
REMARK  7 active torsions:
REMARK  status: ('A' for Active; 'I' for Inactive)
REMARK    1  A    between atoms: C_8  and  C_9 
REMARK    2  A    between atoms: C_9  and  N_10 
REMARK    3  A    between atoms: C_14  and  C_15 
REMARK    4  A    between atoms: C_15  and  C_16 
REMARK    5  A    between atoms: C_16  and  C_17 
REMARK    6  A    between atoms: N_27  and  C_28 
REMARK    7  A    between atoms: C_28  and  C_29 
ROOT
HETATM    1  C   UNL     1      -6.366   0.687 -32.584  1.00  0.00     0.123 C 
HETATM    2  N   UNL     1      -7.466  -0.140 -32.105  1.00  0.00    -0.324 N 
HETATM    3  C   UNL     1      -8.682   0.498 -32.262  1.00  0.00     0.326 C 
HETATM    4  O   UNL     1      -9.739  -0.090 -32.122  1.00  0.00    -0.247 OA
HETATM    5  N   UNL     1      -8.464   1.797 -32.579  1.00  0.00    -0.268 N 
HETATM    6  C   UNL     1      -7.124   2.031 -32.720  1.00  0.00     0.257 C 
HETATM    7  O   UNL     1      -6.600   3.114 -32.928  1.00  0.00    -0.270 OA
HETATM    8  H   UNL     1      -7.522  -1.144 -32.248  1.00  0.00     0.165 HD
ENDROOT
BRANCH   1   9
HETATM    9  C   UNL     1      -5.200   0.793 -31.547  1.00  0.00     0.027 C 
HETATM   10  C   UNL     1      -5.524   1.593 -30.273  1.00  0.00     0.035 C 
HETATM   11  C   UNL     1      -5.518   3.108 -30.453  1.00  0.00     0.235 C 
HETATM   12  N   UNL     1      -4.231   3.580 -31.075  1.00  0.00    -0.067 N 
HETATM   13  H   UNL     1      -3.482   3.430 -30.384  1.00  0.00     0.280 HD
HETATM   14  C   UNL     1      -3.840   2.842 -32.329  1.00  0.00     0.235 C 
HETATM   15  C   UNL     1      -3.867   1.337 -32.106  1.00  0.00     0.035 C 
BRANCH  12  16
HETATM   16  C   UNL     1      -4.245   5.080 -31.344  1.00  0.00     0.278 C 
BRANCH  16  17
HETATM   17  C   UNL     1      -3.053   5.798 -30.844  1.00  0.00     0.034 A 
HETATM   18  C   UNL     1      -2.960   6.704 -29.749  1.00  0.00     0.062 A 
HETATM   19  C   UNL     1      -4.027   7.150 -28.814  1.00  0.00     0.073 C 
HETATM   20  N   UNL     1      -1.713   7.157 -29.584  1.00  0.00    -0.176 NA
HETATM   21  N   UNL     1      -1.010   6.611 -30.596  1.00  0.00    -0.262 N 
HETATM   22  C   UNL     1       0.379   6.968 -30.771  1.00  0.00     0.181 C 
HETATM   23  C   UNL     1      -1.773   5.764 -31.343  1.00  0.00     0.131 A 
HETATM   24 CL   UNL     1      -1.115   4.890 -32.644  1.00  0.00    -0.062 Cl
ENDBRANCH  16  17
ENDBRANCH  12  16
ENDBRANCH   1   9
BRANCH   1  25
HETATM   25  C   UNL     1      -5.968   0.181 -34.001  1.00  0.00     0.080 C 
BRANCH  25  26
HETATM   26  C   UNL     1      -5.660  -1.287 -34.158  1.00  0.00    -0.052 A 
HETATM   27  C   UNL     1      -6.560  -2.159 -34.778  1.00  0.00     0.049 A 
HETATM   28  C   UNL     1      -6.239  -3.508 -34.919  1.00  0.00     0.116 A 
HETATM   29  F   UNL     1      -7.117  -4.328 -35.511  1.00  0.00    -0.206 F 
HETATM   30  C   UNL     1      -5.030  -4.013 -34.461  1.00  0.00     0.042 A 
HETATM   31  C   UNL     1      -4.121  -3.153 -33.851  1.00  0.00     0.003 A 
HETATM   32  C   UNL     1      -4.433  -1.800 -33.702  1.00  0.00     0.007 A 
ENDBRANCH  25  26
ENDBRANCH   1  25
BRANCH   5  33
HETATM   33  C   UNL     1      -9.508   2.780 -32.819  1.00  0.00     0.140 C 
BRANCH  33  34
HETATM   34  C   UNL     1     -10.034   2.841 -34.266  1.00  0.00    -0.004 C 
HETATM   35  C   UNL     1     -11.305   2.016 -34.466  1.00  0.00     0.011 C 
HETATM   36  C   UNL     1     -10.243   4.271 -34.760  1.00  0.00     0.011 C 
ENDBRANCH  33  34
ENDBRANCH   5  33
TORSDOF 7
ENDMDL
MODEL 10
REMARK VINA RESULT:      -8.8      2.026      2.606
REMARK  7 active torsions:
REMARK  status: ('A' for Active; 'I' for Inactive)
REMARK    1  A    between atoms: C_8  and  C_9 
REMARK    2  A    between atoms: C_9  and  N_10 
REMARK    3  A    between atoms: C_14  and  C_15 
REMARK    4  A    between atoms: C_15  and  C_16 
REMARK    5  A    between atoms: C_16  and  C_17 
REMARK    6  A    between atoms: N_27  and  C_28 
REMARK    7  A    between atoms: C_28  and  C_29 
ROOT
HETATM    1  C   UNL     1      -5.600   0.920 -32.749  1.00  0.00     0.123 C 
HETATM    2  N   UNL     1      -5.955   1.917 -33.751  1.00  0.00    -0.324 N 
HETATM    3  C   UNL     1      -5.734   3.200 -33.285  1.00  0.00     0.326 C 
HETATM    4  O   UNL     1      -5.764   4.167 -34.024  1.00  0.00    -0.247 OA
HETATM    5  N   UNL     1      -5.493   3.153 -31.952  1.00  0.00    -0.268 N 
HETATM    6  C   UNL     1      -5.468   1.855 -31.522  1.00  0.00     0.257 C 
HETATM    7  O   UNL     1      -5.351   1.482 -30.365  1.00  0.00    -0.270 OA
HETATM    8  H   UNL     1      -5.762   1.816 -34.743  1.00  0.00     0.165 HD
ENDROOT
BRANCH   1   9
HETATM    9  C   UNL     1      -6.729  -0.142 -32.537  1.00  0.00     0.027 C 
HETATM   10  C   UNL     1      -7.285  -0.776 -33.824  1.00  0.00     0.035 C 
HETATM   11  C   UNL     1      -8.249   0.110 -34.605  1.00  0.00     0.235 C 
HETATM   12  N   UNL     1      -9.363   0.615 -33.727  1.00  0.00    -0.067 N 
HETATM   13  H   UNL     1      -9.949  -0.195 -33.477  1.00  0.00     0.280 HD
HETATM   14  C   UNL     1      -8.900   1.249 -32.441  1.00  0.00     0.235 C 
HETATM   15  C   UNL     1      -7.936   0.335 -31.699  1.00  0.00     0.035 C 
BRANCH  12  16
HETATM   16  C   UNL     1     -10.284   1.574 -34.470  1.00  0.00     0.278 C 
BRANCH  16  17
HETATM   17  C   UNL     1     -11.471   1.998 -33.697  1.00  0.00     0.034 A 
HETATM   18  C   UNL     1     -12.697   1.299 -33.501  1.00  0.00     0.062 A 
HETATM   19  C   UNL     1     -13.097  -0.041 -34.005  1.00  0.00     0.073 C 
HETATM   20  N   UNL     1     -13.545   1.991 -32.734  1.00  0.00    -0.176 NA
HETATM   21  N   UNL     1     -12.915   3.156 -32.484  1.00  0.00    -0.262 N 
HETATM   22  C   UNL     1     -13.599   4.189 -31.741  1.00  0.00     0.181 C 
HETATM   23  C   UNL     1     -11.660   3.175 -33.012  1.00  0.00     0.131 A 
HETATM   24 CL   UNL     1     -10.622   4.502 -32.788  1.00  0.00    -0.062 Cl
ENDBRANCH  16  17
ENDBRANCH  12  16
ENDBRANCH   1   9
BRANCH   1  25
HETATM   25  C   UNL     1      -4.197   0.354 -33.112  1.00  0.00     0.080 C 
BRANCH  25  26
HETATM   26  C   UNL     1      -4.035  -1.145 -33.142  1.00  0.00    -0.052 A 
HETATM   27  C   UNL     1      -3.466  -1.840 -32.069  1.00  0.00     0.049 A 
HETATM   28  C   UNL     1      -3.344  -3.227 -32.123  1.00  0.00     0.116 A 
HETATM   29  F   UNL     1      -2.791  -3.873 -31.088  1.00  0.00    -0.206 F 
HETATM   30  C   UNL     1      -3.784  -3.948 -33.224  1.00  0.00     0.042 A 
HETATM   31  C   UNL     1      -4.361  -3.269 -34.295  1.00  0.00     0.003 A 
HETATM   32  C   UNL     1      -4.487  -1.879 -34.253  1.00  0.00     0.007 A 
ENDBRANCH  25  26
ENDBRANCH   1  25
BRANCH   5  33
HETATM   33  C   UNL     1      -5.219   4.310 -31.116  1.00  0.00     0.140 C 
BRANCH  33  34
HETATM   34  C   UNL     1      -3.783   4.860 -31.207  1.00  0.00    -0.004 C 
HETATM   35  C   UNL     1      -2.777   3.810 -31.677  1.00  0.00     0.011 C 
HETATM   36  C   UNL     1      -3.684   6.117 -32.070  1.00  0.00     0.011 C 
ENDBRANCH  33  34
ENDBRANCH   5  33
TORSDOF 7
ENDMDL
