MODEL 1
REMARK VINA RESULT:      -9.1      0.000      0.000
REMARK  7 active torsions:
REMARK  status: ('A' for Active; 'I' for Inactive)
REMARK       I    between atoms: C_2  and  N_3 
REMARK       I    between atoms: C_2  and  N_12 
REMARK    1  A    between atoms: N_3  and  C_4 
REMARK    2  A    between atoms: C_16  and  C_17 
REMARK    3  A    between atoms: C_21  and  C_23 
REMARK       I    between atoms: C_23  and  N_25 
REMARK    4  A    between atoms: N_25  and  C_26 
REMARK    5  A    between atoms: C_29  and  C_30 
REMARK    6  A    between atoms: C_30  and  C_31 
REMARK    7  A    between atoms: C_31  and  N_32 
ROOT
HETATM    1  C   UNL     1     -10.253   4.757 -31.388  1.00  0.00     0.037 A 
HETATM    2  C   UNL     1     -10.587   5.938 -30.722  1.00  0.00     0.029 A 
HETATM    3  C   UNL     1      -9.720   6.488 -29.773  1.00  0.00     0.004 A 
HETATM    4  C   UNL     1      -8.511   5.862 -29.480  1.00  0.00     0.023 A 
HETATM    5  C   UNL     1      -8.166   4.679 -30.138  1.00  0.00     0.046 A 
HETATM    6  C   UNL     1      -9.036   4.130 -31.088  1.00  0.00     0.052 A 
HETATM    7  C   UNL     1      -6.931   4.019 -29.829  1.00  0.00     0.099 C 
HETATM    8  N   UNL     1      -5.938   3.477 -29.572  1.00  0.00    -0.191 NA
ENDROOT
BRANCH   1   9
HETATM    9  N   UNL     1     -11.096   4.113 -32.314  1.00  0.00    -0.309 N 
HETATM   10  C   UNL     1     -12.404   3.718 -32.143  1.00  0.00     0.323 C 
HETATM   11  O   UNL     1     -13.129   4.081 -31.220  1.00  0.00    -0.247 OA
HETATM   12  N   UNL     1     -12.861   2.824 -33.095  1.00  0.00    -0.325 N 
HETATM   13  C   UNL     1     -14.236   2.355 -33.051  1.00  0.00     0.128 C 
HETATM   14  C   UNL     1     -12.149   2.267 -34.249  1.00  0.00     0.122 C 
HETATM   15  C   UNL     1     -14.263   1.137 -33.959  1.00  0.00     0.022 C 
HETATM   16  C   UNL     1     -13.213   1.466 -35.013  1.00  0.00     0.032 C 
HETATM   17  H   UNL     1     -10.699   3.940 -33.221  1.00  0.00     0.170 HD
BRANCH  14  18
HETATM   18  C   UNL     1     -10.939   1.439 -33.854  1.00  0.00    -0.034 A 
HETATM   19  C   UNL     1     -11.049   0.273 -33.079  1.00  0.00     0.009 A 
HETATM   20  C   UNL     1      -9.913  -0.433 -32.678  1.00  0.00     0.002 A 
HETATM   21  C   UNL     1      -8.643   0.024 -33.029  1.00  0.00     0.017 A 
HETATM   22  C   UNL     1      -8.514   1.189 -33.792  1.00  0.00     0.033 A 
HETATM   23  C   UNL     1      -9.657   1.874 -34.225  1.00  0.00     0.026 A 
BRANCH  22  24
HETATM   24  C   UNL     1      -7.180   1.733 -34.167  1.00  0.00     0.256 C 
HETATM   25  O   UNL     1      -6.603   1.230 -35.124  1.00  0.00    -0.267 OA
HETATM   26  N   UNL     1      -6.763   2.811 -33.410  1.00  0.00    -0.323 N 
HETATM   27  H   UNL     1      -7.431   3.204 -32.758  1.00  0.00     0.169 HD
BRANCH  26  28
HETATM   28  C   UNL     1      -5.523   3.478 -33.484  1.00  0.00     0.035 A 
HETATM   29  C   UNL     1      -5.275   4.567 -34.319  1.00  0.00     0.030 A 
HETATM   30  C   UNL     1      -4.001   5.142 -34.377  1.00  0.00     0.009 A 
HETATM   31  C   UNL     1      -2.953   4.646 -33.592  1.00  0.00    -0.056 A 
HETATM   32  C   UNL     1      -3.205   3.564 -32.744  1.00  0.00     0.009 A 
HETATM   33  C   UNL     1      -4.479   2.985 -32.692  1.00  0.00     0.030 A 
BRANCH  31  34
HETATM   34  C   UNL     1      -1.562   5.229 -33.701  1.00  0.00     0.068 C 
BRANCH  34  35
HETATM   35  C   UNL     1      -0.840   5.339 -32.345  1.00  0.00     0.277 C 
BRANCH  35  36
HETATM   36  N   UNL     1      -0.508   6.732 -31.989  1.00  0.00     0.092 N 
HETATM   37  C   UNL     1      -1.687   7.534 -31.587  1.00  0.00     0.298 C 
HETATM   38  C   UNL     1      -2.250   7.181 -30.200  1.00  0.00     0.198 C 
HETATM   39  O   UNL     1      -1.241   7.281 -29.188  1.00  0.00    -0.388 OA
HETATM   40  C   UNL     1      -0.123   6.441 -29.500  1.00  0.00     0.198 C 
HETATM   41  C   UNL     1       0.470   6.785 -30.877  1.00  0.00     0.298 C 
ENDBRANCH  35  36
ENDBRANCH  34  35
ENDBRANCH  31  34
ENDBRANCH  26  28
ENDBRANCH  22  24
ENDBRANCH  14  18
ENDBRANCH   1   9
TORSDOF 7
ENDMDL
MODEL 2
REMARK VINA RESULT:      -9.1      4.375      9.755
REMARK  7 active torsions:
REMARK  status: ('A' for Active; 'I' for Inactive)
REMARK       I    between atoms: C_2  and  N_3 
REMARK       I    between atoms: C_2  and  N_12 
REMARK    1  A    between atoms: N_3  and  C_4 
REMARK    2  A    between atoms: C_16  and  C_17 
REMARK    3  A    between atoms: C_21  and  C_23 
REMARK       I    between atoms: C_23  and  N_25 
REMARK    4  A    between atoms: N_25  and  C_26 
REMARK    5  A    between atoms: C_29  and  C_30 
REMARK    6  A    between atoms: C_30  and  C_31 
REMARK    7  A    between atoms: C_31  and  N_32 
ROOT
HETATM    1  C   UNL     1      -4.906   6.367 -28.463  1.00  0.00     0.037 A 
HETATM    2  C   UNL     1      -5.767   5.687 -27.599  1.00  0.00     0.029 A 
HETATM    3  C   UNL     1      -7.138   5.619 -27.869  1.00  0.00     0.004 A 
HETATM    4  C   UNL     1      -7.660   6.234 -29.004  1.00  0.00     0.023 A 
HETATM    5  C   UNL     1      -6.810   6.920 -29.875  1.00  0.00     0.046 A 
HETATM    6  C   UNL     1      -5.438   6.985 -29.603  1.00  0.00     0.052 A 
HETATM    7  C   UNL     1      -7.344   7.570 -31.036  1.00  0.00     0.099 C 
HETATM    8  N   UNL     1      -7.775   8.108 -31.969  1.00  0.00    -0.191 NA
ENDROOT
BRANCH   1   9
HETATM    9  N   UNL     1      -3.526   6.525 -28.231  1.00  0.00    -0.309 N 
HETATM   10  C   UNL     1      -2.892   7.509 -27.508  1.00  0.00     0.323 C 
HETATM   11  O   UNL     1      -3.455   8.286 -26.740  1.00  0.00    -0.247 OA
HETATM   12  N   UNL     1      -1.529   7.596 -27.731  1.00  0.00    -0.325 N 
HETATM   13  C   UNL     1      -0.734   8.569 -27.003  1.00  0.00     0.128 C 
HETATM   14  C   UNL     1      -0.689   6.779 -28.611  1.00  0.00     0.122 C 
HETATM   15  C   UNL     1       0.579   8.651 -27.763  1.00  0.00     0.022 C 
HETATM   16  C   UNL     1       0.746   7.241 -28.319  1.00  0.00     0.032 C 
HETATM   17  H   UNL     1      -2.932   5.818 -28.626  1.00  0.00     0.170 HD
BRANCH  14  18
HETATM   18  C   UNL     1      -1.075   6.897 -30.074  1.00  0.00    -0.034 A 
HETATM   19  C   UNL     1      -1.047   8.122 -30.761  1.00  0.00     0.009 A 
HETATM   20  C   UNL     1      -1.468   8.211 -32.089  1.00  0.00     0.002 A 
HETATM   21  C   UNL     1      -1.942   7.079 -32.752  1.00  0.00     0.017 A 
HETATM   22  C   UNL     1      -1.986   5.852 -32.081  1.00  0.00     0.033 A 
HETATM   23  C   UNL     1      -1.528   5.758 -30.760  1.00  0.00     0.026 A 
BRANCH  22  24
HETATM   24  C   UNL     1      -2.511   4.623 -32.736  1.00  0.00     0.256 C 
HETATM   25  O   UNL     1      -2.198   4.414 -33.902  1.00  0.00    -0.267 OA
HETATM   26  N   UNL     1      -3.262   3.807 -31.912  1.00  0.00    -0.323 N 
HETATM   27  H   UNL     1      -3.294   4.046 -30.929  1.00  0.00     0.169 HD
BRANCH  26  28
HETATM   28  C   UNL     1      -3.945   2.626 -32.271  1.00  0.00     0.035 A 
HETATM   29  C   UNL     1      -3.420   1.345 -32.110  1.00  0.00     0.030 A 
HETATM   30  C   UNL     1      -4.137   0.224 -32.541  1.00  0.00     0.009 A 
HETATM   31  C   UNL     1      -5.398   0.362 -33.133  1.00  0.00    -0.056 A 
HETATM   32  C   UNL     1      -5.931   1.646 -33.281  1.00  0.00     0.009 A 
HETATM   33  C   UNL     1      -5.210   2.767 -32.855  1.00  0.00     0.030 A 
BRANCH  31  34
HETATM   34  C   UNL     1      -6.145  -0.845 -33.655  1.00  0.00     0.068 C 
BRANCH  34  35
HETATM   35  C   UNL     1      -5.427  -2.177 -33.362  1.00  0.00     0.277 C 
BRANCH  35  36
HETATM   36  N   UNL     1      -4.711  -2.705 -34.540  1.00  0.00     0.092 N 
HETATM   37  C   UNL     1      -3.845  -3.867 -34.230  1.00  0.00     0.298 C 
HETATM   38  C   UNL     1      -4.612  -5.171 -33.953  1.00  0.00     0.198 C 
HETATM   39  O   UNL     1      -5.481  -5.505 -35.041  1.00  0.00    -0.388 OA
HETATM   40  C   UNL     1      -6.399  -4.436 -35.305  1.00  0.00     0.198 C 
HETATM   41  C   UNL     1      -5.657  -3.121 -35.602  1.00  0.00     0.298 C 
ENDBRANCH  35  36
ENDBRANCH  34  35
ENDBRANCH  31  34
ENDBRANCH  26  28
ENDBRANCH  22  24
ENDBRANCH  14  18
ENDBRANCH   1   9
TORSDOF 7
ENDMDL
MODEL 3
REMARK VINA RESULT:      -9.0      4.538      9.940
REMARK  7 active torsions:
REMARK  status: ('A' for Active; 'I' for Inactive)
REMARK       I    between atoms: C_2  and  N_3 
REMARK       I    between atoms: C_2  and  N_12 
REMARK    1  A    between atoms: N_3  and  C_4 
REMARK    2  A    between atoms: C_16  and  C_17 
REMARK    3  A    between atoms: C_21  and  C_23 
REMARK       I    between atoms: C_23  and  N_25 
REMARK    4  A    between atoms: N_25  and  C_26 
REMARK    5  A    between atoms: C_29  and  C_30 
REMARK    6  A    between atoms: C_30  and  C_31 
REMARK    7  A    between atoms: C_31  and  N_32 
ROOT
HETATM    1  C   UNL     1      -1.897   6.179 -32.625  1.00  0.00     0.037 A 
HETATM    2  C   UNL     1      -1.019   5.932 -33.683  1.00  0.00     0.029 A 
HETATM    3  C   UNL     1      -1.491   5.404 -34.890  1.00  0.00     0.004 A 
HETATM    4  C   UNL     1      -2.845   5.118 -35.048  1.00  0.00     0.023 A 
HETATM    5  C   UNL     1      -3.733   5.359 -33.997  1.00  0.00     0.046 A 
HETATM    6  C   UNL     1      -3.258   5.888 -32.791  1.00  0.00     0.052 A 
HETATM    7  C   UNL     1      -5.125   5.051 -34.147  1.00  0.00     0.099 C 
HETATM    8  N   UNL     1      -6.250   4.790 -34.262  1.00  0.00    -0.191 NA
ENDROOT
BRANCH   1   9
HETATM    9  N   UNL     1      -1.491   6.657 -31.364  1.00  0.00    -0.309 N 
HETATM   10  C   UNL     1      -0.696   6.029 -30.433  1.00  0.00     0.323 C 
HETATM   11  O   UNL     1      -0.012   5.033 -30.654  1.00  0.00    -0.247 OA
HETATM   12  N   UNL     1      -0.743   6.590 -29.169  1.00  0.00    -0.325 N 
HETATM   13  C   UNL     1       0.077   6.045 -28.100  1.00  0.00     0.128 C 
HETATM   14  C   UNL     1      -1.503   7.756 -28.709  1.00  0.00     0.122 C 
HETATM   15  C   UNL     1      -0.509   6.623 -26.823  1.00  0.00     0.022 C 
HETATM   16  C   UNL     1      -1.031   7.985 -27.266  1.00  0.00     0.032 C 
HETATM   17  H   UNL     1      -1.802   7.581 -31.125  1.00  0.00     0.170 HD
BRANCH  14  18
HETATM   18  C   UNL     1      -3.005   7.568 -28.830  1.00  0.00    -0.034 A 
HETATM   19  C   UNL     1      -3.921   8.526 -28.366  1.00  0.00     0.009 A 
HETATM   20  C   UNL     1      -5.296   8.297 -28.434  1.00  0.00     0.002 A 
HETATM   21  C   UNL     1      -5.782   7.097 -28.951  1.00  0.00     0.017 A 
HETATM   22  C   UNL     1      -4.885   6.126 -29.408  1.00  0.00     0.033 A 
HETATM   23  C   UNL     1      -3.507   6.374 -29.374  1.00  0.00     0.026 A 
BRANCH  22  24
HETATM   24  C   UNL     1      -5.355   4.818 -29.941  1.00  0.00     0.256 C 
HETATM   25  O   UNL     1      -6.562   4.620 -29.998  1.00  0.00    -0.267 OA
HETATM   26  N   UNL     1      -4.347   3.978 -30.377  1.00  0.00    -0.323 N 
HETATM   27  H   UNL     1      -3.409   4.357 -30.406  1.00  0.00     0.169 HD
BRANCH  26  28
HETATM   28  C   UNL     1      -4.483   2.658 -30.855  1.00  0.00     0.035 A 
HETATM   29  C   UNL     1      -5.379   1.729 -30.327  1.00  0.00     0.030 A 
HETATM   30  C   UNL     1      -5.416   0.420 -30.820  1.00  0.00     0.009 A 
HETATM   31  C   UNL     1      -4.566   0.018 -31.856  1.00  0.00    -0.056 A 
HETATM   32  C   UNL     1      -3.677   0.953 -32.394  1.00  0.00     0.009 A 
HETATM   33  C   UNL     1      -3.636   2.261 -31.897  1.00  0.00     0.030 A 
BRANCH  31  34
HETATM   34  C   UNL     1      -4.564  -1.414 -32.345  1.00  0.00     0.068 C 
BRANCH  34  35
HETATM   35  C   UNL     1      -5.808  -1.772 -33.180  1.00  0.00     0.277 C 
BRANCH  35  36
HETATM   36  N   UNL     1      -5.467  -2.184 -34.556  1.00  0.00     0.092 N 
HETATM   37  C   UNL     1      -4.274  -3.059 -34.630  1.00  0.00     0.298 C 
HETATM   38  C   UNL     1      -4.507  -4.492 -34.124  1.00  0.00     0.198 C 
HETATM   39  O   UNL     1      -5.597  -5.117 -34.813  1.00  0.00    -0.388 OA
HETATM   40  C   UNL     1      -6.794  -4.340 -34.680  1.00  0.00     0.198 C 
HETATM   41  C   UNL     1      -6.593  -2.905 -35.196  1.00  0.00     0.298 C 
ENDBRANCH  35  36
ENDBRANCH  34  35
ENDBRANCH  31  34
ENDBRANCH  26  28
ENDBRANCH  22  24
ENDBRANCH  14  18
ENDBRANCH   1   9
TORSDOF 7
ENDMDL
MODEL 4
REMARK VINA RESULT:      -9.0      3.850      9.391
REMARK  7 active torsions:
REMARK  status: ('A' for Active; 'I' for Inactive)
REMARK       I    between atoms: C_2  and  N_3 
REMARK       I    between atoms: C_2  and  N_12 
REMARK    1  A    between atoms: N_3  and  C_4 
REMARK    2  A    between atoms: C_16  and  C_17 
REMARK    3  A    between atoms: C_21  and  C_23 
REMARK       I    between atoms: C_23  and  N_25 
REMARK    4  A    between atoms: N_25  and  C_26 
REMARK    5  A    between atoms: C_29  and  C_30 
REMARK    6  A    between atoms: C_30  and  C_31 
REMARK    7  A    between atoms: C_31  and  N_32 
ROOT
HETATM    1  C   UNL     1      -5.169   6.274 -28.700  1.00  0.00     0.037 A 
HETATM    2  C   UNL     1      -6.128   7.263 -28.473  1.00  0.00     0.029 A 
HETATM    3  C   UNL     1      -7.477   7.025 -28.757  1.00  0.00     0.004 A 
HETATM    4  C   UNL     1      -7.878   5.794 -29.272  1.00  0.00     0.023 A 
HETATM    5  C   UNL     1      -6.928   4.797 -29.505  1.00  0.00     0.046 A 
HETATM    6  C   UNL     1      -5.579   5.038 -29.220  1.00  0.00     0.052 A 
HETATM    7  C   UNL     1      -7.331   3.534 -30.051  1.00  0.00     0.099 C 
HETATM    8  N   UNL     1      -7.654   2.516 -30.506  1.00  0.00    -0.191 NA
ENDROOT
BRANCH   1   9
HETATM    9  N   UNL     1      -3.788   6.457 -28.491  1.00  0.00    -0.309 N 
HETATM   10  C   UNL     1      -3.158   7.473 -27.810  1.00  0.00     0.323 C 
HETATM   11  O   UNL     1      -3.722   8.269 -27.063  1.00  0.00    -0.247 OA
HETATM   12  N   UNL     1      -1.800   7.570 -28.053  1.00  0.00    -0.325 N 
HETATM   13  C   UNL     1      -1.008   8.578 -27.369  1.00  0.00     0.128 C 
HETATM   14  C   UNL     1      -0.959   6.733 -28.915  1.00  0.00     0.122 C 
HETATM   15  C   UNL     1       0.295   8.649 -28.148  1.00  0.00     0.022 C 
HETATM   16  C   UNL     1       0.472   7.223 -28.657  1.00  0.00     0.032 C 
HETATM   17  H   UNL     1      -3.190   5.744 -28.869  1.00  0.00     0.170 HD
BRANCH  14  18
HETATM   18  C   UNL     1      -1.364   6.796 -30.377  1.00  0.00    -0.034 A 
HETATM   19  C   UNL     1      -1.338   7.993 -31.112  1.00  0.00     0.009 A 
HETATM   20  C   UNL     1      -1.777   8.032 -32.437  1.00  0.00     0.002 A 
HETATM   21  C   UNL     1      -2.267   6.878 -33.047  1.00  0.00     0.017 A 
HETATM   22  C   UNL     1      -2.310   5.679 -32.328  1.00  0.00     0.033 A 
HETATM   23  C   UNL     1      -1.834   5.634 -31.011  1.00  0.00     0.026 A 
BRANCH  22  24
HETATM   24  C   UNL     1      -2.852   4.428 -32.926  1.00  0.00     0.256 C 
HETATM   25  O   UNL     1      -2.232   3.918 -33.852  1.00  0.00    -0.267 OA
HETATM   26  N   UNL     1      -3.990   3.942 -32.312  1.00  0.00    -0.323 N 
HETATM   27  H   UNL     1      -4.286   4.398 -31.458  1.00  0.00     0.169 HD
BRANCH  26  28
HETATM   28  C   UNL     1      -4.762   2.829 -32.704  1.00  0.00     0.035 A 
HETATM   29  C   UNL     1      -4.569   1.537 -32.214  1.00  0.00     0.030 A 
HETATM   30  C   UNL     1      -5.341   0.473 -32.693  1.00  0.00     0.009 A 
HETATM   31  C   UNL     1      -6.329   0.682 -33.662  1.00  0.00    -0.056 A 
HETATM   32  C   UNL     1      -6.533   1.979 -34.142  1.00  0.00     0.009 A 
HETATM   33  C   UNL     1      -5.755   3.042 -33.668  1.00  0.00     0.030 A 
BRANCH  31  34
HETATM   34  C   UNL     1      -7.120  -0.479 -34.223  1.00  0.00     0.068 C 
BRANCH  34  35
HETATM   35  C   UNL     1      -6.496  -1.850 -33.904  1.00  0.00     0.277 C 
BRANCH  35  36
HETATM   36  N   UNL     1      -5.619  -2.340 -34.986  1.00  0.00     0.092 N 
HETATM   37  C   UNL     1      -4.213  -2.532 -34.564  1.00  0.00     0.298 C 
HETATM   38  C   UNL     1      -3.986  -3.753 -33.657  1.00  0.00     0.198 C 
HETATM   39  O   UNL     1      -4.464  -4.955 -34.271  1.00  0.00    -0.388 OA
HETATM   40  C   UNL     1      -5.853  -4.836 -34.607  1.00  0.00     0.198 C 
HETATM   41  C   UNL     1      -6.106  -3.630 -35.529  1.00  0.00     0.298 C 
ENDBRANCH  35  36
ENDBRANCH  34  35
ENDBRANCH  31  34
ENDBRANCH  26  28
ENDBRANCH  22  24
ENDBRANCH  14  18
ENDBRANCH   1   9
TORSDOF 7
ENDMDL
MODEL 5
REMARK VINA RESULT:      -8.8      4.750     10.349
REMARK  7 active torsions:
REMARK  status: ('A' for Active; 'I' for Inactive)
REMARK       I    between atoms: C_2  and  N_3 
REMARK       I    between atoms: C_2  and  N_12 
REMARK    1  A    between atoms: N_3  and  C_4 
REMARK    2  A    between atoms: C_16  and  C_17 
REMARK    3  A    between atoms: C_21  and  C_23 
REMARK       I    between atoms: C_23  and  N_25 
REMARK    4  A    between atoms: N_25  and  C_26 
REMARK    5  A    between atoms: C_29  and  C_30 
REMARK    6  A    between atoms: C_30  and  C_31 
REMARK    7  A    between atoms: C_31  and  N_32 
ROOT
HETATM    1  C   UNL     1      -0.485   8.908 -27.514  1.00  0.00     0.037 A 
HETATM    2  C   UNL     1       0.078   7.660 -27.793  1.00  0.00     0.029 A 
HETATM    3  C   UNL     1       1.251   7.250 -27.153  1.00  0.00     0.004 A 
HETATM    4  C   UNL     1       1.875   8.085 -26.229  1.00  0.00     0.023 A 
HETATM    5  C   UNL     1       1.324   9.336 -25.942  1.00  0.00     0.046 A 
HETATM    6  C   UNL     1       0.148   9.744 -26.584  1.00  0.00     0.052 A 
HETATM    7  C   UNL     1       1.969  10.207 -25.004  1.00  0.00     0.099 C 
HETATM    8  N   UNL     1       2.498  10.920 -24.256  1.00  0.00    -0.191 NA
ENDROOT
BRANCH   1   9
HETATM    9  N   UNL     1      -1.632   9.413 -28.156  1.00  0.00    -0.309 N 
HETATM   10  C   UNL     1      -2.922   9.460 -27.681  1.00  0.00     0.323 C 
HETATM   11  O   UNL     1      -3.242   9.279 -26.508  1.00  0.00    -0.247 OA
HETATM   12  N   UNL     1      -3.881   9.700 -28.649  1.00  0.00    -0.325 N 
HETATM   13  C   UNL     1      -5.280   9.810 -28.274  1.00  0.00     0.128 C 
HETATM   14  C   UNL     1      -3.699   9.923 -30.086  1.00  0.00     0.122 C 
HETATM   15  C   UNL     1      -6.047   9.675 -29.580  1.00  0.00     0.022 C 
HETATM   16  C   UNL     1      -5.098  10.286 -30.604  1.00  0.00     0.032 C 
HETATM   17  H   UNL     1      -1.484   9.809 -29.068  1.00  0.00     0.170 HD
BRANCH  14  18
HETATM   18  C   UNL     1      -3.084   8.730 -30.796  1.00  0.00    -0.034 A 
HETATM   19  C   UNL     1      -1.939   8.844 -31.601  1.00  0.00     0.009 A 
HETATM   20  C   UNL     1      -1.433   7.741 -32.292  1.00  0.00     0.002 A 
HETATM   21  C   UNL     1      -2.074   6.506 -32.206  1.00  0.00     0.017 A 
HETATM   22  C   UNL     1      -3.221   6.375 -31.417  1.00  0.00     0.033 A 
HETATM   23  C   UNL     1      -3.705   7.474 -30.694  1.00  0.00     0.026 A 
BRANCH  22  24
HETATM   24  C   UNL     1      -3.957   5.084 -31.316  1.00  0.00     0.256 C 
HETATM   25  O   UNL     1      -4.675   4.907 -30.340  1.00  0.00    -0.267 OA
HETATM   26  N   UNL     1      -3.787   4.239 -32.395  1.00  0.00    -0.323 N 
HETATM   27  H   UNL     1      -3.284   4.604 -33.195  1.00  0.00     0.169 HD
BRANCH  26  28
HETATM   28  C   UNL     1      -4.293   2.930 -32.543  1.00  0.00     0.035 A 
HETATM   29  C   UNL     1      -3.619   1.785 -32.122  1.00  0.00     0.030 A 
HETATM   30  C   UNL     1      -4.162   0.516 -32.354  1.00  0.00     0.009 A 
HETATM   31  C   UNL     1      -5.394   0.370 -33.001  1.00  0.00    -0.056 A 
HETATM   32  C   UNL     1      -6.077   1.519 -33.410  1.00  0.00     0.009 A 
HETATM   33  C   UNL     1      -5.529   2.787 -33.185  1.00  0.00     0.030 A 
BRANCH  31  34
HETATM   34  C   UNL     1      -5.950  -1.004 -33.305  1.00  0.00     0.068 C 
BRANCH  34  35
HETATM   35  C   UNL     1      -4.917  -2.131 -33.124  1.00  0.00     0.277 C 
BRANCH  35  36
HETATM   36  N   UNL     1      -4.442  -2.678 -34.410  1.00  0.00     0.092 N 
HETATM   37  C   UNL     1      -3.632  -3.909 -34.264  1.00  0.00     0.298 C 
HETATM   38  C   UNL     1      -4.443  -5.160 -33.887  1.00  0.00     0.198 C 
HETATM   39  O   UNL     1      -5.500  -5.397 -34.825  1.00  0.00    -0.388 OA
HETATM   40  C   UNL     1      -6.361  -4.255 -34.920  1.00  0.00     0.198 C 
HETATM   41  C   UNL     1      -5.576  -2.992 -35.312  1.00  0.00     0.298 C 
ENDBRANCH  35  36
ENDBRANCH  34  35
ENDBRANCH  31  34
ENDBRANCH  26  28
ENDBRANCH  22  24
ENDBRANCH  14  18
ENDBRANCH   1   9
TORSDOF 7
ENDMDL
MODEL 6
REMARK VINA RESULT:      -8.7      2.565      9.467
REMARK  7 active torsions:
REMARK  status: ('A' for Active; 'I' for Inactive)
REMARK       I    between atoms: C_2  and  N_3 
REMARK       I    between atoms: C_2  and  N_12 
REMARK    1  A    between atoms: N_3  and  C_4 
REMARK    2  A    between atoms: C_16  and  C_17 
REMARK    3  A    between atoms: C_21  and  C_23 
REMARK       I    between atoms: C_23  and  N_25 
REMARK    4  A    between atoms: N_25  and  C_26 
REMARK    5  A    between atoms: C_29  and  C_30 
REMARK    6  A    between atoms: C_30  and  C_31 
REMARK    7  A    between atoms: C_31  and  N_32 
ROOT
HETATM    1  C   UNL     1      -4.596   6.655 -29.420  1.00  0.00     0.037 A 
HETATM    2  C   UNL     1      -4.827   6.525 -30.791  1.00  0.00     0.029 A 
HETATM    3  C   UNL     1      -6.127   6.590 -31.302  1.00  0.00     0.004 A 
HETATM    4  C   UNL     1      -7.208   6.784 -30.446  1.00  0.00     0.023 A 
HETATM    5  C   UNL     1      -6.991   6.914 -29.072  1.00  0.00     0.046 A 
HETATM    6  C   UNL     1      -5.688   6.850 -28.563  1.00  0.00     0.052 A 
HETATM    7  C   UNL     1      -8.101   7.098 -28.183  1.00  0.00     0.099 C 
HETATM    8  N   UNL     1      -8.999   7.233 -27.461  1.00  0.00    -0.191 NA
ENDROOT
BRANCH   1   9
HETATM    9  N   UNL     1      -3.324   6.546 -28.825  1.00  0.00    -0.309 N 
HETATM   10  C   UNL     1      -2.686   7.453 -28.010  1.00  0.00     0.323 C 
HETATM   11  O   UNL     1      -3.230   8.415 -27.472  1.00  0.00    -0.247 OA
HETATM   12  N   UNL     1      -1.330   7.226 -27.851  1.00  0.00    -0.325 N 
HETATM   13  C   UNL     1      -0.544   8.089 -26.986  1.00  0.00     0.128 C 
HETATM   14  C   UNL     1      -0.507   6.153 -28.417  1.00  0.00     0.122 C 
HETATM   15  C   UNL     1       0.902   7.804 -27.357  1.00  0.00     0.022 C 
HETATM   16  C   UNL     1       0.871   6.335 -27.766  1.00  0.00     0.032 C 
HETATM   17  H   UNL     1      -2.831   5.689 -29.000  1.00  0.00     0.170 HD
BRANCH  14  18
HETATM   18  C   UNL     1      -0.464   6.179 -29.935  1.00  0.00    -0.034 A 
HETATM   19  C   UNL     1       0.278   7.133 -30.649  1.00  0.00     0.009 A 
HETATM   20  C   UNL     1       0.247   7.170 -32.044  1.00  0.00     0.002 A 
HETATM   21  C   UNL     1      -0.542   6.265 -32.752  1.00  0.00     0.017 A 
HETATM   22  C   UNL     1      -1.297   5.313 -32.058  1.00  0.00     0.033 A 
HETATM   23  C   UNL     1      -1.234   5.254 -30.659  1.00  0.00     0.026 A 
BRANCH  22  24
HETATM   24  C   UNL     1      -2.177   4.345 -32.768  1.00  0.00     0.256 C 
HETATM   25  O   UNL     1      -2.099   4.286 -33.989  1.00  0.00    -0.267 OA
HETATM   26  N   UNL     1      -2.958   3.562 -31.939  1.00  0.00    -0.323 N 
HETATM   27  H   UNL     1      -2.786   3.628 -30.944  1.00  0.00     0.169 HD
BRANCH  26  28
HETATM   28  C   UNL     1      -3.934   2.621 -32.325  1.00  0.00     0.035 A 
HETATM   29  C   UNL     1      -5.119   2.954 -32.981  1.00  0.00     0.030 A 
HETATM   30  C   UNL     1      -6.065   1.969 -33.283  1.00  0.00     0.009 A 
HETATM   31  C   UNL     1      -5.841   0.629 -32.945  1.00  0.00    -0.056 A 
HETATM   32  C   UNL     1      -4.647   0.293 -32.300  1.00  0.00     0.009 A 
HETATM   33  C   UNL     1      -3.703   1.280 -31.992  1.00  0.00     0.030 A 
BRANCH  31  34
HETATM   34  C   UNL     1      -6.891  -0.424 -33.216  1.00  0.00     0.068 C 
BRANCH  34  35
HETATM   35  C   UNL     1      -8.208   0.158 -33.765  1.00  0.00     0.277 C 
BRANCH  35  36
HETATM   36  N   UNL     1      -9.325   0.035 -32.808  1.00  0.00     0.092 N 
HETATM   37  C   UNL     1      -9.091   0.754 -31.535  1.00  0.00     0.298 C 
HETATM   38  C   UNL     1      -9.189   2.285 -31.645  1.00  0.00     0.198 C 
HETATM   39  O   UNL     1     -10.449   2.688 -32.193  1.00  0.00    -0.388 OA
HETATM   40  C   UNL     1     -10.664   2.082 -33.474  1.00  0.00     0.198 C 
HETATM   41  C   UNL     1     -10.588   0.548 -33.389  1.00  0.00     0.298 C 
ENDBRANCH  35  36
ENDBRANCH  34  35
ENDBRANCH  31  34
ENDBRANCH  26  28
ENDBRANCH  22  24
ENDBRANCH  14  18
ENDBRANCH   1   9
TORSDOF 7
ENDMDL
MODEL 7
REMARK VINA RESULT:      -8.7      1.905      9.278
REMARK  7 active torsions:
REMARK  status: ('A' for Active; 'I' for Inactive)
REMARK       I    between atoms: C_2  and  N_3 
REMARK       I    between atoms: C_2  and  N_12 
REMARK    1  A    between atoms: N_3  and  C_4 
REMARK    2  A    between atoms: C_16  and  C_17 
REMARK    3  A    between atoms: C_21  and  C_23 
REMARK       I    between atoms: C_23  and  N_25 
REMARK    4  A    between atoms: N_25  and  C_26 
REMARK    5  A    between atoms: C_29  and  C_30 
REMARK    6  A    between atoms: C_30  and  C_31 
REMARK    7  A    between atoms: C_31  and  N_32 
ROOT
HETATM    1  C   UNL     1      -5.118   5.973 -29.483  1.00  0.00     0.037 A 
HETATM    2  C   UNL     1      -5.986   6.036 -28.390  1.00  0.00     0.029 A 
HETATM    3  C   UNL     1      -7.371   6.048 -28.583  1.00  0.00     0.004 A 
HETATM    4  C   UNL     1      -7.901   5.999 -29.870  1.00  0.00     0.023 A 
HETATM    5  C   UNL     1      -7.044   5.937 -30.971  1.00  0.00     0.046 A 
HETATM    6  C   UNL     1      -5.657   5.925 -30.776  1.00  0.00     0.052 A 
HETATM    7  C   UNL     1      -7.582   5.903 -32.299  1.00  0.00     0.099 C 
HETATM    8  N   UNL     1      -8.015   5.889 -33.376  1.00  0.00    -0.191 NA
ENDROOT
BRANCH   1   9
HETATM    9  N   UNL     1      -3.714   6.012 -29.373  1.00  0.00    -0.309 N 
HETATM   10  C   UNL     1      -2.907   7.108 -29.168  1.00  0.00     0.323 C 
HETATM   11  O   UNL     1      -3.306   8.213 -28.808  1.00  0.00    -0.247 OA
HETATM   12  N   UNL     1      -1.567   6.890 -29.435  1.00  0.00    -0.325 N 
HETATM   13  C   UNL     1      -0.602   7.955 -29.225  1.00  0.00     0.128 C 
HETATM   14  C   UNL     1      -0.908   5.660 -29.884  1.00  0.00     0.122 C 
HETATM   15  C   UNL     1       0.644   7.507 -29.971  1.00  0.00     0.022 C 
HETATM   16  C   UNL     1       0.591   5.988 -29.855  1.00  0.00     0.032 C 
HETATM   17  H   UNL     1      -3.246   5.125 -29.430  1.00  0.00     0.170 HD
BRANCH  14  18
HETATM   18  C   UNL     1      -1.397   5.190 -31.243  1.00  0.00    -0.034 A 
HETATM   19  C   UNL     1      -0.963   5.780 -32.441  1.00  0.00     0.009 A 
HETATM   20  C   UNL     1      -1.477   5.369 -33.673  1.00  0.00     0.002 A 
HETATM   21  C   UNL     1      -2.450   4.371 -33.728  1.00  0.00     0.017 A 
HETATM   22  C   UNL     1      -2.901   3.778 -32.544  1.00  0.00     0.033 A 
HETATM   23  C   UNL     1      -2.356   4.167 -31.313  1.00  0.00     0.026 A 
BRANCH  22  24
HETATM   24  C   UNL     1      -3.959   2.730 -32.549  1.00  0.00     0.256 C 
HETATM   25  O   UNL     1      -3.622   1.573 -32.328  1.00  0.00    -0.267 OA
HETATM   26  N   UNL     1      -5.241   3.206 -32.748  1.00  0.00    -0.323 N 
HETATM   27  H   UNL     1      -5.365   4.210 -32.756  1.00  0.00     0.169 HD
BRANCH  26  28
HETATM   28  C   UNL     1      -6.422   2.447 -32.877  1.00  0.00     0.035 A 
HETATM   29  C   UNL     1      -6.875   1.913 -34.083  1.00  0.00     0.030 A 
HETATM   30  C   UNL     1      -8.087   1.217 -34.141  1.00  0.00     0.009 A 
HETATM   31  C   UNL     1      -8.865   1.032 -32.992  1.00  0.00    -0.056 A 
HETATM   32  C   UNL     1      -8.404   1.555 -31.780  1.00  0.00     0.009 A 
HETATM   33  C   UNL     1      -7.195   2.258 -31.724  1.00  0.00     0.030 A 
BRANCH  31  34
HETATM   34  C   UNL     1     -10.204   0.334 -33.068  1.00  0.00     0.068 C 
BRANCH  34  35
HETATM   35  C   UNL     1     -11.140   0.928 -34.138  1.00  0.00     0.277 C 
BRANCH  35  36
HETATM   36  N   UNL     1     -12.207   1.765 -33.556  1.00  0.00     0.092 N 
HETATM   37  C   UNL     1     -11.698   2.970 -32.861  1.00  0.00     0.298 C 
HETATM   38  C   UNL     1     -11.174   4.069 -33.802  1.00  0.00     0.198 C 
HETATM   39  O   UNL     1     -12.171   4.457 -34.755  1.00  0.00    -0.388 OA
HETATM   40  C   UNL     1     -12.617   3.325 -35.512  1.00  0.00     0.198 C 
HETATM   41  C   UNL     1     -13.162   2.216 -34.596  1.00  0.00     0.298 C 
ENDBRANCH  35  36
ENDBRANCH  34  35
ENDBRANCH  31  34
ENDBRANCH  26  28
ENDBRANCH  22  24
ENDBRANCH  14  18
ENDBRANCH   1   9
TORSDOF 7
ENDMDL
MODEL 8
REMARK VINA RESULT:      -8.5      3.352     10.152
REMARK  7 active torsions:
REMARK  status: ('A' for Active; 'I' for Inactive)
REMARK       I    between atoms: C_2  and  N_3 
REMARK       I    between atoms: C_2  and  N_12 
REMARK    1  A    between atoms: N_3  and  C_4 
REMARK    2  A    between atoms: C_16  and  C_17 
REMARK    3  A    between atoms: C_21  and  C_23 
REMARK       I    between atoms: C_23  and  N_25 
REMARK    4  A    between atoms: N_25  and  C_26 
REMARK    5  A    between atoms: C_29  and  C_30 
REMARK    6  A    between atoms: C_30  and  C_31 
REMARK    7  A    between atoms: C_31  and  N_32 
ROOT
HETATM    1  C   UNL     1      -6.862   4.103 -31.660  1.00  0.00     0.037 A 
HETATM    2  C   UNL     1      -6.756   5.158 -30.751  1.00  0.00     0.029 A 
HETATM    3  C   UNL     1      -7.424   6.364 -30.980  1.00  0.00     0.004 A 
HETATM    4  C   UNL     1      -8.203   6.528 -32.124  1.00  0.00     0.023 A 
HETATM    5  C   UNL     1      -8.315   5.482 -33.042  1.00  0.00     0.046 A 
HETATM    6  C   UNL     1      -7.646   4.274 -32.809  1.00  0.00     0.052 A 
HETATM    7  C   UNL     1      -9.101   5.650 -34.229  1.00  0.00     0.099 C 
HETATM    8  N   UNL     1      -9.726   5.788 -35.197  1.00  0.00    -0.191 NA
ENDROOT
BRANCH   1   9
HETATM    9  N   UNL     1      -6.177   2.880 -31.526  1.00  0.00    -0.309 N 
HETATM   10  C   UNL     1      -4.833   2.634 -31.691  1.00  0.00     0.323 C 
HETATM   11  O   UNL     1      -3.966   3.503 -31.753  1.00  0.00    -0.247 OA
HETATM   12  N   UNL     1      -4.507   1.296 -31.823  1.00  0.00    -0.325 N 
HETATM   13  C   UNL     1      -3.117   0.897 -31.967  1.00  0.00     0.128 C 
HETATM   14  C   UNL     1      -5.391   0.128 -31.792  1.00  0.00     0.122 C 
HETATM   15  C   UNL     1      -3.171  -0.536 -32.470  1.00  0.00     0.022 C 
HETATM   16  C   UNL     1      -4.445  -1.079 -31.832  1.00  0.00     0.032 C 
HETATM   17  H   UNL     1      -6.738   2.092 -31.254  1.00  0.00     0.170 HD
BRANCH  14  18
HETATM   18  C   UNL     1      -6.413   0.131 -32.916  1.00  0.00    -0.034 A 
HETATM   19  C   UNL     1      -6.041   0.221 -34.268  1.00  0.00     0.009 A 
HETATM   20  C   UNL     1      -7.005   0.285 -35.275  1.00  0.00     0.002 A 
HETATM   21  C   UNL     1      -8.361   0.278 -34.950  1.00  0.00     0.017 A 
HETATM   22  C   UNL     1      -8.750   0.199 -33.609  1.00  0.00     0.033 A 
HETATM   23  C   UNL     1      -7.781   0.096 -32.602  1.00  0.00     0.026 A 
BRANCH  22  24
HETATM   24  C   UNL     1     -10.184   0.218 -33.209  1.00  0.00     0.256 C 
HETATM   25  O   UNL     1     -10.621  -0.744 -32.589  1.00  0.00    -0.267 OA
HETATM   26  N   UNL     1     -10.859   1.377 -33.541  1.00  0.00    -0.323 N 
HETATM   27  H   UNL     1     -10.310   2.142 -33.912  1.00  0.00     0.169 HD
BRANCH  26  28
HETATM   28  C   UNL     1     -12.232   1.648 -33.360  1.00  0.00     0.035 A 
HETATM   29  C   UNL     1     -12.722   2.806 -32.758  1.00  0.00     0.030 A 
HETATM   30  C   UNL     1     -14.098   2.978 -32.565  1.00  0.00     0.009 A 
HETATM   31  C   UNL     1     -15.009   1.999 -32.980  1.00  0.00    -0.056 A 
HETATM   32  C   UNL     1     -14.518   0.845 -33.596  1.00  0.00     0.009 A 
HETATM   33  C   UNL     1     -13.141   0.670 -33.782  1.00  0.00     0.030 A 
BRANCH  31  34
HETATM   34  C   UNL     1     -16.489   2.159 -32.714  1.00  0.00     0.068 C 
BRANCH  34  35
HETATM   35  C   UNL     1     -16.843   3.490 -32.025  1.00  0.00     0.277 C 
BRANCH  35  36
HETATM   36  N   UNL     1     -18.272   3.581 -31.666  1.00  0.00     0.092 N 
HETATM   37  C   UNL     1     -18.609   4.799 -30.895  1.00  0.00     0.298 C 
HETATM   38  C   UNL     1     -18.606   6.094 -31.724  1.00  0.00     0.198 C 
HETATM   39  O   UNL     1     -19.480   5.993 -32.854  1.00  0.00    -0.388 OA
HETATM   40  C   UNL     1     -19.119   4.874 -33.676  1.00  0.00     0.198 C 
HETATM   41  C   UNL     1     -19.131   3.562 -32.874  1.00  0.00     0.298 C 
ENDBRANCH  35  36
ENDBRANCH  34  35
ENDBRANCH  31  34
ENDBRANCH  26  28
ENDBRANCH  22  24
ENDBRANCH  14  18
ENDBRANCH   1   9
TORSDOF 7
ENDMDL
MODEL 9
REMARK VINA RESULT:      -8.3      2.752     10.149
REMARK  7 active torsions:
REMARK  status: ('A' for Active; 'I' for Inactive)
REMARK       I    between atoms: C_2  and  N_3 
REMARK       I    between atoms: C_2  and  N_12 
REMARK    1  A    between atoms: N_3  and  C_4 
REMARK    2  A    between atoms: C_16  and  C_17 
REMARK    3  A    between atoms: C_21  and  C_23 
REMARK       I    between atoms: C_23  and  N_25 
REMARK    4  A    between atoms: N_25  and  C_26 
REMARK    5  A    between atoms: C_29  and  C_30 
REMARK    6  A    between atoms: C_30  and  C_31 
REMARK    7  A    between atoms: C_31  and  N_32 
ROOT
HETATM    1  C   UNL     1      -4.159   8.534 -28.988  1.00  0.00     0.037 A 
HETATM    2  C   UNL     1      -4.326   9.128 -30.241  1.00  0.00     0.029 A 
HETATM    3  C   UNL     1      -5.603   9.283 -30.789  1.00  0.00     0.004 A 
HETATM    4  C   UNL     1      -6.725   8.843 -30.090  1.00  0.00     0.023 A 
HETATM    5  C   UNL     1      -6.571   8.245 -28.838  1.00  0.00     0.046 A 
HETATM    6  C   UNL     1      -5.292   8.092 -28.290  1.00  0.00     0.052 A 
HETATM    7  C   UNL     1      -7.720   7.774 -28.121  1.00  0.00     0.099 C 
HETATM    8  N   UNL     1      -8.647   7.380 -27.544  1.00  0.00    -0.191 NA
ENDROOT
BRANCH   1   9
HETATM    9  N   UNL     1      -2.905   8.294 -28.395  1.00  0.00    -0.309 N 
HETATM   10  C   UNL     1      -1.981   9.215 -27.955  1.00  0.00     0.323 C 
HETATM   11  O   UNL     1      -2.209  10.411 -27.793  1.00  0.00    -0.247 OA
HETATM   12  N   UNL     1      -0.718   8.696 -27.728  1.00  0.00    -0.325 N 
HETATM   13  C   UNL     1       0.341   9.555 -27.227  1.00  0.00     0.128 C 
HETATM   14  C   UNL     1      -0.253   7.314 -27.878  1.00  0.00     0.122 C 
HETATM   15  C   UNL     1       1.624   8.779 -27.474  1.00  0.00     0.022 C 
HETATM   16  C   UNL     1       1.183   7.326 -27.335  1.00  0.00     0.032 C 
HETATM   17  H   UNL     1      -2.664   7.329 -28.255  1.00  0.00     0.170 HD
BRANCH  14  18
HETATM   18  C   UNL     1      -0.354   6.808 -29.305  1.00  0.00    -0.034 A 
HETATM   19  C   UNL     1       0.615   7.106 -30.278  1.00  0.00     0.009 A 
HETATM   20  C   UNL     1       0.463   6.679 -31.598  1.00  0.00     0.002 A 
HETATM   21  C   UNL     1      -0.671   5.960 -31.977  1.00  0.00     0.017 A 
HETATM   22  C   UNL     1      -1.652   5.662 -31.024  1.00  0.00     0.033 A 
HETATM   23  C   UNL     1      -1.478   6.059 -29.692  1.00  0.00     0.026 A 
BRANCH  22  24
HETATM   24  C   UNL     1      -2.892   4.924 -31.386  1.00  0.00     0.256 C 
HETATM   25  O   UNL     1      -2.879   4.240 -32.402  1.00  0.00    -0.267 OA
HETATM   26  N   UNL     1      -3.924   5.051 -30.476  1.00  0.00    -0.323 N 
HETATM   27  H   UNL     1      -3.719   5.527 -29.606  1.00  0.00     0.169 HD
BRANCH  26  28
HETATM   28  C   UNL     1      -5.231   4.533 -30.589  1.00  0.00     0.035 A 
HETATM   29  C   UNL     1      -6.315   5.260 -31.080  1.00  0.00     0.030 A 
HETATM   30  C   UNL     1      -7.595   4.694 -31.110  1.00  0.00     0.009 A 
HETATM   31  C   UNL     1      -7.812   3.386 -30.660  1.00  0.00    -0.056 A 
HETATM   32  C   UNL     1      -6.723   2.653 -30.181  1.00  0.00     0.009 A 
HETATM   33  C   UNL     1      -5.445   3.222 -30.144  1.00  0.00     0.030 A 
BRANCH  31  34
HETATM   34  C   UNL     1      -9.205   2.798 -30.635  1.00  0.00     0.068 C 
BRANCH  34  35
HETATM   35  C   UNL     1     -10.008   3.084 -31.918  1.00  0.00     0.277 C 
BRANCH  35  36
HETATM   36  N   UNL     1      -9.542   2.286 -33.069  1.00  0.00     0.092 N 
HETATM   37  C   UNL     1     -10.219   0.974 -33.189  1.00  0.00     0.298 C 
HETATM   38  C   UNL     1     -11.676   1.056 -33.675  1.00  0.00     0.198 C 
HETATM   39  O   UNL     1     -11.770   1.754 -34.923  1.00  0.00    -0.388 OA
HETATM   40  C   UNL     1     -11.206   3.068 -34.814  1.00  0.00     0.198 C 
HETATM   41  C   UNL     1      -9.742   3.013 -34.344  1.00  0.00     0.298 C 
ENDBRANCH  35  36
ENDBRANCH  34  35
ENDBRANCH  31  34
ENDBRANCH  26  28
ENDBRANCH  22  24
ENDBRANCH  14  18
ENDBRANCH   1   9
TORSDOF 7
ENDMDL
MODEL 10
REMARK VINA RESULT:      -8.3      2.309      9.452
REMARK  7 active torsions:
REMARK  status: ('A' for Active; 'I' for Inactive)
REMARK       I    between atoms: C_2  and  N_3 
REMARK       I    between atoms: C_2  and  N_12 
REMARK    1  A    between atoms: N_3  and  C_4 
REMARK    2  A    between atoms: C_16  and  C_17 
REMARK    3  A    between atoms: C_21  and  C_23 
REMARK       I    between atoms: C_23  and  N_25 
REMARK    4  A    between atoms: N_25  and  C_26 
REMARK    5  A    between atoms: C_29  and  C_30 
REMARK    6  A    between atoms: C_30  and  C_31 
REMARK    7  A    between atoms: C_31  and  N_32 
ROOT
HETATM    1  C   UNL     1      -5.272   7.293 -30.001  1.00  0.00     0.037 A 
HETATM    2  C   UNL     1      -5.742   7.489 -31.302  1.00  0.00     0.029 A 
HETATM    3  C   UNL     1      -7.103   7.702 -31.541  1.00  0.00     0.004 A 
HETATM    4  C   UNL     1      -8.007   7.721 -30.482  1.00  0.00     0.023 A 
HETATM    5  C   UNL     1      -7.551   7.524 -29.177  1.00  0.00     0.046 A 
HETATM    6  C   UNL     1      -6.187   7.311 -28.939  1.00  0.00     0.052 A 
HETATM    7  C   UNL     1      -8.478   7.525 -28.083  1.00  0.00     0.099 C 
HETATM    8  N   UNL     1      -9.229   7.512 -27.199  1.00  0.00    -0.191 NA
ENDROOT
BRANCH   1   9
HETATM    9  N   UNL     1      -3.927   7.018 -29.685  1.00  0.00    -0.309 N 
HETATM   10  C   UNL     1      -3.005   7.850 -29.093  1.00  0.00     0.323 C 
HETATM   11  O   UNL     1      -3.278   8.904 -28.524  1.00  0.00    -0.247 OA
HETATM   12  N   UNL     1      -1.693   7.428 -29.213  1.00  0.00    -0.325 N 
HETATM   13  C   UNL     1      -0.623   8.197 -28.601  1.00  0.00     0.128 C 
HETATM   14  C   UNL     1      -1.172   6.221 -29.862  1.00  0.00     0.122 C 
HETATM   15  C   UNL     1       0.651   7.682 -29.251  1.00  0.00     0.022 C 
HETATM   16  C   UNL     1       0.328   6.220 -29.536  1.00  0.00     0.032 C 
HETATM   17  H   UNL     1      -3.609   6.090 -29.899  1.00  0.00     0.170 HD
BRANCH  14  18
HETATM   18  C   UNL     1      -1.465   6.179 -31.352  1.00  0.00    -0.034 A 
HETATM   19  C   UNL     1      -0.715   6.912 -32.285  1.00  0.00     0.009 A 
HETATM   20  C   UNL     1      -1.048   6.903 -33.641  1.00  0.00     0.002 A 
HETATM   21  C   UNL     1      -2.149   6.172 -34.087  1.00  0.00     0.017 A 
HETATM   22  C   UNL     1      -2.914   5.443 -33.171  1.00  0.00     0.033 A 
HETATM   23  C   UNL     1      -2.555   5.425 -31.817  1.00  0.00     0.026 A 
BRANCH  22  24
HETATM   24  C   UNL     1      -4.115   4.673 -33.594  1.00  0.00     0.256 C 
HETATM   25  O   UNL     1      -4.520   4.823 -34.741  1.00  0.00    -0.267 OA
HETATM   26  N   UNL     1      -4.611   3.807 -32.638  1.00  0.00    -0.323 N 
HETATM   27  H   UNL     1      -4.064   3.687 -31.795  1.00  0.00     0.169 HD
BRANCH  26  28
HETATM   28  C   UNL     1      -5.773   3.013 -32.726  1.00  0.00     0.035 A 
HETATM   29  C   UNL     1      -5.798   1.731 -33.276  1.00  0.00     0.030 A 
HETATM   30  C   UNL     1      -7.002   1.026 -33.377  1.00  0.00     0.009 A 
HETATM   31  C   UNL     1      -8.202   1.583 -32.920  1.00  0.00    -0.056 A 
HETATM   32  C   UNL     1      -8.174   2.862 -32.356  1.00  0.00     0.009 A 
HETATM   33  C   UNL     1      -6.971   3.570 -32.261  1.00  0.00     0.030 A 
BRANCH  31  34
HETATM   34  C   UNL     1      -9.511   0.845 -33.087  1.00  0.00     0.068 C 
BRANCH  34  35
HETATM   35  C   UNL     1     -10.343   1.345 -34.283  1.00  0.00     0.277 C 
BRANCH  35  36
HETATM   36  N   UNL     1     -11.760   1.565 -33.936  1.00  0.00     0.092 N 
HETATM   37  C   UNL     1     -11.979   2.754 -33.080  1.00  0.00     0.298 C 
HETATM   38  C   UNL     1     -11.818   4.098 -33.810  1.00  0.00     0.198 C 
HETATM   39  O   UNL     1     -12.676   4.174 -34.955  1.00  0.00    -0.388 OA
HETATM   40  C   UNL     1     -12.422   3.086 -35.853  1.00  0.00     0.198 C 
HETATM   41  C   UNL     1     -12.592   1.727 -35.152  1.00  0.00     0.298 C 
ENDBRANCH  35  36
ENDBRANCH  34  35
ENDBRANCH  31  34
ENDBRANCH  26  28
ENDBRANCH  22  24
ENDBRANCH  14  18
ENDBRANCH   1   9
TORSDOF 7
ENDMDL
