MODEL 1
REMARK VINA RESULT:      -9.1      0.000      0.000
REMARK  8 active torsions:
REMARK  status: ('A' for Active; 'I' for Inactive)
REMARK    1  A    between atoms: N_2  and  C_3 
REMARK    2  A    between atoms: C_6  and  C_7 
REMARK    3  A    between atoms: N_8  and  C_9 
REMARK    4  A    between atoms: C_9  and  C_10 
REMARK    5  A    between atoms: C_14  and  N_15 
REMARK    6  A    between atoms: C_17  and  N_18 
REMARK    7  A    between atoms: C_19  and  C_20 
REMARK    8  A    between atoms: C_26  and  C_27 
ROOT
HETATM    1  C   UNL     1      -5.052   1.788 -32.672  1.00  0.00     0.141 A 
HETATM    2  N   UNL     1      -5.931   2.538 -31.908  1.00  0.00    -0.324 N 
HETATM    3  C   UNL     1      -5.334   3.771 -31.651  1.00  0.00     0.076 A 
HETATM    4  C   UNL     1      -4.138   3.718 -32.358  1.00  0.00     0.097 A 
HETATM    5  N   UNL     1      -3.959   2.479 -32.915  1.00  0.00    -0.227 NA
ENDROOT
BRANCH   2   6
HETATM    6  C   UNL     1      -7.282   2.122 -31.527  1.00  0.00     0.178 C 
BRANCH   6   7
HETATM    7  C   UNL     1      -8.334   2.065 -32.595  1.00  0.00     0.068 A 
HETATM    8  C   UNL     1      -9.306   0.956 -32.431  1.00  0.00     0.259 A 
HETATM    9  O   UNL     1      -9.219   0.130 -31.527  1.00  0.00    -0.267 OA
HETATM   10  N   UNL     1     -10.327   0.916 -33.324  1.00  0.00    -0.298 N 
HETATM   11  C   UNL     1     -10.473   1.853 -34.287  1.00  0.00     0.181 A 
HETATM   12  H   UNL     1     -11.025   0.206 -33.182  1.00  0.00     0.171 HD
HETATM   13  N   UNL     1      -9.635   2.819 -34.453  1.00  0.00    -0.208 NA
HETATM   14  C   UNL     1      -8.564   2.935 -33.601  1.00  0.00     0.117 A 
BRANCH  11  15
HETATM   15  N   UNL     1     -11.558   1.729 -35.092  1.00  0.00    -0.272 NA
HETATM   16  H   UNL     1     -11.395   1.760 -36.089  1.00  0.00     0.127 HD
HETATM   17  H   UNL     1     -12.322   2.327 -34.795  1.00  0.00     0.127 HD
ENDBRANCH  11  15
BRANCH  14  18
HETATM   18  N   UNL     1      -7.754   4.033 -33.809  1.00  0.00    -0.286 NA
HETATM   19  H   UNL     1      -6.840   3.926 -33.379  1.00  0.00     0.125 HD
HETATM   20  H   UNL     1      -7.643   4.139 -34.816  1.00  0.00     0.125 HD
ENDBRANCH  14  18
ENDBRANCH   6   7
ENDBRANCH   2   6
BRANCH   1  21
HETATM   21  C   UNL     1      -5.236   0.415 -33.138  1.00  0.00     0.010 A 
HETATM   22  C   UNL     1      -6.115   0.091 -34.169  1.00  0.00     0.017 A 
HETATM   23  C   UNL     1      -6.190  -1.226 -34.652  1.00  0.00     0.030 A 
HETATM   24  C   UNL     1      -5.375  -2.261 -34.154  1.00  0.00     0.029 A 
HETATM   25  C   UNL     1      -4.519  -1.907 -33.097  1.00  0.00     0.030 A 
HETATM   26  C   UNL     1      -4.440  -0.598 -32.605  1.00  0.00     0.017 A 
BRANCH  24  27
HETATM   27  N   UNL     1      -5.437  -3.567 -34.662  1.00  0.00    -0.390 N 
HETATM   28  C   UNL     1      -4.432  -4.530 -34.210  1.00  0.00     0.149 C 
HETATM   29  C   UNL     1      -6.751  -4.137 -34.960  1.00  0.00     0.149 C 
ENDBRANCH  24  27
ENDBRANCH   1  21
BRANCH   3  30
HETATM   30  C   UNL     1      -5.855   4.792 -30.742  1.00  0.00    -0.007 A 
HETATM   31  C   UNL     1      -5.743   4.595 -29.357  1.00  0.00     0.014 A 
HETATM   32  C   UNL     1      -6.215   5.553 -28.459  1.00  0.00     0.001 A 
HETATM   33  C   UNL     1      -6.807   6.719 -28.940  1.00  0.00     0.000 A 
HETATM   34  C   UNL     1      -6.922   6.927 -30.314  1.00  0.00     0.001 A 
HETATM   35  C   UNL     1      -6.442   5.970 -31.213  1.00  0.00     0.014 A 
ENDBRANCH   3  30
BRANCH   4  36
HETATM   36  C   UNL     1      -3.134   4.759 -32.524  1.00  0.00    -0.005 A 
HETATM   37  C   UNL     1      -1.947   4.684 -31.777  1.00  0.00     0.014 A 
HETATM   38  C   UNL     1      -0.931   5.627 -31.951  1.00  0.00     0.001 A 
HETATM   39  C   UNL     1      -1.086   6.652 -32.880  1.00  0.00     0.000 A 
HETATM   40  C   UNL     1      -2.254   6.734 -33.635  1.00  0.00     0.001 A 
HETATM   41  C   UNL     1      -3.271   5.789 -33.462  1.00  0.00     0.014 A 
ENDBRANCH   4  36
TORSDOF 8
ENDMDL
MODEL 2
REMARK VINA RESULT:      -9.1      1.325      1.478
REMARK  8 active torsions:
REMARK  status: ('A' for Active; 'I' for Inactive)
REMARK    1  A    between atoms: N_2  and  C_3 
REMARK    2  A    between atoms: C_6  and  C_7 
REMARK    3  A    between atoms: N_8  and  C_9 
REMARK    4  A    between atoms: C_9  and  C_10 
REMARK    5  A    between atoms: C_14  and  N_15 
REMARK    6  A    between atoms: C_17  and  N_18 
REMARK    7  A    between atoms: C_19  and  C_20 
REMARK    8  A    between atoms: C_26  and  C_27 
ROOT
HETATM    1  C   UNL     1      -5.186   1.141 -32.782  1.00  0.00     0.141 A 
HETATM    2  N   UNL     1      -6.222   1.829 -32.174  1.00  0.00    -0.324 N 
HETATM    3  C   UNL     1      -5.778   3.121 -31.898  1.00  0.00     0.076 A 
HETATM    4  C   UNL     1      -4.498   3.158 -32.440  1.00  0.00     0.097 A 
HETATM    5  N   UNL     1      -4.136   1.924 -32.912  1.00  0.00    -0.227 NA
ENDROOT
BRANCH   2   6
HETATM    6  C   UNL     1      -7.569   1.300 -31.953  1.00  0.00     0.178 C 
BRANCH   6   7
HETATM    7  C   UNL     1      -8.734   2.077 -32.491  1.00  0.00     0.068 A 
HETATM    8  C   UNL     1      -8.824   2.091 -33.971  1.00  0.00     0.259 A 
HETATM    9  O   UNL     1      -7.985   1.554 -34.689  1.00  0.00    -0.267 OA
HETATM   10  N   UNL     1      -9.910   2.708 -34.501  1.00  0.00    -0.298 N 
HETATM   11  C   UNL     1     -10.875   3.251 -33.725  1.00  0.00     0.181 A 
HETATM   12  H   UNL     1     -10.011   2.668 -35.501  1.00  0.00     0.171 HD
HETATM   13  N   UNL     1     -10.811   3.258 -32.437  1.00  0.00    -0.208 NA
HETATM   14  C   UNL     1      -9.743   2.663 -31.812  1.00  0.00     0.117 A 
BRANCH  11  15
HETATM   15  N   UNL     1     -11.932   3.803 -34.372  1.00  0.00    -0.272 NA
HETATM   16  H   UNL     1     -12.462   3.198 -34.983  1.00  0.00     0.127 HD
HETATM   17  H   UNL     1     -11.694   4.692 -34.799  1.00  0.00     0.127 HD
ENDBRANCH  11  15
BRANCH  14  18
HETATM   18  N   UNL     1      -9.787   2.660 -30.432  1.00  0.00    -0.286 NA
HETATM   19  H   UNL     1     -10.510   3.274 -30.068  1.00  0.00     0.125 HD
HETATM   20  H   UNL     1      -9.977   1.704 -30.139  1.00  0.00     0.125 HD
ENDBRANCH  14  18
ENDBRANCH   6   7
ENDBRANCH   2   6
BRANCH   1  21
HETATM   21  C   UNL     1      -5.182  -0.258 -33.206  1.00  0.00     0.010 A 
HETATM   22  C   UNL     1      -6.052  -0.742 -34.181  1.00  0.00     0.017 A 
HETATM   23  C   UNL     1      -5.950  -2.069 -34.628  1.00  0.00     0.030 A 
HETATM   24  C   UNL     1      -4.964  -2.954 -34.152  1.00  0.00     0.029 A 
HETATM   25  C   UNL     1      -4.121  -2.444 -33.150  1.00  0.00     0.030 A 
HETATM   26  C   UNL     1      -4.216  -1.123 -32.693  1.00  0.00     0.017 A 
BRANCH  24  27
HETATM   27  N   UNL     1      -4.852  -4.270 -34.625  1.00  0.00    -0.390 N 
HETATM   28  C   UNL     1      -4.051  -5.216 -33.848  1.00  0.00     0.149 C 
HETATM   29  C   UNL     1      -5.993  -4.857 -35.328  1.00  0.00     0.149 C 
ENDBRANCH  24  27
ENDBRANCH   1  21
BRANCH   3  30
HETATM   30  C   UNL     1      -6.505   4.117 -31.110  1.00  0.00    -0.007 A 
HETATM   31  C   UNL     1      -6.537   3.993 -29.713  1.00  0.00     0.014 A 
HETATM   32  C   UNL     1      -7.208   4.932 -28.929  1.00  0.00     0.001 A 
HETATM   33  C   UNL     1      -7.856   6.005 -29.536  1.00  0.00     0.000 A 
HETATM   34  C   UNL     1      -7.828   6.141 -30.924  1.00  0.00     0.001 A 
HETATM   35  C   UNL     1      -7.149   5.203 -31.710  1.00  0.00     0.014 A 
ENDBRANCH   3  30
BRANCH   4  36
HETATM   36  C   UNL     1      -3.578   4.283 -32.521  1.00  0.00    -0.005 A 
HETATM   37  C   UNL     1      -2.401   4.256 -31.756  1.00  0.00     0.014 A 
HETATM   38  C   UNL     1      -1.461   5.285 -31.851  1.00  0.00     0.001 A 
HETATM   39  C   UNL     1      -1.683   6.350 -32.718  1.00  0.00     0.000 A 
HETATM   40  C   UNL     1      -2.841   6.387 -33.491  1.00  0.00     0.001 A 
HETATM   41  C   UNL     1      -3.782   5.356 -33.397  1.00  0.00     0.014 A 
ENDBRANCH   4  36
TORSDOF 8
ENDMDL
MODEL 3
REMARK VINA RESULT:      -9.0      3.064      7.267
REMARK  8 active torsions:
REMARK  status: ('A' for Active; 'I' for Inactive)
REMARK    1  A    between atoms: N_2  and  C_3 
REMARK    2  A    between atoms: C_6  and  C_7 
REMARK    3  A    between atoms: N_8  and  C_9 
REMARK    4  A    between atoms: C_9  and  C_10 
REMARK    5  A    between atoms: C_14  and  N_15 
REMARK    6  A    between atoms: C_17  and  N_18 
REMARK    7  A    between atoms: C_19  and  C_20 
REMARK    8  A    between atoms: C_26  and  C_27 
ROOT
HETATM    1  C   UNL     1      -9.732   1.528 -33.782  1.00  0.00     0.141 A 
HETATM    2  N   UNL     1      -9.756   2.908 -33.906  1.00  0.00    -0.324 N 
HETATM    3  C   UNL     1     -11.085   3.323 -33.838  1.00  0.00     0.076 A 
HETATM    4  C   UNL     1     -11.790   2.150 -33.593  1.00  0.00     0.097 A 
HETATM    5  N   UNL     1     -10.954   1.066 -33.630  1.00  0.00    -0.227 NA
ENDROOT
BRANCH   2   6
HETATM    6  C   UNL     1      -8.573   3.765 -33.998  1.00  0.00     0.178 C 
BRANCH   6   7
HETATM    7  C   UNL     1      -7.583   3.733 -32.872  1.00  0.00     0.068 A 
HETATM    8  C   UNL     1      -6.199   3.406 -33.290  1.00  0.00     0.259 A 
HETATM    9  O   UNL     1      -5.906   3.135 -34.451  1.00  0.00    -0.267 OA
HETATM   10  N   UNL     1      -5.252   3.451 -32.318  1.00  0.00    -0.298 N 
HETATM   11  C   UNL     1      -5.546   3.807 -31.047  1.00  0.00     0.181 A 
HETATM   12  H   UNL     1      -4.301   3.292 -32.604  1.00  0.00     0.171 HD
HETATM   13  N   UNL     1      -6.745   4.086 -30.662  1.00  0.00    -0.208 NA
HETATM   14  C   UNL     1      -7.770   4.059 -31.575  1.00  0.00     0.117 A 
BRANCH  11  15
HETATM   15  N   UNL     1      -4.507   3.855 -30.177  1.00  0.00    -0.272 NA
HETATM   16  H   UNL     1      -3.838   4.602 -30.303  1.00  0.00     0.127 HD
HETATM   17  H   UNL     1      -4.071   2.947 -30.055  1.00  0.00     0.127 HD
ENDBRANCH  11  15
BRANCH  14  18
HETATM   18  N   UNL     1      -9.007   4.433 -31.091  1.00  0.00    -0.286 NA
HETATM   19  H   UNL     1      -9.199   5.419 -31.243  1.00  0.00     0.125 HD
HETATM   20  H   UNL     1      -9.704   3.875 -31.581  1.00  0.00     0.125 HD
ENDBRANCH  14  18
ENDBRANCH   6   7
ENDBRANCH   2   6
BRANCH   1  21
HETATM   21  C   UNL     1      -8.561   0.656 -33.842  1.00  0.00     0.010 A 
HETATM   22  C   UNL     1      -7.970   0.286 -35.048  1.00  0.00     0.017 A 
HETATM   23  C   UNL     1      -6.789  -0.474 -35.057  1.00  0.00     0.030 A 
HETATM   24  C   UNL     1      -6.133  -0.866 -33.874  1.00  0.00     0.029 A 
HETATM   25  C   UNL     1      -6.770  -0.500 -32.675  1.00  0.00     0.030 A 
HETATM   26  C   UNL     1      -7.950   0.254 -32.655  1.00  0.00     0.017 A 
BRANCH  24  27
HETATM   27  N   UNL     1      -4.938  -1.601 -33.893  1.00  0.00    -0.390 N 
HETATM   28  C   UNL     1      -4.095  -1.575 -32.697  1.00  0.00     0.149 C 
HETATM   29  C   UNL     1      -4.902  -2.853 -34.649  1.00  0.00     0.149 C 
ENDBRANCH  24  27
ENDBRANCH   1  21
BRANCH   3  30
HETATM   30  C   UNL     1     -11.562   4.683 -34.093  1.00  0.00    -0.007 A 
HETATM   31  C   UNL     1     -12.033   5.013 -35.372  1.00  0.00     0.014 A 
HETATM   32  C   UNL     1     -12.509   6.295 -35.648  1.00  0.00     0.001 A 
HETATM   33  C   UNL     1     -12.517   7.261 -34.644  1.00  0.00     0.000 A 
HETATM   34  C   UNL     1     -12.054   6.944 -33.368  1.00  0.00     0.001 A 
HETATM   35  C   UNL     1     -11.583   5.657 -33.090  1.00  0.00     0.014 A 
ENDBRANCH   3  30
BRANCH   4  36
HETATM   36  C   UNL     1     -13.216   1.981 -33.348  1.00  0.00    -0.005 A 
HETATM   37  C   UNL     1     -13.819   2.716 -32.315  1.00  0.00     0.014 A 
HETATM   38  C   UNL     1     -15.195   2.632 -32.086  1.00  0.00     0.001 A 
HETATM   39  C   UNL     1     -15.985   1.817 -32.892  1.00  0.00     0.000 A 
HETATM   40  C   UNL     1     -15.402   1.090 -33.927  1.00  0.00     0.001 A 
HETATM   41  C   UNL     1     -14.024   1.176 -34.158  1.00  0.00     0.014 A 
ENDBRANCH   4  36
TORSDOF 8
ENDMDL
MODEL 4
REMARK VINA RESULT:      -8.9      2.353      7.483
REMARK  8 active torsions:
REMARK  status: ('A' for Active; 'I' for Inactive)
REMARK    1  A    between atoms: N_2  and  C_3 
REMARK    2  A    between atoms: C_6  and  C_7 
REMARK    3  A    between atoms: N_8  and  C_9 
REMARK    4  A    between atoms: C_9  and  C_10 
REMARK    5  A    between atoms: C_14  and  N_15 
REMARK    6  A    between atoms: C_17  and  N_18 
REMARK    7  A    between atoms: C_19  and  C_20 
REMARK    8  A    between atoms: C_26  and  C_27 
ROOT
HETATM    1  C   UNL     1      -4.844   2.786 -32.966  1.00  0.00     0.141 A 
HETATM    2  N   UNL     1      -6.216   2.826 -32.785  1.00  0.00    -0.324 N 
HETATM    3  C   UNL     1      -6.728   1.567 -33.098  1.00  0.00     0.076 A 
HETATM    4  C   UNL     1      -5.598   0.807 -33.379  1.00  0.00     0.097 A 
HETATM    5  N   UNL     1      -4.472   1.587 -33.356  1.00  0.00    -0.227 NA
ENDROOT
BRANCH   2   6
HETATM    6  C   UNL     1      -6.965   3.972 -32.268  1.00  0.00     0.178 C 
BRANCH   6   7
HETATM    7  C   UNL     1      -6.604   4.502 -30.912  1.00  0.00     0.068 A 
HETATM    8  C   UNL     1      -6.202   5.930 -30.905  1.00  0.00     0.259 A 
HETATM    9  O   UNL     1      -6.123   6.599 -31.932  1.00  0.00    -0.267 OA
HETATM   10  N   UNL     1      -5.950   6.477 -29.689  1.00  0.00    -0.298 N 
HETATM   11  C   UNL     1      -6.091   5.773 -28.544  1.00  0.00     0.181 A 
HETATM   12  H   UNL     1      -5.738   7.460 -29.670  1.00  0.00     0.171 HD
HETATM   13  N   UNL     1      -6.430   4.529 -28.529  1.00  0.00    -0.208 NA
HETATM   14  C   UNL     1      -6.697   3.888 -29.713  1.00  0.00     0.117 A 
BRANCH  11  15
HETATM   15  N   UNL     1      -5.851   6.442 -27.389  1.00  0.00    -0.272 NA
HETATM   16  H   UNL     1      -5.620   7.423 -27.467  1.00  0.00     0.127 HD
HETATM   17  H   UNL     1      -5.222   5.932 -26.778  1.00  0.00     0.127 HD
ENDBRANCH  11  15
BRANCH  14  18
HETATM   18  N   UNL     1      -7.116   2.577 -29.600  1.00  0.00    -0.286 NA
HETATM   19  H   UNL     1      -6.358   1.917 -29.744  1.00  0.00     0.125 HD
HETATM   20  H   UNL     1      -7.493   2.461 -28.662  1.00  0.00     0.125 HD
ENDBRANCH  14  18
ENDBRANCH   6   7
ENDBRANCH   2   6
BRANCH   1  21
HETATM   21  C   UNL     1      -3.899   3.889 -32.801  1.00  0.00     0.010 A 
HETATM   22  C   UNL     1      -3.780   4.913 -33.738  1.00  0.00     0.017 A 
HETATM   23  C   UNL     1      -2.929   6.004 -33.495  1.00  0.00     0.030 A 
HETATM   24  C   UNL     1      -2.194   6.138 -32.302  1.00  0.00     0.029 A 
HETATM   25  C   UNL     1      -2.316   5.076 -31.389  1.00  0.00     0.030 A 
HETATM   26  C   UNL     1      -3.158   3.981 -31.624  1.00  0.00     0.017 A 
BRANCH  24  27
HETATM   27  N   UNL     1      -1.370   7.246 -32.054  1.00  0.00    -0.390 N 
HETATM   28  C   UNL     1      -1.999   8.485 -31.597  1.00  0.00     0.149 C 
HETATM   29  C   UNL     1      -0.022   7.009 -31.537  1.00  0.00     0.149 C 
ENDBRANCH  24  27
ENDBRANCH   1  21
BRANCH   3  30
HETATM   30  C   UNL     1      -8.148   1.231 -33.200  1.00  0.00    -0.007 A 
HETATM   31  C   UNL     1      -8.916   1.810 -34.221  1.00  0.00     0.014 A 
HETATM   32  C   UNL     1     -10.270   1.502 -34.358  1.00  0.00     0.001 A 
HETATM   33  C   UNL     1     -10.870   0.611 -33.471  1.00  0.00     0.000 A 
HETATM   34  C   UNL     1     -10.116   0.026 -32.454  1.00  0.00     0.001 A 
HETATM   35  C   UNL     1      -8.757   0.330 -32.321  1.00  0.00     0.014 A 
ENDBRANCH   3  30
BRANCH   4  36
HETATM   36  C   UNL     1      -5.513  -0.613 -33.692  1.00  0.00    -0.005 A 
HETATM   37  C   UNL     1      -6.446  -1.169 -34.580  1.00  0.00     0.014 A 
HETATM   38  C   UNL     1      -6.363  -2.513 -34.957  1.00  0.00     0.001 A 
HETATM   39  C   UNL     1      -5.341  -3.313 -34.454  1.00  0.00     0.000 A 
HETATM   40  C   UNL     1      -4.403  -2.772 -33.579  1.00  0.00     0.001 A 
HETATM   41  C   UNL     1      -4.484  -1.426 -33.203  1.00  0.00     0.014 A 
ENDBRANCH   4  36
TORSDOF 8
ENDMDL
MODEL 5
REMARK VINA RESULT:      -8.7      2.238      6.862
REMARK  8 active torsions:
REMARK  status: ('A' for Active; 'I' for Inactive)
REMARK    1  A    between atoms: N_2  and  C_3 
REMARK    2  A    between atoms: C_6  and  C_7 
REMARK    3  A    between atoms: N_8  and  C_9 
REMARK    4  A    between atoms: C_9  and  C_10 
REMARK    5  A    between atoms: C_14  and  N_15 
REMARK    6  A    between atoms: C_17  and  N_18 
REMARK    7  A    between atoms: C_19  and  C_20 
REMARK    8  A    between atoms: C_26  and  C_27 
ROOT
HETATM    1  C   UNL     1      -4.751   2.530 -32.443  1.00  0.00     0.141 A 
HETATM    2  N   UNL     1      -6.131   2.550 -32.319  1.00  0.00    -0.324 N 
HETATM    3  C   UNL     1      -6.621   1.329 -32.780  1.00  0.00     0.076 A 
HETATM    4  C   UNL     1      -5.476   0.603 -33.087  1.00  0.00     0.097 A 
HETATM    5  N   UNL     1      -4.356   1.377 -32.936  1.00  0.00    -0.227 NA
ENDROOT
BRANCH   2   6
HETATM    6  C   UNL     1      -6.908   3.637 -31.720  1.00  0.00     0.178 C 
BRANCH   6   7
HETATM    7  C   UNL     1      -7.921   4.339 -32.575  1.00  0.00     0.068 A 
HETATM    8  C   UNL     1      -9.310   4.254 -32.063  1.00  0.00     0.259 A 
HETATM    9  O   UNL     1      -9.605   3.618 -31.055  1.00  0.00    -0.267 OA
HETATM   10  N   UNL     1     -10.249   4.947 -32.756  1.00  0.00    -0.298 N 
HETATM   11  C   UNL     1      -9.933   5.701 -33.832  1.00  0.00     0.181 A 
HETATM   12  H   UNL     1     -11.182   4.946 -32.381  1.00  0.00     0.171 HD
HETATM   13  N   UNL     1      -8.733   5.781 -34.299  1.00  0.00    -0.208 NA
HETATM   14  C   UNL     1      -7.718   5.106 -33.667  1.00  0.00     0.117 A 
BRANCH  11  15
HETATM   15  N   UNL     1     -10.952   6.381 -34.415  1.00  0.00    -0.272 NA
HETATM   16  H   UNL     1     -11.512   5.878 -35.089  1.00  0.00     0.127 HD
HETATM   17  H   UNL     1     -10.660   7.296 -34.743  1.00  0.00     0.127 HD
ENDBRANCH  11  15
BRANCH  14  18
HETATM   18  N   UNL     1      -6.457   5.299 -34.194  1.00  0.00    -0.286 NA
HETATM   19  H   UNL     1      -6.483   5.766 -35.096  1.00  0.00     0.125 HD
HETATM   20  H   UNL     1      -5.938   5.871 -33.531  1.00  0.00     0.125 HD
ENDBRANCH  14  18
ENDBRANCH   6   7
ENDBRANCH   2   6
BRANCH   1  21
HETATM   21  C   UNL     1      -3.821   3.612 -32.125  1.00  0.00     0.010 A 
HETATM   22  C   UNL     1      -2.644   3.815 -32.842  1.00  0.00     0.017 A 
HETATM   23  C   UNL     1      -1.826   4.923 -32.567  1.00  0.00     0.030 A 
HETATM   24  C   UNL     1      -2.161   5.887 -31.597  1.00  0.00     0.029 A 
HETATM   25  C   UNL     1      -3.340   5.640 -30.874  1.00  0.00     0.030 A 
HETATM   26  C   UNL     1      -4.161   4.535 -31.137  1.00  0.00     0.017 A 
BRANCH  24  27
HETATM   27  N   UNL     1      -1.352   7.007 -31.349  1.00  0.00    -0.390 N 
HETATM   28  C   UNL     1      -1.747   8.286 -31.939  1.00  0.00     0.149 C 
HETATM   29  C   UNL     1      -0.675   7.104 -30.056  1.00  0.00     0.149 C 
ENDBRANCH  24  27
ENDBRANCH   1  21
BRANCH   3  30
HETATM   30  C   UNL     1      -8.034   1.003 -32.977  1.00  0.00    -0.007 A 
HETATM   31  C   UNL     1      -8.683   1.452 -34.137  1.00  0.00     0.014 A 
HETATM   32  C   UNL     1     -10.026   1.148 -34.366  1.00  0.00     0.001 A 
HETATM   33  C   UNL     1     -10.733   0.393 -33.433  1.00  0.00     0.000 A 
HETATM   34  C   UNL     1     -10.097  -0.061 -32.278  1.00  0.00     0.001 A 
HETATM   35  C   UNL     1      -8.750   0.238 -32.052  1.00  0.00     0.014 A 
ENDBRANCH   3  30
BRANCH   4  36
HETATM   36  C   UNL     1      -5.370  -0.778 -33.539  1.00  0.00    -0.005 A 
HETATM   37  C   UNL     1      -6.349  -1.286 -34.406  1.00  0.00     0.014 A 
HETATM   38  C   UNL     1      -6.252  -2.584 -34.914  1.00  0.00     0.001 A 
HETATM   39  C   UNL     1      -5.170  -3.387 -34.565  1.00  0.00     0.000 A 
HETATM   40  C   UNL     1      -4.185  -2.893 -33.713  1.00  0.00     0.001 A 
HETATM   41  C   UNL     1      -4.281  -1.592 -33.206  1.00  0.00     0.014 A 
ENDBRANCH   4  36
TORSDOF 8
ENDMDL
MODEL 6
REMARK VINA RESULT:      -8.7      1.298      1.889
REMARK  8 active torsions:
REMARK  status: ('A' for Active; 'I' for Inactive)
REMARK    1  A    between atoms: N_2  and  C_3 
REMARK    2  A    between atoms: C_6  and  C_7 
REMARK    3  A    between atoms: N_8  and  C_9 
REMARK    4  A    between atoms: C_9  and  C_10 
REMARK    5  A    between atoms: C_14  and  N_15 
REMARK    6  A    between atoms: C_17  and  N_18 
REMARK    7  A    between atoms: C_19  and  C_20 
REMARK    8  A    between atoms: C_26  and  C_27 
ROOT
HETATM    1  C   UNL     1      -4.452   1.365 -32.461  1.00  0.00     0.141 A 
HETATM    2  N   UNL     1      -5.398   2.160 -31.836  1.00  0.00    -0.324 N 
HETATM    3  C   UNL     1      -4.845   3.427 -31.657  1.00  0.00     0.076 A 
HETATM    4  C   UNL     1      -3.601   3.338 -32.269  1.00  0.00     0.097 A 
HETATM    5  N   UNL     1      -3.358   2.058 -32.691  1.00  0.00    -0.227 NA
ENDROOT
BRANCH   2   6
HETATM    6  C   UNL     1      -6.765   1.746 -31.513  1.00  0.00     0.178 C 
BRANCH   6   7
HETATM    7  C   UNL     1      -7.900   2.470 -32.175  1.00  0.00     0.068 A 
HETATM    8  C   UNL     1      -8.790   3.192 -31.234  1.00  0.00     0.259 A 
HETATM    9  O   UNL     1      -8.635   3.154 -30.016  1.00  0.00    -0.267 OA
HETATM   10  N   UNL     1      -9.780   3.933 -31.793  1.00  0.00    -0.298 N 
HETATM   11  C   UNL     1      -9.928   4.036 -33.133  1.00  0.00     0.181 A 
HETATM   12  H   UNL     1     -10.349   4.476 -31.166  1.00  0.00     0.171 HD
HETATM   13  N   UNL     1      -9.172   3.408 -33.967  1.00  0.00    -0.208 NA
HETATM   14  C   UNL     1      -8.147   2.627 -33.493  1.00  0.00     0.117 A 
BRANCH  11  15
HETATM   15  N   UNL     1     -10.929   4.840 -33.571  1.00  0.00    -0.272 NA
HETATM   16  H   UNL     1     -11.631   5.107 -32.895  1.00  0.00     0.127 HD
HETATM   17  H   UNL     1     -11.323   4.513 -34.447  1.00  0.00     0.127 HD
ENDBRANCH  11  15
BRANCH  14  18
HETATM   18  N   UNL     1      -7.347   2.044 -34.455  1.00  0.00    -0.286 NA
HETATM   19  H   UNL     1      -6.738   2.718 -34.910  1.00  0.00     0.125 HD
HETATM   20  H   UNL     1      -6.782   1.337 -33.990  1.00  0.00     0.125 HD
ENDBRANCH  14  18
ENDBRANCH   6   7
ENDBRANCH   2   6
BRANCH   1  21
HETATM   21  C   UNL     1      -4.575  -0.050 -32.805  1.00  0.00     0.010 A 
HETATM   22  C   UNL     1      -5.452  -0.503 -33.788  1.00  0.00     0.017 A 
HETATM   23  C   UNL     1      -5.470  -1.858 -34.156  1.00  0.00     0.030 A 
HETATM   24  C   UNL     1      -4.597  -2.806 -33.589  1.00  0.00     0.029 A 
HETATM   25  C   UNL     1      -3.744  -2.324 -32.582  1.00  0.00     0.030 A 
HETATM   26  C   UNL     1      -3.721  -0.975 -32.204  1.00  0.00     0.017 A 
BRANCH  24  27
HETATM   27  N   UNL     1      -4.602  -4.153 -33.984  1.00  0.00    -0.390 N 
HETATM   28  C   UNL     1      -5.532  -4.559 -35.038  1.00  0.00     0.149 C 
HETATM   29  C   UNL     1      -3.339  -4.892 -33.954  1.00  0.00     0.149 C 
ENDBRANCH  24  27
ENDBRANCH   1  21
BRANCH   3  30
HETATM   30  C   UNL     1      -5.451   4.514 -30.888  1.00  0.00    -0.007 A 
HETATM   31  C   UNL     1      -6.025   5.597 -31.570  1.00  0.00     0.014 A 
HETATM   32  C   UNL     1      -6.624   6.645 -30.871  1.00  0.00     0.001 A 
HETATM   33  C   UNL     1      -6.654   6.620 -29.478  1.00  0.00     0.000 A 
HETATM   34  C   UNL     1      -6.090   5.547 -28.789  1.00  0.00     0.001 A 
HETATM   35  C   UNL     1      -5.495   4.494 -29.490  1.00  0.00     0.014 A 
ENDBRANCH   3  30
BRANCH   4  36
HETATM   36  C   UNL     1      -2.607   4.385 -32.463  1.00  0.00    -0.005 A 
HETATM   37  C   UNL     1      -2.545   5.042 -33.702  1.00  0.00     0.014 A 
HETATM   38  C   UNL     1      -1.650   6.094 -33.911  1.00  0.00     0.001 A 
HETATM   39  C   UNL     1      -0.811   6.507 -32.880  1.00  0.00     0.000 A 
HETATM   40  C   UNL     1      -0.867   5.871 -31.642  1.00  0.00     0.001 A 
HETATM   41  C   UNL     1      -1.765   4.819 -31.432  1.00  0.00     0.014 A 
ENDBRANCH   4  36
TORSDOF 8
ENDMDL
MODEL 7
REMARK VINA RESULT:      -8.6      2.978      6.487
REMARK  8 active torsions:
REMARK  status: ('A' for Active; 'I' for Inactive)
REMARK    1  A    between atoms: N_2  and  C_3 
REMARK    2  A    between atoms: C_6  and  C_7 
REMARK    3  A    between atoms: N_8  and  C_9 
REMARK    4  A    between atoms: C_9  and  C_10 
REMARK    5  A    between atoms: C_14  and  N_15 
REMARK    6  A    between atoms: C_17  and  N_18 
REMARK    7  A    between atoms: C_19  and  C_20 
REMARK    8  A    between atoms: C_26  and  C_27 
ROOT
HETATM    1  C   UNL     1      -8.008   4.793 -33.482  1.00  0.00     0.141 A 
HETATM    2  N   UNL     1      -7.902   3.575 -32.831  1.00  0.00    -0.324 N 
HETATM    3  C   UNL     1      -6.561   3.193 -32.848  1.00  0.00     0.076 A 
HETATM    4  C   UNL     1      -5.915   4.266 -33.452  1.00  0.00     0.097 A 
HETATM    5  N   UNL     1      -6.823   5.195 -33.887  1.00  0.00    -0.227 NA
ENDROOT
BRANCH   2   6
HETATM    6  C   UNL     1      -9.004   2.875 -32.170  1.00  0.00     0.178 C 
BRANCH   6   7
HETATM    7  C   UNL     1     -10.205   2.507 -32.990  1.00  0.00     0.068 A 
HETATM    8  C   UNL     1     -11.469   3.134 -32.531  1.00  0.00     0.259 A 
HETATM    9  O   UNL     1     -11.528   3.848 -31.534  1.00  0.00    -0.267 OA
HETATM   10  N   UNL     1     -12.567   2.900 -33.293  1.00  0.00    -0.298 N 
HETATM   11  C   UNL     1     -12.508   2.167 -34.428  1.00  0.00     0.181 A 
HETATM   12  H   UNL     1     -13.414   3.371 -33.025  1.00  0.00     0.171 HD
HETATM   13  N   UNL     1     -11.422   1.606 -34.839  1.00  0.00    -0.208 NA
HETATM   14  C   UNL     1     -10.261   1.780 -34.126  1.00  0.00     0.117 A 
BRANCH  11  15
HETATM   15  N   UNL     1     -13.663   2.040 -35.126  1.00  0.00    -0.272 NA
HETATM   16  H   UNL     1     -13.773   1.204 -35.684  1.00  0.00     0.127 HD
HETATM   17  H   UNL     1     -13.898   2.888 -35.631  1.00  0.00     0.127 HD
ENDBRANCH  11  15
BRANCH  14  18
HETATM   18  N   UNL     1      -9.134   1.200 -34.672  1.00  0.00    -0.286 NA
HETATM   19  H   UNL     1      -9.298   0.242 -34.968  1.00  0.00     0.125 HD
HETATM   20  H   UNL     1      -8.866   1.761 -35.477  1.00  0.00     0.125 HD
ENDBRANCH  14  18
ENDBRANCH   6   7
ENDBRANCH   2   6
BRANCH   1  21
HETATM   21  C   UNL     1      -9.229   5.551 -33.744  1.00  0.00     0.010 A 
HETATM   22  C   UNL     1      -9.721   6.502 -32.852  1.00  0.00     0.017 A 
HETATM   23  C   UNL     1     -10.843   7.277 -33.187  1.00  0.00     0.030 A 
HETATM   24  C   UNL     1     -11.499   7.162 -34.427  1.00  0.00     0.029 A 
HETATM   25  C   UNL     1     -10.995   6.176 -35.293  1.00  0.00     0.030 A 
HETATM   26  C   UNL     1      -9.879   5.394 -34.968  1.00  0.00     0.017 A 
BRANCH  24  27
HETATM   27  N   UNL     1     -12.602   7.961 -34.764  1.00  0.00    -0.390 N 
HETATM   28  C   UNL     1     -12.739   8.396 -36.155  1.00  0.00     0.149 C 
HETATM   29  C   UNL     1     -13.864   7.739 -34.058  1.00  0.00     0.149 C 
ENDBRANCH  24  27
ENDBRANCH   1  21
BRANCH   3  30
HETATM   30  C   UNL     1      -6.045   1.895 -32.416  1.00  0.00    -0.007 A 
HETATM   31  C   UNL     1      -5.835   0.890 -33.372  1.00  0.00     0.014 A 
HETATM   32  C   UNL     1      -5.330  -0.356 -32.999  1.00  0.00     0.001 A 
HETATM   33  C   UNL     1      -5.031  -0.609 -31.662  1.00  0.00     0.000 A 
HETATM   34  C   UNL     1      -5.232   0.383 -30.703  1.00  0.00     0.001 A 
HETATM   35  C   UNL     1      -5.732   1.634 -31.078  1.00  0.00     0.014 A 
ENDBRANCH   3  30
BRANCH   4  36
HETATM   36  C   UNL     1      -4.489   4.463 -33.668  1.00  0.00    -0.005 A 
HETATM   37  C   UNL     1      -4.060   5.075 -34.856  1.00  0.00     0.014 A 
HETATM   38  C   UNL     1      -2.706   5.341 -35.077  1.00  0.00     0.001 A 
HETATM   39  C   UNL     1      -1.765   5.002 -34.108  1.00  0.00     0.000 A 
HETATM   40  C   UNL     1      -2.177   4.402 -32.920  1.00  0.00     0.001 A 
HETATM   41  C   UNL     1      -3.533   4.139 -32.698  1.00  0.00     0.014 A 
ENDBRANCH   4  36
TORSDOF 8
ENDMDL
MODEL 8
REMARK VINA RESULT:      -8.6      3.494      7.152
REMARK  8 active torsions:
REMARK  status: ('A' for Active; 'I' for Inactive)
REMARK    1  A    between atoms: N_2  and  C_3 
REMARK    2  A    between atoms: C_6  and  C_7 
REMARK    3  A    between atoms: N_8  and  C_9 
REMARK    4  A    between atoms: C_9  and  C_10 
REMARK    5  A    between atoms: C_14  and  N_15 
REMARK    6  A    between atoms: C_17  and  N_18 
REMARK    7  A    between atoms: C_19  and  C_20 
REMARK    8  A    between atoms: C_26  and  C_27 
ROOT
HETATM    1  C   UNL     1      -8.515   4.751 -33.997  1.00  0.00     0.141 A 
HETATM    2  N   UNL     1      -8.563   3.376 -33.841  1.00  0.00    -0.324 N 
HETATM    3  C   UNL     1      -7.253   2.899 -33.825  1.00  0.00     0.076 A 
HETATM    4  C   UNL     1      -6.477   4.049 -33.895  1.00  0.00     0.097 A 
HETATM    5  N   UNL     1      -7.265   5.157 -34.065  1.00  0.00    -0.227 NA
ENDROOT
BRANCH   2   6
HETATM    6  C   UNL     1      -9.784   2.594 -33.638  1.00  0.00     0.178 C 
BRANCH   6   7
HETATM    7  C   UNL     1     -10.779   3.081 -32.627  1.00  0.00     0.068 A 
HETATM    8  C   UNL     1     -10.234   3.220 -31.255  1.00  0.00     0.259 A 
HETATM    9  O   UNL     1      -9.080   2.910 -30.969  1.00  0.00    -0.267 OA
HETATM   10  N   UNL     1     -11.073   3.740 -30.324  1.00  0.00    -0.298 N 
HETATM   11  C   UNL     1     -12.325   4.144 -30.635  1.00  0.00     0.181 A 
HETATM   12  H   UNL     1     -10.692   3.896 -29.407  1.00  0.00     0.171 HD
HETATM   13  N   UNL     1     -12.822   4.024 -31.820  1.00  0.00    -0.208 NA
HETATM   14  C   UNL     1     -12.048   3.499 -32.825  1.00  0.00     0.117 A 
BRANCH  11  15
HETATM   15  N   UNL     1     -13.053   4.687 -29.628  1.00  0.00    -0.272 NA
HETATM   16  H   UNL     1     -12.999   5.689 -29.512  1.00  0.00     0.127 HD
HETATM   17  H   UNL     1     -12.936   4.178 -28.758  1.00  0.00     0.127 HD
ENDBRANCH  11  15
BRANCH  14  18
HETATM   18  N   UNL     1     -12.635   3.467 -34.074  1.00  0.00    -0.286 NA
HETATM   19  H   UNL     1     -13.034   4.364 -34.336  1.00  0.00     0.125 HD
HETATM   20  H   UNL     1     -11.911   3.210 -34.741  1.00  0.00     0.125 HD
ENDBRANCH  14  18
ENDBRANCH   6   7
ENDBRANCH   2   6
BRANCH   1  21
HETATM   21  C   UNL     1      -9.648   5.667 -34.113  1.00  0.00     0.010 A 
HETATM   22  C   UNL     1     -10.037   6.505 -33.070  1.00  0.00     0.017 A 
HETATM   23  C   UNL     1     -11.069   7.439 -33.256  1.00  0.00     0.030 A 
HETATM   24  C   UNL     1     -11.730   7.600 -34.488  1.00  0.00     0.029 A 
HETATM   25  C   UNL     1     -11.333   6.723 -35.512  1.00  0.00     0.030 A 
HETATM   26  C   UNL     1     -10.307   5.784 -35.336  1.00  0.00     0.017 A 
BRANCH  24  27
HETATM   27  N   UNL     1     -12.740   8.556 -34.673  1.00  0.00    -0.390 N 
HETATM   28  C   UNL     1     -12.786   9.696 -33.757  1.00  0.00     0.149 C 
HETATM   29  C   UNL     1     -13.191   8.839 -36.036  1.00  0.00     0.149 C 
ENDBRANCH  24  27
ENDBRANCH   1  21
BRANCH   3  30
HETATM   30  C   UNL     1      -6.866   1.488 -33.846  1.00  0.00    -0.007 A 
HETATM   31  C   UNL     1      -6.421   0.883 -32.661  1.00  0.00     0.014 A 
HETATM   32  C   UNL     1      -6.058  -0.463 -32.639  1.00  0.00     0.001 A 
HETATM   33  C   UNL     1      -6.133  -1.219 -33.807  1.00  0.00     0.000 A 
HETATM   34  C   UNL     1      -6.576  -0.630 -34.991  1.00  0.00     0.001 A 
HETATM   35  C   UNL     1      -6.947   0.718 -35.011  1.00  0.00     0.014 A 
ENDBRANCH   3  30
BRANCH   4  36
HETATM   36  C   UNL     1      -5.027   4.172 -33.835  1.00  0.00    -0.005 A 
HETATM   37  C   UNL     1      -4.368   4.928 -34.817  1.00  0.00     0.014 A 
HETATM   38  C   UNL     1      -2.986   5.124 -34.762  1.00  0.00     0.001 A 
HETATM   39  C   UNL     1      -2.247   4.571 -33.720  1.00  0.00     0.000 A 
HETATM   40  C   UNL     1      -2.888   3.826 -32.733  1.00  0.00     0.001 A 
HETATM   41  C   UNL     1      -4.273   3.632 -32.787  1.00  0.00     0.014 A 
ENDBRANCH   4  36
TORSDOF 8
ENDMDL
MODEL 9
REMARK VINA RESULT:      -8.5      1.758      2.447
REMARK  8 active torsions:
REMARK  status: ('A' for Active; 'I' for Inactive)
REMARK    1  A    between atoms: N_2  and  C_3 
REMARK    2  A    between atoms: C_6  and  C_7 
REMARK    3  A    between atoms: N_8  and  C_9 
REMARK    4  A    between atoms: C_9  and  C_10 
REMARK    5  A    between atoms: C_14  and  N_15 
REMARK    6  A    between atoms: C_17  and  N_18 
REMARK    7  A    between atoms: C_19  and  C_20 
REMARK    8  A    between atoms: C_26  and  C_27 
ROOT
HETATM    1  C   UNL     1      -4.898   1.401 -33.150  1.00  0.00     0.141 A 
HETATM    2  N   UNL     1      -5.864   2.381 -32.991  1.00  0.00    -0.324 N 
HETATM    3  C   UNL     1      -5.226   3.554 -32.593  1.00  0.00     0.076 A 
HETATM    4  C   UNL     1      -3.876   3.224 -32.613  1.00  0.00     0.097 A 
HETATM    5  N   UNL     1      -3.706   1.893 -32.890  1.00  0.00    -0.227 NA
ENDROOT
BRANCH   2   6
HETATM    6  C   UNL     1      -7.289   2.215 -33.284  1.00  0.00     0.178 C 
BRANCH   6   7
HETATM    7  C   UNL     1      -8.284   2.763 -32.304  1.00  0.00     0.068 A 
HETATM    8  C   UNL     1      -9.265   3.704 -32.898  1.00  0.00     0.259 A 
HETATM    9  O   UNL     1      -9.228   4.040 -34.078  1.00  0.00    -0.267 OA
HETATM   10  N   UNL     1     -10.238   4.159 -32.068  1.00  0.00    -0.298 N 
HETATM   11  C   UNL     1     -10.331   3.751 -30.783  1.00  0.00     0.181 A 
HETATM   12  H   UNL     1     -10.944   4.747 -32.477  1.00  0.00     0.171 HD
HETATM   13  N   UNL     1      -9.483   2.942 -30.245  1.00  0.00    -0.208 NA
HETATM   14  C   UNL     1      -8.458   2.436 -31.006  1.00  0.00     0.117 A 
BRANCH  11  15
HETATM   15  N   UNL     1     -11.372   4.244 -30.066  1.00  0.00    -0.272 NA
HETATM   16  H   UNL     1     -11.859   5.041 -30.453  1.00  0.00     0.127 HD
HETATM   17  H   UNL     1     -11.139   4.357 -29.085  1.00  0.00     0.127 HD
ENDBRANCH  11  15
BRANCH  14  18
HETATM   18  N   UNL     1      -7.636   1.528 -30.370  1.00  0.00    -0.286 NA
HETATM   19  H   UNL     1      -7.629   1.654 -29.362  1.00  0.00     0.125 HD
HETATM   20  H   UNL     1      -7.986   0.598 -30.592  1.00  0.00     0.125 HD
ENDBRANCH  14  18
ENDBRANCH   6   7
ENDBRANCH   2   6
BRANCH   1  21
HETATM   21  C   UNL     1      -5.111   0.002 -33.514  1.00  0.00     0.010 A 
HETATM   22  C   UNL     1      -6.160  -0.401 -34.338  1.00  0.00     0.017 A 
HETATM   23  C   UNL     1      -6.271  -1.742 -34.742  1.00  0.00     0.030 A 
HETATM   24  C   UNL     1      -5.332  -2.723 -34.373  1.00  0.00     0.029 A 
HETATM   25  C   UNL     1      -4.302  -2.290 -33.520  1.00  0.00     0.030 A 
HETATM   26  C   UNL     1      -4.183  -0.956 -33.107  1.00  0.00     0.017 A 
BRANCH  24  27
HETATM   27  N   UNL     1      -5.435  -4.054 -34.804  1.00  0.00    -0.390 N 
HETATM   28  C   UNL     1      -4.586  -5.056 -34.159  1.00  0.00     0.149 C 
HETATM   29  C   UNL     1      -6.741  -4.543 -35.248  1.00  0.00     0.149 C 
ENDBRANCH  24  27
ENDBRANCH   1  21
BRANCH   3  30
HETATM   30  C   UNL     1      -5.898   4.779 -32.157  1.00  0.00    -0.007 A 
HETATM   31  C   UNL     1      -6.293   5.721 -33.119  1.00  0.00     0.014 A 
HETATM   32  C   UNL     1      -6.949   6.893 -32.742  1.00  0.00     0.001 A 
HETATM   33  C   UNL     1      -7.215   7.135 -31.396  1.00  0.00     0.000 A 
HETATM   34  C   UNL     1      -6.830   6.204 -30.431  1.00  0.00     0.001 A 
HETATM   35  C   UNL     1      -6.179   5.026 -30.810  1.00  0.00     0.014 A 
ENDBRANCH   3  30
BRANCH   4  36
HETATM   36  C   UNL     1      -2.726   4.083 -32.363  1.00  0.00    -0.005 A 
HETATM   37  C   UNL     1      -2.175   4.807 -33.431  1.00  0.00     0.014 A 
HETATM   38  C   UNL     1      -1.112   5.690 -33.225  1.00  0.00     0.001 A 
HETATM   39  C   UNL     1      -0.592   5.864 -31.945  1.00  0.00     0.000 A 
HETATM   40  C   UNL     1      -1.135   5.159 -30.874  1.00  0.00     0.001 A 
HETATM   41  C   UNL     1      -2.201   4.276 -31.080  1.00  0.00     0.014 A 
ENDBRANCH   4  36
TORSDOF 8
ENDMDL
MODEL 10
REMARK VINA RESULT:      -8.5      3.102      6.604
REMARK  8 active torsions:
REMARK  status: ('A' for Active; 'I' for Inactive)
REMARK    1  A    between atoms: N_2  and  C_3 
REMARK    2  A    between atoms: C_6  and  C_7 
REMARK    3  A    between atoms: N_8  and  C_9 
REMARK    4  A    between atoms: C_9  and  C_10 
REMARK    5  A    between atoms: C_14  and  N_15 
REMARK    6  A    between atoms: C_17  and  N_18 
REMARK    7  A    between atoms: C_19  and  C_20 
REMARK    8  A    between atoms: C_26  and  C_27 
ROOT
HETATM    1  C   UNL     1      -8.056   4.929 -33.464  1.00  0.00     0.141 A 
HETATM    2  N   UNL     1      -7.989   3.697 -32.834  1.00  0.00    -0.324 N 
HETATM    3  C   UNL     1      -6.664   3.265 -32.875  1.00  0.00     0.076 A 
HETATM    4  C   UNL     1      -5.985   4.322 -33.469  1.00  0.00     0.097 A 
HETATM    5  N   UNL     1      -6.861   5.292 -33.878  1.00  0.00    -0.227 NA
ENDROOT
BRANCH   2   6
HETATM    6  C   UNL     1      -9.109   3.029 -32.170  1.00  0.00     0.178 C 
BRANCH   6   7
HETATM    7  C   UNL     1     -10.279   2.603 -33.007  1.00  0.00     0.068 A 
HETATM    8  C   UNL     1     -11.571   3.201 -32.593  1.00  0.00     0.259 A 
HETATM    9  O   UNL     1     -11.675   3.939 -31.616  1.00  0.00    -0.267 OA
HETATM   10  N   UNL     1     -12.643   2.914 -33.374  1.00  0.00    -0.298 N 
HETATM   11  C   UNL     1     -12.536   2.154 -34.487  1.00  0.00     0.181 A 
HETATM   12  H   UNL     1     -13.511   3.365 -33.137  1.00  0.00     0.171 HD
HETATM   13  N   UNL     1     -11.424   1.618 -34.859  1.00  0.00    -0.208 NA
HETATM   14  C   UNL     1     -10.286   1.846 -34.125  1.00  0.00     0.117 A 
BRANCH  11  15
HETATM   15  N   UNL     1     -13.670   1.974 -35.208  1.00  0.00    -0.272 NA
HETATM   16  H   UNL     1     -14.528   1.850 -34.689  1.00  0.00     0.127 HD
HETATM   17  H   UNL     1     -13.547   1.285 -35.944  1.00  0.00     0.127 HD
ENDBRANCH  11  15
BRANCH  14  18
HETATM   18  N   UNL     1      -9.129   1.287 -34.630  1.00  0.00    -0.286 NA
HETATM   19  H   UNL     1      -8.654   0.702 -33.949  1.00  0.00     0.125 HD
HETATM   20  H   UNL     1      -9.394   0.723 -35.435  1.00  0.00     0.125 HD
ENDBRANCH  14  18
ENDBRANCH   6   7
ENDBRANCH   2   6
BRANCH   1  21
HETATM   21  C   UNL     1      -9.250   5.738 -33.698  1.00  0.00     0.010 A 
HETATM   22  C   UNL     1      -9.737   6.636 -32.751  1.00  0.00     0.017 A 
HETATM   23  C   UNL     1     -10.831   7.464 -33.054  1.00  0.00     0.030 A 
HETATM   24  C   UNL     1     -11.460   7.456 -34.313  1.00  0.00     0.029 A 
HETATM   25  C   UNL     1     -10.962   6.520 -35.236  1.00  0.00     0.030 A 
HETATM   26  C   UNL     1      -9.874   5.686 -34.943  1.00  0.00     0.017 A 
BRANCH  24  27
HETATM   27  N   UNL     1     -12.533   8.307 -34.616  1.00  0.00    -0.390 N 
HETATM   28  C   UNL     1     -13.177   9.023 -33.515  1.00  0.00     0.149 C 
HETATM   29  C   UNL     1     -12.517   9.022 -35.893  1.00  0.00     0.149 C 
ENDBRANCH  24  27
ENDBRANCH   1  21
BRANCH   3  30
HETATM   30  C   UNL     1      -6.193   1.940 -32.470  1.00  0.00    -0.007 A 
HETATM   31  C   UNL     1      -6.111   1.631 -31.104  1.00  0.00     0.014 A 
HETATM   32  C   UNL     1      -5.680   0.373 -30.681  1.00  0.00     0.001 A 
HETATM   33  C   UNL     1      -5.324  -0.589 -31.623  1.00  0.00     0.000 A 
HETATM   34  C   UNL     1      -5.404  -0.295 -32.984  1.00  0.00     0.001 A 
HETATM   35  C   UNL     1      -5.842   0.964 -33.408  1.00  0.00     0.014 A 
ENDBRANCH   3  30
BRANCH   4  36
HETATM   36  C   UNL     1      -4.554   4.467 -33.701  1.00  0.00    -0.005 A 
HETATM   37  C   UNL     1      -4.117   5.092 -34.879  1.00  0.00     0.014 A 
HETATM   38  C   UNL     1      -2.757   5.309 -35.113  1.00  0.00     0.001 A 
HETATM   39  C   UNL     1      -1.818   4.909 -34.166  1.00  0.00     0.000 A 
HETATM   40  C   UNL     1      -2.237   4.297 -32.987  1.00  0.00     0.001 A 
HETATM   41  C   UNL     1      -3.600   4.082 -32.753  1.00  0.00     0.014 A 
ENDBRANCH   4  36
TORSDOF 8
ENDMDL
