MODEL 1
REMARK VINA RESULT:      -8.3      0.000      0.000
REMARK  4 active torsions:
REMARK  status: ('A' for Active; 'I' for Inactive)
REMARK    1  A    between atoms: C_3  and  N_4 
REMARK       I    between atoms: N_4  and  C_5 
REMARK    2  A    between atoms: C_5  and  C_6 
REMARK    3  A    between atoms: C_7  and  C_8 
REMARK    4  A    between atoms: C_16  and  C_17 
ROOT
HETATM    1  C   UNL     1      -9.730   3.326 -33.848  1.00  0.00     0.003 A 
HETATM    2  C   UNL     1      -8.692   2.441 -33.552  1.00  0.00     0.029 A 
HETATM    3  C   UNL     1      -8.949   1.079 -33.413  1.00  0.00     0.035 A 
HETATM    4  C   UNL     1     -10.266   0.615 -33.562  1.00  0.00     0.042 A 
HETATM    5  C   UNL     1     -11.325   1.492 -33.853  1.00  0.00    -0.021 A 
HETATM    6  C   UNL     1     -11.036   2.855 -34.000  1.00  0.00     0.012 A 
ENDROOT
BRANCH   3   7
HETATM    7  N   UNL     1      -7.951   0.114 -33.161  1.00  0.00    -0.327 N 
HETATM    8  C   UNL     1      -6.746   0.305 -32.517  1.00  0.00     0.227 C 
HETATM    9  O   UNL     1      -6.367   1.312 -31.937  1.00  0.00    -0.273 OA
HETATM   10  H   UNL     1      -8.131  -0.814 -33.520  1.00  0.00     0.169 HD
BRANCH   8  11
HETATM   11  C   UNL     1      -5.841  -0.880 -32.607  1.00  0.00     0.089 A 
HETATM   12  C   UNL     1      -5.364  -1.285 -33.998  1.00  0.00     0.057 A 
HETATM   13  C   UNL     1      -4.395  -0.753 -32.967  1.00  0.00     0.027 A 
BRANCH  12  14
HETATM   14  C   UNL     1      -5.387  -2.765 -34.316  1.00  0.00     0.057 A 
HETATM   15  O   UNL     1      -4.372  -3.635 -34.050  1.00  0.00    -0.327 OA
HETATM   16  C   UNL     1      -4.787  -4.862 -34.456  1.00  0.00     0.142 A 
HETATM   17  C   UNL     1      -6.057  -4.793 -34.977  1.00  0.00     0.027 A 
HETATM   18  C   UNL     1      -6.446  -3.435 -34.890  1.00  0.00     0.035 A 
ENDBRANCH  12  14
ENDBRANCH   8  11
ENDBRANCH   3   7
BRANCH   5  19
HETATM   19  C   UNL     1     -12.682   0.981 -34.003  1.00  0.00     0.010 A 
HETATM   20  C   UNL     1     -13.837   1.567 -34.576  1.00  0.00     0.152 A 
HETATM   21  N   UNL     1     -14.906   0.766 -34.536  1.00  0.00    -0.187 NA
HETATM   22  N   UNL     1     -14.444  -0.339 -33.936  1.00  0.00    -0.289 N 
HETATM   23  H   UNL     1     -15.086  -1.112 -33.789  1.00  0.00     0.188 HD
HETATM   24  C   UNL     1     -13.122  -0.264 -33.601  1.00  0.00     0.123 A 
ENDBRANCH   5  19
TORSDOF 4
ENDMDL
MODEL 2
REMARK VINA RESULT:      -8.3      2.846      7.884
REMARK  4 active torsions:
REMARK  status: ('A' for Active; 'I' for Inactive)
REMARK    1  A    between atoms: C_3  and  N_4 
REMARK       I    between atoms: N_4  and  C_5 
REMARK    2  A    between atoms: C_5  and  C_6 
REMARK    3  A    between atoms: C_7  and  C_8 
REMARK    4  A    between atoms: C_16  and  C_17 
ROOT
HETATM    1  C   UNL     1      -4.840   0.278 -33.063  1.00  0.00     0.003 A 
HETATM    2  C   UNL     1      -6.061   0.891 -33.351  1.00  0.00     0.029 A 
HETATM    3  C   UNL     1      -7.081   0.169 -33.968  1.00  0.00     0.035 A 
HETATM    4  C   UNL     1      -6.857  -1.175 -34.305  1.00  0.00     0.042 A 
HETATM    5  C   UNL     1      -5.631  -1.807 -34.030  1.00  0.00    -0.021 A 
HETATM    6  C   UNL     1      -4.629  -1.061 -33.397  1.00  0.00     0.012 A 
ENDROOT
BRANCH   3   7
HETATM    7  N   UNL     1      -8.357   0.700 -34.249  1.00  0.00    -0.327 N 
HETATM    8  C   UNL     1      -9.508   0.553 -33.504  1.00  0.00     0.227 C 
HETATM    9  O   UNL     1      -9.615   0.039 -32.400  1.00  0.00    -0.273 OA
HETATM   10  H   UNL     1      -8.439   1.224 -35.111  1.00  0.00     0.169 HD
BRANCH   8  11
HETATM   11  C   UNL     1     -10.725   1.071 -34.198  1.00  0.00     0.089 A 
HETATM   12  C   UNL     1     -11.694   1.907 -33.369  1.00  0.00     0.057 A 
HETATM   13  C   UNL     1     -10.910   2.523 -34.504  1.00  0.00     0.027 A 
BRANCH  12  14
HETATM   14  C   UNL     1     -13.167   1.609 -33.546  1.00  0.00     0.057 A 
HETATM   15  O   UNL     1     -13.681   0.739 -34.460  1.00  0.00    -0.327 OA
HETATM   16  C   UNL     1     -15.027   0.731 -34.284  1.00  0.00     0.142 A 
HETATM   17  C   UNL     1     -15.385   1.582 -33.266  1.00  0.00     0.027 A 
HETATM   18  C   UNL     1     -14.182   2.155 -32.789  1.00  0.00     0.035 A 
ENDBRANCH  12  14
ENDBRANCH   8  11
ENDBRANCH   3   7
BRANCH   5  19
HETATM   19  C   UNL     1      -5.429  -3.204 -34.391  1.00  0.00     0.010 A 
HETATM   20  C   UNL     1      -6.265  -4.116 -35.081  1.00  0.00     0.152 A 
HETATM   21  N   UNL     1      -5.713  -5.323 -35.231  1.00  0.00    -0.187 NA
HETATM   22  N   UNL     1      -4.518  -5.195 -34.638  1.00  0.00    -0.289 N 
HETATM   23  H   UNL     1      -3.899  -5.999 -34.622  1.00  0.00     0.188 HD
HETATM   24  C   UNL     1      -4.298  -3.950 -34.122  1.00  0.00     0.123 A 
ENDBRANCH   5  19
TORSDOF 4
ENDMDL
MODEL 3
REMARK VINA RESULT:      -8.3      4.454      7.556
REMARK  4 active torsions:
REMARK  status: ('A' for Active; 'I' for Inactive)
REMARK    1  A    between atoms: C_3  and  N_4 
REMARK       I    between atoms: N_4  and  C_5 
REMARK    2  A    between atoms: C_5  and  C_6 
REMARK    3  A    between atoms: C_7  and  C_8 
REMARK    4  A    between atoms: C_16  and  C_17 
ROOT
HETATM    1  C   UNL     1      -7.485   0.225 -35.187  1.00  0.00     0.003 A 
HETATM    2  C   UNL     1      -6.875   1.109 -34.295  1.00  0.00     0.029 A 
HETATM    3  C   UNL     1      -5.842   0.671 -33.469  1.00  0.00     0.035 A 
HETATM    4  C   UNL     1      -5.435  -0.671 -33.539  1.00  0.00     0.042 A 
HETATM    5  C   UNL     1      -6.043  -1.577 -34.426  1.00  0.00    -0.021 A 
HETATM    6  C   UNL     1      -7.070  -1.107 -35.254  1.00  0.00     0.012 A 
ENDROOT
BRANCH   3   7
HETATM    7  N   UNL     1      -5.143   1.510 -32.576  1.00  0.00    -0.327 N 
HETATM    8  C   UNL     1      -5.617   2.069 -31.408  1.00  0.00     0.227 C 
HETATM    9  O   UNL     1      -6.688   1.848 -30.862  1.00  0.00    -0.273 OA
HETATM   10  H   UNL     1      -4.196   1.748 -32.842  1.00  0.00     0.169 HD
BRANCH   8  11
HETATM   11  C   UNL     1      -4.680   3.070 -30.817  1.00  0.00     0.089 A 
HETATM   12  C   UNL     1      -4.477   4.371 -31.586  1.00  0.00     0.057 A 
HETATM   13  C   UNL     1      -5.157   4.363 -30.237  1.00  0.00     0.027 A 
BRANCH  12  14
HETATM   14  C   UNL     1      -3.053   4.869 -31.709  1.00  0.00     0.057 A 
HETATM   15  O   UNL     1      -2.448   5.721 -30.833  1.00  0.00    -0.327 OA
HETATM   16  C   UNL     1      -1.176   5.901 -31.274  1.00  0.00     0.142 A 
HETATM   17  C   UNL     1      -0.955   5.174 -32.419  1.00  0.00     0.027 A 
HETATM   18  C   UNL     1      -2.171   4.508 -32.704  1.00  0.00     0.035 A 
ENDBRANCH  12  14
ENDBRANCH   8  11
ENDBRANCH   3   7
BRANCH   5  19
HETATM   19  C   UNL     1      -5.599  -2.964 -34.477  1.00  0.00     0.010 A 
HETATM   20  C   UNL     1      -6.253  -4.134 -34.938  1.00  0.00     0.152 A 
HETATM   21  N   UNL     1      -5.501  -5.232 -34.830  1.00  0.00    -0.187 NA
HETATM   22  N   UNL     1      -4.359  -4.777 -34.298  1.00  0.00    -0.289 N 
HETATM   23  H   UNL     1      -3.613  -5.440 -34.117  1.00  0.00     0.188 HD
HETATM   24  C   UNL     1      -4.365  -3.430 -34.070  1.00  0.00     0.123 A 
ENDBRANCH   5  19
TORSDOF 4
ENDMDL
MODEL 4
REMARK VINA RESULT:      -8.2      5.328      7.415
REMARK  4 active torsions:
REMARK  status: ('A' for Active; 'I' for Inactive)
REMARK    1  A    between atoms: C_3  and  N_4 
REMARK       I    between atoms: N_4  and  C_5 
REMARK    2  A    between atoms: C_5  and  C_6 
REMARK    3  A    between atoms: C_7  and  C_8 
REMARK    4  A    between atoms: C_16  and  C_17 
ROOT
HETATM    1  C   UNL     1      -5.045   4.576 -30.388  1.00  0.00     0.003 A 
HETATM    2  C   UNL     1      -5.089   3.203 -30.635  1.00  0.00     0.029 A 
HETATM    3  C   UNL     1      -4.297   2.644 -31.635  1.00  0.00     0.035 A 
HETATM    4  C   UNL     1      -3.467   3.483 -32.396  1.00  0.00     0.042 A 
HETATM    5  C   UNL     1      -3.416   4.869 -32.166  1.00  0.00    -0.021 A 
HETATM    6  C   UNL     1      -4.213   5.402 -31.146  1.00  0.00     0.012 A 
ENDROOT
BRANCH   3   7
HETATM    7  N   UNL     1      -4.247   1.262 -31.915  1.00  0.00    -0.327 N 
HETATM    8  C   UNL     1      -5.227   0.491 -32.504  1.00  0.00     0.227 C 
HETATM    9  O   UNL     1      -6.274   0.879 -33.003  1.00  0.00    -0.273 OA
HETATM   10  H   UNL     1      -3.406   0.782 -31.624  1.00  0.00     0.169 HD
BRANCH   8  11
HETATM   11  C   UNL     1      -4.926  -0.970 -32.461  1.00  0.00     0.089 A 
HETATM   12  C   UNL     1      -4.255  -1.577 -33.689  1.00  0.00     0.057 A 
HETATM   13  C   UNL     1      -3.529  -1.494 -32.367  1.00  0.00     0.027 A 
BRANCH  12  14
HETATM   14  C   UNL     1      -4.797  -2.907 -34.168  1.00  0.00     0.057 A 
HETATM   15  O   UNL     1      -4.222  -4.117 -33.921  1.00  0.00    -0.327 OA
HETATM   16  C   UNL     1      -5.019  -5.057 -34.490  1.00  0.00     0.142 A 
HETATM   17  C   UNL     1      -6.101  -4.467 -35.098  1.00  0.00     0.027 A 
HETATM   18  C   UNL     1      -5.957  -3.074 -34.894  1.00  0.00     0.035 A 
ENDBRANCH  12  14
ENDBRANCH   8  11
ENDBRANCH   3   7
BRANCH   5  19
HETATM   19  C   UNL     1      -2.543   5.714 -32.972  1.00  0.00     0.010 A 
HETATM   20  C   UNL     1      -2.432   7.125 -33.053  1.00  0.00     0.152 A 
HETATM   21  N   UNL     1      -1.492   7.528 -33.912  1.00  0.00    -0.187 NA
HETATM   22  N   UNL     1      -0.994   6.379 -34.390  1.00  0.00    -0.289 N 
HETATM   23  H   UNL     1      -0.248   6.426 -35.076  1.00  0.00     0.188 HD
HETATM   24  C   UNL     1      -1.585   5.268 -33.860  1.00  0.00     0.123 A 
ENDBRANCH   5  19
TORSDOF 4
ENDMDL
MODEL 5
REMARK VINA RESULT:      -8.1      4.732      7.680
REMARK  4 active torsions:
REMARK  status: ('A' for Active; 'I' for Inactive)
REMARK    1  A    between atoms: C_3  and  N_4 
REMARK       I    between atoms: N_4  and  C_5 
REMARK    2  A    between atoms: C_5  and  C_6 
REMARK    3  A    between atoms: C_7  and  C_8 
REMARK    4  A    between atoms: C_16  and  C_17 
ROOT
HETATM    1  C   UNL     1      -8.381   0.792 -33.202  1.00  0.00     0.003 A 
HETATM    2  C   UNL     1      -7.505   1.856 -32.982  1.00  0.00     0.029 A 
HETATM    3  C   UNL     1      -6.133   1.683 -33.153  1.00  0.00     0.035 A 
HETATM    4  C   UNL     1      -5.648   0.423 -33.536  1.00  0.00     0.042 A 
HETATM    5  C   UNL     1      -6.515  -0.662 -33.755  1.00  0.00    -0.021 A 
HETATM    6  C   UNL     1      -7.890  -0.457 -33.588  1.00  0.00     0.012 A 
ENDROOT
BRANCH   3   7
HETATM    7  N   UNL     1      -5.187   2.718 -32.998  1.00  0.00    -0.327 N 
HETATM    8  C   UNL     1      -4.387   2.963 -31.901  1.00  0.00     0.227 C 
HETATM    9  O   UNL     1      -4.258   2.263 -30.907  1.00  0.00    -0.273 OA
HETATM   10  H   UNL     1      -5.110   3.367 -33.770  1.00  0.00     0.169 HD
BRANCH   8  11
HETATM   11  C   UNL     1      -3.652   4.259 -31.992  1.00  0.00     0.089 A 
HETATM   12  C   UNL     1      -2.248   4.221 -32.586  1.00  0.00     0.057 A 
HETATM   13  C   UNL     1      -3.376   4.930 -33.300  1.00  0.00     0.027 A 
BRANCH  12  14
HETATM   14  C   UNL     1      -1.187   5.028 -31.868  1.00  0.00     0.057 A 
HETATM   15  O   UNL     1      -0.487   4.599 -30.780  1.00  0.00    -0.327 OA
HETATM   16  C   UNL     1       0.380   5.592 -30.452  1.00  0.00     0.142 A 
HETATM   17  C   UNL     1       0.248   6.652 -31.317  1.00  0.00     0.027 A 
HETATM   18  C   UNL     1      -0.770   6.290 -32.232  1.00  0.00     0.035 A 
ENDBRANCH  12  14
ENDBRANCH   8  11
ENDBRANCH   3   7
BRANCH   5  19
HETATM   19  C   UNL     1      -5.982  -1.959 -34.153  1.00  0.00     0.010 A 
HETATM   20  C   UNL     1      -4.656  -2.459 -34.151  1.00  0.00     0.152 A 
HETATM   21  N   UNL     1      -4.570  -3.719 -34.585  1.00  0.00    -0.187 NA
HETATM   22  N   UNL     1      -5.840  -4.038 -34.869  1.00  0.00    -0.289 N 
HETATM   23  H   UNL     1      -6.036  -4.968 -35.224  1.00  0.00     0.188 HD
HETATM   24  C   UNL     1      -6.722  -3.024 -34.627  1.00  0.00     0.123 A 
ENDBRANCH   5  19
TORSDOF 4
ENDMDL
MODEL 6
REMARK VINA RESULT:      -8.1      2.836      7.821
REMARK  4 active torsions:
REMARK  status: ('A' for Active; 'I' for Inactive)
REMARK    1  A    between atoms: C_3  and  N_4 
REMARK       I    between atoms: N_4  and  C_5 
REMARK    2  A    between atoms: C_5  and  C_6 
REMARK    3  A    between atoms: C_7  and  C_8 
REMARK    4  A    between atoms: C_16  and  C_17 
ROOT
HETATM    1  C   UNL     1      -3.668   0.308 -32.659  1.00  0.00     0.003 A 
HETATM    2  C   UNL     1      -4.932   0.895 -32.742  1.00  0.00     0.029 A 
HETATM    3  C   UNL     1      -6.036   0.133 -33.115  1.00  0.00     0.035 A 
HETATM    4  C   UNL     1      -5.856  -1.226 -33.418  1.00  0.00     0.042 A 
HETATM    5  C   UNL     1      -4.589  -1.832 -33.347  1.00  0.00    -0.021 A 
HETATM    6  C   UNL     1      -3.499  -1.045 -32.956  1.00  0.00     0.012 A 
ENDROOT
BRANCH   3   7
HETATM    7  N   UNL     1      -7.352   0.637 -33.178  1.00  0.00    -0.327 N 
HETATM    8  C   UNL     1      -8.179   0.686 -34.281  1.00  0.00     0.227 C 
HETATM    9  O   UNL     1      -7.975   0.193 -35.381  1.00  0.00    -0.273 OA
HETATM   10  H   UNL     1      -7.716   1.032 -32.321  1.00  0.00     0.169 HD
BRANCH   8  11
HETATM   11  C   UNL     1      -9.427   1.470 -34.042  1.00  0.00     0.089 A 
HETATM   12  C   UNL     1     -10.504   0.818 -33.183  1.00  0.00     0.057 A 
HETATM   13  C   UNL     1      -9.764   2.044 -32.703  1.00  0.00     0.027 A 
BRANCH  12  14
HETATM   14  C   UNL     1     -11.930   0.943 -33.675  1.00  0.00     0.057 A 
HETATM   15  O   UNL     1     -12.457   2.056 -34.258  1.00  0.00    -0.327 OA
HETATM   16  C   UNL     1     -13.743   1.761 -34.581  1.00  0.00     0.142 A 
HETATM   17  C   UNL     1     -14.048   0.472 -34.214  1.00  0.00     0.027 A 
HETATM   18  C   UNL     1     -12.876  -0.058 -33.624  1.00  0.00     0.035 A 
ENDBRANCH  12  14
ENDBRANCH   8  11
ENDBRANCH   3   7
BRANCH   5  19
HETATM   19  C   UNL     1      -4.433  -3.246 -33.666  1.00  0.00     0.010 A 
HETATM   20  C   UNL     1      -5.129  -4.075 -34.580  1.00  0.00     0.152 A 
HETATM   21  N   UNL     1      -4.680  -5.333 -34.595  1.00  0.00    -0.187 NA
HETATM   22  N   UNL     1      -3.692  -5.321 -33.690  1.00  0.00    -0.289 N 
HETATM   23  H   UNL     1      -3.184  -6.183 -33.519  1.00  0.00     0.188 HD
HETATM   24  C   UNL     1      -3.502  -4.099 -33.109  1.00  0.00     0.123 A 
ENDBRANCH   5  19
TORSDOF 4
ENDMDL
MODEL 7
REMARK VINA RESULT:      -8.0      4.836      7.776
REMARK  4 active torsions:
REMARK  status: ('A' for Active; 'I' for Inactive)
REMARK    1  A    between atoms: C_3  and  N_4 
REMARK       I    between atoms: N_4  and  C_5 
REMARK    2  A    between atoms: C_5  and  C_6 
REMARK    3  A    between atoms: C_7  and  C_8 
REMARK    4  A    between atoms: C_16  and  C_17 
ROOT
HETATM    1  C   UNL     1      -7.901   1.170 -31.912  1.00  0.00     0.003 A 
HETATM    2  C   UNL     1      -7.099   2.312 -31.882  1.00  0.00     0.029 A 
HETATM    3  C   UNL     1      -5.846   2.305 -32.491  1.00  0.00     0.035 A 
HETATM    4  C   UNL     1      -5.400   1.133 -33.121  1.00  0.00     0.042 A 
HETATM    5  C   UNL     1      -6.192  -0.029 -33.154  1.00  0.00    -0.021 A 
HETATM    6  C   UNL     1      -7.453   0.010 -32.546  1.00  0.00     0.012 A 
ENDROOT
BRANCH   3   7
HETATM    7  N   UNL     1      -4.995   3.429 -32.547  1.00  0.00    -0.327 N 
HETATM    8  C   UNL     1      -4.823   4.297 -33.605  1.00  0.00     0.227 C 
HETATM    9  O   UNL     1      -5.461   4.330 -34.647  1.00  0.00    -0.273 OA
HETATM   10  H   UNL     1      -4.429   3.597 -31.726  1.00  0.00     0.169 HD
BRANCH   8  11
HETATM   11  C   UNL     1      -3.695   5.253 -33.399  1.00  0.00     0.089 A 
HETATM   12  C   UNL     1      -2.282   4.680 -33.438  1.00  0.00     0.057 A 
HETATM   13  C   UNL     1      -2.762   5.636 -34.504  1.00  0.00     0.027 A 
BRANCH  12  14
HETATM   14  C   UNL     1      -1.326   5.163 -32.368  1.00  0.00     0.057 A 
HETATM   15  O   UNL     1      -1.026   4.481 -31.227  1.00  0.00    -0.327 OA
HETATM   16  C   UNL     1      -0.117   5.228 -30.549  1.00  0.00     0.142 A 
HETATM   17  C   UNL     1       0.172   6.380 -31.240  1.00  0.00     0.027 A 
HETATM   18  C   UNL     1      -0.613   6.341 -32.417  1.00  0.00     0.035 A 
ENDBRANCH  12  14
ENDBRANCH   8  11
ENDBRANCH   3   7
BRANCH   5  19
HETATM   19  C   UNL     1      -5.703  -1.232 -33.817  1.00  0.00     0.010 A 
HETATM   20  C   UNL     1      -6.355  -2.149 -34.678  1.00  0.00     0.152 A 
HETATM   21  N   UNL     1      -5.556  -3.133 -35.098  1.00  0.00    -0.187 NA
HETATM   22  N   UNL     1      -4.385  -2.855 -34.509  1.00  0.00    -0.289 N 
HETATM   23  H   UNL     1      -3.600  -3.476 -34.680  1.00  0.00     0.188 HD
HETATM   24  C   UNL     1      -4.418  -1.730 -33.736  1.00  0.00     0.123 A 
ENDBRANCH   5  19
TORSDOF 4
ENDMDL
MODEL 8
REMARK VINA RESULT:      -7.8      3.013      7.556
REMARK  4 active torsions:
REMARK  status: ('A' for Active; 'I' for Inactive)
REMARK    1  A    between atoms: C_3  and  N_4 
REMARK       I    between atoms: N_4  and  C_5 
REMARK    2  A    between atoms: C_5  and  C_6 
REMARK    3  A    between atoms: C_7  and  C_8 
REMARK    4  A    between atoms: C_16  and  C_17 
ROOT
HETATM    1  C   UNL     1      -3.491  -0.171 -32.595  1.00  0.00     0.003 A 
HETATM    2  C   UNL     1      -4.499   0.772 -32.807  1.00  0.00     0.029 A 
HETATM    3  C   UNL     1      -5.678   0.406 -33.452  1.00  0.00     0.035 A 
HETATM    4  C   UNL     1      -5.830  -0.918 -33.895  1.00  0.00     0.042 A 
HETATM    5  C   UNL     1      -4.823  -1.879 -33.696  1.00  0.00    -0.021 A 
HETATM    6  C   UNL     1      -3.653  -1.486 -33.033  1.00  0.00     0.012 A 
ENDROOT
BRANCH   3   7
HETATM    7  N   UNL     1      -6.761   1.284 -33.664  1.00  0.00    -0.327 N 
HETATM    8  C   UNL     1      -7.578   1.851 -32.707  1.00  0.00     0.227 C 
HETATM    9  O   UNL     1      -7.444   1.798 -31.493  1.00  0.00    -0.273 OA
HETATM   10  H   UNL     1      -6.977   1.497 -34.628  1.00  0.00     0.169 HD
BRANCH   8  11
HETATM   11  C   UNL     1      -8.752   2.565 -33.290  1.00  0.00     0.089 A 
HETATM   12  C   UNL     1     -10.113   2.298 -32.655  1.00  0.00     0.057 A 
HETATM   13  C   UNL     1      -9.464   3.659 -32.560  1.00  0.00     0.027 A 
BRANCH  12  14
HETATM   14  C   UNL     1     -11.272   2.081 -33.605  1.00  0.00     0.057 A 
HETATM   15  O   UNL     1     -11.741   3.010 -34.486  1.00  0.00    -0.327 OA
HETATM   16  C   UNL     1     -12.759   2.427 -35.169  1.00  0.00     0.142 A 
HETATM   17  C   UNL     1     -12.949   1.135 -34.741  1.00  0.00     0.027 A 
HETATM   18  C   UNL     1     -11.989   0.911 -33.725  1.00  0.00     0.035 A 
ENDBRANCH  12  14
ENDBRANCH   8  11
ENDBRANCH   3   7
BRANCH   5  19
HETATM   19  C   UNL     1      -5.010  -3.246 -34.165  1.00  0.00     0.010 A 
HETATM   20  C   UNL     1      -6.068  -3.841 -34.896  1.00  0.00     0.152 A 
HETATM   21  N   UNL     1      -5.866  -5.136 -35.151  1.00  0.00    -0.187 NA
HETATM   22  N   UNL     1      -4.676  -5.383 -34.585  1.00  0.00    -0.289 N 
HETATM   23  H   UNL     1      -4.298  -6.323 -34.648  1.00  0.00     0.188 HD
HETATM   24  C   UNL     1      -4.122  -4.288 -33.986  1.00  0.00     0.123 A 
ENDBRANCH   5  19
TORSDOF 4
ENDMDL
MODEL 9
REMARK VINA RESULT:      -7.6      2.766      7.670
REMARK  4 active torsions:
REMARK  status: ('A' for Active; 'I' for Inactive)
REMARK    1  A    between atoms: C_3  and  N_4 
REMARK       I    between atoms: N_4  and  C_5 
REMARK    2  A    between atoms: C_5  and  C_6 
REMARK    3  A    between atoms: C_7  and  C_8 
REMARK    4  A    between atoms: C_16  and  C_17 
ROOT
HETATM    1  C   UNL     1      -4.834   0.325 -32.938  1.00  0.00     0.003 A 
HETATM    2  C   UNL     1      -6.027   1.049 -32.905  1.00  0.00     0.029 A 
HETATM    3  C   UNL     1      -7.214   0.465 -33.343  1.00  0.00     0.035 A 
HETATM    4  C   UNL     1      -7.188  -0.852 -33.827  1.00  0.00     0.042 A 
HETATM    5  C   UNL     1      -5.994  -1.594 -33.873  1.00  0.00    -0.021 A 
HETATM    6  C   UNL     1      -4.818  -0.987 -33.415  1.00  0.00     0.012 A 
ENDROOT
BRANCH   3   7
HETATM    7  N   UNL     1      -8.468   1.111 -33.299  1.00  0.00    -0.327 N 
HETATM    8  C   UNL     1      -9.683   0.556 -32.956  1.00  0.00     0.227 C 
HETATM    9  O   UNL     1      -9.887  -0.563 -32.509  1.00  0.00    -0.273 OA
HETATM   10  H   UNL     1      -8.475   2.083 -33.578  1.00  0.00     0.169 HD
BRANCH   8  11
HETATM   11  C   UNL     1     -10.836   1.469 -33.216  1.00  0.00     0.089 A 
HETATM   12  C   UNL     1     -11.138   1.810 -34.671  1.00  0.00     0.057 A 
HETATM   13  C   UNL     1     -12.104   0.991 -33.848  1.00  0.00     0.027 A 
BRANCH  12  14
HETATM   14  C   UNL     1     -11.448   3.260 -34.975  1.00  0.00     0.057 A 
HETATM   15  O   UNL     1     -10.525   4.261 -35.021  1.00  0.00    -0.327 OA
HETATM   16  C   UNL     1     -11.191   5.398 -35.349  1.00  0.00     0.142 A 
HETATM   17  C   UNL     1     -12.531   5.140 -35.518  1.00  0.00     0.027 A 
HETATM   18  C   UNL     1     -12.699   3.757 -35.272  1.00  0.00     0.035 A 
ENDBRANCH  12  14
ENDBRANCH   8  11
ENDBRANCH   3   7
BRANCH   5  19
HETATM   19  C   UNL     1      -5.999  -2.961 -34.380  1.00  0.00     0.010 A 
HETATM   20  C   UNL     1      -4.955  -3.912 -34.496  1.00  0.00     0.152 A 
HETATM   21  N   UNL     1      -5.363  -5.077 -35.005  1.00  0.00    -0.187 NA
HETATM   22  N   UNL     1      -6.671  -4.883 -35.220  1.00  0.00    -0.289 N 
HETATM   23  H   UNL     1      -7.213  -5.645 -35.613  1.00  0.00     0.188 HD
HETATM   24  C   UNL     1      -7.101  -3.637 -34.862  1.00  0.00     0.123 A 
ENDBRANCH   5  19
TORSDOF 4
ENDMDL
MODEL 10
REMARK VINA RESULT:      -7.6     13.537     14.657
REMARK  4 active torsions:
REMARK  status: ('A' for Active; 'I' for Inactive)
REMARK    1  A    between atoms: C_3  and  N_4 
REMARK       I    between atoms: N_4  and  C_5 
REMARK    2  A    between atoms: C_5  and  C_6 
REMARK    3  A    between atoms: C_7  and  C_8 
REMARK    4  A    between atoms: C_16  and  C_17 
ROOT
HETATM    1  C   UNL     1      -5.813 -12.368 -39.793  1.00  0.00     0.003 A 
HETATM    2  C   UNL     1      -5.553 -12.578 -38.438  1.00  0.00     0.029 A 
HETATM    3  C   UNL     1      -6.591 -12.895 -37.565  1.00  0.00     0.035 A 
HETATM    4  C   UNL     1      -7.900 -12.985 -38.066  1.00  0.00     0.042 A 
HETATM    5  C   UNL     1      -8.181 -12.769 -39.426  1.00  0.00    -0.021 A 
HETATM    6  C   UNL     1      -7.117 -12.466 -40.284  1.00  0.00     0.012 A 
ENDROOT
BRANCH   3   7
HETATM    7  N   UNL     1      -6.406 -13.168 -36.193  1.00  0.00    -0.327 N 
HETATM    8  C   UNL     1      -6.557 -14.381 -35.554  1.00  0.00     0.227 C 
HETATM    9  O   UNL     1      -6.759 -15.471 -36.071  1.00  0.00    -0.273 OA
HETATM   10  H   UNL     1      -6.164 -12.377 -35.613  1.00  0.00     0.169 HD
BRANCH   8  11
HETATM   11  C   UNL     1      -6.485 -14.271 -34.067  1.00  0.00     0.089 A 
HETATM   12  C   UNL     1      -5.167 -14.658 -33.404  1.00  0.00     0.057 A 
HETATM   13  C   UNL     1      -5.658 -13.230 -33.383  1.00  0.00     0.027 A 
BRANCH  12  14
HETATM   14  C   UNL     1      -5.262 -15.505 -32.153  1.00  0.00     0.057 A 
HETATM   15  O   UNL     1      -5.186 -15.025 -30.880  1.00  0.00    -0.327 OA
HETATM   16  C   UNL     1      -5.342 -16.087 -30.048  1.00  0.00     0.142 A 
HETATM   17  C   UNL     1      -5.520 -17.243 -30.770  1.00  0.00     0.027 A 
HETATM   18  C   UNL     1      -5.465 -16.869 -32.134  1.00  0.00     0.035 A 
ENDBRANCH  12  14
ENDBRANCH   8  11
ENDBRANCH   3   7
BRANCH   5  19
HETATM   19  C   UNL     1      -9.550 -12.871 -39.918  1.00  0.00     0.010 A 
HETATM   20  C   UNL     1     -10.369 -14.002 -40.158  1.00  0.00     0.152 A 
HETATM   21  N   UNL     1     -11.587 -13.683 -40.602  1.00  0.00    -0.187 NA
HETATM   22  N   UNL     1     -11.559 -12.344 -40.651  1.00  0.00    -0.289 N 
HETATM   23  H   UNL     1     -12.391 -11.855 -40.966  1.00  0.00     0.188 HD
HETATM   24  C   UNL     1     -10.367 -11.810 -40.251  1.00  0.00     0.123 A 
ENDBRANCH   5  19
TORSDOF 4
ENDMDL
