MODEL 1
REMARK VINA RESULT:     -10.0      0.000      0.000
REMARK  6 active torsions:
REMARK  status: ('A' for Active; 'I' for Inactive)
REMARK    1  A    between atoms: C_4  and  C_5 
REMARK    2  A    between atoms: C_9  and  C_10 
REMARK       I    between atoms: C_10  and  N_11 
REMARK    3  A    between atoms: N_11  and  N_12 
REMARK       I    between atoms: N_12  and  C_13 
REMARK    4  A    between atoms: C_13  and  C_14 
REMARK    5  A    between atoms: C_14  and  O_15 
REMARK    6  A    between atoms: O_15  and  C_16 
ROOT
HETATM    1  C   UNL     1      -1.763   4.892 -32.910  1.00  0.00     0.288 C 
HETATM    2  N   UNL     1      -2.720   3.936 -32.622  1.00  0.00    -0.262 N 
HETATM    3  O   UNL     1      -1.488   5.092 -34.093  1.00  0.00    -0.264 OA
HETATM    4  H   UNL     1      -3.182   3.524 -33.429  1.00  0.00     0.190 HD
ENDROOT
BRANCH   2   5
HETATM    5  N   UNL     1      -3.239   3.649 -31.366  1.00  0.00    -0.265 N 
HETATM    6  C   UNL     1      -4.443   2.999 -31.179  1.00  0.00     0.260 C 
HETATM    7  O   UNL     1      -4.997   3.104 -30.085  1.00  0.00    -0.269 OA
HETATM    8  H   UNL     1      -2.951   4.249 -30.596  1.00  0.00     0.190 HD
BRANCH   6   9
HETATM    9  C   UNL     1      -4.980   2.140 -32.332  1.00  0.00     0.280 C 
BRANCH   9  10
HETATM   10  O   UNL     1      -4.165   1.022 -32.673  1.00  0.00    -0.342 OA
BRANCH  10  11
HETATM   11  C   UNL     1      -4.865  -0.048 -33.164  1.00  0.00     0.070 A 
HETATM   12  C   UNL     1      -4.181  -1.259 -33.261  1.00  0.00     0.049 A 
HETATM   13  C   UNL     1      -4.800  -2.391 -33.819  1.00  0.00    -0.023 A 
HETATM   14  C   UNL     1      -6.124  -2.287 -34.303  1.00  0.00    -0.026 A 
HETATM   15  C   UNL     1      -4.128  -3.622 -33.919  1.00  0.00     0.012 A 
HETATM   16  C   UNL     1      -6.794  -1.058 -34.207  1.00  0.00     0.015 A 
HETATM   17  C   UNL     1      -6.734  -3.411 -34.885  1.00  0.00     0.012 A 
HETATM   18  C   UNL     1      -6.167   0.058 -33.647  1.00  0.00     0.037 A 
HETATM   19  C   UNL     1      -6.051  -4.623 -34.982  1.00  0.00     0.001 A 
HETATM   20  C   UNL     1      -4.751  -4.730 -34.496  1.00  0.00     0.001 A 
ENDBRANCH  10  11
ENDBRANCH   9  10
ENDBRANCH   6   9
ENDBRANCH   2   5
BRANCH   1  21
HETATM   21  C   UNL     1      -1.054   5.563 -31.853  1.00  0.00     0.121 A 
HETATM   22  N   UNL     1      -0.021   4.939 -31.204  1.00  0.00    -0.272 N 
HETATM   23  N   UNL     1       0.436   5.600 -30.133  1.00  0.00    -0.174 NA
HETATM   24  H   UNL     1       0.365   4.023 -31.416  1.00  0.00     0.189 HD
HETATM   25  C   UNL     1      -0.250   6.752 -30.133  1.00  0.00     0.089 A 
HETATM   26  C   UNL     1      -1.150   6.793 -31.233  1.00  0.00     0.071 A 
BRANCH  25  27
HETATM   27  C   UNL     1      -0.090   7.750 -29.081  1.00  0.00    -0.006 A 
HETATM   28  C   UNL     1       1.124   7.888 -28.396  1.00  0.00     0.014 A 
HETATM   29  C   UNL     1       1.278   8.881 -27.425  1.00  0.00     0.001 A 
HETATM   30  C   UNL     1       0.225   9.748 -27.137  1.00  0.00     0.000 A 
HETATM   31  C   UNL     1      -0.988   9.618 -27.812  1.00  0.00     0.001 A 
HETATM   32  C   UNL     1      -1.146   8.619 -28.775  1.00  0.00     0.014 A 
ENDBRANCH  25  27
ENDBRANCH   1  21
TORSDOF 6
ENDMDL
MODEL 2
REMARK VINA RESULT:     -10.0      3.325      4.806
REMARK  6 active torsions:
REMARK  status: ('A' for Active; 'I' for Inactive)
REMARK    1  A    between atoms: C_4  and  C_5 
REMARK    2  A    between atoms: C_9  and  C_10 
REMARK       I    between atoms: C_10  and  N_11 
REMARK    3  A    between atoms: N_11  and  N_12 
REMARK       I    between atoms: N_12  and  C_13 
REMARK    4  A    between atoms: C_13  and  C_14 
REMARK    5  A    between atoms: C_14  and  O_15 
REMARK    6  A    between atoms: O_15  and  C_16 
ROOT
HETATM    1  C   UNL     1      -6.069   1.681 -30.172  1.00  0.00     0.288 C 
HETATM    2  N   UNL     1      -7.417   1.820 -30.445  1.00  0.00    -0.262 N 
HETATM    3  O   UNL     1      -5.715   0.713 -29.499  1.00  0.00    -0.264 OA
HETATM    4  H   UNL     1      -8.008   1.056 -30.128  1.00  0.00     0.190 HD
ENDROOT
BRANCH   2   5
HETATM    5  N   UNL     1      -7.990   2.778 -31.273  1.00  0.00    -0.265 N 
HETATM    6  C   UNL     1      -8.227   2.567 -32.617  1.00  0.00     0.260 C 
HETATM    7  O   UNL     1      -8.389   3.550 -33.340  1.00  0.00    -0.269 OA
HETATM    8  H   UNL     1      -7.876   3.753 -31.004  1.00  0.00     0.190 HD
BRANCH   6   9
HETATM    9  C   UNL     1      -8.332   1.116 -33.107  1.00  0.00     0.280 C 
BRANCH   9  10
HETATM   10  O   UNL     1      -7.649   0.849 -34.329  1.00  0.00    -0.342 OA
BRANCH  10  11
HETATM   11  C   UNL     1      -6.716  -0.149 -34.238  1.00  0.00     0.070 A 
HETATM   12  C   UNL     1      -7.102  -1.415 -34.679  1.00  0.00     0.049 A 
HETATM   13  C   UNL     1      -6.232  -2.513 -34.557  1.00  0.00    -0.023 A 
HETATM   14  C   UNL     1      -4.963  -2.328 -33.963  1.00  0.00    -0.026 A 
HETATM   15  C   UNL     1      -6.602  -3.795 -35.000  1.00  0.00     0.012 A 
HETATM   16  C   UNL     1      -4.595  -1.050 -33.517  1.00  0.00     0.015 A 
HETATM   17  C   UNL     1      -4.104  -3.431 -33.817  1.00  0.00     0.012 A 
HETATM   18  C   UNL     1      -5.469   0.033 -33.647  1.00  0.00     0.037 A 
HETATM   19  C   UNL     1      -4.489  -4.698 -34.257  1.00  0.00     0.001 A 
HETATM   20  C   UNL     1      -5.734  -4.879 -34.852  1.00  0.00     0.001 A 
ENDBRANCH  10  11
ENDBRANCH   9  10
ENDBRANCH   6   9
ENDBRANCH   2   5
BRANCH   1  21
HETATM   21  C   UNL     1      -5.127   2.687 -30.588  1.00  0.00     0.121 A 
HETATM   22  N   UNL     1      -5.088   3.904 -29.961  1.00  0.00    -0.272 N 
HETATM   23  N   UNL     1      -4.293   4.803 -30.553  1.00  0.00    -0.174 NA
HETATM   24  H   UNL     1      -5.639   4.192 -29.157  1.00  0.00     0.189 HD
HETATM   25  C   UNL     1      -3.707   4.126 -31.551  1.00  0.00     0.089 A 
HETATM   26  C   UNL     1      -4.157   2.777 -31.566  1.00  0.00     0.071 A 
BRANCH  25  27
HETATM   27  C   UNL     1      -2.793   4.766 -32.491  1.00  0.00    -0.006 A 
HETATM   28  C   UNL     1      -2.783   4.409 -33.846  1.00  0.00     0.014 A 
HETATM   29  C   UNL     1      -1.937   5.066 -34.743  1.00  0.00     0.001 A 
HETATM   30  C   UNL     1      -1.101   6.088 -34.296  1.00  0.00     0.000 A 
HETATM   31  C   UNL     1      -1.102   6.450 -32.950  1.00  0.00     0.001 A 
HETATM   32  C   UNL     1      -1.939   5.788 -32.051  1.00  0.00     0.014 A 
ENDBRANCH  25  27
ENDBRANCH   1  21
TORSDOF 6
ENDMDL
MODEL 3
REMARK VINA RESULT:     -10.0      1.507      2.384
REMARK  6 active torsions:
REMARK  status: ('A' for Active; 'I' for Inactive)
REMARK    1  A    between atoms: C_4  and  C_5 
REMARK    2  A    between atoms: C_9  and  C_10 
REMARK       I    between atoms: C_10  and  N_11 
REMARK    3  A    between atoms: N_11  and  N_12 
REMARK       I    between atoms: N_12  and  C_13 
REMARK    4  A    between atoms: C_13  and  C_14 
REMARK    5  A    between atoms: C_14  and  O_15 
REMARK    6  A    between atoms: O_15  and  C_16 
ROOT
HETATM    1  C   UNL     1      -4.081   5.205 -34.348  1.00  0.00     0.288 C 
HETATM    2  N   UNL     1      -5.375   4.835 -34.028  1.00  0.00    -0.262 N 
HETATM    3  O   UNL     1      -3.818   5.404 -35.534  1.00  0.00    -0.264 OA
HETATM    4  H   UNL     1      -6.033   4.832 -34.802  1.00  0.00     0.190 HD
ENDROOT
BRANCH   2   5
HETATM    5  N   UNL     1      -5.887   4.675 -32.746  1.00  0.00    -0.265 N 
HETATM    6  C   UNL     1      -6.153   3.439 -32.190  1.00  0.00     0.260 C 
HETATM    7  O   UNL     1      -6.922   3.386 -31.231  1.00  0.00    -0.269 OA
HETATM    8  H   UNL     1      -6.433   5.444 -32.364  1.00  0.00     0.190 HD
BRANCH   6   9
HETATM    9  C   UNL     1      -5.425   2.219 -32.772  1.00  0.00     0.280 C 
BRANCH   9  10
HETATM   10  O   UNL     1      -6.268   1.278 -33.431  1.00  0.00    -0.342 OA
BRANCH  10  11
HETATM   11  C   UNL     1      -5.693   0.050 -33.615  1.00  0.00     0.070 A 
HETATM   12  C   UNL     1      -6.507  -0.957 -34.135  1.00  0.00     0.049 A 
HETATM   13  C   UNL     1      -6.020  -2.266 -34.291  1.00  0.00    -0.023 A 
HETATM   14  C   UNL     1      -4.695  -2.562 -33.896  1.00  0.00    -0.026 A 
HETATM   15  C   UNL     1      -6.824  -3.291 -34.818  1.00  0.00     0.012 A 
HETATM   16  C   UNL     1      -3.893  -1.540 -33.366  1.00  0.00     0.015 A 
HETATM   17  C   UNL     1      -4.216  -3.876 -34.027  1.00  0.00     0.012 A 
HETATM   18  C   UNL     1      -4.391  -0.243 -33.220  1.00  0.00     0.037 A 
HETATM   19  C   UNL     1      -5.030  -4.884 -34.547  1.00  0.00     0.001 A 
HETATM   20  C   UNL     1      -6.330  -4.591 -34.946  1.00  0.00     0.001 A 
ENDBRANCH  10  11
ENDBRANCH   9  10
ENDBRANCH   6   9
ENDBRANCH   2   5
BRANCH   1  21
HETATM   21  C   UNL     1      -3.062   5.267 -33.334  1.00  0.00     0.121 A 
HETATM   22  N   UNL     1      -2.386   4.136 -32.958  1.00  0.00    -0.272 N 
HETATM   23  N   UNL     1      -1.593   4.297 -31.892  1.00  0.00    -0.174 NA
HETATM   24  H   UNL     1      -2.483   3.208 -33.361  1.00  0.00     0.189 HD
HETATM   25  C   UNL     1      -1.669   5.607 -31.614  1.00  0.00     0.089 A 
HETATM   26  C   UNL     1      -2.532   6.260 -32.535  1.00  0.00     0.071 A 
BRANCH  25  27
HETATM   27  C   UNL     1      -0.985   6.197 -30.468  1.00  0.00    -0.006 A 
HETATM   28  C   UNL     1      -0.007   5.482 -29.764  1.00  0.00     0.014 A 
HETATM   29  C   UNL     1       0.675   6.079 -28.701  1.00  0.00     0.001 A 
HETATM   30  C   UNL     1       0.391   7.395 -28.337  1.00  0.00     0.000 A 
HETATM   31  C   UNL     1      -0.582   8.114 -29.029  1.00  0.00     0.001 A 
HETATM   32  C   UNL     1      -1.271   7.516 -30.086  1.00  0.00     0.014 A 
ENDBRANCH  25  27
ENDBRANCH   1  21
TORSDOF 6
ENDMDL
MODEL 4
REMARK VINA RESULT:      -9.8      1.782      2.173
REMARK  6 active torsions:
REMARK  status: ('A' for Active; 'I' for Inactive)
REMARK    1  A    between atoms: C_4  and  C_5 
REMARK    2  A    between atoms: C_9  and  C_10 
REMARK       I    between atoms: C_10  and  N_11 
REMARK    3  A    between atoms: N_11  and  N_12 
REMARK       I    between atoms: N_12  and  C_13 
REMARK    4  A    between atoms: C_13  and  C_14 
REMARK    5  A    between atoms: C_14  and  O_15 
REMARK    6  A    between atoms: O_15  and  C_16 
ROOT
HETATM    1  C   UNL     1      -2.092   5.460 -34.400  1.00  0.00     0.288 C 
HETATM    2  N   UNL     1      -3.455   5.426 -34.634  1.00  0.00    -0.262 N 
HETATM    3  O   UNL     1      -1.342   5.183 -35.336  1.00  0.00    -0.264 OA
HETATM    4  H   UNL     1      -3.729   5.248 -35.597  1.00  0.00     0.190 HD
ENDROOT
BRANCH   2   5
HETATM    5  N   UNL     1      -4.449   5.811 -33.742  1.00  0.00    -0.265 N 
HETATM    6  C   UNL     1      -5.684   5.198 -33.681  1.00  0.00     0.260 C 
HETATM    7  O   UNL     1      -6.610   5.806 -33.145  1.00  0.00    -0.269 OA
HETATM    8  H   UNL     1      -4.430   6.773 -33.412  1.00  0.00     0.190 HD
BRANCH   6   9
HETATM    9  C   UNL     1      -5.805   3.772 -34.237  1.00  0.00     0.280 C 
BRANCH   9  10
HETATM   10  O   UNL     1      -6.867   3.002 -33.680  1.00  0.00    -0.342 OA
BRANCH  10  11
HETATM   11  C   UNL     1      -6.794   1.665 -33.965  1.00  0.00     0.070 A 
HETATM   12  C   UNL     1      -5.696   0.970 -33.459  1.00  0.00     0.049 A 
HETATM   13  C   UNL     1      -5.504  -0.389 -33.762  1.00  0.00    -0.023 A 
HETATM   14  C   UNL     1      -6.428  -1.046 -34.606  1.00  0.00    -0.026 A 
HETATM   15  C   UNL     1      -4.406  -1.106 -33.256  1.00  0.00     0.012 A 
HETATM   16  C   UNL     1      -7.523  -0.330 -35.114  1.00  0.00     0.015 A 
HETATM   17  C   UNL     1      -6.223  -2.398 -34.930  1.00  0.00     0.012 A 
HETATM   18  C   UNL     1      -7.701   1.020 -34.802  1.00  0.00     0.037 A 
HETATM   19  C   UNL     1      -5.124  -3.094 -34.424  1.00  0.00     0.001 A 
HETATM   20  C   UNL     1      -4.220  -2.451 -33.585  1.00  0.00     0.001 A 
ENDBRANCH  10  11
ENDBRANCH   9  10
ENDBRANCH   6   9
ENDBRANCH   2   5
BRANCH   1  21
HETATM   21  C   UNL     1      -1.579   5.724 -33.082  1.00  0.00     0.121 A 
HETATM   22  N   UNL     1      -1.505   4.722 -32.151  1.00  0.00    -0.272 N 
HETATM   23  N   UNL     1      -1.176   5.135 -30.921  1.00  0.00    -0.174 NA
HETATM   24  H   UNL     1      -1.736   3.742 -32.293  1.00  0.00     0.189 HD
HETATM   25  C   UNL     1      -0.924   6.444 -31.065  1.00  0.00     0.089 A 
HETATM   26  C   UNL     1      -1.105   6.838 -32.419  1.00  0.00     0.071 A 
BRANCH  25  27
HETATM   27  C   UNL     1      -0.579   7.297 -29.932  1.00  0.00    -0.006 A 
HETATM   28  C   UNL     1       0.693   7.241 -29.347  1.00  0.00     0.014 A 
HETATM   29  C   UNL     1       1.024   8.098 -28.295  1.00  0.00     0.001 A 
HETATM   30  C   UNL     1       0.091   9.022 -27.824  1.00  0.00     0.000 A 
HETATM   31  C   UNL     1      -1.178   9.083 -28.398  1.00  0.00     0.001 A 
HETATM   32  C   UNL     1      -1.513   8.220 -29.443  1.00  0.00     0.014 A 
ENDBRANCH  25  27
ENDBRANCH   1  21
TORSDOF 6
ENDMDL
MODEL 5
REMARK VINA RESULT:      -9.7      1.752     10.001
REMARK  6 active torsions:
REMARK  status: ('A' for Active; 'I' for Inactive)
REMARK    1  A    between atoms: C_4  and  C_5 
REMARK    2  A    between atoms: C_9  and  C_10 
REMARK       I    between atoms: C_10  and  N_11 
REMARK    3  A    between atoms: N_11  and  N_12 
REMARK       I    between atoms: N_12  and  C_13 
REMARK    4  A    between atoms: C_13  and  C_14 
REMARK    5  A    between atoms: C_14  and  O_15 
REMARK    6  A    between atoms: O_15  and  C_16 
ROOT
HETATM    1  C   UNL     1      -4.185   4.085 -31.557  1.00  0.00     0.288 C 
HETATM    2  N   UNL     1      -3.234   4.882 -32.167  1.00  0.00    -0.262 N 
HETATM    3  O   UNL     1      -4.896   4.598 -30.692  1.00  0.00    -0.264 OA
HETATM    4  H   UNL     1      -3.251   5.863 -31.902  1.00  0.00     0.190 HD
ENDROOT
BRANCH   2   5
HETATM    5  N   UNL     1      -2.420   4.516 -33.232  1.00  0.00    -0.265 N 
HETATM    6  C   UNL     1      -2.160   5.349 -34.302  1.00  0.00     0.260 C 
HETATM    7  O   UNL     1      -1.748   4.844 -35.346  1.00  0.00    -0.269 OA
HETATM    8  H   UNL     1      -2.335   3.521 -33.431  1.00  0.00     0.190 HD
BRANCH   6   9
HETATM    9  C   UNL     1      -2.347   6.859 -34.096  1.00  0.00     0.280 C 
BRANCH   9  10
HETATM   10  O   UNL     1      -1.188   7.546 -33.633  1.00  0.00    -0.342 OA
BRANCH  10  11
HETATM   11  C   UNL     1      -1.177   7.771 -32.283  1.00  0.00     0.070 A 
HETATM   12  C   UNL     1      -0.301   6.998 -31.521  1.00  0.00     0.049 A 
HETATM   13  C   UNL     1      -0.275   7.112 -30.120  1.00  0.00    -0.023 A 
HETATM   14  C   UNL     1      -1.162   8.008 -29.483  1.00  0.00    -0.026 A 
HETATM   15  C   UNL     1       0.605   6.345 -29.337  1.00  0.00     0.012 A 
HETATM   16  C   UNL     1      -2.044   8.772 -30.263  1.00  0.00     0.015 A 
HETATM   17  C   UNL     1      -1.155   8.104 -28.081  1.00  0.00     0.012 A 
HETATM   18  C   UNL     1      -2.056   8.649 -31.655  1.00  0.00     0.037 A 
HETATM   19  C   UNL     1      -0.279   7.331 -27.318  1.00  0.00     0.001 A 
HETATM   20  C   UNL     1       0.603   6.456 -27.945  1.00  0.00     0.001 A 
ENDBRANCH  10  11
ENDBRANCH   9  10
ENDBRANCH   6   9
ENDBRANCH   2   5
BRANCH   1  21
HETATM   21  C   UNL     1      -4.275   2.682 -31.864  1.00  0.00     0.121 A 
HETATM   22  N   UNL     1      -3.356   1.800 -31.361  1.00  0.00    -0.272 N 
HETATM   23  N   UNL     1      -3.450   0.561 -31.860  1.00  0.00    -0.174 NA
HETATM   24  H   UNL     1      -2.597   2.013 -30.719  1.00  0.00     0.189 HD
HETATM   25  C   UNL     1      -4.536   0.600 -32.646  1.00  0.00     0.089 A 
HETATM   26  C   UNL     1      -5.118   1.897 -32.625  1.00  0.00     0.071 A 
BRANCH  25  27
HETATM   27  C   UNL     1      -4.963  -0.552 -33.434  1.00  0.00    -0.006 A 
HETATM   28  C   UNL     1      -4.161  -1.696 -33.535  1.00  0.00     0.014 A 
HETATM   29  C   UNL     1      -4.606  -2.809 -34.252  1.00  0.00     0.001 A 
HETATM   30  C   UNL     1      -5.857  -2.791 -34.868  1.00  0.00     0.000 A 
HETATM   31  C   UNL     1      -6.661  -1.656 -34.776  1.00  0.00     0.001 A 
HETATM   32  C   UNL     1      -6.214  -0.540 -34.068  1.00  0.00     0.014 A 
ENDBRANCH  25  27
ENDBRANCH   1  21
TORSDOF 6
ENDMDL
MODEL 6
REMARK VINA RESULT:      -9.6      4.369      8.471
REMARK  6 active torsions:
REMARK  status: ('A' for Active; 'I' for Inactive)
REMARK    1  A    between atoms: C_4  and  C_5 
REMARK    2  A    between atoms: C_9  and  C_10 
REMARK       I    between atoms: C_10  and  N_11 
REMARK    3  A    between atoms: N_11  and  N_12 
REMARK       I    between atoms: N_12  and  C_13 
REMARK    4  A    between atoms: C_13  and  C_14 
REMARK    5  A    between atoms: C_14  and  O_15 
REMARK    6  A    between atoms: O_15  and  C_16 
ROOT
HETATM    1  C   UNL     1      -3.494   2.652 -31.601  1.00  0.00     0.288 C 
HETATM    2  N   UNL     1      -4.344   3.411 -30.818  1.00  0.00    -0.262 N 
HETATM    3  O   UNL     1      -2.509   3.210 -32.086  1.00  0.00    -0.264 OA
HETATM    4  H   UNL     1      -4.040   4.365 -30.640  1.00  0.00     0.190 HD
ENDROOT
BRANCH   2   5
HETATM    5  N   UNL     1      -5.437   2.939 -30.101  1.00  0.00    -0.265 N 
HETATM    6  C   UNL     1      -6.730   3.363 -30.333  1.00  0.00     0.260 C 
HETATM    7  O   UNL     1      -7.568   3.188 -29.449  1.00  0.00    -0.269 OA
HETATM    8  H   UNL     1      -5.261   2.591 -29.160  1.00  0.00     0.190 HD
BRANCH   6   9
HETATM    9  C   UNL     1      -7.048   3.974 -31.705  1.00  0.00     0.280 C 
BRANCH   9  10
HETATM   10  O   UNL     1      -6.975   3.060 -32.797  1.00  0.00    -0.342 OA
BRANCH  10  11
HETATM   11  C   UNL     1      -8.142   2.385 -33.036  1.00  0.00     0.070 A 
HETATM   12  C   UNL     1      -9.058   2.992 -33.895  1.00  0.00     0.049 A 
HETATM   13  C   UNL     1     -10.311   2.404 -34.141  1.00  0.00    -0.023 A 
HETATM   14  C   UNL     1     -10.646   1.194 -33.493  1.00  0.00    -0.026 A 
HETATM   15  C   UNL     1     -11.244   2.999 -35.008  1.00  0.00     0.012 A 
HETATM   16  C   UNL     1      -9.716   0.601 -32.624  1.00  0.00     0.015 A 
HETATM   17  C   UNL     1     -11.908   0.619 -33.718  1.00  0.00     0.012 A 
HETATM   18  C   UNL     1      -8.474   1.197 -32.391  1.00  0.00     0.037 A 
HETATM   19  C   UNL     1     -12.825   1.226 -34.577  1.00  0.00     0.001 A 
HETATM   20  C   UNL     1     -12.493   2.411 -35.224  1.00  0.00     0.001 A 
ENDBRANCH  10  11
ENDBRANCH   9  10
ENDBRANCH   6   9
ENDBRANCH   2   5
BRANCH   1  21
HETATM   21  C   UNL     1      -3.804   1.281 -31.906  1.00  0.00     0.121 A 
HETATM   22  N   UNL     1      -3.011   0.268 -31.436  1.00  0.00    -0.272 N 
HETATM   23  N   UNL     1      -3.306  -0.940 -31.933  1.00  0.00    -0.174 NA
HETATM   24  H   UNL     1      -2.207   0.360 -30.820  1.00  0.00     0.189 HD
HETATM   25  C   UNL     1      -4.400  -0.734 -32.681  1.00  0.00     0.089 A 
HETATM   26  C   UNL     1      -4.779   0.635 -32.639  1.00  0.00     0.071 A 
BRANCH  25  27
HETATM   27  C   UNL     1      -5.021  -1.803 -33.456  1.00  0.00    -0.006 A 
HETATM   28  C   UNL     1      -6.340  -1.690 -33.915  1.00  0.00     0.014 A 
HETATM   29  C   UNL     1      -6.905  -2.700 -34.698  1.00  0.00     0.001 A 
HETATM   30  C   UNL     1      -6.155  -3.827 -35.034  1.00  0.00     0.000 A 
HETATM   31  C   UNL     1      -4.843  -3.951 -34.580  1.00  0.00     0.001 A 
HETATM   32  C   UNL     1      -4.281  -2.946 -33.789  1.00  0.00     0.014 A 
ENDBRANCH  25  27
ENDBRANCH   1  21
TORSDOF 6
ENDMDL
MODEL 7
REMARK VINA RESULT:      -9.5      1.519     10.923
REMARK  6 active torsions:
REMARK  status: ('A' for Active; 'I' for Inactive)
REMARK    1  A    between atoms: C_4  and  C_5 
REMARK    2  A    between atoms: C_9  and  C_10 
REMARK       I    between atoms: C_10  and  N_11 
REMARK    3  A    between atoms: N_11  and  N_12 
REMARK       I    between atoms: N_12  and  C_13 
REMARK    4  A    between atoms: C_13  and  C_14 
REMARK    5  A    between atoms: C_14  and  O_15 
REMARK    6  A    between atoms: O_15  and  C_16 
ROOT
HETATM    1  C   UNL     1      -4.552   2.877 -31.452  1.00  0.00     0.288 C 
HETATM    2  N   UNL     1      -3.556   3.749 -31.852  1.00  0.00    -0.262 N 
HETATM    3  O   UNL     1      -4.992   2.993 -30.308  1.00  0.00    -0.264 OA
HETATM    4  H   UNL     1      -3.319   4.477 -31.184  1.00  0.00     0.190 HD
ENDROOT
BRANCH   2   5
HETATM    5  N   UNL     1      -3.016   3.845 -33.129  1.00  0.00    -0.265 N 
HETATM    6  C   UNL     1      -1.992   4.714 -33.450  1.00  0.00     0.260 C 
HETATM    7  O   UNL     1      -1.822   5.000 -34.635  1.00  0.00    -0.269 OA
HETATM    8  H   UNL     1      -3.615   3.580 -33.908  1.00  0.00     0.190 HD
BRANCH   6   9
HETATM    9  C   UNL     1      -1.097   5.220 -32.310  1.00  0.00     0.280 C 
BRANCH   9  10
HETATM   10  O   UNL     1      -1.784   5.929 -31.282  1.00  0.00    -0.342 OA
BRANCH  10  11
HETATM   11  C   UNL     1      -1.003   6.232 -30.199  1.00  0.00     0.070 A 
HETATM   12  C   UNL     1      -1.143   7.510 -29.657  1.00  0.00     0.049 A 
HETATM   13  C   UNL     1      -0.331   7.930 -28.590  1.00  0.00    -0.023 A 
HETATM   14  C   UNL     1       0.649   7.050 -28.077  1.00  0.00    -0.026 A 
HETATM   15  C   UNL     1      -0.463   9.212 -28.028  1.00  0.00     0.012 A 
HETATM   16  C   UNL     1       0.783   5.771 -28.640  1.00  0.00     0.015 A 
HETATM   17  C   UNL     1       1.478   7.479 -27.027  1.00  0.00     0.012 A 
HETATM   18  C   UNL     1      -0.033   5.366 -29.700  1.00  0.00     0.037 A 
HETATM   19  C   UNL     1       1.338   8.757 -26.485  1.00  0.00     0.001 A 
HETATM   20  C   UNL     1       0.367   9.621 -26.981  1.00  0.00     0.001 A 
ENDBRANCH  10  11
ENDBRANCH   9  10
ENDBRANCH   6   9
ENDBRANCH   2   5
BRANCH   1  21
HETATM   21  C   UNL     1      -4.992   1.816 -32.319  1.00  0.00     0.121 A 
HETATM   22  N   UNL     1      -6.178   1.918 -32.996  1.00  0.00    -0.272 N 
HETATM   23  N   UNL     1      -6.551   0.798 -33.627  1.00  0.00    -0.174 NA
HETATM   24  H   UNL     1      -6.806   2.717 -33.005  1.00  0.00     0.189 HD
HETATM   25  C   UNL     1      -5.525  -0.046 -33.444  1.00  0.00     0.089 A 
HETATM   26  C   UNL     1      -4.500   0.578 -32.681  1.00  0.00     0.071 A 
BRANCH  25  27
HETATM   27  C   UNL     1      -5.554  -1.420 -33.933  1.00  0.00    -0.006 A 
HETATM   28  C   UNL     1      -4.403  -2.218 -33.916  1.00  0.00     0.014 A 
HETATM   29  C   UNL     1      -4.458  -3.548 -34.341  1.00  0.00     0.001 A 
HETATM   30  C   UNL     1      -5.665  -4.092 -34.780  1.00  0.00     0.000 A 
HETATM   31  C   UNL     1      -6.815  -3.306 -34.804  1.00  0.00     0.001 A 
HETATM   32  C   UNL     1      -6.759  -1.975 -34.388  1.00  0.00     0.014 A 
ENDBRANCH  25  27
ENDBRANCH   1  21
TORSDOF 6
ENDMDL
MODEL 8
REMARK VINA RESULT:      -9.5      3.794      5.109
REMARK  6 active torsions:
REMARK  status: ('A' for Active; 'I' for Inactive)
REMARK    1  A    between atoms: C_4  and  C_5 
REMARK    2  A    between atoms: C_9  and  C_10 
REMARK       I    between atoms: C_10  and  N_11 
REMARK    3  A    between atoms: N_11  and  N_12 
REMARK       I    between atoms: N_12  and  C_13 
REMARK    4  A    between atoms: C_13  and  C_14 
REMARK    5  A    between atoms: C_14  and  O_15 
REMARK    6  A    between atoms: O_15  and  C_16 
ROOT
HETATM    1  C   UNL     1      -8.475   4.430 -31.654  1.00  0.00     0.288 C 
HETATM    2  N   UNL     1      -8.433   3.399 -30.733  1.00  0.00    -0.262 N 
HETATM    3  O   UNL     1      -9.557   4.985 -31.845  1.00  0.00    -0.264 OA
HETATM    4  H   UNL     1      -9.297   3.232 -30.224  1.00  0.00     0.190 HD
ENDROOT
BRANCH   2   5
HETATM    5  N   UNL     1      -7.292   2.730 -30.304  1.00  0.00    -0.265 N 
HETATM    6  C   UNL     1      -6.905   1.504 -30.807  1.00  0.00     0.260 C 
HETATM    7  O   UNL     1      -6.120   0.825 -30.145  1.00  0.00    -0.269 OA
HETATM    8  H   UNL     1      -6.960   2.933 -29.364  1.00  0.00     0.190 HD
BRANCH   6   9
HETATM    9  C   UNL     1      -7.434   1.096 -32.189  1.00  0.00     0.280 C 
BRANCH   9  10
HETATM   10  O   UNL     1      -6.480   1.182 -33.244  1.00  0.00    -0.342 OA
BRANCH  10  11
HETATM   11  C   UNL     1      -5.853  -0.002 -33.524  1.00  0.00     0.070 A 
HETATM   12  C   UNL     1      -6.650  -1.040 -34.007  1.00  0.00     0.049 A 
HETATM   13  C   UNL     1      -6.103  -2.311 -34.254  1.00  0.00    -0.023 A 
HETATM   14  C   UNL     1      -4.733  -2.537 -33.990  1.00  0.00    -0.026 A 
HETATM   15  C   UNL     1      -6.890  -3.367 -34.745  1.00  0.00     0.012 A 
HETATM   16  C   UNL     1      -3.947  -1.485 -33.495  1.00  0.00     0.015 A 
HETATM   17  C   UNL     1      -4.191  -3.814 -34.212  1.00  0.00     0.012 A 
HETATM   18  C   UNL     1      -4.505  -0.226 -33.257  1.00  0.00     0.037 A 
HETATM   19  C   UNL     1      -4.988  -4.853 -34.694  1.00  0.00     0.001 A 
HETATM   20  C   UNL     1      -6.334  -4.629 -34.965  1.00  0.00     0.001 A 
ENDBRANCH  10  11
ENDBRANCH   9  10
ENDBRANCH   6   9
ENDBRANCH   2   5
BRANCH   1  21
HETATM   21  C   UNL     1      -7.309   4.777 -32.422  1.00  0.00     0.121 A 
HETATM   22  N   UNL     1      -7.204   4.401 -33.735  1.00  0.00    -0.272 N 
HETATM   23  N   UNL     1      -6.004   4.634 -34.281  1.00  0.00    -0.174 NA
HETATM   24  H   UNL     1      -7.908   3.919 -34.287  1.00  0.00     0.189 HD
HETATM   25  C   UNL     1      -5.322   5.280 -33.325  1.00  0.00     0.089 A 
HETATM   26  C   UNL     1      -6.128   5.445 -32.165  1.00  0.00     0.071 A 
BRANCH  25  27
HETATM   27  C   UNL     1      -3.927   5.672 -33.498  1.00  0.00    -0.006 A 
HETATM   28  C   UNL     1      -3.147   5.130 -34.528  1.00  0.00     0.014 A 
HETATM   29  C   UNL     1      -1.828   5.552 -34.712  1.00  0.00     0.001 A 
HETATM   30  C   UNL     1      -1.280   6.522 -33.874  1.00  0.00     0.000 A 
HETATM   31  C   UNL     1      -2.047   7.066 -32.844  1.00  0.00     0.001 A 
HETATM   32  C   UNL     1      -3.362   6.638 -32.653  1.00  0.00     0.014 A 
ENDBRANCH  25  27
ENDBRANCH   1  21
TORSDOF 6
ENDMDL
MODEL 9
REMARK VINA RESULT:      -9.4      2.246     10.243
REMARK  6 active torsions:
REMARK  status: ('A' for Active; 'I' for Inactive)
REMARK    1  A    between atoms: C_4  and  C_5 
REMARK    2  A    between atoms: C_9  and  C_10 
REMARK       I    between atoms: C_10  and  N_11 
REMARK    3  A    between atoms: N_11  and  N_12 
REMARK       I    between atoms: N_12  and  C_13 
REMARK    4  A    between atoms: C_13  and  C_14 
REMARK    5  A    between atoms: C_14  and  O_15 
REMARK    6  A    between atoms: O_15  and  C_16 
ROOT
HETATM    1  C   UNL     1      -6.418   3.464 -32.095  1.00  0.00     0.288 C 
HETATM    2  N   UNL     1      -6.048   4.508 -32.923  1.00  0.00    -0.262 N 
HETATM    3  O   UNL     1      -7.075   3.733 -31.089  1.00  0.00    -0.264 OA
HETATM    4  H   UNL     1      -6.421   5.419 -32.670  1.00  0.00     0.190 HD
ENDROOT
BRANCH   2   5
HETATM    5  N   UNL     1      -5.405   4.392 -34.149  1.00  0.00    -0.265 N 
HETATM    6  C   UNL     1      -4.329   5.177 -34.513  1.00  0.00     0.260 C 
HETATM    7  O   UNL     1      -4.055   5.271 -35.709  1.00  0.00    -0.269 OA
HETATM    8  H   UNL     1      -5.949   4.022 -34.926  1.00  0.00     0.190 HD
BRANCH   6   9
HETATM    9  C   UNL     1      -3.510   5.834 -33.392  1.00  0.00     0.280 C 
BRANCH   9  10
HETATM   10  O   UNL     1      -2.976   4.926 -32.432  1.00  0.00    -0.342 OA
BRANCH  10  11
HETATM   11  C   UNL     1      -2.009   5.470 -31.631  1.00  0.00     0.070 A 
HETATM   12  C   UNL     1      -2.437   6.316 -30.608  1.00  0.00     0.049 A 
HETATM   13  C   UNL     1      -1.509   6.973 -29.783  1.00  0.00    -0.023 A 
HETATM   14  C   UNL     1      -0.127   6.785 -30.010  1.00  0.00    -0.026 A 
HETATM   15  C   UNL     1      -1.923   7.824 -28.744  1.00  0.00     0.012 A 
HETATM   16  C   UNL     1       0.288   5.938 -31.050  1.00  0.00     0.015 A 
HETATM   17  C   UNL     1       0.803   7.461 -29.202  1.00  0.00     0.012 A 
HETATM   18  C   UNL     1      -0.647   5.289 -31.860  1.00  0.00     0.037 A 
HETATM   19  C   UNL     1       0.374   8.308 -28.179  1.00  0.00     0.001 A 
HETATM   20  C   UNL     1      -0.986   8.486 -27.947  1.00  0.00     0.001 A 
ENDBRANCH  10  11
ENDBRANCH   9  10
ENDBRANCH   6   9
ENDBRANCH   2   5
BRANCH   1  21
HETATM   21  C   UNL     1      -5.971   2.122 -32.359  1.00  0.00     0.121 A 
HETATM   22  N   UNL     1      -4.692   1.742 -32.049  1.00  0.00    -0.272 N 
HETATM   23  N   UNL     1      -4.352   0.529 -32.502  1.00  0.00    -0.174 NA
HETATM   24  H   UNL     1      -3.986   2.305 -31.582  1.00  0.00     0.189 HD
HETATM   25  C   UNL     1      -5.479   0.047 -33.045  1.00  0.00     0.089 A 
HETATM   26  C   UNL     1      -6.534   0.992 -32.919  1.00  0.00     0.071 A 
BRANCH  25  27
HETATM   27  C   UNL     1      -5.526  -1.250 -33.712  1.00  0.00    -0.006 A 
HETATM   28  C   UNL     1      -4.358  -1.993 -33.928  1.00  0.00     0.014 A 
HETATM   29  C   UNL     1      -4.425  -3.255 -34.524  1.00  0.00     0.001 A 
HETATM   30  C   UNL     1      -5.657  -3.787 -34.902  1.00  0.00     0.000 A 
HETATM   31  C   UNL     1      -6.825  -3.054 -34.693  1.00  0.00     0.001 A 
HETATM   32  C   UNL     1      -6.759  -1.789 -34.107  1.00  0.00     0.014 A 
ENDBRANCH  25  27
ENDBRANCH   1  21
TORSDOF 6
ENDMDL
MODEL 10
REMARK VINA RESULT:      -9.4      3.908      5.351
REMARK  6 active torsions:
REMARK  status: ('A' for Active; 'I' for Inactive)
REMARK    1  A    between atoms: C_4  and  C_5 
REMARK    2  A    between atoms: C_9  and  C_10 
REMARK       I    between atoms: C_10  and  N_11 
REMARK    3  A    between atoms: N_11  and  N_12 
REMARK       I    between atoms: N_12  and  C_13 
REMARK    4  A    between atoms: C_13  and  C_14 
REMARK    5  A    between atoms: C_14  and  O_15 
REMARK    6  A    between atoms: O_15  and  C_16 
ROOT
HETATM    1  C   UNL     1      -8.709   4.756 -34.087  1.00  0.00     0.288 C 
HETATM    2  N   UNL     1      -9.266   3.610 -33.551  1.00  0.00    -0.262 N 
HETATM    3  O   UNL     1      -9.356   5.366 -34.938  1.00  0.00    -0.264 OA
HETATM    4  H   UNL     1     -10.215   3.403 -33.852  1.00  0.00     0.190 HD
ENDROOT
BRANCH   2   5
HETATM    5  N   UNL     1      -8.742   2.854 -32.509  1.00  0.00    -0.265 N 
HETATM    6  C   UNL     1      -8.405   1.522 -32.641  1.00  0.00     0.260 C 
HETATM    7  O   UNL     1      -8.298   0.845 -31.619  1.00  0.00    -0.269 OA
HETATM    8  H   UNL     1      -8.968   3.148 -31.561  1.00  0.00     0.190 HD
BRANCH   6   9
HETATM    9  C   UNL     1      -8.129   0.988 -34.054  1.00  0.00     0.280 C 
BRANCH   9  10
HETATM   10  O   UNL     1      -6.750   0.923 -34.408  1.00  0.00    -0.342 OA
BRANCH  10  11
HETATM   11  C   UNL     1      -6.199  -0.322 -34.272  1.00  0.00     0.070 A 
HETATM   12  C   UNL     1      -5.256  -0.488 -33.257  1.00  0.00     0.049 A 
HETATM   13  C   UNL     1      -4.588  -1.713 -33.090  1.00  0.00    -0.023 A 
HETATM   14  C   UNL     1      -4.866  -2.779 -33.976  1.00  0.00    -0.026 A 
HETATM   15  C   UNL     1      -3.639  -1.899 -32.070  1.00  0.00     0.012 A 
HETATM   16  C   UNL     1      -5.810  -2.592 -34.998  1.00  0.00     0.015 A 
HETATM   17  C   UNL     1      -4.179  -3.995 -33.826  1.00  0.00     0.012 A 
HETATM   18  C   UNL     1      -6.468  -1.369 -35.149  1.00  0.00     0.037 A 
HETATM   19  C   UNL     1      -3.236  -4.161 -32.812  1.00  0.00     0.001 A 
HETATM   20  C   UNL     1      -2.969  -3.117 -31.932  1.00  0.00     0.001 A 
ENDBRANCH  10  11
ENDBRANCH   9  10
ENDBRANCH   6   9
ENDBRANCH   2   5
BRANCH   1  21
HETATM   21  C   UNL     1      -7.380   5.167 -33.721  1.00  0.00     0.121 A 
HETATM   22  N   UNL     1      -7.186   6.254 -32.911  1.00  0.00    -0.272 N 
HETATM   23  N   UNL     1      -5.907   6.632 -32.790  1.00  0.00    -0.174 NA
HETATM   24  H   UNL     1      -7.907   6.817 -32.466  1.00  0.00     0.189 HD
HETATM   25  C   UNL     1      -5.219   5.699 -33.465  1.00  0.00     0.089 A 
HETATM   26  C   UNL     1      -6.103   4.728 -34.011  1.00  0.00     0.071 A 
BRANCH  25  27
HETATM   27  C   UNL     1      -3.771   5.772 -33.629  1.00  0.00    -0.006 A 
HETATM   28  C   UNL     1      -3.124   5.068 -34.653  1.00  0.00     0.014 A 
HETATM   29  C   UNL     1      -1.743   5.187 -34.828  1.00  0.00     0.001 A 
HETATM   30  C   UNL     1      -0.999   6.014 -33.987  1.00  0.00     0.000 A 
HETATM   31  C   UNL     1      -1.633   6.717 -32.964  1.00  0.00     0.001 A 
HETATM   32  C   UNL     1      -3.012   6.591 -32.782  1.00  0.00     0.014 A 
ENDBRANCH  25  27
ENDBRANCH   1  21
TORSDOF 6
ENDMDL
