MODEL 1
REMARK VINA RESULT:      -9.4      0.000      0.000
REMARK  5 active torsions:
REMARK  status: ('A' for Active; 'I' for Inactive)
REMARK    1  A    between atoms: C_2  and  C_3 
REMARK    2  A    between atoms: C_6  and  C_7 
REMARK    3  A    between atoms: C_7  and  C_8 
REMARK       I    between atoms: C_8  and  N_9 
REMARK    4  A    between atoms: N_9  and  C_10 
REMARK    5  A    between atoms: C_12  and  C_13 
ROOT
HETATM    1  C   UNL     1      -8.470   0.290 -34.146  1.00  0.00     0.226 C 
HETATM    2  N   UNL     1      -9.078   1.483 -34.516  1.00  0.00    -0.327 N 
HETATM    3  O   UNL     1      -8.641  -0.312 -33.090  1.00  0.00    -0.273 OA
HETATM    4  H   UNL     1      -8.764   1.899 -35.383  1.00  0.00     0.169 HD
ENDROOT
BRANCH   1   5
HETATM    5  C   UNL     1      -7.553  -0.256 -35.234  1.00  0.00     0.144 C 
BRANCH   5   6
HETATM    6  C   UNL     1      -6.366  -0.996 -34.705  1.00  0.00    -0.021 A 
HETATM    7  C   UNL     1      -6.107  -2.407 -34.764  1.00  0.00    -0.001 A 
HETATM    8  C   UNL     1      -4.925  -2.649 -34.058  1.00  0.00     0.049 A 
HETATM    9  C   UNL     1      -6.777  -3.507 -35.337  1.00  0.00     0.014 A 
HETATM   10  C   UNL     1      -4.381  -3.936 -33.869  1.00  0.00    -0.031 A 
HETATM   11  N   UNL     1      -4.462  -1.426 -33.627  1.00  0.00    -0.364 N 
HETATM   12  C   UNL     1      -5.077  -5.000 -34.469  1.00  0.00     0.009 A 
HETATM   13  C   UNL     1      -6.249  -4.793 -35.191  1.00  0.00     0.002 A 
HETATM   14  C   UNL     1      -5.320  -0.431 -34.001  1.00  0.00     0.097 A 
HETATM   15  H   UNL     1      -3.611  -1.292 -33.101  1.00  0.00     0.165 HD
BRANCH  10  16
HETATM   16  C   UNL     1      -3.120  -4.206 -33.085  1.00  0.00     0.036 C 
HETATM   17  C   UNL     1      -3.145  -3.541 -31.718  1.00  0.00     0.010 C 
ENDBRANCH  10  16
ENDBRANCH   5   6
ENDBRANCH   1   5
BRANCH   2  18
HETATM   18  C   UNL     1     -10.056   2.210 -33.808  1.00  0.00     0.035 A 
HETATM   19  C   UNL     1     -11.387   1.784 -33.939  1.00  0.00     0.042 A 
HETATM   20  C   UNL     1     -12.430   2.431 -33.257  1.00  0.00    -0.021 A 
HETATM   21  C   UNL     1     -12.123   3.514 -32.427  1.00  0.00     0.012 A 
HETATM   22  C   UNL     1     -10.801   3.944 -32.291  1.00  0.00     0.003 A 
HETATM   23  C   UNL     1      -9.773   3.297 -32.980  1.00  0.00     0.029 A 
BRANCH  20  24
HETATM   24  C   UNL     1     -13.800   1.980 -33.430  1.00  0.00     0.010 A 
HETATM   25  C   UNL     1     -14.962   2.238 -32.664  1.00  0.00     0.152 A 
HETATM   26  N   UNL     1     -16.053   1.651 -33.163  1.00  0.00    -0.187 NA
HETATM   27  N   UNL     1     -15.594   1.010 -34.250  1.00  0.00    -0.289 N 
HETATM   28  H   UNL     1     -16.253   0.479 -34.810  1.00  0.00     0.188 HD
HETATM   29  C   UNL     1     -14.254   1.178 -34.455  1.00  0.00     0.123 A 
ENDBRANCH  20  24
ENDBRANCH   2  18
TORSDOF 5
ENDMDL
MODEL 2
REMARK VINA RESULT:      -9.3      4.792      8.705
REMARK  5 active torsions:
REMARK  status: ('A' for Active; 'I' for Inactive)
REMARK    1  A    between atoms: C_2  and  C_3 
REMARK    2  A    between atoms: C_6  and  C_7 
REMARK    3  A    between atoms: C_7  and  C_8 
REMARK       I    between atoms: C_8  and  N_9 
REMARK    4  A    between atoms: N_9  and  C_10 
REMARK    5  A    between atoms: C_12  and  C_13 
ROOT
HETATM    1  C   UNL     1      -6.778   3.235 -32.621  1.00  0.00     0.226 C 
HETATM    2  N   UNL     1      -6.276   2.584 -33.741  1.00  0.00    -0.327 N 
HETATM    3  O   UNL     1      -7.447   2.724 -31.727  1.00  0.00    -0.273 OA
HETATM    4  H   UNL     1      -5.820   3.165 -34.433  1.00  0.00     0.169 HD
ENDROOT
BRANCH   1   5
HETATM    5  C   UNL     1      -6.376   4.704 -32.574  1.00  0.00     0.144 C 
BRANCH   5   6
HETATM    6  C   UNL     1      -4.964   4.928 -32.135  1.00  0.00    -0.021 A 
HETATM    7  C   UNL     1      -3.798   5.083 -32.958  1.00  0.00    -0.001 A 
HETATM    8  C   UNL     1      -2.691   5.173 -32.109  1.00  0.00     0.049 A 
HETATM    9  C   UNL     1      -3.576   5.138 -34.348  1.00  0.00     0.014 A 
HETATM   10  C   UNL     1      -1.364   5.292 -32.570  1.00  0.00    -0.031 A 
HETATM   11  N   UNL     1      -3.173   5.121 -30.821  1.00  0.00    -0.364 N 
HETATM   12  C   UNL     1      -1.193   5.356 -33.964  1.00  0.00     0.009 A 
HETATM   13  C   UNL     1      -2.274   5.283 -34.838  1.00  0.00     0.002 A 
HETATM   14  C   UNL     1      -4.531   4.966 -30.824  1.00  0.00     0.097 A 
HETATM   15  H   UNL     1      -2.597   5.181 -29.993  1.00  0.00     0.165 HD
BRANCH  10  16
HETATM   16  C   UNL     1      -0.164   5.363 -31.659  1.00  0.00     0.036 C 
HETATM   17  C   UNL     1       0.121   6.784 -31.198  1.00  0.00     0.010 C 
ENDBRANCH  10  16
ENDBRANCH   5   6
ENDBRANCH   1   5
BRANCH   2  18
HETATM   18  C   UNL     1      -6.363   1.213 -34.055  1.00  0.00     0.035 A 
HETATM   19  C   UNL     1      -5.433   0.359 -33.441  1.00  0.00     0.042 A 
HETATM   20  C   UNL     1      -5.451  -1.025 -33.673  1.00  0.00    -0.021 A 
HETATM   21  C   UNL     1      -6.424  -1.553 -34.529  1.00  0.00     0.012 A 
HETATM   22  C   UNL     1      -7.352  -0.711 -35.143  1.00  0.00     0.003 A 
HETATM   23  C   UNL     1      -7.320   0.666 -34.909  1.00  0.00     0.029 A 
BRANCH  20  24
HETATM   24  C   UNL     1      -4.461  -1.881 -33.040  1.00  0.00     0.010 A 
HETATM   25  C   UNL     1      -4.066  -3.209 -33.330  1.00  0.00     0.152 A 
HETATM   26  N   UNL     1      -3.097  -3.648 -32.523  1.00  0.00    -0.187 NA
HETATM   27  N   UNL     1      -2.870  -2.605 -31.709  1.00  0.00    -0.289 N 
HETATM   28  H   UNL     1      -2.158  -2.701 -30.992  1.00  0.00     0.188 HD
HETATM   29  C   UNL     1      -3.658  -1.523 -31.979  1.00  0.00     0.123 A 
ENDBRANCH  20  24
ENDBRANCH   2  18
TORSDOF 5
ENDMDL
MODEL 3
REMARK VINA RESULT:      -9.1      5.864      9.210
REMARK  5 active torsions:
REMARK  status: ('A' for Active; 'I' for Inactive)
REMARK    1  A    between atoms: C_2  and  C_3 
REMARK    2  A    between atoms: C_6  and  C_7 
REMARK    3  A    between atoms: C_7  and  C_8 
REMARK       I    between atoms: C_8  and  N_9 
REMARK    4  A    between atoms: N_9  and  C_10 
REMARK    5  A    between atoms: C_12  and  C_13 
ROOT
HETATM    1  C   UNL     1      -3.678   1.906 -31.564  1.00  0.00     0.226 C 
HETATM    2  N   UNL     1      -3.771   3.124 -32.227  1.00  0.00    -0.327 N 
HETATM    3  O   UNL     1      -2.648   1.392 -31.138  1.00  0.00    -0.273 OA
HETATM    4  H   UNL     1      -4.681   3.368 -32.595  1.00  0.00     0.169 HD
ENDROOT
BRANCH   1   5
HETATM    5  C   UNL     1      -5.038   1.247 -31.366  1.00  0.00     0.144 C 
BRANCH   5   6
HETATM    6  C   UNL     1      -5.353   0.200 -32.386  1.00  0.00    -0.021 A 
HETATM    7  C   UNL     1      -4.715  -1.074 -32.570  1.00  0.00    -0.001 A 
HETATM    8  C   UNL     1      -5.281  -1.669 -33.701  1.00  0.00     0.049 A 
HETATM    9  C   UNL     1      -3.698  -1.771 -31.889  1.00  0.00     0.014 A 
HETATM   10  C   UNL     1      -4.869  -2.918 -34.211  1.00  0.00    -0.031 A 
HETATM   11  N   UNL     1      -6.254  -0.809 -34.158  1.00  0.00    -0.364 N 
HETATM   12  C   UNL     1      -3.860  -3.581 -33.492  1.00  0.00     0.009 A 
HETATM   13  C   UNL     1      -3.285  -3.023 -32.353  1.00  0.00     0.002 A 
HETATM   14  C   UNL     1      -6.301   0.316 -33.384  1.00  0.00     0.097 A 
HETATM   15  H   UNL     1      -6.842  -0.988 -34.960  1.00  0.00     0.165 HD
BRANCH  10  16
HETATM   16  C   UNL     1      -5.457  -3.552 -35.447  1.00  0.00     0.036 C 
HETATM   17  C   UNL     1      -6.654  -4.431 -35.124  1.00  0.00     0.010 C 
ENDBRANCH  10  16
ENDBRANCH   5   6
ENDBRANCH   1   5
BRANCH   2  18
HETATM   18  C   UNL     1      -2.738   4.046 -32.488  1.00  0.00     0.035 A 
HETATM   19  C   UNL     1      -2.060   4.575 -31.378  1.00  0.00     0.042 A 
HETATM   20  C   UNL     1      -1.002   5.484 -31.536  1.00  0.00    -0.021 A 
HETATM   21  C   UNL     1      -0.621   5.858 -32.828  1.00  0.00     0.012 A 
HETATM   22  C   UNL     1      -1.290   5.337 -33.937  1.00  0.00     0.003 A 
HETATM   23  C   UNL     1      -2.345   4.438 -33.768  1.00  0.00     0.029 A 
BRANCH  20  24
HETATM   24  C   UNL     1      -0.334   6.031 -30.366  1.00  0.00     0.010 A 
HETATM   25  C   UNL     1      -0.321   7.344 -29.839  1.00  0.00     0.152 A 
HETATM   26  N   UNL     1       0.405   7.446 -28.722  1.00  0.00    -0.187 NA
HETATM   27  N   UNL     1       0.864   6.199 -28.532  1.00  0.00    -0.289 N 
HETATM   28  H   UNL     1       1.455   6.021 -27.726  1.00  0.00     0.188 HD
HETATM   29  C   UNL     1       0.448   5.315 -29.486  1.00  0.00     0.123 A 
ENDBRANCH  20  24
ENDBRANCH   2  18
TORSDOF 5
ENDMDL
MODEL 4
REMARK VINA RESULT:      -9.0      5.381      8.974
REMARK  5 active torsions:
REMARK  status: ('A' for Active; 'I' for Inactive)
REMARK    1  A    between atoms: C_2  and  C_3 
REMARK    2  A    between atoms: C_6  and  C_7 
REMARK    3  A    between atoms: C_7  and  C_8 
REMARK       I    between atoms: C_8  and  N_9 
REMARK    4  A    between atoms: N_9  and  C_10 
REMARK    5  A    between atoms: C_12  and  C_13 
ROOT
HETATM    1  C   UNL     1      -5.368   2.105 -31.917  1.00  0.00     0.226 C 
HETATM    2  N   UNL     1      -4.712   1.320 -32.857  1.00  0.00    -0.327 N 
HETATM    3  O   UNL     1      -5.748   1.739 -30.809  1.00  0.00    -0.273 OA
HETATM    4  H   UNL     1      -4.544   1.745 -33.760  1.00  0.00     0.169 HD
ENDROOT
BRANCH   1   5
HETATM    5  C   UNL     1      -5.552   3.543 -32.386  1.00  0.00     0.144 C 
BRANCH   5   6
HETATM    6  C   UNL     1      -4.405   4.439 -32.045  1.00  0.00    -0.021 A 
HETATM    7  C   UNL     1      -3.382   4.938 -32.921  1.00  0.00    -0.001 A 
HETATM    8  C   UNL     1      -2.473   5.658 -32.140  1.00  0.00     0.049 A 
HETATM    9  C   UNL     1      -3.134   4.830 -34.303  1.00  0.00     0.014 A 
HETATM   10  C   UNL     1      -1.309   6.261 -32.660  1.00  0.00    -0.031 A 
HETATM   11  N   UNL     1      -2.951   5.634 -30.850  1.00  0.00    -0.364 N 
HETATM   12  C   UNL     1      -1.110   6.138 -34.046  1.00  0.00     0.009 A 
HETATM   13  C   UNL     1      -2.003   5.440 -34.854  1.00  0.00     0.002 A 
HETATM   14  C   UNL     1      -4.101   4.901 -30.778  1.00  0.00     0.097 A 
HETATM   15  H   UNL     1      -2.503   6.090 -30.068  1.00  0.00     0.165 HD
BRANCH  10  16
HETATM   16  C   UNL     1      -0.310   7.016 -31.818  1.00  0.00     0.036 C 
HETATM   17  C   UNL     1       0.538   6.085 -30.966  1.00  0.00     0.010 C 
ENDBRANCH  10  16
ENDBRANCH   5   6
ENDBRANCH   1   5
BRANCH   2  18
HETATM   18  C   UNL     1      -4.287  -0.017 -32.722  1.00  0.00     0.035 A 
HETATM   19  C   UNL     1      -4.976  -0.983 -33.471  1.00  0.00     0.042 A 
HETATM   20  C   UNL     1      -4.614  -2.339 -33.421  1.00  0.00    -0.021 A 
HETATM   21  C   UNL     1      -3.540  -2.720 -32.610  1.00  0.00     0.012 A 
HETATM   22  C   UNL     1      -2.849  -1.765 -31.863  1.00  0.00     0.003 A 
HETATM   23  C   UNL     1      -3.223  -0.420 -31.916  1.00  0.00     0.029 A 
BRANCH  20  24
HETATM   24  C   UNL     1      -5.361  -3.319 -34.191  1.00  0.00     0.010 A 
HETATM   25  C   UNL     1      -5.010  -4.622 -34.617  1.00  0.00     0.152 A 
HETATM   26  N   UNL     1      -5.988  -5.225 -35.298  1.00  0.00    -0.187 NA
HETATM   27  N   UNL     1      -6.969  -4.309 -35.317  1.00  0.00    -0.289 N 
HETATM   28  H   UNL     1      -7.836  -4.542 -35.789  1.00  0.00     0.188 HD
HETATM   29  C   UNL     1      -6.644  -3.153 -34.666  1.00  0.00     0.123 A 
ENDBRANCH  20  24
ENDBRANCH   2  18
TORSDOF 5
ENDMDL
MODEL 5
REMARK VINA RESULT:      -8.9      6.162      8.835
REMARK  5 active torsions:
REMARK  status: ('A' for Active; 'I' for Inactive)
REMARK    1  A    between atoms: C_2  and  C_3 
REMARK    2  A    between atoms: C_6  and  C_7 
REMARK    3  A    between atoms: C_7  and  C_8 
REMARK       I    between atoms: C_8  and  N_9 
REMARK    4  A    between atoms: N_9  and  C_10 
REMARK    5  A    between atoms: C_12  and  C_13 
ROOT
HETATM    1  C   UNL     1      -4.305   2.655 -31.538  1.00  0.00     0.226 C 
HETATM    2  N   UNL     1      -3.026   3.175 -31.386  1.00  0.00    -0.327 N 
HETATM    3  O   UNL     1      -5.228   3.176 -32.158  1.00  0.00    -0.273 OA
HETATM    4  H   UNL     1      -2.404   2.668 -30.770  1.00  0.00     0.169 HD
ENDROOT
BRANCH   1   5
HETATM    5  C   UNL     1      -4.464   1.297 -30.868  1.00  0.00     0.144 C 
BRANCH   5   6
HETATM    6  C   UNL     1      -4.429   0.146 -31.822  1.00  0.00    -0.021 A 
HETATM    7  C   UNL     1      -5.463  -0.290 -32.717  1.00  0.00    -0.001 A 
HETATM    8  C   UNL     1      -5.016  -1.459 -33.340  1.00  0.00     0.049 A 
HETATM    9  C   UNL     1      -6.747   0.189 -33.045  1.00  0.00     0.014 A 
HETATM   10  C   UNL     1      -5.791  -2.196 -34.261  1.00  0.00    -0.031 A 
HETATM   11  N   UNL     1      -3.743  -1.696 -32.874  1.00  0.00    -0.364 N 
HETATM   12  C   UNL     1      -7.059  -1.671 -34.566  1.00  0.00     0.009 A 
HETATM   13  C   UNL     1      -7.529  -0.502 -33.974  1.00  0.00     0.002 A 
HETATM   14  C   UNL     1      -3.384  -0.747 -31.959  1.00  0.00     0.097 A 
HETATM   15  H   UNL     1      -3.164  -2.470 -33.166  1.00  0.00     0.165 HD
BRANCH  10  16
HETATM   16  C   UNL     1      -5.324  -3.472 -34.915  1.00  0.00     0.036 C 
HETATM   17  C   UNL     1      -6.479  -4.411 -35.224  1.00  0.00     0.010 C 
ENDBRANCH  10  16
ENDBRANCH   5   6
ENDBRANCH   1   5
BRANCH   2  18
HETATM   18  C   UNL     1      -2.497   4.351 -31.955  1.00  0.00     0.035 A 
HETATM   19  C   UNL     1      -2.448   5.489 -31.134  1.00  0.00     0.042 A 
HETATM   20  C   UNL     1      -1.920   6.703 -31.602  1.00  0.00    -0.021 A 
HETATM   21  C   UNL     1      -1.430   6.765 -32.911  1.00  0.00     0.012 A 
HETATM   22  C   UNL     1      -1.475   5.638 -33.733  1.00  0.00     0.003 A 
HETATM   23  C   UNL     1      -2.009   4.438 -33.258  1.00  0.00     0.029 A 
BRANCH  20  24
HETATM   24  C   UNL     1      -1.902   7.869 -30.736  1.00  0.00     0.010 A 
HETATM   25  C   UNL     1      -2.412   9.175 -30.932  1.00  0.00     0.152 A 
HETATM   26  N   UNL     1      -2.214   9.972 -29.879  1.00  0.00    -0.187 NA
HETATM   27  N   UNL     1      -1.572   9.182 -29.004  1.00  0.00    -0.289 N 
HETATM   28  H   UNL     1      -1.308   9.574 -28.106  1.00  0.00     0.188 HD
HETATM   29  C   UNL     1      -1.364   7.915 -29.467  1.00  0.00     0.123 A 
ENDBRANCH  20  24
ENDBRANCH   2  18
TORSDOF 5
ENDMDL
MODEL 6
REMARK VINA RESULT:      -8.7      1.631      2.144
REMARK  5 active torsions:
REMARK  status: ('A' for Active; 'I' for Inactive)
REMARK    1  A    between atoms: C_2  and  C_3 
REMARK    2  A    between atoms: C_6  and  C_7 
REMARK    3  A    between atoms: C_7  and  C_8 
REMARK       I    between atoms: C_8  and  N_9 
REMARK    4  A    between atoms: N_9  and  C_10 
REMARK    5  A    between atoms: C_12  and  C_13 
ROOT
HETATM    1  C   UNL     1      -6.749   2.040 -33.220  1.00  0.00     0.226 C 
HETATM    2  N   UNL     1      -8.064   2.003 -32.773  1.00  0.00    -0.327 N 
HETATM    3  O   UNL     1      -6.359   2.521 -34.279  1.00  0.00    -0.273 OA
HETATM    4  H   UNL     1      -8.235   1.490 -31.917  1.00  0.00     0.169 HD
ENDROOT
BRANCH   1   5
HETATM    5  C   UNL     1      -5.777   1.435 -32.215  1.00  0.00     0.144 C 
BRANCH   5   6
HETATM    6  C   UNL     1      -5.065   0.222 -32.721  1.00  0.00    -0.021 A 
HETATM    7  C   UNL     1      -5.619  -0.894 -33.434  1.00  0.00    -0.001 A 
HETATM    8  C   UNL     1      -4.595  -1.829 -33.615  1.00  0.00     0.049 A 
HETATM    9  C   UNL     1      -6.900  -1.207 -33.929  1.00  0.00     0.014 A 
HETATM   10  C   UNL     1      -4.784  -3.077 -34.244  1.00  0.00    -0.031 A 
HETATM   11  N   UNL     1      -3.455  -1.281 -33.072  1.00  0.00    -0.364 N 
HETATM   12  C   UNL     1      -6.076  -3.339 -34.733  1.00  0.00     0.009 A 
HETATM   13  C   UNL     1      -7.114  -2.424 -34.582  1.00  0.00     0.002 A 
HETATM   14  C   UNL     1      -3.725  -0.057 -32.527  1.00  0.00     0.097 A 
HETATM   15  H   UNL     1      -2.551  -1.729 -33.073  1.00  0.00     0.165 HD
BRANCH  10  16
HETATM   16  C   UNL     1      -3.690  -4.101 -34.418  1.00  0.00     0.036 C 
HETATM   17  C   UNL     1      -3.458  -4.910 -33.152  1.00  0.00     0.010 C 
ENDBRANCH  10  16
ENDBRANCH   5   6
ENDBRANCH   1   5
BRANCH   2  18
HETATM   18  C   UNL     1      -9.203   2.558 -33.391  1.00  0.00     0.035 A 
HETATM   19  C   UNL     1     -10.355   1.758 -33.441  1.00  0.00     0.042 A 
HETATM   20  C   UNL     1     -11.545   2.229 -34.017  1.00  0.00    -0.021 A 
HETATM   21  C   UNL     1     -11.574   3.526 -34.541  1.00  0.00     0.012 A 
HETATM   22  C   UNL     1     -10.432   4.328 -34.494  1.00  0.00     0.003 A 
HETATM   23  C   UNL     1      -9.252   3.845 -33.925  1.00  0.00     0.029 A 
BRANCH  20  24
HETATM   24  C   UNL     1     -12.715   1.369 -34.073  1.00  0.00     0.010 A 
HETATM   25  C   UNL     1     -14.021   1.615 -34.559  1.00  0.00     0.152 A 
HETATM   26  N   UNL     1     -14.822   0.552 -34.453  1.00  0.00    -0.187 NA
HETATM   27  N   UNL     1     -14.034  -0.380 -33.894  1.00  0.00    -0.289 N 
HETATM   28  H   UNL     1     -14.429  -1.296 -33.709  1.00  0.00     0.188 HD
HETATM   29  C   UNL     1     -12.765   0.058 -33.649  1.00  0.00     0.123 A 
ENDBRANCH  20  24
ENDBRANCH   2  18
TORSDOF 5
ENDMDL
MODEL 7
REMARK VINA RESULT:      -8.6      5.499      9.183
REMARK  5 active torsions:
REMARK  status: ('A' for Active; 'I' for Inactive)
REMARK    1  A    between atoms: C_2  and  C_3 
REMARK    2  A    between atoms: C_6  and  C_7 
REMARK    3  A    between atoms: C_7  and  C_8 
REMARK       I    between atoms: C_8  and  N_9 
REMARK    4  A    between atoms: N_9  and  C_10 
REMARK    5  A    between atoms: C_12  and  C_13 
ROOT
HETATM    1  C   UNL     1      -4.454   2.053 -32.039  1.00  0.00     0.226 C 
HETATM    2  N   UNL     1      -5.722   1.511 -32.208  1.00  0.00    -0.327 N 
HETATM    3  O   UNL     1      -3.495   1.895 -32.789  1.00  0.00    -0.273 OA
HETATM    4  H   UNL     1      -6.381   1.661 -31.455  1.00  0.00     0.169 HD
ENDROOT
BRANCH   1   5
HETATM    5  C   UNL     1      -4.360   2.935 -30.801  1.00  0.00     0.144 C 
BRANCH   5   6
HETATM    6  C   UNL     1      -4.074   4.371 -31.105  1.00  0.00    -0.021 A 
HETATM    7  C   UNL     1      -2.796   4.992 -31.317  1.00  0.00    -0.001 A 
HETATM    8  C   UNL     1      -3.014   6.364 -31.474  1.00  0.00     0.049 A 
HETATM    9  C   UNL     1      -1.471   4.518 -31.373  1.00  0.00     0.014 A 
HETATM   10  C   UNL     1      -1.976   7.300 -31.662  1.00  0.00    -0.031 A 
HETATM   11  N   UNL     1      -4.375   6.560 -31.406  1.00  0.00    -0.364 N 
HETATM   12  C   UNL     1      -0.672   6.779 -31.724  1.00  0.00     0.009 A 
HETATM   13  C   UNL     1      -0.421   5.416 -31.585  1.00  0.00     0.002 A 
HETATM   14  C   UNL     1      -5.019   5.377 -31.177  1.00  0.00     0.097 A 
HETATM   15  H   UNL     1      -4.827   7.458 -31.503  1.00  0.00     0.165 HD
BRANCH  10  16
HETATM   16  C   UNL     1      -2.204   8.784 -31.805  1.00  0.00     0.036 C 
HETATM   17  C   UNL     1      -2.416   9.461 -30.460  1.00  0.00     0.010 C 
ENDBRANCH  10  16
ENDBRANCH   5   6
ENDBRANCH   1   5
BRANCH   2  18
HETATM   18  C   UNL     1      -6.194   0.737 -33.288  1.00  0.00     0.035 A 
HETATM   19  C   UNL     1      -5.755  -0.594 -33.357  1.00  0.00     0.042 A 
HETATM   20  C   UNL     1      -6.186  -1.452 -34.382  1.00  0.00    -0.021 A 
HETATM   21  C   UNL     1      -7.076  -0.960 -35.343  1.00  0.00     0.012 A 
HETATM   22  C   UNL     1      -7.517   0.363 -35.280  1.00  0.00     0.003 A 
HETATM   23  C   UNL     1      -7.076   1.208 -34.260  1.00  0.00     0.029 A 
BRANCH  20  24
HETATM   24  C   UNL     1      -5.697  -2.819 -34.439  1.00  0.00     0.010 A 
HETATM   25  C   UNL     1      -6.326  -4.008 -34.877  1.00  0.00     0.152 A 
HETATM   26  N   UNL     1      -5.530  -5.077 -34.791  1.00  0.00    -0.187 NA
HETATM   27  N   UNL     1      -4.387  -4.578 -34.293  1.00  0.00    -0.289 N 
HETATM   28  H   UNL     1      -3.613  -5.214 -34.135  1.00  0.00     0.188 HD
HETATM   29  C   UNL     1      -4.435  -3.232 -34.068  1.00  0.00     0.123 A 
ENDBRANCH  20  24
ENDBRANCH   2  18
TORSDOF 5
ENDMDL
MODEL 8
REMARK VINA RESULT:      -8.5      2.862      4.324
REMARK  5 active torsions:
REMARK  status: ('A' for Active; 'I' for Inactive)
REMARK    1  A    between atoms: C_2  and  C_3 
REMARK    2  A    between atoms: C_6  and  C_7 
REMARK    3  A    between atoms: C_7  and  C_8 
REMARK       I    between atoms: C_8  and  N_9 
REMARK    4  A    between atoms: N_9  and  C_10 
REMARK    5  A    between atoms: C_12  and  C_13 
ROOT
HETATM    1  C   UNL     1      -4.833   1.483 -30.601  1.00  0.00     0.226 C 
HETATM    2  N   UNL     1      -5.195   2.766 -30.991  1.00  0.00    -0.327 N 
HETATM    3  O   UNL     1      -5.425   0.780 -29.787  1.00  0.00    -0.273 OA
HETATM    4  H   UNL     1      -4.552   3.249 -31.605  1.00  0.00     0.169 HD
ENDROOT
BRANCH   1   5
HETATM    5  C   UNL     1      -3.595   0.981 -31.333  1.00  0.00     0.144 C 
BRANCH   5   6
HETATM    6  C   UNL     1      -3.815  -0.290 -32.088  1.00  0.00    -0.021 A 
HETATM    7  C   UNL     1      -4.806  -0.561 -33.091  1.00  0.00    -0.001 A 
HETATM    8  C   UNL     1      -4.691  -1.909 -33.445  1.00  0.00     0.049 A 
HETATM    9  C   UNL     1      -5.803   0.209 -33.722  1.00  0.00     0.014 A 
HETATM   10  C   UNL     1      -5.536  -2.543 -34.380  1.00  0.00    -0.031 A 
HETATM   11  N   UNL     1      -3.642  -2.423 -32.717  1.00  0.00    -0.364 N 
HETATM   12  C   UNL     1      -6.507  -1.731 -34.991  1.00  0.00     0.009 A 
HETATM   13  C   UNL     1      -6.639  -0.382 -34.673  1.00  0.00     0.002 A 
HETATM   14  C   UNL     1      -3.115  -1.466 -31.896  1.00  0.00     0.097 A 
HETATM   15  H   UNL     1      -3.318  -3.377 -32.780  1.00  0.00     0.165 HD
BRANCH  10  16
HETATM   16  C   UNL     1      -5.434  -4.003 -34.745  1.00  0.00     0.036 C 
HETATM   17  C   UNL     1      -6.715  -4.524 -35.375  1.00  0.00     0.010 C 
ENDBRANCH  10  16
ENDBRANCH   5   6
ENDBRANCH   1   5
BRANCH   2  18
HETATM   18  C   UNL     1      -6.335   3.498 -30.602  1.00  0.00     0.035 A 
HETATM   19  C   UNL     1      -7.548   3.169 -31.228  1.00  0.00     0.042 A 
HETATM   20  C   UNL     1      -8.743   3.826 -30.893  1.00  0.00    -0.021 A 
HETATM   21  C   UNL     1      -8.712   4.821 -29.910  1.00  0.00     0.012 A 
HETATM   22  C   UNL     1      -7.510   5.154 -29.283  1.00  0.00     0.003 A 
HETATM   23  C   UNL     1      -6.327   4.497 -29.630  1.00  0.00     0.029 A 
BRANCH  20  24
HETATM   24  C   UNL     1      -9.978   3.479 -31.574  1.00  0.00     0.010 A 
HETATM   25  C   UNL     1     -10.211   2.665 -32.708  1.00  0.00     0.152 A 
HETATM   26  N   UNL     1     -11.506   2.573 -33.022  1.00  0.00    -0.187 NA
HETATM   27  N   UNL     1     -12.109   3.331 -32.093  1.00  0.00    -0.289 N 
HETATM   28  H   UNL     1     -13.119   3.418 -32.125  1.00  0.00     0.188 HD
HETATM   29  C   UNL     1     -11.240   3.893 -31.203  1.00  0.00     0.123 A 
ENDBRANCH  20  24
ENDBRANCH   2  18
TORSDOF 5
ENDMDL
MODEL 9
REMARK VINA RESULT:      -8.4      6.207      9.679
REMARK  5 active torsions:
REMARK  status: ('A' for Active; 'I' for Inactive)
REMARK    1  A    between atoms: C_2  and  C_3 
REMARK    2  A    between atoms: C_6  and  C_7 
REMARK    3  A    between atoms: C_7  and  C_8 
REMARK       I    between atoms: C_8  and  N_9 
REMARK    4  A    between atoms: N_9  and  C_10 
REMARK    5  A    between atoms: C_12  and  C_13 
ROOT
HETATM    1  C   UNL     1      -3.880   2.547 -31.433  1.00  0.00     0.226 C 
HETATM    2  N   UNL     1      -2.807   2.882 -32.250  1.00  0.00    -0.327 N 
HETATM    3  O   UNL     1      -4.559   3.330 -30.775  1.00  0.00    -0.273 OA
HETATM    4  H   UNL     1      -2.292   2.111 -32.656  1.00  0.00     0.169 HD
ENDROOT
BRANCH   1   5
HETATM    5  C   UNL     1      -4.181   1.054 -31.452  1.00  0.00     0.144 C 
BRANCH   5   6
HETATM    6  C   UNL     1      -5.636   0.735 -31.585  1.00  0.00    -0.021 A 
HETATM    7  C   UNL     1      -6.403   0.594 -32.791  1.00  0.00    -0.001 A 
HETATM    8  C   UNL     1      -7.736   0.389 -32.422  1.00  0.00     0.049 A 
HETATM    9  C   UNL     1      -6.092   0.640 -34.164  1.00  0.00     0.014 A 
HETATM   10  C   UNL     1      -8.787   0.249 -33.351  1.00  0.00    -0.031 A 
HETATM   11  N   UNL     1      -7.767   0.361 -31.046  1.00  0.00    -0.364 N 
HETATM   12  C   UNL     1      -8.427   0.288 -34.709  1.00  0.00     0.009 A 
HETATM   13  C   UNL     1      -7.108   0.477 -35.111  1.00  0.00     0.002 A 
HETATM   14  C   UNL     1      -6.518   0.575 -30.534  1.00  0.00     0.097 A 
HETATM   15  H   UNL     1      -8.602   0.211 -30.498  1.00  0.00     0.165 HD
BRANCH  10  16
HETATM   16  C   UNL     1     -10.231   0.054 -32.958  1.00  0.00     0.036 C 
HETATM   17  C   UNL     1     -11.138   1.104 -33.579  1.00  0.00     0.010 C 
ENDBRANCH  10  16
ENDBRANCH   5   6
ENDBRANCH   1   5
BRANCH   2  18
HETATM   18  C   UNL     1      -2.319   4.170 -32.551  1.00  0.00     0.035 A 
HETATM   19  C   UNL     1      -1.791   4.915 -31.486  1.00  0.00     0.042 A 
HETATM   20  C   UNL     1      -1.261   6.200 -31.688  1.00  0.00    -0.021 A 
HETATM   21  C   UNL     1      -1.259   6.732 -32.981  1.00  0.00     0.012 A 
HETATM   22  C   UNL     1      -1.783   5.997 -34.046  1.00  0.00     0.003 A 
HETATM   23  C   UNL     1      -2.313   4.723 -33.831  1.00  0.00     0.029 A 
BRANCH  20  24
HETATM   24  C   UNL     1      -0.740   6.956 -30.562  1.00  0.00     0.010 A 
HETATM   25  C   UNL     1      -1.385   7.843 -29.667  1.00  0.00     0.152 A 
HETATM   26  N   UNL     1      -0.558   8.333 -28.738  1.00  0.00    -0.187 NA
HETATM   27  N   UNL     1       0.621   7.765 -29.037  1.00  0.00    -0.289 N 
HETATM   28  H   UNL     1       1.423   7.989 -28.458  1.00  0.00     0.188 HD
HETATM   29  C   UNL     1       0.565   6.931 -30.117  1.00  0.00     0.123 A 
ENDBRANCH  20  24
ENDBRANCH   2  18
TORSDOF 5
ENDMDL
MODEL 10
REMARK VINA RESULT:      -8.3      1.587      2.691
REMARK  5 active torsions:
REMARK  status: ('A' for Active; 'I' for Inactive)
REMARK    1  A    between atoms: C_2  and  C_3 
REMARK    2  A    between atoms: C_6  and  C_7 
REMARK    3  A    between atoms: C_7  and  C_8 
REMARK       I    between atoms: C_8  and  N_9 
REMARK    4  A    between atoms: N_9  and  C_10 
REMARK    5  A    between atoms: C_12  and  C_13 
ROOT
HETATM    1  C   UNL     1      -7.733   2.715 -32.580  1.00  0.00     0.226 C 
HETATM    2  N   UNL     1      -8.573   3.507 -33.352  1.00  0.00    -0.327 N 
HETATM    3  O   UNL     1      -7.963   2.309 -31.444  1.00  0.00    -0.273 OA
HETATM    4  H   UNL     1      -8.200   3.833 -34.234  1.00  0.00     0.169 HD
ENDROOT
BRANCH   1   5
HETATM    5  C   UNL     1      -6.451   2.341 -33.314  1.00  0.00     0.144 C 
BRANCH   5   6
HETATM    6  C   UNL     1      -6.466   0.960 -33.887  1.00  0.00    -0.021 A 
HETATM    7  C   UNL     1      -5.589  -0.134 -33.578  1.00  0.00    -0.001 A 
HETATM    8  C   UNL     1      -5.921  -1.194 -34.426  1.00  0.00     0.049 A 
HETATM    9  C   UNL     1      -4.530  -0.318 -32.666  1.00  0.00     0.014 A 
HETATM   10  C   UNL     1      -5.237  -2.428 -34.435  1.00  0.00    -0.031 A 
HETATM   11  N   UNL     1      -6.987  -0.774 -35.189  1.00  0.00    -0.364 N 
HETATM   12  C   UNL     1      -4.197  -2.569 -33.499  1.00  0.00     0.009 A 
HETATM   13  C   UNL     1      -3.850  -1.538 -32.630  1.00  0.00     0.002 A 
HETATM   14  C   UNL     1      -7.317   0.516 -34.881  1.00  0.00     0.097 A 
HETATM   15  H   UNL     1      -7.451  -1.342 -35.883  1.00  0.00     0.165 HD
BRANCH  10  16
HETATM   16  C   UNL     1      -5.574  -3.565 -35.367  1.00  0.00     0.036 C 
HETATM   17  C   UNL     1      -6.670  -4.457 -34.807  1.00  0.00     0.010 C 
ENDBRANCH  10  16
ENDBRANCH   5   6
ENDBRANCH   1   5
BRANCH   2  18
HETATM   18  C   UNL     1      -9.873   3.951 -33.036  1.00  0.00     0.035 A 
HETATM   19  C   UNL     1     -10.938   3.109 -33.393  1.00  0.00     0.042 A 
HETATM   20  C   UNL     1     -12.268   3.452 -33.102  1.00  0.00    -0.021 A 
HETATM   21  C   UNL     1     -12.523   4.656 -32.438  1.00  0.00     0.012 A 
HETATM   22  C   UNL     1     -11.470   5.499 -32.079  1.00  0.00     0.003 A 
HETATM   23  C   UNL     1     -10.152   5.150 -32.380  1.00  0.00     0.029 A 
BRANCH  20  24
HETATM   24  C   UNL     1     -13.350   2.569 -33.503  1.00  0.00     0.010 A 
HETATM   25  C   UNL     1     -13.482   1.721 -34.628  1.00  0.00     0.152 A 
HETATM   26  N   UNL     1     -14.634   1.044 -34.634  1.00  0.00    -0.187 NA
HETATM   27  N   UNL     1     -15.248   1.460 -33.515  1.00  0.00    -0.289 N 
HETATM   28  H   UNL     1     -16.162   1.077 -33.297  1.00  0.00     0.188 HD
HETATM   29  C   UNL     1     -14.520   2.369 -32.802  1.00  0.00     0.123 A 
ENDBRANCH  20  24
ENDBRANCH   2  18
TORSDOF 5
ENDMDL
