MODEL 1
REMARK VINA RESULT:      -9.2      0.000      0.000
REMARK  7 active torsions:
REMARK  status: ('A' for Active; 'I' for Inactive)
REMARK    1  A    between atoms: C_7  and  C_8 
REMARK    2  A    between atoms: C_8  and  N_9 
REMARK    3  A    between atoms: C_13  and  C_14 
REMARK    4  A    between atoms: C_14  and  C_15 
REMARK    5  A    between atoms: C_15  and  C_16 
REMARK    6  A    between atoms: N_26  and  C_27 
REMARK    7  A    between atoms: C_27  and  C_28 
ROOT
HETATM    1  C   UNL     1      -5.368   0.407 -32.898  1.00  0.00     0.123 C 
HETATM    2  N   UNL     1      -5.927   1.510 -33.663  1.00  0.00    -0.324 N 
HETATM    3  C   UNL     1      -5.451   2.742 -33.274  1.00  0.00     0.326 C 
HETATM    4  O   UNL     1      -5.720   3.779 -33.850  1.00  0.00    -0.247 OA
HETATM    5  N   UNL     1      -4.708   2.569 -32.151  1.00  0.00    -0.268 N 
HETATM    6  C   UNL     1      -4.679   1.252 -31.802  1.00  0.00     0.257 C 
HETATM    7  O   UNL     1      -4.186   0.791 -30.780  1.00  0.00    -0.270 OA
HETATM    8  H   UNL     1      -6.447   1.426 -34.531  1.00  0.00     0.165 HD
ENDROOT
BRANCH   1   9
HETATM    9  C   UNL     1      -6.519  -0.521 -32.384  1.00  0.00     0.027 C 
HETATM   10  C   UNL     1      -7.432  -1.101 -33.484  1.00  0.00     0.035 C 
HETATM   11  C   UNL     1      -8.508  -0.148 -33.981  1.00  0.00     0.235 C 
HETATM   12  N   UNL     1      -9.356   0.345 -32.838  1.00  0.00    -0.067 N 
HETATM   13  H   UNL     1      -9.914  -0.454 -32.516  1.00  0.00     0.280 HD
HETATM   14  C   UNL     1      -8.594   0.889 -31.661  1.00  0.00     0.235 C 
HETATM   15  C   UNL     1      -7.422   0.008 -31.258  1.00  0.00     0.035 C 
BRANCH  12  16
HETATM   16  C   UNL     1     -10.364   1.396 -33.294  1.00  0.00     0.277 C 
BRANCH  16  17
HETATM   17  C   UNL     1     -11.733   0.872 -33.507  1.00  0.00     0.011 A 
HETATM   18  C   UNL     1     -12.868   1.519 -33.979  1.00  0.00     0.035 A 
HETATM   19  C   UNL     1     -13.088   2.909 -34.456  1.00  0.00     0.070 C 
HETATM   20  N   UNL     1     -13.866   0.569 -33.969  1.00  0.00    -0.278 N 
HETATM   21  C   UNL     1     -15.240   0.711 -34.399  1.00  0.00     0.179 C 
HETATM   22  N   UNL     1     -13.451  -0.624 -33.516  1.00  0.00    -0.185 NA
HETATM   23  C   UNL     1     -12.157  -0.454 -33.269  1.00  0.00     0.149 A 
ENDBRANCH  16  17
ENDBRANCH  12  16
ENDBRANCH   1   9
BRANCH   1  24
HETATM   24  C   UNL     1      -4.213  -0.291 -33.683  1.00  0.00     0.082 C 
BRANCH  24  25
HETATM   25  C   UNL     1      -3.907  -1.735 -33.325  1.00  0.00    -0.034 A 
HETATM   26  C   UNL     1      -4.319  -2.840 -34.093  1.00  0.00     0.040 A 
HETATM   27 CL   UNL     1      -5.254  -2.678 -35.535  1.00  0.00    -0.084 Cl
HETATM   28  C   UNL     1      -4.017  -4.147 -33.690  1.00  0.00     0.024 A 
HETATM   29  C   UNL     1      -3.313  -4.378 -32.511  1.00  0.00     0.002 A 
HETATM   30  C   UNL     1      -2.925  -3.303 -31.721  1.00  0.00     0.001 A 
HETATM   31  C   UNL     1      -3.230  -1.999 -32.117  1.00  0.00     0.009 A 
ENDBRANCH  24  25
ENDBRANCH   1  24
BRANCH   5  32
HETATM   32  C   UNL     1      -4.103   3.645 -31.396  1.00  0.00     0.141 C 
BRANCH  32  33
HETATM   33  C   UNL     1      -2.645   3.745 -31.727  1.00  0.00     0.004 A 
HETATM   34  C   UNL     1      -2.187   4.450 -32.979  1.00  0.00     0.007 A 
HETATM   35  C   UNL     1      -1.932   5.070 -31.631  1.00  0.00     0.007 A 
ENDBRANCH  32  33
ENDBRANCH   5  32
TORSDOF 7
ENDMDL
MODEL 2
REMARK VINA RESULT:      -8.7      2.455      6.942
REMARK  7 active torsions:
REMARK  status: ('A' for Active; 'I' for Inactive)
REMARK    1  A    between atoms: C_7  and  C_8 
REMARK    2  A    between atoms: C_8  and  N_9 
REMARK    3  A    between atoms: C_13  and  C_14 
REMARK    4  A    between atoms: C_14  and  C_15 
REMARK    5  A    between atoms: C_15  and  C_16 
REMARK    6  A    between atoms: N_26  and  C_27 
REMARK    7  A    between atoms: C_27  and  C_28 
ROOT
HETATM    1  C   UNL     1      -5.705   0.010 -32.677  1.00  0.00     0.123 C 
HETATM    2  N   UNL     1      -6.925  -0.764 -32.508  1.00  0.00    -0.324 N 
HETATM    3  C   UNL     1      -8.011  -0.222 -33.157  1.00  0.00     0.326 C 
HETATM    4  O   UNL     1      -9.097  -0.764 -33.219  1.00  0.00    -0.247 OA
HETATM    5  N   UNL     1      -7.648   0.995 -33.638  1.00  0.00    -0.268 N 
HETATM    6  C   UNL     1      -6.347   1.257 -33.326  1.00  0.00     0.257 C 
HETATM    7  O   UNL     1      -5.761   2.314 -33.523  1.00  0.00    -0.270 OA
HETATM    8  H   UNL     1      -6.982  -1.709 -32.142  1.00  0.00     0.165 HD
ENDROOT
BRANCH   1   9
HETATM    9  C   UNL     1      -5.039   0.264 -31.284  1.00  0.00     0.027 C 
HETATM   10  C   UNL     1      -5.862   1.136 -30.313  1.00  0.00     0.035 C 
HETATM   11  C   UNL     1      -5.759   2.633 -30.565  1.00  0.00     0.235 C 
HETATM   12  N   UNL     1      -4.322   3.083 -30.541  1.00  0.00    -0.067 N 
HETATM   13  H   UNL     1      -4.004   3.009 -29.568  1.00  0.00     0.280 HD
HETATM   14  C   UNL     1      -3.384   2.281 -31.402  1.00  0.00     0.235 C 
HETATM   15  C   UNL     1      -3.591   0.781 -31.262  1.00  0.00     0.035 C 
BRANCH  12  16
HETATM   16  C   UNL     1      -4.184   4.556 -30.911  1.00  0.00     0.277 C 
BRANCH  16  17
HETATM   17  C   UNL     1      -3.043   4.854 -31.806  1.00  0.00     0.011 A 
HETATM   18  C   UNL     1      -3.028   5.118 -33.170  1.00  0.00     0.035 A 
HETATM   19  C   UNL     1      -4.124   5.225 -34.168  1.00  0.00     0.070 C 
HETATM   20  N   UNL     1      -1.704   5.318 -33.493  1.00  0.00    -0.278 N 
HETATM   21  C   UNL     1      -1.141   5.659 -34.781  1.00  0.00     0.179 C 
HETATM   22  N   UNL     1      -0.881   5.189 -32.441  1.00  0.00    -0.185 NA
HETATM   23  C   UNL     1      -1.688   4.944 -31.416  1.00  0.00     0.149 A 
ENDBRANCH  16  17
ENDBRANCH  12  16
ENDBRANCH   1   9
BRANCH   1  24
HETATM   24  C   UNL     1      -4.792  -0.618 -33.778  1.00  0.00     0.082 C 
BRANCH  24  25
HETATM   25  C   UNL     1      -4.868  -2.124 -33.961  1.00  0.00    -0.034 A 
HETATM   26  C   UNL     1      -4.088  -3.044 -33.235  1.00  0.00     0.040 A 
HETATM   27 CL   UNL     1      -2.923  -2.557 -32.059  1.00  0.00    -0.084 Cl
HETATM   28  C   UNL     1      -4.197  -4.420 -33.472  1.00  0.00     0.024 A 
HETATM   29  C   UNL     1      -5.073  -4.904 -34.440  1.00  0.00     0.002 A 
HETATM   30  C   UNL     1      -5.828  -4.011 -35.190  1.00  0.00     0.001 A 
HETATM   31  C   UNL     1      -5.717  -2.638 -34.961  1.00  0.00     0.009 A 
ENDBRANCH  24  25
ENDBRANCH   1  24
BRANCH   5  32
HETATM   32  C   UNL     1      -8.542   1.908 -34.315  1.00  0.00     0.141 C 
BRANCH  32  33
HETATM   33  C   UNL     1      -9.366   2.657 -33.312  1.00  0.00     0.004 A 
HETATM   34  C   UNL     1     -10.305   3.752 -33.751  1.00  0.00     0.007 A 
HETATM   35  C   UNL     1     -10.857   2.447 -33.242  1.00  0.00     0.007 A 
ENDBRANCH  32  33
ENDBRANCH   5  32
TORSDOF 7
ENDMDL
MODEL 3
REMARK VINA RESULT:      -8.7      2.364      3.364
REMARK  7 active torsions:
REMARK  status: ('A' for Active; 'I' for Inactive)
REMARK    1  A    between atoms: C_7  and  C_8 
REMARK    2  A    between atoms: C_8  and  N_9 
REMARK    3  A    between atoms: C_13  and  C_14 
REMARK    4  A    between atoms: C_14  and  C_15 
REMARK    5  A    between atoms: C_15  and  C_16 
REMARK    6  A    between atoms: N_26  and  C_27 
REMARK    7  A    between atoms: C_27  and  C_28 
ROOT
HETATM    1  C   UNL     1      -4.898   1.618 -32.247  1.00  0.00     0.123 C 
HETATM    2  N   UNL     1      -5.741   2.535 -32.998  1.00  0.00    -0.324 N 
HETATM    3  C   UNL     1      -5.137   3.743 -33.261  1.00  0.00     0.326 C 
HETATM    4  O   UNL     1      -5.636   4.607 -33.956  1.00  0.00    -0.247 OA
HETATM    5  N   UNL     1      -3.963   3.783 -32.579  1.00  0.00    -0.268 N 
HETATM    6  C   UNL     1      -3.783   2.624 -31.884  1.00  0.00     0.257 C 
HETATM    7  O   UNL     1      -2.879   2.399 -31.089  1.00  0.00    -0.270 OA
HETATM    8  H   UNL     1      -6.601   2.290 -33.480  1.00  0.00     0.165 HD
ENDROOT
BRANCH   1   9
HETATM    9  C   UNL     1      -5.690   1.047 -31.024  1.00  0.00     0.027 C 
HETATM   10  C   UNL     1      -7.039   0.383 -31.369  1.00  0.00     0.035 C 
HETATM   11  C   UNL     1      -8.189   1.357 -31.578  1.00  0.00     0.235 C 
HETATM   12  N   UNL     1      -8.365   2.245 -30.375  1.00  0.00    -0.067 N 
HETATM   13  H   UNL     1      -8.724   1.652 -29.618  1.00  0.00     0.280 HD
HETATM   14  C   UNL     1      -7.112   2.918 -29.885  1.00  0.00     0.235 C 
HETATM   15  C   UNL     1      -5.921   1.975 -29.819  1.00  0.00     0.035 C 
BRANCH  12  16
HETATM   16  C   UNL     1      -9.432   3.310 -30.609  1.00  0.00     0.277 C 
BRANCH  16  17
HETATM   17  C   UNL     1      -9.513   3.792 -32.007  1.00  0.00     0.011 A 
HETATM   18  C   UNL     1     -10.366   3.402 -33.032  1.00  0.00     0.035 A 
HETATM   19  C   UNL     1     -11.482   2.423 -33.071  1.00  0.00     0.070 C 
HETATM   20  N   UNL     1     -10.005   4.164 -34.121  1.00  0.00    -0.278 N 
HETATM   21  C   UNL     1     -10.600   4.176 -35.440  1.00  0.00     0.179 C 
HETATM   22  N   UNL     1      -8.983   4.996 -33.866  1.00  0.00    -0.185 NA
HETATM   23  C   UNL     1      -8.707   4.798 -32.582  1.00  0.00     0.149 A 
ENDBRANCH  16  17
ENDBRANCH  12  16
ENDBRANCH   1   9
BRANCH   1  24
HETATM   24  C   UNL     1      -4.231   0.569 -33.192  1.00  0.00     0.082 C 
BRANCH  24  25
HETATM   25  C   UNL     1      -5.113  -0.556 -33.707  1.00  0.00    -0.034 A 
HETATM   26  C   UNL     1      -4.870  -1.920 -33.462  1.00  0.00     0.040 A 
HETATM   27 CL   UNL     1      -3.509  -2.478 -32.560  1.00  0.00    -0.084 Cl
HETATM   28  C   UNL     1      -5.717  -2.904 -33.986  1.00  0.00     0.024 A 
HETATM   29  C   UNL     1      -6.811  -2.551 -34.771  1.00  0.00     0.002 A 
HETATM   30  C   UNL     1      -7.051  -1.212 -35.052  1.00  0.00     0.001 A 
HETATM   31  C   UNL     1      -6.204  -0.228 -34.536  1.00  0.00     0.009 A 
ENDBRANCH  24  25
ENDBRANCH   1  24
BRANCH   5  32
HETATM   32  C   UNL     1      -3.077   4.925 -32.541  1.00  0.00     0.141 C 
BRANCH  32  33
HETATM   33  C   UNL     1      -1.952   4.733 -33.511  1.00  0.00     0.004 A 
HETATM   34  C   UNL     1      -2.134   5.050 -34.974  1.00  0.00     0.007 A 
HETATM   35  C   UNL     1      -1.258   5.926 -34.119  1.00  0.00     0.007 A 
ENDBRANCH  32  33
ENDBRANCH   5  32
TORSDOF 7
ENDMDL
MODEL 4
REMARK VINA RESULT:      -8.6      2.394      7.150
REMARK  7 active torsions:
REMARK  status: ('A' for Active; 'I' for Inactive)
REMARK    1  A    between atoms: C_7  and  C_8 
REMARK    2  A    between atoms: C_8  and  N_9 
REMARK    3  A    between atoms: C_13  and  C_14 
REMARK    4  A    between atoms: C_14  and  C_15 
REMARK    5  A    between atoms: C_15  and  C_16 
REMARK    6  A    between atoms: N_26  and  C_27 
REMARK    7  A    between atoms: C_27  and  C_28 
ROOT
HETATM    1  C   UNL     1      -7.272   1.534 -31.926  1.00  0.00     0.123 C 
HETATM    2  N   UNL     1      -8.126   0.359 -31.859  1.00  0.00    -0.324 N 
HETATM    3  C   UNL     1      -9.389   0.571 -32.365  1.00  0.00     0.326 C 
HETATM    4  O   UNL     1     -10.220  -0.308 -32.488  1.00  0.00    -0.247 OA
HETATM    5  N   UNL     1      -9.518   1.896 -32.629  1.00  0.00    -0.268 N 
HETATM    6  C   UNL     1      -8.366   2.554 -32.318  1.00  0.00     0.257 C 
HETATM    7  O   UNL     1      -8.204   3.767 -32.339  1.00  0.00    -0.270 OA
HETATM    8  H   UNL     1      -7.817  -0.590 -31.669  1.00  0.00     0.165 HD
ENDROOT
BRANCH   1   9
HETATM    9  C   UNL     1      -6.607   1.788 -30.532  1.00  0.00     0.027 C 
HETATM   10  C   UNL     1      -7.153   3.005 -29.757  1.00  0.00     0.035 C 
HETATM   11  C   UNL     1      -6.586   4.344 -30.201  1.00  0.00     0.235 C 
HETATM   12  N   UNL     1      -5.082   4.341 -30.126  1.00  0.00    -0.067 N 
HETATM   13  H   UNL     1      -4.835   4.325 -29.130  1.00  0.00     0.280 HD
HETATM   14  C   UNL     1      -4.409   3.173 -30.793  1.00  0.00     0.235 C 
HETATM   15  C   UNL     1      -5.072   1.844 -30.467  1.00  0.00     0.035 C 
BRANCH  12  16
HETATM   16  C   UNL     1      -4.485   5.631 -30.681  1.00  0.00     0.277 C 
BRANCH  16  17
HETATM   17  C   UNL     1      -4.029   5.534 -32.087  1.00  0.00     0.011 A 
HETATM   18  C   UNL     1      -2.757   5.299 -32.594  1.00  0.00     0.035 A 
HETATM   19  C   UNL     1      -1.458   5.037 -31.923  1.00  0.00     0.070 C 
HETATM   20  N   UNL     1      -2.897   5.318 -33.964  1.00  0.00    -0.278 N 
HETATM   21  C   UNL     1      -1.881   5.093 -34.969  1.00  0.00     0.179 C 
HETATM   22  N   UNL     1      -4.156   5.557 -34.361  1.00  0.00    -0.185 NA
HETATM   23  C   UNL     1      -4.848   5.653 -33.231  1.00  0.00     0.149 A 
ENDBRANCH  16  17
ENDBRANCH  12  16
ENDBRANCH   1   9
BRANCH   1  24
HETATM   24  C   UNL     1      -6.307   1.456 -33.151  1.00  0.00     0.082 C 
BRANCH  24  25
HETATM   25  C   UNL     1      -5.897   0.071 -33.620  1.00  0.00    -0.034 A 
HETATM   26  C   UNL     1      -6.567  -0.650 -34.626  1.00  0.00     0.040 A 
HETATM   27 CL   UNL     1      -7.967  -0.044 -35.432  1.00  0.00    -0.084 Cl
HETATM   28  C   UNL     1      -6.142  -1.933 -34.993  1.00  0.00     0.024 A 
HETATM   29  C   UNL     1      -5.053  -2.525 -34.360  1.00  0.00     0.002 A 
HETATM   30  C   UNL     1      -4.397  -1.845 -33.342  1.00  0.00     0.001 A 
HETATM   31  C   UNL     1      -4.822  -0.568 -32.969  1.00  0.00     0.009 A 
ENDBRANCH  24  25
ENDBRANCH   1  24
BRANCH   5  32
HETATM   32  C   UNL     1     -10.734   2.523 -33.101  1.00  0.00     0.141 C 
BRANCH  32  33
HETATM   33  C   UNL     1     -10.905   2.268 -34.567  1.00  0.00     0.004 A 
HETATM   34  C   UNL     1     -12.155   1.608 -35.092  1.00  0.00     0.007 A 
HETATM   35  C   UNL     1     -11.904   3.067 -35.367  1.00  0.00     0.007 A 
ENDBRANCH  32  33
ENDBRANCH   5  32
TORSDOF 7
ENDMDL
MODEL 5
REMARK VINA RESULT:      -8.6      2.618      8.173
REMARK  7 active torsions:
REMARK  status: ('A' for Active; 'I' for Inactive)
REMARK    1  A    between atoms: C_7  and  C_8 
REMARK    2  A    between atoms: C_8  and  N_9 
REMARK    3  A    between atoms: C_13  and  C_14 
REMARK    4  A    between atoms: C_14  and  C_15 
REMARK    5  A    between atoms: C_15  and  C_16 
REMARK    6  A    between atoms: N_26  and  C_27 
REMARK    7  A    between atoms: C_27  and  C_28 
ROOT
HETATM    1  C   UNL     1      -6.721   1.747 -32.007  1.00  0.00     0.123 C 
HETATM    2  N   UNL     1      -7.577   0.609 -31.708  1.00  0.00    -0.324 N 
HETATM    3  C   UNL     1      -8.888   0.799 -32.081  1.00  0.00     0.326 C 
HETATM    4  O   UNL     1      -9.740  -0.065 -32.006  1.00  0.00    -0.247 OA
HETATM    5  N   UNL     1      -9.029   2.091 -32.476  1.00  0.00    -0.268 N 
HETATM    6  C   UNL     1      -7.839   2.747 -32.378  1.00  0.00     0.257 C 
HETATM    7  O   UNL     1      -7.664   3.946 -32.556  1.00  0.00    -0.270 OA
HETATM    8  H   UNL     1      -7.260  -0.320 -31.450  1.00  0.00     0.165 HD
ENDROOT
BRANCH   1   9
HETATM    9  C   UNL     1      -5.889   2.134 -30.739  1.00  0.00     0.027 C 
HETATM   10  C   UNL     1      -5.926   3.630 -30.362  1.00  0.00     0.035 C 
HETATM   11  C   UNL     1      -4.984   4.509 -31.171  1.00  0.00     0.235 C 
HETATM   12  N   UNL     1      -3.568   4.007 -31.076  1.00  0.00    -0.067 N 
HETATM   13  H   UNL     1      -3.253   4.187 -30.115  1.00  0.00     0.280 HD
HETATM   14  C   UNL     1      -3.385   2.542 -31.361  1.00  0.00     0.235 C 
HETATM   15  C   UNL     1      -4.424   1.672 -30.670  1.00  0.00     0.035 C 
BRANCH  12  16
HETATM   16  C   UNL     1      -2.624   4.800 -31.975  1.00  0.00     0.277 C 
BRANCH  16  17
HETATM   17  C   UNL     1      -1.511   5.461 -31.256  1.00  0.00     0.011 A 
HETATM   18  C   UNL     1      -1.547   6.438 -30.269  1.00  0.00     0.035 A 
HETATM   19  C   UNL     1      -2.681   7.114 -29.588  1.00  0.00     0.070 C 
HETATM   20  N   UNL     1      -0.230   6.697 -29.958  1.00  0.00    -0.278 N 
HETATM   21  C   UNL     1       0.290   7.612 -28.965  1.00  0.00     0.179 C 
HETATM   22  N   UNL     1       0.634   5.967 -30.680  1.00  0.00    -0.185 NA
HETATM   23  C   UNL     1      -0.136   5.196 -31.439  1.00  0.00     0.149 A 
ENDBRANCH  16  17
ENDBRANCH  12  16
ENDBRANCH   1   9
BRANCH   1  24
HETATM   24  C   UNL     1      -5.911   1.508 -33.321  1.00  0.00     0.082 C 
BRANCH  24  25
HETATM   25  C   UNL     1      -5.696   0.066 -33.747  1.00  0.00    -0.034 A 
HETATM   26  C   UNL     1      -6.539  -0.624 -34.637  1.00  0.00     0.040 A 
HETATM   27 CL   UNL     1      -7.948   0.091 -35.333  1.00  0.00    -0.084 Cl
HETATM   28  C   UNL     1      -6.289  -1.961 -34.971  1.00  0.00     0.024 A 
HETATM   29  C   UNL     1      -5.206  -2.637 -34.416  1.00  0.00     0.002 A 
HETATM   30  C   UNL     1      -4.379  -1.984 -33.510  1.00  0.00     0.001 A 
HETATM   31  C   UNL     1      -4.630  -0.653 -33.171  1.00  0.00     0.009 A 
ENDBRANCH  24  25
ENDBRANCH   1  24
BRANCH   5  32
HETATM   32  C   UNL     1     -10.284   2.694 -32.868  1.00  0.00     0.141 C 
BRANCH  32  33
HETATM   33  C   UNL     1     -10.556   2.416 -34.315  1.00  0.00     0.004 A 
HETATM   34  C   UNL     1     -11.685   1.504 -34.724  1.00  0.00     0.007 A 
HETATM   35  C   UNL     1     -11.783   2.984 -34.982  1.00  0.00     0.007 A 
ENDBRANCH  32  33
ENDBRANCH   5  32
TORSDOF 7
ENDMDL
MODEL 6
REMARK VINA RESULT:      -8.5      2.429      7.887
REMARK  7 active torsions:
REMARK  status: ('A' for Active; 'I' for Inactive)
REMARK    1  A    between atoms: C_7  and  C_8 
REMARK    2  A    between atoms: C_8  and  N_9 
REMARK    3  A    between atoms: C_13  and  C_14 
REMARK    4  A    between atoms: C_14  and  C_15 
REMARK    5  A    between atoms: C_15  and  C_16 
REMARK    6  A    between atoms: N_26  and  C_27 
REMARK    7  A    between atoms: C_27  and  C_28 
ROOT
HETATM    1  C   UNL     1      -8.311   2.510 -32.970  1.00  0.00     0.123 C 
HETATM    2  N   UNL     1      -8.695   1.254 -32.344  1.00  0.00    -0.324 N 
HETATM    3  C   UNL     1      -9.785   0.659 -32.938  1.00  0.00     0.326 C 
HETATM    4  O   UNL     1     -10.203  -0.440 -32.626  1.00  0.00    -0.247 OA
HETATM    5  N   UNL     1     -10.293   1.527 -33.850  1.00  0.00    -0.268 N 
HETATM    6  C   UNL     1      -9.554   2.672 -33.873  1.00  0.00     0.257 C 
HETATM    7  O   UNL     1      -9.821   3.685 -34.508  1.00  0.00    -0.270 OA
HETATM    8  H   UNL     1      -8.136   0.726 -31.682  1.00  0.00     0.165 HD
ENDROOT
BRANCH   1   9
HETATM    9  C   UNL     1      -8.144   3.619 -31.878  1.00  0.00     0.027 C 
HETATM   10  C   UNL     1      -7.309   4.842 -32.309  1.00  0.00     0.035 C 
HETATM   11  C   UNL     1      -5.803   4.637 -32.239  1.00  0.00     0.235 C 
HETATM   12  N   UNL     1      -5.384   4.209 -30.858  1.00  0.00    -0.067 N 
HETATM   13  H   UNL     1      -5.516   5.021 -30.243  1.00  0.00     0.280 HD
HETATM   14  C   UNL     1      -6.157   3.056 -30.280  1.00  0.00     0.235 C 
HETATM   15  C   UNL     1      -7.658   3.190 -30.484  1.00  0.00     0.035 C 
BRANCH  12  16
HETATM   16  C   UNL     1      -3.896   3.880 -30.795  1.00  0.00     0.277 C 
BRANCH  16  17
HETATM   17  C   UNL     1      -3.074   4.582 -31.807  1.00  0.00     0.011 A 
HETATM   18  C   UNL     1      -2.676   5.912 -31.860  1.00  0.00     0.035 A 
HETATM   19  C   UNL     1      -2.899   7.049 -30.931  1.00  0.00     0.070 C 
HETATM   20  N   UNL     1      -1.936   6.030 -33.016  1.00  0.00    -0.278 N 
HETATM   21  C   UNL     1      -1.259   7.201 -33.528  1.00  0.00     0.179 C 
HETATM   22  N   UNL     1      -1.845   4.879 -33.702  1.00  0.00    -0.185 NA
HETATM   23  C   UNL     1      -2.501   3.997 -32.957  1.00  0.00     0.149 A 
ENDBRANCH  16  17
ENDBRANCH  12  16
ENDBRANCH   1   9
BRANCH   1  24
HETATM   24  C   UNL     1      -7.105   2.306 -33.940  1.00  0.00     0.082 C 
BRANCH  24  25
HETATM   25  C   UNL     1      -6.284   1.040 -33.765  1.00  0.00    -0.034 A 
HETATM   26  C   UNL     1      -6.538  -0.163 -34.448  1.00  0.00     0.040 A 
HETATM   27 CL   UNL     1      -7.847  -0.347 -35.557  1.00  0.00    -0.084 Cl
HETATM   28  C   UNL     1      -5.749  -1.298 -34.221  1.00  0.00     0.024 A 
HETATM   29  C   UNL     1      -4.703  -1.259 -33.303  1.00  0.00     0.002 A 
HETATM   30  C   UNL     1      -4.455  -0.090 -32.594  1.00  0.00     0.001 A 
HETATM   31  C   UNL     1      -5.243   1.041 -32.814  1.00  0.00     0.009 A 
ENDBRANCH  24  25
ENDBRANCH   1  24
BRANCH   5  32
HETATM   32  C   UNL     1     -11.491   1.291 -34.625  1.00  0.00     0.141 C 
BRANCH  32  33
HETATM   33  C   UNL     1     -12.685   1.244 -33.721  1.00  0.00     0.004 A 
HETATM   34  C   UNL     1     -14.081   1.295 -34.288  1.00  0.00     0.007 A 
HETATM   35  C   UNL     1     -13.563   0.019 -33.682  1.00  0.00     0.007 A 
ENDBRANCH  32  33
ENDBRANCH   5  32
TORSDOF 7
ENDMDL
MODEL 7
REMARK VINA RESULT:      -8.4      2.586      7.863
REMARK  7 active torsions:
REMARK  status: ('A' for Active; 'I' for Inactive)
REMARK    1  A    between atoms: C_7  and  C_8 
REMARK    2  A    between atoms: C_8  and  N_9 
REMARK    3  A    between atoms: C_13  and  C_14 
REMARK    4  A    between atoms: C_14  and  C_15 
REMARK    5  A    between atoms: C_15  and  C_16 
REMARK    6  A    between atoms: N_26  and  C_27 
REMARK    7  A    between atoms: C_27  and  C_28 
ROOT
HETATM    1  C   UNL     1      -6.150   0.973 -32.382  1.00  0.00     0.123 C 
HETATM    2  N   UNL     1      -7.232   0.126 -31.905  1.00  0.00    -0.324 N 
HETATM    3  C   UNL     1      -8.482   0.653 -32.138  1.00  0.00     0.326 C 
HETATM    4  O   UNL     1      -9.517   0.058 -31.902  1.00  0.00    -0.247 OA
HETATM    5  N   UNL     1      -8.324   1.917 -32.608  1.00  0.00    -0.268 N 
HETATM    6  C   UNL     1      -7.000   2.225 -32.696  1.00  0.00     0.257 C 
HETATM    7  O   UNL     1      -6.536   3.323 -32.979  1.00  0.00    -0.270 OA
HETATM    8  H   UNL     1      -7.144  -0.844 -31.618  1.00  0.00     0.165 HD
ENDROOT
BRANCH   1   9
HETATM    9  C   UNL     1      -5.087   1.167 -31.250  1.00  0.00     0.027 C 
HETATM   10  C   UNL     1      -5.528   2.081 -30.087  1.00  0.00     0.035 C 
HETATM   11  C   UNL     1      -5.405   3.570 -30.371  1.00  0.00     0.235 C 
HETATM   12  N   UNL     1      -3.999   3.924 -30.776  1.00  0.00    -0.067 N 
HETATM   13  H   UNL     1      -3.414   3.819 -29.940  1.00  0.00     0.280 HD
HETATM   14  C   UNL     1      -3.412   3.073 -31.868  1.00  0.00     0.235 C 
HETATM   15  C   UNL     1      -3.666   1.588 -31.660  1.00  0.00     0.035 C 
BRANCH  12  16
HETATM   16  C   UNL     1      -3.880   5.390 -31.183  1.00  0.00     0.277 C 
BRANCH  16  17
HETATM   17  C   UNL     1      -2.850   6.146 -30.434  1.00  0.00     0.011 A 
HETATM   18  C   UNL     1      -1.466   6.110 -30.544  1.00  0.00     0.035 A 
HETATM   19  C   UNL     1      -0.565   5.349 -31.448  1.00  0.00     0.070 C 
HETATM   20  N   UNL     1      -0.997   7.005 -29.608  1.00  0.00    -0.278 N 
HETATM   21  C   UNL     1       0.374   7.374 -29.332  1.00  0.00     0.179 C 
HETATM   22  N   UNL     1      -1.978   7.595 -28.907  1.00  0.00    -0.185 NA
HETATM   23  C   UNL     1      -3.098   7.105 -29.427  1.00  0.00     0.149 A 
ENDBRANCH  16  17
ENDBRANCH  12  16
ENDBRANCH   1   9
BRANCH   1  24
HETATM   24  C   UNL     1      -5.612   0.470 -33.759  1.00  0.00     0.082 C 
BRANCH  24  25
HETATM   25  C   UNL     1      -5.626  -1.029 -34.000  1.00  0.00    -0.034 A 
HETATM   26  C   UNL     1      -4.572  -1.892 -33.645  1.00  0.00     0.040 A 
HETATM   27 CL   UNL     1      -3.114  -1.332 -32.911  1.00  0.00    -0.084 Cl
HETATM   28  C   UNL     1      -4.646  -3.264 -33.916  1.00  0.00     0.024 A 
HETATM   29  C   UNL     1      -5.761  -3.799 -34.555  1.00  0.00     0.002 A 
HETATM   30  C   UNL     1      -6.799  -2.960 -34.943  1.00  0.00     0.001 A 
HETATM   31  C   UNL     1      -6.725  -1.591 -34.680  1.00  0.00     0.009 A 
ENDBRANCH  24  25
ENDBRANCH   1  24
BRANCH   5  32
HETATM   32  C   UNL     1      -9.413   2.825 -32.896  1.00  0.00     0.141 C 
BRANCH  32  33
HETATM   33  C   UNL     1      -9.941   2.569 -34.275  1.00  0.00     0.004 A 
HETATM   34  C   UNL     1     -11.255   1.857 -34.475  1.00  0.00     0.007 A 
HETATM   35  C   UNL     1     -11.142   3.326 -34.783  1.00  0.00     0.007 A 
ENDBRANCH  32  33
ENDBRANCH   5  32
TORSDOF 7
ENDMDL
MODEL 8
REMARK VINA RESULT:      -8.4      2.388      5.964
REMARK  7 active torsions:
REMARK  status: ('A' for Active; 'I' for Inactive)
REMARK    1  A    between atoms: C_7  and  C_8 
REMARK    2  A    between atoms: C_8  and  N_9 
REMARK    3  A    between atoms: C_13  and  C_14 
REMARK    4  A    between atoms: C_14  and  C_15 
REMARK    5  A    between atoms: C_15  and  C_16 
REMARK    6  A    between atoms: N_26  and  C_27 
REMARK    7  A    between atoms: C_27  and  C_28 
ROOT
HETATM    1  C   UNL     1      -4.384   3.278 -32.035  1.00  0.00     0.123 C 
HETATM    2  N   UNL     1      -4.274   2.373 -30.901  1.00  0.00    -0.324 N 
HETATM    3  C   UNL     1      -4.815   1.130 -31.139  1.00  0.00     0.326 C 
HETATM    4  O   UNL     1      -4.740   0.203 -30.355  1.00  0.00    -0.247 OA
HETATM    5  N   UNL     1      -5.456   1.173 -32.335  1.00  0.00    -0.268 N 
HETATM    6  C   UNL     1      -5.338   2.413 -32.888  1.00  0.00     0.257 C 
HETATM    7  O   UNL     1      -5.897   2.799 -33.908  1.00  0.00    -0.270 OA
HETATM    8  H   UNL     1      -3.690   2.516 -30.082  1.00  0.00     0.165 HD
ENDROOT
BRANCH   1   9
HETATM    9  C   UNL     1      -4.980   4.647 -31.567  1.00  0.00     0.027 C 
HETATM   10  C   UNL     1      -5.338   4.728 -30.068  1.00  0.00     0.035 C 
HETATM   11  C   UNL     1      -6.671   4.094 -29.700  1.00  0.00     0.235 C 
HETATM   12  N   UNL     1      -7.790   4.690 -30.512  1.00  0.00    -0.067 N 
HETATM   13  H   UNL     1      -7.916   5.654 -30.182  1.00  0.00     0.280 HD
HETATM   14  C   UNL     1      -7.555   4.732 -31.997  1.00  0.00     0.235 C 
HETATM   15  C   UNL     1      -6.163   5.226 -32.361  1.00  0.00     0.035 C 
BRANCH  12  16
HETATM   16  C   UNL     1      -9.118   3.986 -30.248  1.00  0.00     0.277 C 
BRANCH  16  17
HETATM   17  C   UNL     1      -9.526   3.041 -31.313  1.00  0.00     0.011 A 
HETATM   18  C   UNL     1     -10.433   3.209 -32.350  1.00  0.00     0.035 A 
HETATM   19  C   UNL     1     -11.258   4.374 -32.763  1.00  0.00     0.070 C 
HETATM   20  N   UNL     1     -10.435   2.015 -33.037  1.00  0.00    -0.278 N 
HETATM   21  C   UNL     1     -11.182   1.670 -34.227  1.00  0.00     0.179 C 
HETATM   22  N   UNL     1      -9.607   1.102 -32.506  1.00  0.00    -0.185 NA
HETATM   23  C   UNL     1      -9.032   1.729 -31.487  1.00  0.00     0.149 A 
ENDBRANCH  16  17
ENDBRANCH  12  16
ENDBRANCH   1   9
BRANCH   1  24
HETATM   24  C   UNL     1      -3.042   3.342 -32.831  1.00  0.00     0.082 C 
BRANCH  24  25
HETATM   25  C   UNL     1      -2.395   4.707 -32.985  1.00  0.00    -0.034 A 
HETATM   26  C   UNL     1      -2.689   5.604 -34.029  1.00  0.00     0.040 A 
HETATM   27 CL   UNL     1      -3.813   5.236 -35.286  1.00  0.00    -0.084 Cl
HETATM   28  C   UNL     1      -2.037   6.840 -34.118  1.00  0.00     0.024 A 
HETATM   29  C   UNL     1      -1.075   7.201 -33.179  1.00  0.00     0.002 A 
HETATM   30  C   UNL     1      -0.746   6.317 -32.158  1.00  0.00     0.001 A 
HETATM   31  C   UNL     1      -1.390   5.081 -32.071  1.00  0.00     0.009 A 
ENDBRANCH  24  25
ENDBRANCH   1  24
BRANCH   5  32
HETATM   32  C   UNL     1      -6.217   0.078 -32.895  1.00  0.00     0.141 C 
BRANCH  32  33
HETATM   33  C   UNL     1      -5.395  -0.647 -33.917  1.00  0.00     0.004 A 
HETATM   34  C   UNL     1      -4.663  -1.915 -33.555  1.00  0.00     0.007 A 
HETATM   35  C   UNL     1      -5.859  -1.972 -34.467  1.00  0.00     0.007 A 
ENDBRANCH  32  33
ENDBRANCH   5  32
TORSDOF 7
ENDMDL
MODEL 9
REMARK VINA RESULT:      -8.2      2.108      3.104
REMARK  7 active torsions:
REMARK  status: ('A' for Active; 'I' for Inactive)
REMARK    1  A    between atoms: C_7  and  C_8 
REMARK    2  A    between atoms: C_8  and  N_9 
REMARK    3  A    between atoms: C_13  and  C_14 
REMARK    4  A    between atoms: C_14  and  C_15 
REMARK    5  A    between atoms: C_15  and  C_16 
REMARK    6  A    between atoms: N_26  and  C_27 
REMARK    7  A    between atoms: C_27  and  C_28 
ROOT
HETATM    1  C   UNL     1      -7.100   1.208 -31.793  1.00  0.00     0.123 C 
HETATM    2  N   UNL     1      -7.124   1.529 -33.212  1.00  0.00    -0.324 N 
HETATM    3  C   UNL     1      -6.219   2.503 -33.567  1.00  0.00     0.326 C 
HETATM    4  O   UNL     1      -6.016   2.845 -34.717  1.00  0.00    -0.247 OA
HETATM    5  N   UNL     1      -5.675   3.006 -32.430  1.00  0.00    -0.268 N 
HETATM    6  C   UNL     1      -6.197   2.376 -31.339  1.00  0.00     0.257 C 
HETATM    7  O   UNL     1      -5.990   2.678 -30.171  1.00  0.00    -0.270 OA
HETATM    8  H   UNL     1      -7.582   0.983 -33.936  1.00  0.00     0.165 HD
ENDROOT
BRANCH   1   9
HETATM    9  C   UNL     1      -8.554   1.239 -31.216  1.00  0.00     0.027 C 
HETATM   10  C   UNL     1      -9.510   0.172 -31.788  1.00  0.00     0.035 C 
HETATM   11  C   UNL     1     -10.108   0.520 -33.143  1.00  0.00     0.235 C 
HETATM   12  N   UNL     1     -10.818   1.847 -33.091  1.00  0.00    -0.067 N 
HETATM   13  H   UNL     1     -11.658   1.712 -32.516  1.00  0.00     0.280 HD
HETATM   14  C   UNL     1     -10.023   2.977 -32.497  1.00  0.00     0.235 C 
HETATM   15  C   UNL     1      -9.301   2.584 -31.218  1.00  0.00     0.035 C 
BRANCH  12  16
HETATM   16  C   UNL     1     -11.322   2.274 -34.466  1.00  0.00     0.277 C 
BRANCH  16  17
HETATM   17  C   UNL     1     -11.965   3.608 -34.491  1.00  0.00     0.011 A 
HETATM   18  C   UNL     1     -13.060   4.078 -33.778  1.00  0.00     0.035 A 
HETATM   19  C   UNL     1     -13.919   3.439 -32.748  1.00  0.00     0.070 C 
HETATM   20  N   UNL     1     -13.236   5.381 -34.189  1.00  0.00    -0.278 N 
HETATM   21  C   UNL     1     -14.220   6.338 -33.731  1.00  0.00     0.179 C 
HETATM   22  N   UNL     1     -12.343   5.766 -35.115  1.00  0.00    -0.185 NA
HETATM   23  C   UNL     1     -11.554   4.709 -35.273  1.00  0.00     0.149 A 
ENDBRANCH  16  17
ENDBRANCH  12  16
ENDBRANCH   1   9
BRANCH   1  24
HETATM   24  C   UNL     1      -6.277  -0.093 -31.528  1.00  0.00     0.082 C 
BRANCH  24  25
HETATM   25  C   UNL     1      -5.954  -0.963 -32.730  1.00  0.00    -0.034 A 
HETATM   26  C   UNL     1      -4.650  -1.195 -33.205  1.00  0.00     0.040 A 
HETATM   27 CL   UNL     1      -3.253  -0.484 -32.482  1.00  0.00    -0.084 Cl
HETATM   28  C   UNL     1      -4.429  -1.995 -34.333  1.00  0.00     0.024 A 
HETATM   29  C   UNL     1      -5.499  -2.568 -35.014  1.00  0.00     0.002 A 
HETATM   30  C   UNL     1      -6.797  -2.326 -34.581  1.00  0.00     0.001 A 
HETATM   31  C   UNL     1      -7.021  -1.523 -33.461  1.00  0.00     0.009 A 
ENDBRANCH  24  25
ENDBRANCH   1  24
BRANCH   5  32
HETATM   32  C   UNL     1      -4.735   4.105 -32.388  1.00  0.00     0.141 C 
BRANCH  32  33
HETATM   33  C   UNL     1      -3.335   3.586 -32.512  1.00  0.00     0.004 A 
HETATM   34  C   UNL     1      -2.247   4.445 -33.105  1.00  0.00     0.007 A 
HETATM   35  C   UNL     1      -2.240   4.134 -31.632  1.00  0.00     0.007 A 
ENDBRANCH  32  33
ENDBRANCH   5  32
TORSDOF 7
ENDMDL
MODEL 10
REMARK VINA RESULT:      -8.1      2.821      7.532
REMARK  7 active torsions:
REMARK  status: ('A' for Active; 'I' for Inactive)
REMARK    1  A    between atoms: C_7  and  C_8 
REMARK    2  A    between atoms: C_8  and  N_9 
REMARK    3  A    between atoms: C_13  and  C_14 
REMARK    4  A    between atoms: C_14  and  C_15 
REMARK    5  A    between atoms: C_15  and  C_16 
REMARK    6  A    between atoms: N_26  and  C_27 
REMARK    7  A    between atoms: C_27  and  C_28 
ROOT
HETATM    1  C   UNL     1      -9.277   2.733 -32.429  1.00  0.00     0.123 C 
HETATM    2  N   UNL     1      -9.260   3.017 -31.002  1.00  0.00    -0.324 N 
HETATM    3  C   UNL     1      -8.275   3.905 -30.634  1.00  0.00     0.326 C 
HETATM    4  O   UNL     1      -8.154   4.346 -29.507  1.00  0.00    -0.247 OA
HETATM    5  N   UNL     1      -7.485   4.129 -31.716  1.00  0.00    -0.268 N 
HETATM    6  C   UNL     1      -7.937   3.415 -32.785  1.00  0.00     0.257 C 
HETATM    7  O   UNL     1      -7.379   3.319 -33.871  1.00  0.00    -0.270 OA
HETATM    8  H   UNL     1      -9.995   2.783 -30.342  1.00  0.00     0.165 HD
ENDROOT
BRANCH   1   9
HETATM    9  C   UNL     1      -9.308   1.185 -32.662  1.00  0.00     0.027 C 
HETATM   10  C   UNL     1      -8.559   0.348 -31.604  1.00  0.00     0.035 C 
HETATM   11  C   UNL     1      -7.052   0.283 -31.799  1.00  0.00     0.235 C 
HETATM   12  N   UNL     1      -6.711  -0.230 -33.173  1.00  0.00    -0.067 N 
HETATM   13  H   UNL     1      -6.970  -1.223 -33.191  1.00  0.00     0.280 HD
HETATM   14  C   UNL     1      -7.416   0.458 -34.309  1.00  0.00     0.235 C 
HETATM   15  C   UNL     1      -8.901   0.657 -34.048  1.00  0.00     0.035 C 
BRANCH  12  16
HETATM   16  C   UNL     1      -5.208  -0.189 -33.435  1.00  0.00     0.277 C 
BRANCH  16  17
HETATM   17  C   UNL     1      -4.516  -1.479 -33.207  1.00  0.00     0.011 A 
HETATM   18  C   UNL     1      -4.606  -2.671 -33.913  1.00  0.00     0.035 A 
HETATM   19  C   UNL     1      -5.376  -3.047 -35.126  1.00  0.00     0.070 C 
HETATM   20  N   UNL     1      -3.758  -3.546 -33.269  1.00  0.00    -0.278 N 
HETATM   21  C   UNL     1      -3.453  -4.916 -33.619  1.00  0.00     0.179 C 
HETATM   22  N   UNL     1      -3.148  -3.000 -32.205  1.00  0.00    -0.185 NA
HETATM   23  C   UNL     1      -3.577  -1.743 -32.186  1.00  0.00     0.149 A 
ENDBRANCH  16  17
ENDBRANCH  12  16
ENDBRANCH   1   9
BRANCH   1  24
HETATM   24  C   UNL     1     -10.383   3.565 -33.152  1.00  0.00     0.082 C 
BRANCH  24  25
HETATM   25  C   UNL     1     -11.823   3.291 -32.756  1.00  0.00    -0.034 A 
HETATM   26  C   UNL     1     -12.683   2.430 -33.463  1.00  0.00     0.040 A 
HETATM   27 CL   UNL     1     -12.198   1.597 -34.896  1.00  0.00    -0.084 Cl
HETATM   28  C   UNL     1     -14.007   2.240 -33.050  1.00  0.00     0.024 A 
HETATM   29  C   UNL     1     -14.503   2.912 -31.936  1.00  0.00     0.002 A 
HETATM   30  C   UNL     1     -13.681   3.791 -31.242  1.00  0.00     0.001 A 
HETATM   31  C   UNL     1     -12.362   3.987 -31.656  1.00  0.00     0.009 A 
ENDBRANCH  24  25
ENDBRANCH   1  24
BRANCH   5  32
HETATM   32  C   UNL     1      -6.293   4.948 -31.704  1.00  0.00     0.141 C 
BRANCH  32  33
HETATM   33  C   UNL     1      -5.153   4.185 -31.101  1.00  0.00     0.004 A 
HETATM   34  C   UNL     1      -4.409   3.151 -31.906  1.00  0.00     0.007 A 
HETATM   35  C   UNL     1      -3.738   4.450 -31.549  1.00  0.00     0.007 A 
ENDBRANCH  32  33
ENDBRANCH   5  32
TORSDOF 7
ENDMDL
