MODEL 1
REMARK VINA RESULT:      -9.7      0.000      0.000
REMARK  3 active torsions:
REMARK  status: ('A' for Active; 'I' for Inactive)
REMARK    1  A    between atoms: N_3  and  C_4 
REMARK    2  A    between atoms: C_6  and  C_7 
REMARK       I    between atoms: C_7  and  N_8 
REMARK    3  A    between atoms: N_8  and  C_9 
ROOT
HETATM    1  C   UNL     1      -6.214   4.397 -31.549  1.00  0.00     0.072 C 
HETATM    2  C   UNL     1      -5.798   2.937 -31.831  1.00  0.00     0.149 C 
HETATM    3  N   UNL     1      -4.345   2.702 -31.636  1.00  0.00    -0.267 N 
HETATM    4  C   UNL     1      -3.869   1.464 -31.206  1.00  0.00     0.326 C 
HETATM    5  O   UNL     1      -2.686   1.146 -31.095  1.00  0.00    -0.247 OA
HETATM    6  N   UNL     1      -4.802   0.524 -30.880  1.00  0.00    -0.334 N 
HETATM    7  O   UNL     1      -6.161   2.672 -33.205  1.00  0.00    -0.319 OA
HETATM    8  C   UNL     1      -6.468   1.378 -33.528  1.00  0.00     0.080 A 
HETATM    9  C   UNL     1      -6.510   0.347 -32.586  1.00  0.00    -0.002 A 
HETATM   10  C   UNL     1      -6.771   1.123 -34.864  1.00  0.00     0.037 A 
HETATM   11  C   UNL     1      -7.104  -0.170 -35.270  1.00  0.00     0.003 A 
HETATM   12  C   UNL     1      -7.126  -1.208 -34.339  1.00  0.00     0.001 A 
HETATM   13  C   UNL     1      -6.826  -0.953 -33.000  1.00  0.00     0.012 A 
HETATM   14  C   UNL     1      -6.620   2.081 -30.857  1.00  0.00     0.092 C 
HETATM   15  C   UNL     1      -6.207   0.660 -31.149  1.00  0.00     0.127 C 
HETATM   16  H   UNL     1      -4.409  -0.392 -30.706  1.00  0.00     0.165 HD
ENDROOT
BRANCH   3  17
HETATM   17  C   UNL     1      -3.391   3.699 -32.021  1.00  0.00     0.043 A 
HETATM   18  C   UNL     1      -2.872   4.621 -31.103  1.00  0.00     0.047 A 
HETATM   19  C   UNL     1      -1.939   5.582 -31.521  1.00  0.00     0.034 A 
HETATM   20  C   UNL     1      -1.482   5.595 -32.843  1.00  0.00     0.017 A 
HETATM   21  C   UNL     1      -1.999   4.689 -33.762  1.00  0.00     0.003 A 
HETATM   22  C   UNL     1      -2.959   3.760 -33.356  1.00  0.00     0.030 A 
BRANCH  19  23
HETATM   23  C   UNL     1      -1.426   6.631 -30.600  1.00  0.00     0.252 C 
HETATM   24  N   UNL     1      -0.866   6.167 -29.427  1.00  0.00    -0.352 N 
HETATM   25  H   UNL     1      -0.974   5.183 -29.218  1.00  0.00     0.163 HD
HETATM   26  O   UNL     1      -1.579   7.813 -30.879  1.00  0.00    -0.268 OA
BRANCH  24  27
HETATM   27  C   UNL     1      -0.511   7.028 -28.314  1.00  0.00     0.084 C 
HETATM   28  C   UNL     1      -0.260   6.311 -26.986  1.00  0.00     0.025 C 
HETATM   29  C   UNL     1       0.583   7.312 -26.212  1.00  0.00     0.002 C 
HETATM   30  C   UNL     1       1.541   7.848 -27.265  1.00  0.00     0.002 C 
HETATM   31  C   UNL     1       0.729   7.902 -28.558  1.00  0.00     0.025 C 
ENDBRANCH  24  27
ENDBRANCH  19  23
ENDBRANCH   3  17
TORSDOF 3
ENDMDL
MODEL 2
REMARK VINA RESULT:      -8.9      2.872      8.568
REMARK  3 active torsions:
REMARK  status: ('A' for Active; 'I' for Inactive)
REMARK    1  A    between atoms: N_3  and  C_4 
REMARK    2  A    between atoms: C_6  and  C_7 
REMARK       I    between atoms: C_7  and  N_8 
REMARK    3  A    between atoms: N_8  and  C_9 
ROOT
HETATM    1  C   UNL     1      -4.988   4.985 -34.143  1.00  0.00     0.072 C 
HETATM    2  C   UNL     1      -3.953   5.557 -33.151  1.00  0.00     0.149 C 
HETATM    3  N   UNL     1      -3.364   4.520 -32.266  1.00  0.00    -0.267 N 
HETATM    4  C   UNL     1      -2.056   4.633 -31.797  1.00  0.00     0.326 C 
HETATM    5  O   UNL     1      -1.509   3.874 -30.999  1.00  0.00    -0.247 OA
HETATM    6  N   UNL     1      -1.321   5.680 -32.270  1.00  0.00    -0.334 N 
HETATM    7  O   UNL     1      -4.655   6.542 -32.358  1.00  0.00    -0.319 OA
HETATM    8  C   UNL     1      -3.916   7.581 -31.861  1.00  0.00     0.080 A 
HETATM    9  C   UNL     1      -2.559   7.756 -32.146  1.00  0.00    -0.002 A 
HETATM   10  C   UNL     1      -4.591   8.500 -31.060  1.00  0.00     0.037 A 
HETATM   11  C   UNL     1      -3.907   9.592 -30.524  1.00  0.00     0.003 A 
HETATM   12  C   UNL     1      -2.548   9.761 -30.786  1.00  0.00     0.001 A 
HETATM   13  C   UNL     1      -1.872   8.843 -31.591  1.00  0.00     0.012 A 
HETATM   14  C   UNL     1      -2.866   6.206 -34.020  1.00  0.00     0.092 C 
HETATM   15  C   UNL     1      -1.868   6.764 -33.037  1.00  0.00     0.127 C 
HETATM   16  H   UNL     1      -0.432   5.793 -31.800  1.00  0.00     0.165 HD
ENDROOT
BRANCH   3  17
HETATM   17  C   UNL     1      -4.176   3.452 -31.762  1.00  0.00     0.043 A 
HETATM   18  C   UNL     1      -4.210   2.194 -32.376  1.00  0.00     0.047 A 
HETATM   19  C   UNL     1      -5.018   1.174 -31.850  1.00  0.00     0.034 A 
HETATM   20  C   UNL     1      -5.756   1.390 -30.682  1.00  0.00     0.017 A 
HETATM   21  C   UNL     1      -5.734   2.639 -30.070  1.00  0.00     0.003 A 
HETATM   22  C   UNL     1      -4.963   3.666 -30.618  1.00  0.00     0.030 A 
BRANCH  19  23
HETATM   23  C   UNL     1      -5.148  -0.148 -32.518  1.00  0.00     0.252 C 
HETATM   24  N   UNL     1      -5.385  -0.105 -33.876  1.00  0.00    -0.352 N 
HETATM   25  H   UNL     1      -5.592   0.798 -34.284  1.00  0.00     0.163 HD
HETATM   26  O   UNL     1      -5.111  -1.173 -31.849  1.00  0.00    -0.268 OA
BRANCH  24  27
HETATM   27  C   UNL     1      -5.755  -1.268 -34.662  1.00  0.00     0.084 C 
HETATM   28  C   UNL     1      -4.789  -2.451 -34.575  1.00  0.00     0.025 C 
HETATM   29  C   UNL     1      -5.652  -3.627 -35.002  1.00  0.00     0.002 C 
HETATM   30  C   UNL     1      -6.979  -3.356 -34.309  1.00  0.00     0.002 C 
HETATM   31  C   UNL     1      -7.145  -1.837 -34.338  1.00  0.00     0.025 C 
ENDBRANCH  24  27
ENDBRANCH  19  23
ENDBRANCH   3  17
TORSDOF 3
ENDMDL
MODEL 3
REMARK VINA RESULT:      -8.7      2.963      4.815
REMARK  3 active torsions:
REMARK  status: ('A' for Active; 'I' for Inactive)
REMARK    1  A    between atoms: N_3  and  C_4 
REMARK    2  A    between atoms: C_6  and  C_7 
REMARK       I    between atoms: C_7  and  N_8 
REMARK    3  A    between atoms: N_8  and  C_9 
ROOT
HETATM    1  C   UNL     1      -8.158   1.656 -30.874  1.00  0.00     0.072 C 
HETATM    2  C   UNL     1      -8.396   2.000 -32.361  1.00  0.00     0.149 C 
HETATM    3  N   UNL     1      -7.372   1.414 -33.262  1.00  0.00    -0.267 N 
HETATM    4  C   UNL     1      -7.692   1.037 -34.565  1.00  0.00     0.326 C 
HETATM    5  O   UNL     1      -6.901   0.622 -35.411  1.00  0.00    -0.247 OA
HETATM    6  N   UNL     1      -9.002   1.140 -34.931  1.00  0.00    -0.334 N 
HETATM    7  O   UNL     1      -8.365   3.443 -32.451  1.00  0.00    -0.319 OA
HETATM    8  C   UNL     1      -9.109   4.019 -33.445  1.00  0.00     0.080 A 
HETATM    9  C   UNL     1      -9.930   3.285 -34.305  1.00  0.00    -0.002 A 
HETATM   10  C   UNL     1      -9.036   5.407 -33.553  1.00  0.00     0.037 A 
HETATM   11  C   UNL     1      -9.774   6.068 -34.536  1.00  0.00     0.003 A 
HETATM   12  C   UNL     1     -10.578   5.341 -35.413  1.00  0.00     0.001 A 
HETATM   13  C   UNL     1     -10.653   3.952 -35.302  1.00  0.00     0.012 A 
HETATM   14  C   UNL     1      -9.789   1.446 -32.692  1.00  0.00     0.092 C 
HETATM   15  C   UNL     1     -10.008   1.795 -34.142  1.00  0.00     0.127 C 
HETATM   16  H   UNL     1      -9.158   0.985 -35.919  1.00  0.00     0.165 HD
ENDROOT
BRANCH   3  17
HETATM   17  C   UNL     1      -5.999   1.353 -32.856  1.00  0.00     0.043 A 
HETATM   18  C   UNL     1      -5.183   2.491 -32.832  1.00  0.00     0.047 A 
HETATM   19  C   UNL     1      -3.843   2.390 -32.428  1.00  0.00     0.034 A 
HETATM   20  C   UNL     1      -3.326   1.164 -31.999  1.00  0.00     0.017 A 
HETATM   21  C   UNL     1      -4.127   0.027 -32.028  1.00  0.00     0.003 A 
HETATM   22  C   UNL     1      -5.448   0.121 -32.470  1.00  0.00     0.030 A 
BRANCH  19  23
HETATM   23  C   UNL     1      -2.921   3.555 -32.467  1.00  0.00     0.252 C 
HETATM   24  N   UNL     1      -2.645   4.135 -31.246  1.00  0.00    -0.352 N 
HETATM   25  H   UNL     1      -3.190   3.824 -30.451  1.00  0.00     0.163 HD
HETATM   26  O   UNL     1      -2.518   3.976 -33.544  1.00  0.00    -0.268 OA
BRANCH  24  27
HETATM   27  C   UNL     1      -1.951   5.400 -31.097  1.00  0.00     0.084 C 
HETATM   28  C   UNL     1      -0.489   5.401 -31.548  1.00  0.00     0.025 C 
HETATM   29  C   UNL     1      -0.209   6.875 -31.794  1.00  0.00     0.002 C 
HETATM   30  C   UNL     1      -1.476   7.359 -32.482  1.00  0.00     0.002 C 
HETATM   31  C   UNL     1      -2.615   6.578 -31.827  1.00  0.00     0.025 C 
ENDBRANCH  24  27
ENDBRANCH  19  23
ENDBRANCH   3  17
TORSDOF 3
ENDMDL
MODEL 4
REMARK VINA RESULT:      -8.7     18.058     19.616
REMARK  3 active torsions:
REMARK  status: ('A' for Active; 'I' for Inactive)
REMARK    1  A    between atoms: N_3  and  C_4 
REMARK    2  A    between atoms: C_6  and  C_7 
REMARK       I    between atoms: C_7  and  N_8 
REMARK    3  A    between atoms: N_8  and  C_9 
ROOT
HETATM    1  C   UNL     1      -6.918 -16.755 -36.609  1.00  0.00     0.072 C 
HETATM    2  C   UNL     1      -6.561 -16.077 -35.268  1.00  0.00     0.149 C 
HETATM    3  N   UNL     1      -6.773 -14.607 -35.288  1.00  0.00    -0.267 N 
HETATM    4  C   UNL     1      -7.139 -13.918 -34.134  1.00  0.00     0.326 C 
HETATM    5  O   UNL     1      -7.257 -12.698 -34.029  1.00  0.00    -0.247 OA
HETATM    6  N   UNL     1      -7.390 -14.668 -33.022  1.00  0.00    -0.334 N 
HETATM    7  O   UNL     1      -5.166 -16.371 -35.026  1.00  0.00    -0.319 OA
HETATM    8  C   UNL     1      -4.761 -16.434 -33.720  1.00  0.00     0.080 A 
HETATM    9  C   UNL     1      -5.641 -16.297 -32.643  1.00  0.00    -0.002 A 
HETATM   10  C   UNL     1      -3.406 -16.671 -33.497  1.00  0.00     0.037 A 
HETATM   11  C   UNL     1      -2.919 -16.758 -32.193  1.00  0.00     0.003 A 
HETATM   12  C   UNL     1      -3.787 -16.601 -31.112  1.00  0.00     0.001 A 
HETATM   13  C   UNL     1      -5.144 -16.366 -31.335  1.00  0.00     0.012 A 
HETATM   14  C   UNL     1      -7.465 -16.739 -34.219  1.00  0.00     0.092 C 
HETATM   15  C   UNL     1      -7.100 -16.071 -32.917  1.00  0.00     0.127 C 
HETATM   16  H   UNL     1      -7.519 -14.116 -32.184  1.00  0.00     0.165 HD
ENDROOT
BRANCH   3  17
HETATM   17  C   UNL     1      -6.467 -13.847 -36.464  1.00  0.00     0.043 A 
HETATM   18  C   UNL     1      -5.148 -13.622 -36.878  1.00  0.00     0.047 A 
HETATM   19  C   UNL     1      -4.891 -12.872 -38.035  1.00  0.00     0.034 A 
HETATM   20  C   UNL     1      -5.948 -12.387 -38.812  1.00  0.00     0.017 A 
HETATM   21  C   UNL     1      -7.260 -12.599 -38.403  1.00  0.00     0.003 A 
HETATM   22  C   UNL     1      -7.515 -13.309 -37.228  1.00  0.00     0.030 A 
BRANCH  19  23
HETATM   23  C   UNL     1      -3.507 -12.539 -38.464  1.00  0.00     0.252 C 
HETATM   24  N   UNL     1      -2.726 -13.615 -38.835  1.00  0.00    -0.352 N 
HETATM   25  H   UNL     1      -3.095 -14.540 -38.655  1.00  0.00     0.163 HD
HETATM   26  O   UNL     1      -3.114 -11.381 -38.405  1.00  0.00    -0.268 OA
BRANCH  24  27
HETATM   27  C   UNL     1      -1.297 -13.524 -39.073  1.00  0.00     0.084 C 
HETATM   28  C   UNL     1      -0.418 -14.264 -38.064  1.00  0.00     0.025 C 
HETATM   29  C   UNL     1       0.884 -14.459 -38.826  1.00  0.00     0.002 C 
HETATM   30  C   UNL     1       0.416 -14.837 -40.223  1.00  0.00     0.002 C 
HETATM   31  C   UNL     1      -0.852 -14.018 -40.459  1.00  0.00     0.025 C 
ENDBRANCH  24  27
ENDBRANCH  19  23
ENDBRANCH   3  17
TORSDOF 3
ENDMDL
MODEL 5
REMARK VINA RESULT:      -8.5      4.266      7.765
REMARK  3 active torsions:
REMARK  status: ('A' for Active; 'I' for Inactive)
REMARK    1  A    between atoms: N_3  and  C_4 
REMARK    2  A    between atoms: C_6  and  C_7 
REMARK       I    between atoms: C_7  and  N_8 
REMARK    3  A    between atoms: N_8  and  C_9 
ROOT
HETATM    1  C   UNL     1      -6.034   0.638 -29.410  1.00  0.00     0.072 C 
HETATM    2  C   UNL     1      -5.545   0.600 -30.874  1.00  0.00     0.149 C 
HETATM    3  N   UNL     1      -5.404   1.952 -31.472  1.00  0.00    -0.267 N 
HETATM    4  C   UNL     1      -4.438   2.211 -32.444  1.00  0.00     0.326 C 
HETATM    5  O   UNL     1      -4.297   3.268 -33.056  1.00  0.00    -0.247 OA
HETATM    6  N   UNL     1      -3.574   1.197 -32.738  1.00  0.00    -0.334 N 
HETATM    7  O   UNL     1      -6.529  -0.165 -31.608  1.00  0.00    -0.319 OA
HETATM    8  C   UNL     1      -6.089  -0.849 -32.709  1.00  0.00     0.080 A 
HETATM    9  C   UNL     1      -4.746  -0.889 -33.094  1.00  0.00    -0.002 A 
HETATM   10  C   UNL     1      -7.052  -1.545 -33.436  1.00  0.00     0.037 A 
HETATM   11  C   UNL     1      -6.680  -2.274 -34.566  1.00  0.00     0.003 A 
HETATM   12  C   UNL     1      -5.345  -2.301 -34.970  1.00  0.00     0.001 A 
HETATM   13  C   UNL     1      -4.380  -1.607 -34.240  1.00  0.00     0.012 A 
HETATM   14  C   UNL     1      -4.189  -0.118 -30.836  1.00  0.00     0.092 C 
HETATM   15  C   UNL     1      -3.729  -0.152 -32.272  1.00  0.00     0.127 C 
HETATM   16  H   UNL     1      -2.984   1.390 -33.538  1.00  0.00     0.165 HD
ENDROOT
BRANCH   3  17
HETATM   17  C   UNL     1      -6.351   2.982 -31.166  1.00  0.00     0.043 A 
HETATM   18  C   UNL     1      -7.664   2.951 -31.654  1.00  0.00     0.047 A 
HETATM   19  C   UNL     1      -8.561   3.980 -31.330  1.00  0.00     0.034 A 
HETATM   20  C   UNL     1      -8.168   5.018 -30.479  1.00  0.00     0.017 A 
HETATM   21  C   UNL     1      -6.864   5.061 -29.997  1.00  0.00     0.003 A 
HETATM   22  C   UNL     1      -5.960   4.059 -30.354  1.00  0.00     0.030 A 
BRANCH  19  23
HETATM   23  C   UNL     1      -9.936   4.029 -31.893  1.00  0.00     0.252 C 
HETATM   24  N   UNL     1     -10.152   3.236 -33.002  1.00  0.00    -0.352 N 
HETATM   25  H   UNL     1      -9.342   2.801 -33.426  1.00  0.00     0.163 HD
HETATM   26  O   UNL     1     -10.764   4.792 -31.412  1.00  0.00    -0.268 OA
BRANCH  24  27
HETATM   27  C   UNL     1     -11.348   3.308 -33.819  1.00  0.00     0.084 C 
HETATM   28  C   UNL     1     -11.124   3.733 -35.271  1.00  0.00     0.025 C 
HETATM   29  C   UNL     1     -12.365   3.208 -35.975  1.00  0.00     0.002 C 
HETATM   30  C   UNL     1     -12.569   1.839 -35.346  1.00  0.00     0.002 C 
HETATM   31  C   UNL     1     -12.152   2.000 -33.885  1.00  0.00     0.025 C 
ENDBRANCH  24  27
ENDBRANCH  19  23
ENDBRANCH   3  17
TORSDOF 3
ENDMDL
MODEL 6
REMARK VINA RESULT:      -8.3      1.902      2.726
REMARK  3 active torsions:
REMARK  status: ('A' for Active; 'I' for Inactive)
REMARK    1  A    between atoms: N_3  and  C_4 
REMARK    2  A    between atoms: C_6  and  C_7 
REMARK       I    between atoms: C_7  and  N_8 
REMARK    3  A    between atoms: N_8  and  C_9 
ROOT
HETATM    1  C   UNL     1      -5.810   4.507 -34.127  1.00  0.00     0.072 C 
HETATM    2  C   UNL     1      -5.875   3.486 -32.970  1.00  0.00     0.149 C 
HETATM    3  N   UNL     1      -5.915   4.130 -31.632  1.00  0.00    -0.267 N 
HETATM    4  C   UNL     1      -6.589   3.533 -30.568  1.00  0.00     0.326 C 
HETATM    5  O   UNL     1      -6.611   3.942 -29.408  1.00  0.00    -0.247 OA
HETATM    6  N   UNL     1      -7.286   2.393 -30.842  1.00  0.00    -0.334 N 
HETATM    7  O   UNL     1      -4.689   2.666 -33.088  1.00  0.00    -0.319 OA
HETATM    8  C   UNL     1      -4.774   1.381 -32.625  1.00  0.00     0.080 A 
HETATM    9  C   UNL     1      -5.955   0.829 -32.122  1.00  0.00    -0.002 A 
HETATM   10  C   UNL     1      -3.614   0.613 -32.699  1.00  0.00     0.037 A 
HETATM   11  C   UNL     1      -3.624  -0.710 -32.256  1.00  0.00     0.003 A 
HETATM   12  C   UNL     1      -4.793  -1.261 -31.732  1.00  0.00     0.001 A 
HETATM   13  C   UNL     1      -5.956  -0.493 -31.660  1.00  0.00     0.012 A 
HETATM   14  C   UNL     1      -7.151   2.668 -33.215  1.00  0.00     0.092 C 
HETATM   15  C   UNL     1      -7.196   1.674 -32.082  1.00  0.00     0.127 C 
HETATM   16  H   UNL     1      -7.642   1.930 -30.015  1.00  0.00     0.165 HD
ENDROOT
BRANCH   3  17
HETATM   17  C   UNL     1      -5.143   5.308 -31.371  1.00  0.00     0.043 A 
HETATM   18  C   UNL     1      -3.777   5.246 -31.067  1.00  0.00     0.047 A 
HETATM   19  C   UNL     1      -3.055   6.423 -30.818  1.00  0.00     0.034 A 
HETATM   20  C   UNL     1      -3.682   7.670 -30.920  1.00  0.00     0.017 A 
HETATM   21  C   UNL     1      -5.039   7.740 -31.214  1.00  0.00     0.003 A 
HETATM   22  C   UNL     1      -5.766   6.565 -31.419  1.00  0.00     0.030 A 
BRANCH  19  23
HETATM   23  C   UNL     1      -1.626   6.397 -30.411  1.00  0.00     0.252 C 
HETATM   24  N   UNL     1      -1.392   6.534 -29.058  1.00  0.00    -0.352 N 
HETATM   25  H   UNL     1      -2.181   6.781 -28.473  1.00  0.00     0.163 HD
HETATM   26  O   UNL     1      -0.751   6.330 -31.265  1.00  0.00    -0.268 OA
BRANCH  24  27
HETATM   27  C   UNL     1      -0.075   6.750 -28.490  1.00  0.00     0.084 C 
HETATM   28  C   UNL     1       0.433   8.192 -28.546  1.00  0.00     0.025 C 
HETATM   29  C   UNL     1       1.494   8.222 -27.457  1.00  0.00     0.002 C 
HETATM   30  C   UNL     1       0.859   7.421 -26.331  1.00  0.00     0.002 C 
HETATM   31  C   UNL     1       0.062   6.315 -27.022  1.00  0.00     0.025 C 
ENDBRANCH  24  27
ENDBRANCH  19  23
ENDBRANCH   3  17
TORSDOF 3
ENDMDL
MODEL 7
REMARK VINA RESULT:      -8.2      2.598      9.921
REMARK  3 active torsions:
REMARK  status: ('A' for Active; 'I' for Inactive)
REMARK    1  A    between atoms: N_3  and  C_4 
REMARK    2  A    between atoms: C_6  and  C_7 
REMARK       I    between atoms: C_7  and  N_8 
REMARK    3  A    between atoms: N_8  and  C_9 
ROOT
HETATM    1  C   UNL     1      -1.180   6.051 -26.357  1.00  0.00     0.072 C 
HETATM    2  C   UNL     1      -0.787   7.545 -26.362  1.00  0.00     0.149 C 
HETATM    3  N   UNL     1      -1.066   8.212 -27.659  1.00  0.00    -0.267 N 
HETATM    4  C   UNL     1      -1.405   9.563 -27.714  1.00  0.00     0.326 C 
HETATM    5  O   UNL     1      -1.572  10.223 -28.739  1.00  0.00    -0.247 OA
HETATM    6  N   UNL     1      -1.566  10.206 -26.522  1.00  0.00    -0.334 N 
HETATM    7  O   UNL     1       0.630   7.590 -26.077  1.00  0.00    -0.319 OA
HETATM    8  C   UNL     1       1.101   8.709 -25.446  1.00  0.00     0.080 A 
HETATM    9  C   UNL     1       0.271   9.747 -25.015  1.00  0.00    -0.002 A 
HETATM   10  C   UNL     1       2.475   8.764 -25.218  1.00  0.00     0.037 A 
HETATM   11  C   UNL     1       3.030   9.869 -24.570  1.00  0.00     0.003 A 
HETATM   12  C   UNL     1       2.211  10.919 -24.157  1.00  0.00     0.001 A 
HETATM   13  C   UNL     1       0.835  10.862 -24.383  1.00  0.00     0.012 A 
HETATM   14  C   UNL     1      -1.608   8.189 -25.236  1.00  0.00     0.092 C 
HETATM   15  C   UNL     1      -1.208   9.643 -25.250  1.00  0.00     0.127 C 
HETATM   16  H   UNL     1      -1.677  11.208 -26.617  1.00  0.00     0.165 HD
ENDROOT
BRANCH   3  17
HETATM   17  C   UNL     1      -0.853   7.515 -28.893  1.00  0.00     0.043 A 
HETATM   18  C   UNL     1      -1.899   6.881 -29.575  1.00  0.00     0.047 A 
HETATM   19  C   UNL     1      -1.650   6.209 -30.781  1.00  0.00     0.034 A 
HETATM   20  C   UNL     1      -0.366   6.210 -31.337  1.00  0.00     0.017 A 
HETATM   21  C   UNL     1       0.679   6.830 -30.663  1.00  0.00     0.003 A 
HETATM   22  C   UNL     1       0.439   7.462 -29.441  1.00  0.00     0.030 A 
BRANCH  19  23
HETATM   23  C   UNL     1      -2.713   5.452 -31.494  1.00  0.00     0.252 C 
HETATM   24  N   UNL     1      -3.273   4.408 -30.786  1.00  0.00    -0.352 N 
HETATM   25  H   UNL     1      -2.832   4.149 -29.913  1.00  0.00     0.163 HD
HETATM   26  O   UNL     1      -2.985   5.732 -32.654  1.00  0.00    -0.268 OA
BRANCH  24  27
HETATM   27  C   UNL     1      -4.161   3.425 -31.377  1.00  0.00     0.084 C 
HETATM   28  C   UNL     1      -3.468   2.250 -32.069  1.00  0.00     0.025 C 
HETATM   29  C   UNL     1      -4.548   1.180 -32.088  1.00  0.00     0.002 C 
HETATM   30  C   UNL     1      -5.187   1.306 -30.713  1.00  0.00     0.002 C 
HETATM   31  C   UNL     1      -5.162   2.800 -30.393  1.00  0.00     0.025 C 
ENDBRANCH  24  27
ENDBRANCH  19  23
ENDBRANCH   3  17
TORSDOF 3
ENDMDL
MODEL 8
REMARK VINA RESULT:      -8.0      5.089      9.141
REMARK  3 active torsions:
REMARK  status: ('A' for Active; 'I' for Inactive)
REMARK    1  A    between atoms: N_3  and  C_4 
REMARK    2  A    between atoms: C_6  and  C_7 
REMARK       I    between atoms: C_7  and  N_8 
REMARK    3  A    between atoms: N_8  and  C_9 
ROOT
HETATM    1  C   UNL     1      -7.787   0.255 -35.041  1.00  0.00     0.072 C 
HETATM    2  C   UNL     1      -7.438   0.976 -33.720  1.00  0.00     0.149 C 
HETATM    3  N   UNL     1      -8.631   1.528 -33.029  1.00  0.00    -0.267 N 
HETATM    4  C   UNL     1      -8.678   1.619 -31.639  1.00  0.00     0.326 C 
HETATM    5  O   UNL     1      -9.581   2.134 -30.981  1.00  0.00    -0.247 OA
HETATM    6  N   UNL     1      -7.628   1.087 -30.951  1.00  0.00    -0.334 N 
HETATM    7  O   UNL     1      -6.532   2.047 -34.072  1.00  0.00    -0.319 OA
HETATM    8  C   UNL     1      -5.629   2.435 -33.120  1.00  0.00     0.080 A 
HETATM    9  C   UNL     1      -5.510   1.802 -31.880  1.00  0.00    -0.002 A 
HETATM   10  C   UNL     1      -4.792   3.498 -33.451  1.00  0.00     0.037 A 
HETATM   11  C   UNL     1      -3.838   3.946 -32.535  1.00  0.00     0.003 A 
HETATM   12  C   UNL     1      -3.728   3.333 -31.287  1.00  0.00     0.001 A 
HETATM   13  C   UNL     1      -4.565   2.267 -30.957  1.00  0.00     0.012 A 
HETATM   14  C   UNL     1      -6.748  -0.080 -32.846  1.00  0.00     0.092 C 
HETATM   15  C   UNL     1      -6.409   0.640 -31.565  1.00  0.00     0.127 C 
HETATM   16  H   UNL     1      -7.646   1.297 -29.961  1.00  0.00     0.165 HD
ENDROOT
BRANCH   3  17
HETATM   17  C   UNL     1      -9.701   2.110 -33.784  1.00  0.00     0.043 A 
HETATM   18  C   UNL     1      -9.657   3.437 -34.230  1.00  0.00     0.047 A 
HETATM   19  C   UNL     1     -10.726   3.969 -34.967  1.00  0.00     0.034 A 
HETATM   20  C   UNL     1     -11.820   3.166 -35.305  1.00  0.00     0.017 A 
HETATM   21  C   UNL     1     -11.875   1.850 -34.859  1.00  0.00     0.003 A 
HETATM   22  C   UNL     1     -10.831   1.334 -34.089  1.00  0.00     0.030 A 
BRANCH  19  23
HETATM   23  C   UNL     1     -10.757   5.395 -35.388  1.00  0.00     0.252 C 
HETATM   24  N   UNL     1     -12.007   5.977 -35.416  1.00  0.00    -0.352 N 
HETATM   25  H   UNL     1     -12.806   5.368 -35.292  1.00  0.00     0.163 HD
HETATM   26  O   UNL     1      -9.724   5.946 -35.744  1.00  0.00    -0.268 OA
BRANCH  24  27
HETATM   27  C   UNL     1     -12.272   7.278 -36.001  1.00  0.00     0.084 C 
HETATM   28  C   UNL     1     -13.563   7.379 -36.816  1.00  0.00     0.025 C 
HETATM   29  C   UNL     1     -13.846   8.872 -36.822  1.00  0.00     0.002 C 
HETATM   30  C   UNL     1     -13.519   9.295 -35.399  1.00  0.00     0.002 C 
HETATM   31  C   UNL     1     -12.328   8.431 -34.986  1.00  0.00     0.025 C 
ENDBRANCH  24  27
ENDBRANCH  19  23
ENDBRANCH   3  17
TORSDOF 3
ENDMDL
MODEL 9
REMARK VINA RESULT:      -7.9     18.141     19.655
REMARK  3 active torsions:
REMARK  status: ('A' for Active; 'I' for Inactive)
REMARK    1  A    between atoms: N_3  and  C_4 
REMARK    2  A    between atoms: C_6  and  C_7 
REMARK       I    between atoms: C_7  and  N_8 
REMARK    3  A    between atoms: N_8  and  C_9 
ROOT
HETATM    1  C   UNL     1      -4.130 -16.027 -39.938  1.00  0.00     0.072 C 
HETATM    2  C   UNL     1      -4.832 -14.672 -39.700  1.00  0.00     0.149 C 
HETATM    3  N   UNL     1      -4.043 -13.756 -38.837  1.00  0.00    -0.267 N 
HETATM    4  C   UNL     1      -4.116 -12.374 -39.002  1.00  0.00     0.326 C 
HETATM    5  O   UNL     1      -3.569 -11.533 -38.289  1.00  0.00    -0.247 OA
HETATM    6  N   UNL     1      -4.860 -11.916 -40.049  1.00  0.00    -0.334 N 
HETATM    7  O   UNL     1      -6.096 -14.978 -39.068  1.00  0.00    -0.319 OA
HETATM    8  C   UNL     1      -7.128 -14.106 -39.288  1.00  0.00     0.080 A 
HETATM    9  C   UNL     1      -7.023 -13.000 -40.136  1.00  0.00    -0.002 A 
HETATM   10  C   UNL     1      -8.329 -14.383 -38.638  1.00  0.00     0.037 A 
HETATM   11  C   UNL     1      -9.430 -13.546 -38.820  1.00  0.00     0.003 A 
HETATM   12  C   UNL     1      -9.326 -12.427 -39.647  1.00  0.00     0.001 A 
HETATM   13  C   UNL     1      -8.124 -12.151 -40.300  1.00  0.00     0.012 A 
HETATM   14  C   UNL     1      -5.033 -14.062 -41.094  1.00  0.00     0.092 C 
HETATM   15  C   UNL     1      -5.723 -12.745 -40.844  1.00  0.00     0.127 C 
HETATM   16  H   UNL     1      -4.990 -10.913 -40.044  1.00  0.00     0.165 HD
ENDROOT
BRANCH   3  17
HETATM   17  C   UNL     1      -3.300 -14.268 -37.725  1.00  0.00     0.043 A 
HETATM   18  C   UNL     1      -3.931 -14.773 -36.581  1.00  0.00     0.047 A 
HETATM   19  C   UNL     1      -3.166 -15.266 -35.513  1.00  0.00     0.034 A 
HETATM   20  C   UNL     1      -1.771 -15.305 -35.602  1.00  0.00     0.017 A 
HETATM   21  C   UNL     1      -1.136 -14.799 -36.731  1.00  0.00     0.003 A 
HETATM   22  C   UNL     1      -1.896 -14.269 -37.775  1.00  0.00     0.030 A 
BRANCH  19  23
HETATM   23  C   UNL     1      -3.793 -15.732 -34.248  1.00  0.00     0.252 C 
HETATM   24  N   UNL     1      -5.131 -15.428 -34.101  1.00  0.00    -0.352 N 
HETATM   25  H   UNL     1      -5.541 -14.801 -34.782  1.00  0.00     0.163 HD
HETATM   26  O   UNL     1      -3.107 -16.281 -33.396  1.00  0.00    -0.268 OA
BRANCH  24  27
HETATM   27  C   UNL     1      -5.861 -15.602 -32.860  1.00  0.00     0.084 C 
HETATM   28  C   UNL     1      -6.073 -17.052 -32.423  1.00  0.00     0.025 C 
HETATM   29  C   UNL     1      -6.336 -16.923 -30.931  1.00  0.00     0.002 C 
HETATM   30  C   UNL     1      -5.327 -15.875 -30.488  1.00  0.00     0.002 C 
HETATM   31  C   UNL     1      -5.236 -14.887 -31.651  1.00  0.00     0.025 C 
ENDBRANCH  24  27
ENDBRANCH  19  23
ENDBRANCH   3  17
TORSDOF 3
ENDMDL
MODEL 10
REMARK VINA RESULT:      -7.9     18.296     20.449
REMARK  3 active torsions:
REMARK  status: ('A' for Active; 'I' for Inactive)
REMARK    1  A    between atoms: N_3  and  C_4 
REMARK    2  A    between atoms: C_6  and  C_7 
REMARK       I    between atoms: C_7  and  N_8 
REMARK    3  A    between atoms: N_8  and  C_9 
ROOT
HETATM    1  C   UNL     1      -7.822 -15.765 -40.195  1.00  0.00     0.072 C 
HETATM    2  C   UNL     1      -7.277 -14.797 -39.122  1.00  0.00     0.149 C 
HETATM    3  N   UNL     1      -6.332 -13.794 -39.674  1.00  0.00    -0.267 N 
HETATM    4  C   UNL     1      -6.231 -12.519 -39.119  1.00  0.00     0.326 C 
HETATM    5  O   UNL     1      -5.425 -11.650 -39.449  1.00  0.00    -0.247 OA
HETATM    6  N   UNL     1      -7.108 -12.211 -38.120  1.00  0.00    -0.334 N 
HETATM    7  O   UNL     1      -6.607 -15.619 -38.139  1.00  0.00    -0.319 OA
HETATM    8  C   UNL     1      -6.572 -15.148 -36.855  1.00  0.00     0.080 A 
HETATM    9  C   UNL     1      -7.206 -13.968 -36.458  1.00  0.00    -0.002 A 
HETATM   10  C   UNL     1      -5.883 -15.924 -35.924  1.00  0.00     0.037 A 
HETATM   11  C   UNL     1      -5.812 -15.515 -34.592  1.00  0.00     0.003 A 
HETATM   12  C   UNL     1      -6.424 -14.327 -34.193  1.00  0.00     0.001 A 
HETATM   13  C   UNL     1      -7.116 -13.551 -35.124  1.00  0.00     0.012 A 
HETATM   14  C   UNL     1      -8.512 -14.105 -38.528  1.00  0.00     0.092 C 
HETATM   15  C   UNL     1      -7.965 -13.170 -37.480  1.00  0.00     0.127 C 
HETATM   16  H   UNL     1      -6.906 -11.331 -37.664  1.00  0.00     0.165 HD
ENDROOT
BRANCH   3  17
HETATM   17  C   UNL     1      -5.402 -14.162 -40.700  1.00  0.00     0.043 A 
HETATM   18  C   UNL     1      -4.171 -14.761 -40.403  1.00  0.00     0.047 A 
HETATM   19  C   UNL     1      -3.287 -15.107 -41.437  1.00  0.00     0.034 A 
HETATM   20  C   UNL     1      -3.650 -14.904 -42.772  1.00  0.00     0.017 A 
HETATM   21  C   UNL     1      -4.866 -14.303 -43.075  1.00  0.00     0.003 A 
HETATM   22  C   UNL     1      -5.726 -13.920 -42.044  1.00  0.00     0.030 A 
BRANCH  19  23
HETATM   23  C   UNL     1      -1.938 -15.667 -41.162  1.00  0.00     0.252 C 
HETATM   24  N   UNL     1      -1.289 -15.140 -40.064  1.00  0.00    -0.352 N 
HETATM   25  H   UNL     1      -1.707 -14.331 -39.622  1.00  0.00     0.163 HD
HETATM   26  O   UNL     1      -1.451 -16.486 -41.931  1.00  0.00    -0.268 OA
BRANCH  24  27
HETATM   27  C   UNL     1       0.106 -15.393 -39.760  1.00  0.00     0.084 C 
HETATM   28  C   UNL     1       0.812 -14.295 -38.962  1.00  0.00     0.025 C 
HETATM   29  C   UNL     1       1.994 -15.027 -38.346  1.00  0.00     0.002 C 
HETATM   30  C   UNL     1       1.394 -16.357 -37.917  1.00  0.00     0.002 C 
HETATM   31  C   UNL     1       0.361 -16.699 -38.990  1.00  0.00     0.025 C 
ENDBRANCH  24  27
ENDBRANCH  19  23
ENDBRANCH   3  17
TORSDOF 3
ENDMDL
