MODEL 1
REMARK VINA RESULT:      -9.3      0.000      0.000
REMARK  3 active torsions:
REMARK  status: ('A' for Active; 'I' for Inactive)
REMARK    1  A    between atoms: C_6  and  C_7 
REMARK    2  A    between atoms: C_14  and  N_15 
REMARK    3  A    between atoms: N_15  and  C_16 
ROOT
HETATM    1  C   UNL     1      -5.543   2.054 -30.983  1.00  0.00     0.001 A 
HETATM    2  C   UNL     1      -5.840   1.332 -32.137  1.00  0.00     0.018 A 
HETATM    3  C   UNL     1      -7.176   1.220 -32.603  1.00  0.00     0.039 A 
HETATM    4  C   UNL     1      -8.208   1.830 -31.881  1.00  0.00     0.073 A 
HETATM    5  N   UNL     1      -9.491   1.752 -32.243  1.00  0.00    -0.228 NA
HETATM    6  C   UNL     1      -9.782   1.049 -33.349  1.00  0.00     0.164 A 
HETATM    7  N   UNL     1      -8.872   0.430 -34.116  1.00  0.00    -0.210 NA
HETATM    8  C   UNL     1      -7.580   0.519 -33.754  1.00  0.00     0.143 A 
HETATM    9  C   UNL     1      -7.887   2.547 -30.734  1.00  0.00     0.032 A 
HETATM   10  C   UNL     1      -6.571   2.667 -30.280  1.00  0.00     0.002 A 
ENDROOT
BRANCH   8  11
HETATM   11  N   UNL     1      -6.588  -0.102 -34.560  1.00  0.00    -0.340 N 
HETATM   12  H   UNL     1      -6.622   0.298 -35.492  1.00  0.00     0.167 HD
BRANCH  11  13
HETATM   13  C   UNL     1      -6.187  -1.458 -34.587  1.00  0.00     0.036 A 
HETATM   14  C   UNL     1      -4.952  -1.807 -34.012  1.00  0.00     0.069 A 
HETATM   15  C   UNL     1      -4.596  -3.140 -33.965  1.00  0.00     0.107 A 
HETATM   16  C   UNL     1      -5.422  -4.128 -34.440  1.00  0.00     0.105 A 
HETATM   17  O   UNL     1      -3.438  -3.633 -33.450  1.00  0.00    -0.323 OA
HETATM   18  O   UNL     1      -4.888  -5.369 -34.289  1.00  0.00    -0.323 OA
HETATM   19  C   UNL     1      -6.651  -3.838 -34.981  1.00  0.00     0.042 A 
HETATM   20  C   UNL     1      -3.632  -5.049 -33.654  1.00  0.00     0.352 A 
HETATM   21  C   UNL     1      -7.037  -2.492 -35.038  1.00  0.00     0.032 A 
ENDBRANCH  11  13
ENDBRANCH   8  11
BRANCH   6  22
HETATM   22  C   UNL     1     -11.192   0.950 -33.749  1.00  0.00     0.029 A 
HETATM   23  C   UNL     1     -11.787   1.890 -34.591  1.00  0.00     0.131 A 
HETATM   24  N   UNL     1     -13.083   1.867 -35.003  1.00  0.00    -0.272 NA
HETATM   25  C   UNL     1     -13.841   0.846 -34.554  1.00  0.00     0.116 A 
HETATM   26  C   UNL     1     -13.365  -0.147 -33.717  1.00  0.00     0.020 A 
HETATM   27  C   UNL     1     -12.031  -0.090 -33.315  1.00  0.00     0.018 A 
ENDBRANCH   6  22
TORSDOF 3
ENDMDL
MODEL 2
REMARK VINA RESULT:      -9.0      3.447      6.828
REMARK  3 active torsions:
REMARK  status: ('A' for Active; 'I' for Inactive)
REMARK    1  A    between atoms: C_6  and  C_7 
REMARK    2  A    between atoms: C_14  and  N_15 
REMARK    3  A    between atoms: N_15  and  C_16 
ROOT
HETATM    1  C   UNL     1      -4.784   3.860 -31.442  1.00  0.00     0.001 A 
HETATM    2  C   UNL     1      -5.978   3.178 -31.666  1.00  0.00     0.018 A 
HETATM    3  C   UNL     1      -5.978   1.862 -32.198  1.00  0.00     0.039 A 
HETATM    4  C   UNL     1      -4.759   1.251 -32.517  1.00  0.00     0.073 A 
HETATM    5  N   UNL     1      -4.678   0.026 -33.041  1.00  0.00    -0.228 NA
HETATM    6  C   UNL     1      -5.827  -0.631 -33.267  1.00  0.00     0.164 A 
HETATM    7  N   UNL     1      -7.046  -0.142 -32.994  1.00  0.00    -0.210 NA
HETATM    8  C   UNL     1      -7.124   1.089 -32.459  1.00  0.00     0.143 A 
HETATM    9  C   UNL     1      -3.581   1.951 -32.283  1.00  0.00     0.032 A 
HETATM   10  C   UNL     1      -3.580   3.242 -31.749  1.00  0.00     0.002 A 
ENDROOT
BRANCH   8  11
HETATM   11  N   UNL     1      -8.399   1.625 -32.132  1.00  0.00    -0.340 N 
HETATM   12  H   UNL     1      -8.621   1.387 -31.171  1.00  0.00     0.167 HD
BRANCH  11  13
HETATM   13  C   UNL     1      -9.561   1.702 -32.934  1.00  0.00     0.036 A 
HETATM   14  C   UNL     1      -9.713   2.801 -33.798  1.00  0.00     0.069 A 
HETATM   15  C   UNL     1     -10.806   2.837 -34.640  1.00  0.00     0.107 A 
HETATM   16  C   UNL     1     -11.730   1.822 -34.672  1.00  0.00     0.105 A 
HETATM   17  O   UNL     1     -11.094   3.830 -35.523  1.00  0.00    -0.323 OA
HETATM   18  O   UNL     1     -12.720   2.049 -35.576  1.00  0.00    -0.323 OA
HETATM   19  C   UNL     1     -11.607   0.713 -33.869  1.00  0.00     0.042 A 
HETATM   20  C   UNL     1     -12.308   3.320 -36.117  1.00  0.00     0.352 A 
HETATM   21  C   UNL     1     -10.504   0.652 -33.007  1.00  0.00     0.032 A 
ENDBRANCH  11  13
ENDBRANCH   8  11
BRANCH   6  22
HETATM   22  C   UNL     1      -5.746  -1.975 -33.852  1.00  0.00     0.029 A 
HETATM   23  C   UNL     1      -4.547  -2.689 -33.897  1.00  0.00     0.131 A 
HETATM   24  N   UNL     1      -4.393  -3.934 -34.421  1.00  0.00    -0.272 NA
HETATM   25  C   UNL     1      -5.497  -4.513 -34.935  1.00  0.00     0.116 A 
HETATM   26  C   UNL     1      -6.741  -3.909 -34.948  1.00  0.00     0.020 A 
HETATM   27  C   UNL     1      -6.860  -2.631 -34.401  1.00  0.00     0.018 A 
ENDBRANCH   6  22
TORSDOF 3
ENDMDL
MODEL 3
REMARK VINA RESULT:      -8.8      3.363      5.652
REMARK  3 active torsions:
REMARK  status: ('A' for Active; 'I' for Inactive)
REMARK    1  A    between atoms: C_6  and  C_7 
REMARK    2  A    between atoms: C_14  and  N_15 
REMARK    3  A    between atoms: N_15  and  C_16 
ROOT
HETATM    1  C   UNL     1      -4.426  -1.905 -33.642  1.00  0.00     0.001 A 
HETATM    2  C   UNL     1      -4.752  -0.693 -33.036  1.00  0.00     0.018 A 
HETATM    3  C   UNL     1      -6.048  -0.131 -33.179  1.00  0.00     0.039 A 
HETATM    4  C   UNL     1      -7.003  -0.798 -33.954  1.00  0.00     0.073 A 
HETATM    5  N   UNL     1      -8.235  -0.323 -34.153  1.00  0.00    -0.228 NA
HETATM    6  C   UNL     1      -8.549   0.849 -33.580  1.00  0.00     0.164 A 
HETATM    7  N   UNL     1      -7.713   1.567 -32.815  1.00  0.00    -0.210 NA
HETATM    8  C   UNL     1      -6.476   1.082 -32.608  1.00  0.00     0.143 A 
HETATM    9  C   UNL     1      -6.655  -2.007 -34.547  1.00  0.00     0.032 A 
HETATM   10  C   UNL     1      -5.384  -2.566 -34.398  1.00  0.00     0.002 A 
ENDROOT
BRANCH   8  11
HETATM   11  N   UNL     1      -5.576   1.804 -31.780  1.00  0.00    -0.340 N 
HETATM   12  H   UNL     1      -6.013   1.968 -30.880  1.00  0.00     0.167 HD
BRANCH  11  13
HETATM   13  C   UNL     1      -4.693   2.851 -32.131  1.00  0.00     0.036 A 
HETATM   14  C   UNL     1      -3.476   2.970 -31.435  1.00  0.00     0.069 A 
HETATM   15  C   UNL     1      -2.578   3.940 -31.830  1.00  0.00     0.107 A 
HETATM   16  C   UNL     1      -2.830   4.772 -32.893  1.00  0.00     0.105 A 
HETATM   17  O   UNL     1      -1.369   4.183 -31.256  1.00  0.00    -0.323 OA
HETATM   18  O   UNL     1      -1.815   5.647 -33.121  1.00  0.00    -0.323 OA
HETATM   19  C   UNL     1      -3.991   4.674 -33.623  1.00  0.00     0.042 A 
HETATM   20  C   UNL     1      -0.888   5.264 -32.084  1.00  0.00     0.352 A 
HETATM   21  C   UNL     1      -4.918   3.693 -33.243  1.00  0.00     0.032 A 
ENDBRANCH  11  13
ENDBRANCH   8  11
BRANCH   6  22
HETATM   22  C   UNL     1      -9.899   1.383 -33.802  1.00  0.00     0.029 A 
HETATM   23  C   UNL     1     -10.111   2.661 -34.320  1.00  0.00     0.131 A 
HETATM   24  N   UNL     1     -11.327   3.223 -34.553  1.00  0.00    -0.272 NA
HETATM   25  C   UNL     1     -12.406   2.472 -34.254  1.00  0.00     0.116 A 
HETATM   26  C   UNL     1     -12.326   1.192 -33.736  1.00  0.00     0.020 A 
HETATM   27  C   UNL     1     -11.061   0.649 -33.510  1.00  0.00     0.018 A 
ENDBRANCH   6  22
TORSDOF 3
ENDMDL
MODEL 4
REMARK VINA RESULT:      -8.8      3.550      6.884
REMARK  3 active torsions:
REMARK  status: ('A' for Active; 'I' for Inactive)
REMARK    1  A    between atoms: C_6  and  C_7 
REMARK    2  A    between atoms: C_14  and  N_15 
REMARK    3  A    between atoms: N_15  and  C_16 
ROOT
HETATM    1  C   UNL     1     -10.673   2.989 -32.702  1.00  0.00     0.001 A 
HETATM    2  C   UNL     1      -9.294   3.028 -32.511  1.00  0.00     0.018 A 
HETATM    3  C   UNL     1      -8.478   1.920 -32.858  1.00  0.00     0.039 A 
HETATM    4  C   UNL     1      -9.073   0.767 -33.382  1.00  0.00     0.073 A 
HETATM    5  N   UNL     1      -8.377  -0.323 -33.712  1.00  0.00    -0.228 NA
HETATM    6  C   UNL     1      -7.048  -0.292 -33.521  1.00  0.00     0.164 A 
HETATM    7  N   UNL     1      -6.376   0.760 -33.031  1.00  0.00    -0.210 NA
HETATM    8  C   UNL     1      -7.080   1.860 -32.708  1.00  0.00     0.143 A 
HETATM    9  C   UNL     1     -10.452   0.752 -33.565  1.00  0.00     0.032 A 
HETATM   10  C   UNL     1     -11.254   1.847 -33.234  1.00  0.00     0.002 A 
ENDROOT
BRANCH   8  11
HETATM   11  N   UNL     1      -6.396   3.002 -32.212  1.00  0.00    -0.340 N 
HETATM   12  H   UNL     1      -7.054   3.769 -32.124  1.00  0.00     0.167 HD
BRANCH  11  13
HETATM   13  C   UNL     1      -5.095   3.463 -32.524  1.00  0.00     0.036 A 
HETATM   14  C   UNL     1      -4.939   4.370 -33.587  1.00  0.00     0.069 A 
HETATM   15  C   UNL     1      -3.682   4.884 -33.841  1.00  0.00     0.107 A 
HETATM   16  C   UNL     1      -2.595   4.551 -33.073  1.00  0.00     0.105 A 
HETATM   17  O   UNL     1      -3.370   5.761 -34.832  1.00  0.00    -0.323 OA
HETATM   18  O   UNL     1      -1.458   5.172 -33.484  1.00  0.00    -0.323 OA
HETATM   19  C   UNL     1      -2.705   3.693 -32.005  1.00  0.00     0.042 A 
HETATM   20  C   UNL     1      -1.957   5.944 -34.596  1.00  0.00     0.352 A 
HETATM   21  C   UNL     1      -3.971   3.160 -31.725  1.00  0.00     0.032 A 
ENDBRANCH  11  13
ENDBRANCH   8  11
BRANCH   6  22
HETATM   22  C   UNL     1      -6.275  -1.491 -33.873  1.00  0.00     0.029 A 
HETATM   23  C   UNL     1      -4.932  -1.631 -33.523  1.00  0.00     0.131 A 
HETATM   24  N   UNL     1      -4.153  -2.707 -33.813  1.00  0.00    -0.272 NA
HETATM   25  C   UNL     1      -4.741  -3.712 -34.494  1.00  0.00     0.116 A 
HETATM   26  C   UNL     1      -6.065  -3.691 -34.894  1.00  0.00     0.020 A 
HETATM   27  C   UNL     1      -6.832  -2.570 -34.579  1.00  0.00     0.018 A 
ENDBRANCH   6  22
TORSDOF 3
ENDMDL
MODEL 5
REMARK VINA RESULT:      -8.7      3.264      6.817
REMARK  3 active torsions:
REMARK  status: ('A' for Active; 'I' for Inactive)
REMARK    1  A    between atoms: C_6  and  C_7 
REMARK    2  A    between atoms: C_14  and  N_15 
REMARK    3  A    between atoms: N_15  and  C_16 
ROOT
HETATM    1  C   UNL     1      -7.195   3.210 -30.385  1.00  0.00     0.001 A 
HETATM    2  C   UNL     1      -7.670   2.887 -31.655  1.00  0.00     0.018 A 
HETATM    3  C   UNL     1      -7.338   1.649 -32.265  1.00  0.00     0.039 A 
HETATM    4  C   UNL     1      -6.507   0.750 -31.587  1.00  0.00     0.073 A 
HETATM    5  N   UNL     1      -6.133  -0.422 -32.103  1.00  0.00    -0.228 NA
HETATM    6  C   UNL     1      -6.581  -0.733 -33.330  1.00  0.00     0.164 A 
HETATM    7  N   UNL     1      -7.385   0.052 -34.064  1.00  0.00    -0.210 NA
HETATM    8  C   UNL     1      -7.767   1.229 -33.538  1.00  0.00     0.143 A 
HETATM    9  C   UNL     1      -6.047   1.094 -30.320  1.00  0.00     0.032 A 
HETATM   10  C   UNL     1      -6.382   2.307 -29.714  1.00  0.00     0.002 A 
ENDROOT
BRANCH   8  11
HETATM   11  N   UNL     1      -8.639   2.070 -34.278  1.00  0.00    -0.340 N 
HETATM   12  H   UNL     1      -8.284   3.020 -34.251  1.00  0.00     0.167 HD
BRANCH  11  13
HETATM   13  C   UNL     1     -10.052   2.042 -34.349  1.00  0.00     0.036 A 
HETATM   14  C   UNL     1     -10.727   0.899 -33.885  1.00  0.00     0.069 A 
HETATM   15  C   UNL     1     -12.108   0.902 -33.877  1.00  0.00     0.107 A 
HETATM   16  C   UNL     1     -12.832   1.994 -34.287  1.00  0.00     0.105 A 
HETATM   17  O   UNL     1     -12.900  -0.124 -33.467  1.00  0.00    -0.323 OA
HETATM   18  O   UNL     1     -14.174   1.793 -34.192  1.00  0.00    -0.323 OA
HETATM   19  C   UNL     1     -12.216   3.144 -34.719  1.00  0.00     0.042 A 
HETATM   20  C   UNL     1     -14.210   0.451 -33.665  1.00  0.00     0.352 A 
HETATM   21  C   UNL     1     -10.815   3.167 -34.733  1.00  0.00     0.032 A 
ENDBRANCH  11  13
ENDBRANCH   8  11
BRANCH   6  22
HETATM   22  C   UNL     1      -6.167  -2.017 -33.909  1.00  0.00     0.029 A 
HETATM   23  C   UNL     1      -4.831  -2.419 -33.930  1.00  0.00     0.131 A 
HETATM   24  N   UNL     1      -4.370  -3.589 -34.447  1.00  0.00    -0.272 NA
HETATM   25  C   UNL     1      -5.292  -4.418 -34.978  1.00  0.00     0.116 A 
HETATM   26  C   UNL     1      -6.645  -4.133 -35.015  1.00  0.00     0.020 A 
HETATM   27  C   UNL     1      -7.080  -2.922 -34.475  1.00  0.00     0.018 A 
ENDBRANCH   6  22
TORSDOF 3
ENDMDL
MODEL 6
REMARK VINA RESULT:      -8.6      3.647      7.698
REMARK  3 active torsions:
REMARK  status: ('A' for Active; 'I' for Inactive)
REMARK    1  A    between atoms: C_6  and  C_7 
REMARK    2  A    between atoms: C_14  and  N_15 
REMARK    3  A    between atoms: N_15  and  C_16 
ROOT
HETATM    1  C   UNL     1      -6.375  -3.763 -34.709  1.00  0.00     0.001 A 
HETATM    2  C   UNL     1      -7.154  -2.693 -34.273  1.00  0.00     0.018 A 
HETATM    3  C   UNL     1      -6.553  -1.484 -33.836  1.00  0.00     0.039 A 
HETATM    4  C   UNL     1      -5.157  -1.375 -33.827  1.00  0.00     0.073 A 
HETATM    5  N   UNL     1      -4.518  -0.280 -33.411  1.00  0.00    -0.228 NA
HETATM    6  C   UNL     1      -5.265   0.750 -32.981  1.00  0.00     0.164 A 
HETATM    7  N   UNL     1      -6.606   0.753 -32.952  1.00  0.00    -0.210 NA
HETATM    8  C   UNL     1      -7.247  -0.348 -33.381  1.00  0.00     0.143 A 
HETATM    9  C   UNL     1      -4.401  -2.456 -34.268  1.00  0.00     0.032 A 
HETATM   10  C   UNL     1      -4.992  -3.642 -34.709  1.00  0.00     0.002 A 
ENDROOT
BRANCH   8  11
HETATM   11  N   UNL     1      -8.668  -0.366 -33.389  1.00  0.00    -0.340 N 
HETATM   12  H   UNL     1      -8.985  -1.259 -33.751  1.00  0.00     0.167 HD
BRANCH  11  13
HETATM   13  C   UNL     1      -9.567   0.677 -33.710  1.00  0.00     0.036 A 
HETATM   14  C   UNL     1     -10.921   0.531 -33.358  1.00  0.00     0.069 A 
HETATM   15  C   UNL     1     -11.785   1.581 -33.596  1.00  0.00     0.107 A 
HETATM   16  C   UNL     1     -11.354   2.764 -34.143  1.00  0.00     0.105 A 
HETATM   17  O   UNL     1     -13.117   1.591 -33.319  1.00  0.00    -0.323 OA
HETATM   18  O   UNL     1     -12.359   3.669 -34.285  1.00  0.00    -0.323 OA
HETATM   19  C   UNL     1     -10.035   2.965 -34.474  1.00  0.00     0.042 A 
HETATM   20  C   UNL     1     -13.473   2.921 -33.755  1.00  0.00     0.352 A 
HETATM   21  C   UNL     1      -9.138   1.914 -34.239  1.00  0.00     0.032 A 
ENDBRANCH  11  13
ENDBRANCH   8  11
BRANCH   6  22
HETATM   22  C   UNL     1      -4.569   1.955 -32.512  1.00  0.00     0.029 A 
HETATM   23  C   UNL     1      -3.380   1.884 -31.785  1.00  0.00     0.131 A 
HETATM   24  N   UNL     1      -2.680   2.951 -31.318  1.00  0.00    -0.272 NA
HETATM   25  C   UNL     1      -3.188   4.171 -31.587  1.00  0.00     0.116 A 
HETATM   26  C   UNL     1      -4.358   4.371 -32.298  1.00  0.00     0.020 A 
HETATM   27  C   UNL     1      -5.049   3.252 -32.761  1.00  0.00     0.018 A 
ENDBRANCH   6  22
TORSDOF 3
ENDMDL
MODEL 7
REMARK VINA RESULT:      -8.6     13.686     15.270
REMARK  3 active torsions:
REMARK  status: ('A' for Active; 'I' for Inactive)
REMARK    1  A    between atoms: C_6  and  C_7 
REMARK    2  A    between atoms: C_14  and  N_15 
REMARK    3  A    between atoms: N_15  and  C_16 
ROOT
HETATM    1  C   UNL     1      -6.756 -12.043 -40.897  1.00  0.00     0.001 A 
HETATM    2  C   UNL     1      -5.540 -12.111 -40.221  1.00  0.00     0.018 A 
HETATM    3  C   UNL     1      -5.475 -12.575 -38.881  1.00  0.00     0.039 A 
HETATM    4  C   UNL     1      -6.654 -12.951 -38.227  1.00  0.00     0.073 A 
HETATM    5  N   UNL     1      -6.677 -13.377 -36.963  1.00  0.00    -0.228 NA
HETATM    6  C   UNL     1      -5.508 -13.434 -36.305  1.00  0.00     0.164 A 
HETATM    7  N   UNL     1      -4.322 -13.102 -36.836  1.00  0.00    -0.210 NA
HETATM    8  C   UNL     1      -4.301 -12.683 -38.114  1.00  0.00     0.143 A 
HETATM    9  C   UNL     1      -7.855 -12.877 -38.923  1.00  0.00     0.032 A 
HETATM   10  C   UNL     1      -7.919 -12.431 -40.246  1.00  0.00     0.002 A 
ENDROOT
BRANCH   8  11
HETATM   11  N   UNL     1      -3.057 -12.350 -38.715  1.00  0.00    -0.340 N 
HETATM   12  H   UNL     1      -3.189 -11.550 -39.324  1.00  0.00     0.167 HD
BRANCH  11  13
HETATM   13  C   UNL     1      -2.045 -13.213 -39.197  1.00  0.00     0.036 A 
HETATM   14  C   UNL     1      -0.829 -13.282 -38.494  1.00  0.00     0.069 A 
HETATM   15  C   UNL     1       0.130 -14.183 -38.914  1.00  0.00     0.107 A 
HETATM   16  C   UNL     1      -0.083 -15.023 -39.979  1.00  0.00     0.105 A 
HETATM   17  O   UNL     1       1.352 -14.362 -38.346  1.00  0.00    -0.323 OA
HETATM   18  O   UNL     1       0.980 -15.835 -40.221  1.00  0.00    -0.323 OA
HETATM   19  C   UNL     1      -1.267 -15.013 -40.677  1.00  0.00     0.042 A 
HETATM   20  C   UNL     1       1.884 -15.417 -39.178  1.00  0.00     0.352 A 
HETATM   21  C   UNL     1      -2.257 -14.109 -40.267  1.00  0.00     0.032 A 
ENDBRANCH  11  13
ENDBRANCH   8  11
BRANCH   6  22
HETATM   22  C   UNL     1      -5.526 -13.892 -34.909  1.00  0.00     0.029 A 
HETATM   23  C   UNL     1      -5.471 -15.246 -34.577  1.00  0.00     0.131 A 
HETATM   24  N   UNL     1      -5.484 -15.746 -33.313  1.00  0.00    -0.272 NA
HETATM   25  C   UNL     1      -5.557 -14.848 -32.309  1.00  0.00     0.116 A 
HETATM   26  C   UNL     1      -5.616 -13.481 -32.511  1.00  0.00     0.020 A 
HETATM   27  C   UNL     1      -5.601 -13.005 -33.822  1.00  0.00     0.018 A 
ENDBRANCH   6  22
TORSDOF 3
ENDMDL
MODEL 8
REMARK VINA RESULT:      -8.3      1.953      2.385
REMARK  3 active torsions:
REMARK  status: ('A' for Active; 'I' for Inactive)
REMARK    1  A    between atoms: C_6  and  C_7 
REMARK    2  A    between atoms: C_14  and  N_15 
REMARK    3  A    between atoms: N_15  and  C_16 
ROOT
HETATM    1  C   UNL     1      -5.381   4.589 -32.835  1.00  0.00     0.001 A 
HETATM    2  C   UNL     1      -5.823   3.294 -32.575  1.00  0.00     0.018 A 
HETATM    3  C   UNL     1      -7.132   2.882 -32.938  1.00  0.00     0.039 A 
HETATM    4  C   UNL     1      -7.994   3.799 -33.551  1.00  0.00     0.073 A 
HETATM    5  N   UNL     1      -9.245   3.494 -33.902  1.00  0.00    -0.228 NA
HETATM    6  C   UNL     1      -9.678   2.249 -33.644  1.00  0.00     0.164 A 
HETATM    7  N   UNL     1      -8.934   1.293 -33.067  1.00  0.00    -0.210 NA
HETATM    8  C   UNL     1      -7.672   1.601 -32.722  1.00  0.00     0.143 A 
HETATM    9  C   UNL     1      -7.531   5.085 -33.802  1.00  0.00     0.032 A 
HETATM   10  C   UNL     1      -6.239   5.488 -33.455  1.00  0.00     0.002 A 
ENDROOT
BRANCH   8  11
HETATM   11  N   UNL     1      -6.849   0.603 -32.134  1.00  0.00    -0.340 N 
HETATM   12  H   UNL     1      -6.257   1.034 -31.432  1.00  0.00     0.167 HD
BRANCH  11  13
HETATM   13  C   UNL     1      -6.211  -0.499 -32.751  1.00  0.00     0.036 A 
HETATM   14  C   UNL     1      -6.995  -1.406 -33.486  1.00  0.00     0.069 A 
HETATM   15  C   UNL     1      -6.364  -2.435 -34.157  1.00  0.00     0.107 A 
HETATM   16  C   UNL     1      -4.999  -2.580 -34.142  1.00  0.00     0.105 A 
HETATM   17  O   UNL     1      -6.981  -3.392 -34.900  1.00  0.00    -0.323 OA
HETATM   18  O   UNL     1      -4.581  -3.649 -34.871  1.00  0.00    -0.323 OA
HETATM   19  C   UNL     1      -4.190  -1.700 -33.463  1.00  0.00     0.042 A 
HETATM   20  C   UNL     1      -5.842  -4.156 -35.355  1.00  0.00     0.352 A 
HETATM   21  C   UNL     1      -4.807  -0.645 -32.778  1.00  0.00     0.032 A 
ENDBRANCH  11  13
ENDBRANCH   8  11
BRANCH   6  22
HETATM   22  C   UNL     1     -11.056   1.909 -34.019  1.00  0.00     0.029 A 
HETATM   23  C   UNL     1     -11.791   2.689 -34.912  1.00  0.00     0.131 A 
HETATM   24  N   UNL     1     -13.068   2.440 -35.306  1.00  0.00    -0.272 NA
HETATM   25  C   UNL     1     -13.659   1.346 -34.783  1.00  0.00     0.116 A 
HETATM   26  C   UNL     1     -13.034   0.495 -33.890  1.00  0.00     0.020 A 
HETATM   27  C   UNL     1     -11.724   0.783 -33.508  1.00  0.00     0.018 A 
ENDBRANCH   6  22
TORSDOF 3
ENDMDL
MODEL 9
REMARK VINA RESULT:      -8.3      3.394      6.051
REMARK  3 active torsions:
REMARK  status: ('A' for Active; 'I' for Inactive)
REMARK    1  A    between atoms: C_6  and  C_7 
REMARK    2  A    between atoms: C_14  and  N_15 
REMARK    3  A    between atoms: N_15  and  C_16 
ROOT
HETATM    1  C   UNL     1      -9.945   3.111 -33.791  1.00  0.00     0.001 A 
HETATM    2  C   UNL     1      -8.854   2.342 -33.390  1.00  0.00     0.018 A 
HETATM    3  C   UNL     1      -7.545   2.892 -33.360  1.00  0.00     0.039 A 
HETATM    4  C   UNL     1      -7.350   4.220 -33.755  1.00  0.00     0.073 A 
HETATM    5  N   UNL     1      -6.148   4.801 -33.774  1.00  0.00    -0.228 NA
HETATM    6  C   UNL     1      -5.093   4.060 -33.398  1.00  0.00     0.164 A 
HETATM    7  N   UNL     1      -5.169   2.783 -32.997  1.00  0.00    -0.210 NA
HETATM    8  C   UNL     1      -6.382   2.203 -32.970  1.00  0.00     0.143 A 
HETATM    9  C   UNL     1      -8.454   4.968 -34.149  1.00  0.00     0.032 A 
HETATM   10  C   UNL     1      -9.743   4.431 -34.169  1.00  0.00     0.002 A 
ENDROOT
BRANCH   8  11
HETATM   11  N   UNL     1      -6.500   0.859 -32.524  1.00  0.00    -0.340 N 
HETATM   12  H   UNL     1      -6.251   0.813 -31.542  1.00  0.00     0.167 HD
BRANCH  11  13
HETATM   13  C   UNL     1      -6.164  -0.335 -33.204  1.00  0.00     0.036 A 
HETATM   14  C   UNL     1      -5.006  -1.030 -32.813  1.00  0.00     0.069 A 
HETATM   15  C   UNL     1      -4.720  -2.237 -33.419  1.00  0.00     0.107 A 
HETATM   16  C   UNL     1      -5.545  -2.783 -34.372  1.00  0.00     0.105 A 
HETATM   17  O   UNL     1      -3.640  -3.020 -33.156  1.00  0.00    -0.323 OA
HETATM   18  O   UNL     1      -5.087  -3.977 -34.833  1.00  0.00    -0.323 OA
HETATM   19  C   UNL     1      -6.704  -2.156 -34.763  1.00  0.00     0.042 A 
HETATM   20  C   UNL     1      -3.883  -4.126 -34.054  1.00  0.00     0.352 A 
HETATM   21  C   UNL     1      -7.017  -0.930 -34.160  1.00  0.00     0.032 A 
ENDBRANCH  11  13
ENDBRANCH   8  11
BRANCH   6  22
HETATM   22  C   UNL     1      -3.767   4.690 -33.426  1.00  0.00     0.029 A 
HETATM   23  C   UNL     1      -3.495   5.802 -34.224  1.00  0.00     0.131 A 
HETATM   24  N   UNL     1      -2.296   6.437 -34.303  1.00  0.00    -0.272 NA
HETATM   25  C   UNL     1      -1.298   5.941 -33.543  1.00  0.00     0.116 A 
HETATM   26  C   UNL     1      -1.445   4.846 -32.711  1.00  0.00     0.020 A 
HETATM   27  C   UNL     1      -2.690   4.220 -32.656  1.00  0.00     0.018 A 
ENDBRANCH   6  22
TORSDOF 3
ENDMDL
MODEL 10
REMARK VINA RESULT:      -8.2     13.545     15.485
REMARK  3 active torsions:
REMARK  status: ('A' for Active; 'I' for Inactive)
REMARK    1  A    between atoms: C_6  and  C_7 
REMARK    2  A    between atoms: C_14  and  N_15 
REMARK    3  A    between atoms: N_15  and  C_16 
ROOT
HETATM    1  C   UNL     1      -9.662 -12.811 -39.324  1.00  0.00     0.001 A 
HETATM    2  C   UNL     1      -8.996 -13.136 -38.144  1.00  0.00     0.018 A 
HETATM    3  C   UNL     1      -7.579 -13.221 -38.106  1.00  0.00     0.039 A 
HETATM    4  C   UNL     1      -6.846 -12.991 -39.276  1.00  0.00     0.073 A 
HETATM    5  N   UNL     1      -5.515 -13.073 -39.325  1.00  0.00    -0.228 NA
HETATM    6  C   UNL     1      -4.870 -13.396 -38.192  1.00  0.00     0.164 A 
HETATM    7  N   UNL     1      -5.473 -13.632 -37.018  1.00  0.00    -0.210 NA
HETATM    8  C   UNL     1      -6.813 -13.539 -36.969  1.00  0.00     0.143 A 
HETATM    9  C   UNL     1      -7.533 -12.666 -40.440  1.00  0.00     0.032 A 
HETATM   10  C   UNL     1      -8.927 -12.571 -40.476  1.00  0.00     0.002 A 
ENDROOT
BRANCH   8  11
HETATM   11  N   UNL     1      -7.481 -13.756 -35.734  1.00  0.00    -0.340 N 
HETATM   12  H   UNL     1      -8.293 -13.150 -35.686  1.00  0.00     0.167 HD
BRANCH  11  13
HETATM   13  C   UNL     1      -6.926 -13.986 -34.453  1.00  0.00     0.036 A 
HETATM   14  C   UNL     1      -7.043 -15.269 -33.889  1.00  0.00     0.069 A 
HETATM   15  C   UNL     1      -6.432 -15.519 -32.677  1.00  0.00     0.107 A 
HETATM   16  C   UNL     1      -5.698 -14.560 -32.024  1.00  0.00     0.105 A 
HETATM   17  O   UNL     1      -6.460 -16.700 -32.003  1.00  0.00    -0.323 OA
HETATM   18  O   UNL     1      -5.174 -15.013 -30.854  1.00  0.00    -0.323 OA
HETATM   19  C   UNL     1      -5.529 -13.302 -32.551  1.00  0.00     0.042 A 
HETATM   20  C   UNL     1      -5.655 -16.373 -30.850  1.00  0.00     0.352 A 
HETATM   21  C   UNL     1      -6.137 -13.025 -33.783  1.00  0.00     0.032 A 
ENDBRANCH  11  13
ENDBRANCH   8  11
BRANCH   6  22
HETATM   22  C   UNL     1      -3.406 -13.498 -38.241  1.00  0.00     0.029 A 
HETATM   23  C   UNL     1      -2.753 -14.731 -38.279  1.00  0.00     0.131 A 
HETATM   24  N   UNL     1      -1.405 -14.905 -38.324  1.00  0.00    -0.272 NA
HETATM   25  C   UNL     1      -0.652 -13.786 -38.332  1.00  0.00     0.116 A 
HETATM   26  C   UNL     1      -1.181 -12.509 -38.299  1.00  0.00     0.020 A 
HETATM   27  C   UNL     1      -2.568 -12.370 -38.253  1.00  0.00     0.018 A 
ENDBRANCH   6  22
TORSDOF 3
ENDMDL
