MODEL 1
REMARK VINA RESULT:      -9.4      0.000      0.000
REMARK  2 active torsions:
REMARK  status: ('A' for Active; 'I' for Inactive)
REMARK    1  A    between atoms: C_9  and  C_10 
REMARK       I    between atoms: C_10  and  N_11 
REMARK    2  A    between atoms: N_11  and  C_12 
ROOT
HETATM    1  C   UNL     1      -7.155  -0.067 -32.300  1.00  0.00     0.267 C 
HETATM    2  N   UNL     1      -8.459   0.097 -31.929  1.00  0.00    -0.156 N 
HETATM    3  O   UNL     1      -6.392  -0.474 -31.420  1.00  0.00    -0.270 OA
HETATM    4  H   UNL     1      -8.628  -0.146 -30.958  1.00  0.00     0.187 HD
ENDROOT
BRANCH   1   5
HETATM    5  C   UNL     1      -6.647   0.170 -33.748  1.00  0.00     0.282 C 
HETATM    6  N   UNL     1      -5.152   0.307 -33.918  1.00  0.00    -0.058 N 
HETATM    7  C   UNL     1      -4.387  -0.877 -33.467  1.00  0.00     0.272 C 
HETATM    8  H   UNL     1      -4.930   0.514 -34.896  1.00  0.00     0.278 HD
HETATM    9  H   UNL     1      -4.857   1.140 -33.373  1.00  0.00     0.278 HD
HETATM   10  C   UNL     1      -4.964  -2.164 -33.974  1.00  0.00    -0.026 A 
HETATM   11  C   UNL     1      -6.261  -2.220 -34.526  1.00  0.00    -0.048 A 
HETATM   12  C   UNL     1      -4.219  -3.345 -33.837  1.00  0.00     0.009 A 
HETATM   13  C   UNL     1      -6.773  -3.450 -34.958  1.00  0.00     0.008 A 
HETATM   14  C   UNL     1      -7.094  -0.964 -34.692  1.00  0.00     0.082 C 
HETATM   15  C   UNL     1      -6.019  -4.616 -34.818  1.00  0.00     0.001 A 
HETATM   16  C   UNL     1      -4.746  -4.565 -34.258  1.00  0.00     0.001 A 
ENDBRANCH   1   5
BRANCH   2  17
HETATM   17  C   UNL     1      -9.495   0.564 -32.685  1.00  0.00     0.708 A 
HETATM   18  N   UNL     1      -9.567   1.700 -33.342  1.00  0.00    -0.062 NA
HETATM   19  C   UNL     1     -10.846   1.744 -33.861  1.00  0.00     0.103 A 
HETATM   20  C   UNL     1     -11.563   0.613 -33.495  1.00  0.00     0.078 A 
HETATM   21  C   UNL     1     -11.472   2.737 -34.629  1.00  0.00     0.034 A 
HETATM   22  N   UNL     1     -10.669  -0.142 -32.782  1.00  0.00    -0.188 N 
HETATM   23  C   UNL     1     -12.899   0.405 -33.840  1.00  0.00     0.032 A 
HETATM   24  H   UNL     1     -10.865  -1.042 -32.366  1.00  0.00     0.184 HD
HETATM   25  C   UNL     1     -13.512   1.410 -34.595  1.00  0.00     0.002 A 
HETATM   26  C   UNL     1     -12.813   2.554 -34.987  1.00  0.00     0.002 A 
ENDBRANCH   2  17
TORSDOF 2
ENDMDL
MODEL 2
REMARK VINA RESULT:      -8.7      1.716      2.710
REMARK  2 active torsions:
REMARK  status: ('A' for Active; 'I' for Inactive)
REMARK    1  A    between atoms: C_9  and  C_10 
REMARK       I    between atoms: C_10  and  N_11 
REMARK    2  A    between atoms: N_11  and  C_12 
ROOT
HETATM    1  C   UNL     1      -7.078   2.276 -33.124  1.00  0.00     0.267 C 
HETATM    2  N   UNL     1      -7.987   3.008 -33.831  1.00  0.00    -0.156 N 
HETATM    3  O   UNL     1      -5.891   2.546 -33.330  1.00  0.00    -0.270 OA
HETATM    4  H   UNL     1      -7.554   3.693 -34.444  1.00  0.00     0.187 HD
ENDROOT
BRANCH   1   5
HETATM    5  C   UNL     1      -7.480   1.211 -32.068  1.00  0.00     0.282 C 
HETATM    6  N   UNL     1      -8.574   0.249 -32.470  1.00  0.00    -0.058 N 
HETATM    7  C   UNL     1      -8.255  -0.552 -33.673  1.00  0.00     0.272 C 
HETATM    8  H   UNL     1      -8.798  -0.371 -31.687  1.00  0.00     0.278 HD
HETATM    9  H   UNL     1      -9.428   0.814 -32.644  1.00  0.00     0.278 HD
HETATM   10  C   UNL     1      -6.880  -1.148 -33.621  1.00  0.00    -0.026 A 
HETATM   11  C   UNL     1      -5.922  -0.702 -32.687  1.00  0.00    -0.048 A 
HETATM   12  C   UNL     1      -6.525  -2.124 -34.565  1.00  0.00     0.009 A 
HETATM   13  C   UNL     1      -4.638  -1.264 -32.696  1.00  0.00     0.008 A 
HETATM   14  C   UNL     1      -6.270   0.350 -31.651  1.00  0.00     0.082 C 
HETATM   15  C   UNL     1      -4.301  -2.235 -33.638  1.00  0.00     0.001 A 
HETATM   16  C   UNL     1      -5.240  -2.665 -34.571  1.00  0.00     0.001 A 
ENDBRANCH   1   5
BRANCH   2  17
HETATM   17  C   UNL     1      -9.347   2.893 -33.824  1.00  0.00     0.708 A 
HETATM   18  N   UNL     1     -10.184   3.271 -32.883  1.00  0.00    -0.062 NA
HETATM   19  C   UNL     1     -11.429   2.850 -33.308  1.00  0.00     0.103 A 
HETATM   20  C   UNL     1     -11.334   2.193 -34.527  1.00  0.00     0.078 A 
HETATM   21  C   UNL     1     -12.679   2.969 -32.685  1.00  0.00     0.034 A 
HETATM   22  N   UNL     1     -10.006   2.269 -34.854  1.00  0.00    -0.188 N 
HETATM   23  C   UNL     1     -12.428   1.620 -35.178  1.00  0.00     0.032 A 
HETATM   24  H   UNL     1      -9.587   1.889 -35.692  1.00  0.00     0.184 HD
HETATM   25  C   UNL     1     -13.666   1.736 -34.538  1.00  0.00     0.002 A 
HETATM   26  C   UNL     1     -13.793   2.402 -33.316  1.00  0.00     0.002 A 
ENDBRANCH   2  17
TORSDOF 2
ENDMDL
MODEL 3
REMARK VINA RESULT:      -8.6      5.618      7.813
REMARK  2 active torsions:
REMARK  status: ('A' for Active; 'I' for Inactive)
REMARK    1  A    between atoms: C_9  and  C_10 
REMARK       I    between atoms: C_10  and  N_11 
REMARK    2  A    between atoms: N_11  and  C_12 
ROOT
HETATM    1  C   UNL     1      -4.697   5.313 -33.133  1.00  0.00     0.267 C 
HETATM    2  N   UNL     1      -5.704   4.502 -32.693  1.00  0.00    -0.156 N 
HETATM    3  O   UNL     1      -4.740   6.483 -32.743  1.00  0.00    -0.270 OA
HETATM    4  H   UNL     1      -6.365   4.983 -32.090  1.00  0.00     0.187 HD
ENDROOT
BRANCH   1   5
HETATM    5  C   UNL     1      -3.521   4.808 -34.011  1.00  0.00     0.282 C 
HETATM    6  N   UNL     1      -2.809   5.851 -34.840  1.00  0.00    -0.058 N 
HETATM    7  C   UNL     1      -2.208   6.943 -34.042  1.00  0.00     0.272 C 
HETATM    8  H   UNL     1      -2.091   5.407 -35.419  1.00  0.00     0.278 HD
HETATM    9  H   UNL     1      -3.508   6.246 -35.499  1.00  0.00     0.278 HD
HETATM   10  C   UNL     1      -1.431   6.436 -32.865  1.00  0.00    -0.026 A 
HETATM   11  C   UNL     1      -1.560   5.104 -32.418  1.00  0.00    -0.048 A 
HETATM   12  C   UNL     1      -0.606   7.325 -32.159  1.00  0.00     0.009 A 
HETATM   13  C   UNL     1      -0.840   4.681 -31.294  1.00  0.00     0.008 A 
HETATM   14  C   UNL     1      -2.441   4.114 -33.157  1.00  0.00     0.082 C 
HETATM   15  C   UNL     1      -0.022   5.576 -30.603  1.00  0.00     0.001 A 
HETATM   16  C   UNL     1       0.095   6.895 -31.033  1.00  0.00     0.001 A 
ENDBRANCH   1   5
BRANCH   2  17
HETATM   17  C   UNL     1      -5.918   3.189 -32.996  1.00  0.00     0.708 A 
HETATM   18  N   UNL     1      -5.465   2.129 -32.363  1.00  0.00    -0.062 NA
HETATM   19  C   UNL     1      -5.879   1.047 -33.114  1.00  0.00     0.103 A 
HETATM   20  C   UNL     1      -6.587   1.468 -34.232  1.00  0.00     0.078 A 
HETATM   21  C   UNL     1      -5.658  -0.323 -32.915  1.00  0.00     0.034 A 
HETATM   22  N   UNL     1      -6.633   2.832 -34.113  1.00  0.00    -0.188 N 
HETATM   23  C   UNL     1      -7.090   0.594 -35.197  1.00  0.00     0.032 A 
HETATM   24  H   UNL     1      -7.082   3.461 -34.765  1.00  0.00     0.184 HD
HETATM   25  C   UNL     1      -6.850  -0.768 -34.990  1.00  0.00     0.002 A 
HETATM   26  C   UNL     1      -6.151  -1.222 -33.869  1.00  0.00     0.002 A 
ENDBRANCH   2  17
TORSDOF 2
ENDMDL
MODEL 4
REMARK VINA RESULT:      -8.5      2.805      7.084
REMARK  2 active torsions:
REMARK  status: ('A' for Active; 'I' for Inactive)
REMARK    1  A    between atoms: C_9  and  C_10 
REMARK       I    between atoms: C_10  and  N_11 
REMARK    2  A    between atoms: N_11  and  C_12 
ROOT
HETATM    1  C   UNL     1      -4.659   1.787 -31.157  1.00  0.00     0.267 C 
HETATM    2  N   UNL     1      -3.973   1.258 -32.212  1.00  0.00    -0.156 N 
HETATM    3  O   UNL     1      -4.542   3.006 -30.997  1.00  0.00    -0.270 OA
HETATM    4  H   UNL     1      -3.451   1.954 -32.735  1.00  0.00     0.187 HD
ENDROOT
BRANCH   1   5
HETATM    5  C   UNL     1      -5.588   0.949 -30.239  1.00  0.00     0.282 C 
HETATM    6  N   UNL     1      -6.508   1.727 -29.327  1.00  0.00    -0.058 N 
HETATM    7  C   UNL     1      -7.439   2.628 -30.041  1.00  0.00     0.272 C 
HETATM    8  H   UNL     1      -7.034   1.083 -28.730  1.00  0.00     0.278 HD
HETATM    9  H   UNL     1      -5.905   2.284 -28.690  1.00  0.00     0.278 HD
HETATM   10  C   UNL     1      -8.119   1.956 -31.197  1.00  0.00    -0.026 A 
HETATM   11  C   UNL     1      -7.653   0.727 -31.709  1.00  0.00    -0.048 A 
HETATM   12  C   UNL     1      -9.202   2.597 -31.816  1.00  0.00     0.009 A 
HETATM   13  C   UNL     1      -8.298   0.151 -32.810  1.00  0.00     0.008 A 
HETATM   14  C   UNL     1      -6.486   0.004 -31.063  1.00  0.00     0.082 C 
HETATM   15  C   UNL     1      -9.376   0.799 -33.414  1.00  0.00     0.001 A 
HETATM   16  C   UNL     1      -9.827   2.019 -32.920  1.00  0.00     0.001 A 
ENDBRANCH   1   5
BRANCH   2  17
HETATM   17  C   UNL     1      -3.896  -0.050 -32.592  1.00  0.00     0.708 A 
HETATM   18  N   UNL     1      -4.456  -0.623 -33.636  1.00  0.00    -0.062 NA
HETATM   19  C   UNL     1      -4.157  -1.967 -33.522  1.00  0.00     0.103 A 
HETATM   20  C   UNL     1      -3.411  -2.208 -32.376  1.00  0.00     0.078 A 
HETATM   21  C   UNL     1      -4.518  -3.040 -34.348  1.00  0.00     0.034 A 
HETATM   22  N   UNL     1      -3.224  -0.969 -31.823  1.00  0.00    -0.188 N 
HETATM   23  C   UNL     1      -3.003  -3.482 -31.980  1.00  0.00     0.032 A 
HETATM   24  H   UNL     1      -2.714  -0.779 -30.972  1.00  0.00     0.184 HD
HETATM   25  C   UNL     1      -3.382  -4.544 -32.807  1.00  0.00     0.002 A 
HETATM   26  C   UNL     1      -4.123  -4.330 -33.973  1.00  0.00     0.002 A 
ENDBRANCH   2  17
TORSDOF 2
ENDMDL
MODEL 5
REMARK VINA RESULT:      -8.5      3.725      7.013
REMARK  2 active torsions:
REMARK  status: ('A' for Active; 'I' for Inactive)
REMARK    1  A    between atoms: C_9  and  C_10 
REMARK       I    between atoms: C_10  and  N_11 
REMARK    2  A    between atoms: N_11  and  C_12 
ROOT
HETATM    1  C   UNL     1      -6.316   1.820 -33.285  1.00  0.00     0.267 C 
HETATM    2  N   UNL     1      -6.387   0.907 -34.297  1.00  0.00    -0.156 N 
HETATM    3  O   UNL     1      -6.626   2.977 -33.581  1.00  0.00    -0.270 OA
HETATM    4  H   UNL     1      -6.694   1.312 -35.176  1.00  0.00     0.187 HD
ENDROOT
BRANCH   1   5
HETATM    5  C   UNL     1      -5.939   1.445 -31.826  1.00  0.00     0.282 C 
HETATM    6  N   UNL     1      -4.561   0.860 -31.620  1.00  0.00    -0.058 N 
HETATM    7  C   UNL     1      -3.461   1.752 -32.048  1.00  0.00     0.272 C 
HETATM    8  H   UNL     1      -4.436   0.599 -30.638  1.00  0.00     0.278 HD
HETATM    9  H   UNL     1      -4.522  -0.026 -32.160  1.00  0.00     0.278 HD
HETATM   10  C   UNL     1      -3.630   3.156 -31.551  1.00  0.00    -0.026 A 
HETATM   11  C   UNL     1      -4.861   3.607 -31.030  1.00  0.00    -0.048 A 
HETATM   12  C   UNL     1      -2.557   4.053 -31.666  1.00  0.00     0.009 A 
HETATM   13  C   UNL     1      -4.984   4.937 -30.607  1.00  0.00     0.008 A 
HETATM   14  C   UNL     1      -6.042   2.665 -30.889  1.00  0.00     0.082 C 
HETATM   15  C   UNL     1      -3.908   5.817 -30.725  1.00  0.00     0.001 A 
HETATM   16  C   UNL     1      -2.698   5.378 -31.254  1.00  0.00     0.001 A 
ENDBRANCH   1   5
BRANCH   2  17
HETATM   17  C   UNL     1      -6.069  -0.420 -34.256  1.00  0.00     0.708 A 
HETATM   18  N   UNL     1      -4.918  -0.964 -33.924  1.00  0.00    -0.062 NA
HETATM   19  C   UNL     1      -5.079  -2.320 -34.136  1.00  0.00     0.103 A 
HETATM   20  C   UNL     1      -6.352  -2.593 -34.617  1.00  0.00     0.078 A 
HETATM   21  C   UNL     1      -4.167  -3.370 -33.965  1.00  0.00     0.034 A 
HETATM   22  N   UNL     1      -6.976  -1.374 -34.647  1.00  0.00    -0.188 N 
HETATM   23  C   UNL     1      -6.784  -3.875 -34.963  1.00  0.00     0.032 A 
HETATM   24  H   UNL     1      -7.926  -1.210 -34.948  1.00  0.00     0.184 HD
HETATM   25  C   UNL     1      -5.858  -4.910 -34.799  1.00  0.00     0.002 A 
HETATM   26  C   UNL     1      -4.573  -4.666 -34.306  1.00  0.00     0.002 A 
ENDBRANCH   2  17
TORSDOF 2
ENDMDL
MODEL 6
REMARK VINA RESULT:      -8.4      1.591      6.984
REMARK  2 active torsions:
REMARK  status: ('A' for Active; 'I' for Inactive)
REMARK    1  A    between atoms: C_9  and  C_10 
REMARK       I    between atoms: C_10  and  N_11 
REMARK    2  A    between atoms: N_11  and  C_12 
ROOT
HETATM    1  C   UNL     1      -7.106   1.493 -33.253  1.00  0.00     0.267 C 
HETATM    2  N   UNL     1      -6.260   0.834 -34.098  1.00  0.00    -0.156 N 
HETATM    3  O   UNL     1      -7.195   2.713 -33.424  1.00  0.00    -0.270 OA
HETATM    4  H   UNL     1      -5.810   1.450 -34.768  1.00  0.00     0.187 HD
ENDROOT
BRANCH   1   5
HETATM    5  C   UNL     1      -7.968   0.775 -32.181  1.00  0.00     0.282 C 
HETATM    6  N   UNL     1      -8.337   1.589 -30.963  1.00  0.00    -0.058 N 
HETATM    7  C   UNL     1      -9.110   2.813 -31.272  1.00  0.00     0.272 C 
HETATM    8  H   UNL     1      -8.856   1.007 -30.299  1.00  0.00     0.278 HD
HETATM    9  H   UNL     1      -7.451   1.847 -30.488  1.00  0.00     0.278 HD
HETATM   10  C   UNL     1     -10.239   2.557 -32.225  1.00  0.00    -0.026 A 
HETATM   11  C   UNL     1     -10.315   1.361 -32.969  1.00  0.00    -0.048 A 
HETATM   12  C   UNL     1     -11.203   3.558 -32.422  1.00  0.00     0.009 A 
HETATM   13  C   UNL     1     -11.370   1.178 -33.872  1.00  0.00     0.008 A 
HETATM   14  C   UNL     1      -9.292   0.257 -32.781  1.00  0.00     0.082 C 
HETATM   15  C   UNL     1     -12.322   2.181 -34.056  1.00  0.00     0.001 A 
HETATM   16  C   UNL     1     -12.240   3.368 -33.335  1.00  0.00     0.001 A 
ENDBRANCH   1   5
BRANCH   2  17
HETATM   17  C   UNL     1      -5.949  -0.494 -34.107  1.00  0.00     0.708 A 
HETATM   18  N   UNL     1      -4.821  -1.062 -33.738  1.00  0.00    -0.062 NA
HETATM   19  C   UNL     1      -4.973  -2.404 -34.027  1.00  0.00     0.103 A 
HETATM   20  C   UNL     1      -6.218  -2.645 -34.594  1.00  0.00     0.078 A 
HETATM   21  C   UNL     1      -4.076  -3.468 -33.859  1.00  0.00     0.034 A 
HETATM   22  N   UNL     1      -6.835  -1.422 -34.597  1.00  0.00    -0.188 N 
HETATM   23  C   UNL     1      -6.633  -3.905 -35.028  1.00  0.00     0.032 A 
HETATM   24  H   UNL     1      -7.766  -1.238 -34.942  1.00  0.00     0.184 HD
HETATM   25  C   UNL     1      -5.721  -4.953 -34.866  1.00  0.00     0.002 A 
HETATM   26  C   UNL     1      -4.466  -4.742 -34.288  1.00  0.00     0.002 A 
ENDBRANCH   2  17
TORSDOF 2
ENDMDL
MODEL 7
REMARK VINA RESULT:      -8.4      2.922      6.962
REMARK  2 active torsions:
REMARK  status: ('A' for Active; 'I' for Inactive)
REMARK    1  A    between atoms: C_9  and  C_10 
REMARK       I    between atoms: C_10  and  N_11 
REMARK    2  A    between atoms: N_11  and  C_12 
ROOT
HETATM    1  C   UNL     1      -7.628   1.456 -33.497  1.00  0.00     0.267 C 
HETATM    2  N   UNL     1      -6.909   0.758 -34.423  1.00  0.00    -0.156 N 
HETATM    3  O   UNL     1      -7.948   2.605 -33.818  1.00  0.00    -0.270 OA
HETATM    4  H   UNL     1      -6.731   1.289 -35.270  1.00  0.00     0.187 HD
ENDROOT
BRANCH   1   5
HETATM    5  C   UNL     1      -8.091   0.850 -32.145  1.00  0.00     0.282 C 
HETATM    6  N   UNL     1      -7.013   0.237 -31.282  1.00  0.00    -0.058 N 
HETATM    7  C   UNL     1      -5.945   1.185 -30.894  1.00  0.00     0.272 C 
HETATM    8  H   UNL     1      -7.431  -0.179 -30.445  1.00  0.00     0.278 HD
HETATM    9  H   UNL     1      -6.601  -0.549 -31.821  1.00  0.00     0.278 HD
HETATM   10  C   UNL     1      -6.487   2.491 -30.394  1.00  0.00    -0.026 A 
HETATM   11  C   UNL     1      -7.835   2.853 -30.599  1.00  0.00    -0.048 A 
HETATM   12  C   UNL     1      -5.616   3.393 -29.764  1.00  0.00     0.009 A 
HETATM   13  C   UNL     1      -8.291   4.097 -30.144  1.00  0.00     0.008 A 
HETATM   14  C   UNL     1      -8.805   1.903 -31.274  1.00  0.00     0.082 C 
HETATM   15  C   UNL     1      -7.413   4.983 -29.517  1.00  0.00     0.001 A 
HETATM   16  C   UNL     1      -6.079   4.634 -29.328  1.00  0.00     0.001 A 
ENDBRANCH   1   5
BRANCH   2  17
HETATM   17  C   UNL     1      -6.401  -0.504 -34.315  1.00  0.00     0.708 A 
HETATM   18  N   UNL     1      -5.215  -0.862 -33.871  1.00  0.00    -0.062 NA
HETATM   19  C   UNL     1      -5.152  -2.230 -34.053  1.00  0.00     0.103 A 
HETATM   20  C   UNL     1      -6.323  -2.702 -34.631  1.00  0.00     0.078 A 
HETATM   21  C   UNL     1      -4.112  -3.127 -33.774  1.00  0.00     0.034 A 
HETATM   22  N   UNL     1      -7.117  -1.592 -34.750  1.00  0.00    -0.188 N 
HETATM   23  C   UNL     1      -6.527  -4.040 -34.971  1.00  0.00     0.032 A 
HETATM   24  H   UNL     1      -8.052  -1.580 -35.135  1.00  0.00     0.184 HD
HETATM   25  C   UNL     1      -5.474  -4.920 -34.699  1.00  0.00     0.002 A 
HETATM   26  C   UNL     1      -4.289  -4.475 -34.107  1.00  0.00     0.002 A 
ENDBRANCH   2  17
TORSDOF 2
ENDMDL
MODEL 8
REMARK VINA RESULT:      -8.3      1.284      2.042
REMARK  2 active torsions:
REMARK  status: ('A' for Active; 'I' for Inactive)
REMARK    1  A    between atoms: C_9  and  C_10 
REMARK       I    between atoms: C_10  and  N_11 
REMARK    2  A    between atoms: N_11  and  C_12 
ROOT
HETATM    1  C   UNL     1      -7.322   1.304 -31.577  1.00  0.00     0.267 C 
HETATM    2  N   UNL     1      -8.680   1.212 -31.476  1.00  0.00    -0.156 N 
HETATM    3  O   UNL     1      -6.681   0.878 -30.611  1.00  0.00    -0.270 OA
HETATM    4  H   UNL     1      -8.986   0.795 -30.602  1.00  0.00     0.187 HD
ENDROOT
BRANCH   1   5
HETATM    5  C   UNL     1      -6.597   1.842 -32.839  1.00  0.00     0.282 C 
HETATM    6  N   UNL     1      -5.091   1.935 -32.758  1.00  0.00    -0.058 N 
HETATM    7  C   UNL     1      -4.424   0.641 -32.494  1.00  0.00     0.272 C 
HETATM    8  H   UNL     1      -4.720   2.350 -33.617  1.00  0.00     0.278 HD
HETATM    9  H   UNL     1      -4.868   2.604 -31.995  1.00  0.00     0.278 HD
HETATM   10  C   UNL     1      -4.940  -0.462 -33.368  1.00  0.00    -0.026 A 
HETATM   11  C   UNL     1      -6.139  -0.321 -34.097  1.00  0.00    -0.048 A 
HETATM   12  C   UNL     1      -4.245  -1.680 -33.409  1.00  0.00     0.009 A 
HETATM   13  C   UNL     1      -6.602  -1.390 -34.876  1.00  0.00     0.008 A 
HETATM   14  C   UNL     1      -6.916   0.981 -34.078  1.00  0.00     0.082 C 
HETATM   15  C   UNL     1      -5.899  -2.594 -34.908  1.00  0.00     0.001 A 
HETATM   16  C   UNL     1      -4.723  -2.741 -34.177  1.00  0.00     0.001 A 
ENDBRANCH   1   5
BRANCH   2  17
HETATM   17  C   UNL     1      -9.619   1.636 -32.371  1.00  0.00     0.708 A 
HETATM   18  N   UNL     1     -10.364   0.903 -33.169  1.00  0.00    -0.062 NA
HETATM   19  C   UNL     1     -11.076   1.803 -33.938  1.00  0.00     0.103 A 
HETATM   20  C   UNL     1     -10.741   3.107 -33.601  1.00  0.00     0.078 A 
HETATM   21  C   UNL     1     -12.003   1.573 -34.963  1.00  0.00     0.034 A 
HETATM   22  N   UNL     1      -9.843   2.976 -32.574  1.00  0.00    -0.188 N 
HETATM   23  C   UNL     1     -11.272   4.227 -34.243  1.00  0.00     0.032 A 
HETATM   24  H   UNL     1      -9.397   3.740 -32.087  1.00  0.00     0.184 HD
HETATM   25  C   UNL     1     -12.186   3.980 -35.273  1.00  0.00     0.002 A 
HETATM   26  C   UNL     1     -12.550   2.678 -35.626  1.00  0.00     0.002 A 
ENDBRANCH   2  17
TORSDOF 2
ENDMDL
MODEL 9
REMARK VINA RESULT:      -8.2      3.622      4.582
REMARK  2 active torsions:
REMARK  status: ('A' for Active; 'I' for Inactive)
REMARK    1  A    between atoms: C_9  and  C_10 
REMARK       I    between atoms: C_10  and  N_11 
REMARK    2  A    between atoms: N_11  and  C_12 
ROOT
HETATM    1  C   UNL     1      -9.072   0.804 -32.422  1.00  0.00     0.267 C 
HETATM    2  N   UNL     1      -9.366   1.381 -31.221  1.00  0.00    -0.156 N 
HETATM    3  O   UNL     1      -9.584  -0.301 -32.628  1.00  0.00    -0.270 OA
HETATM    4  H   UNL     1      -9.981   0.811 -30.647  1.00  0.00     0.187 HD
ENDROOT
BRANCH   1   5
HETATM    5  C   UNL     1      -8.208   1.496 -33.510  1.00  0.00     0.282 C 
HETATM    6  N   UNL     1      -6.873   2.041 -33.059  1.00  0.00    -0.058 N 
HETATM    7  C   UNL     1      -5.968   1.017 -32.493  1.00  0.00     0.272 C 
HETATM    8  H   UNL     1      -6.412   2.523 -33.836  1.00  0.00     0.278 HD
HETATM    9  H   UNL     1      -7.067   2.769 -32.343  1.00  0.00     0.278 HD
HETATM   10  C   UNL     1      -5.891  -0.217 -33.341  1.00  0.00    -0.026 A 
HETATM   11  C   UNL     1      -6.832  -0.466 -34.363  1.00  0.00    -0.048 A 
HETATM   12  C   UNL     1      -4.898  -1.170 -33.069  1.00  0.00     0.009 A 
HETATM   13  C   UNL     1      -6.741  -1.647 -35.110  1.00  0.00     0.008 A 
HETATM   14  C   UNL     1      -7.918   0.543 -34.687  1.00  0.00     0.082 C 
HETATM   15  C   UNL     1      -5.747  -2.584 -34.829  1.00  0.00     0.001 A 
HETATM   16  C   UNL     1      -4.827  -2.348 -33.811  1.00  0.00     0.001 A 
ENDBRANCH   1   5
BRANCH   2  17
HETATM   17  C   UNL     1      -8.911   2.568 -30.725  1.00  0.00     0.708 A 
HETATM   18  N   UNL     1      -7.773   2.802 -30.107  1.00  0.00    -0.062 NA
HETATM   19  C   UNL     1      -7.830   4.127 -29.723  1.00  0.00     0.103 A 
HETATM   20  C   UNL     1      -9.035   4.699 -30.109  1.00  0.00     0.078 A 
HETATM   21  C   UNL     1      -6.899   4.898 -29.013  1.00  0.00     0.034 A 
HETATM   22  N   UNL     1      -9.688   3.698 -30.780  1.00  0.00    -0.188 N 
HETATM   23  C   UNL     1      -9.390   6.016 -29.816  1.00  0.00     0.032 A 
HETATM   24  H   UNL     1     -10.603   3.777 -31.202  1.00  0.00     0.184 HD
HETATM   25  C   UNL     1      -8.455   6.768 -29.096  1.00  0.00     0.002 A 
HETATM   26  C   UNL     1      -7.230   6.223 -28.705  1.00  0.00     0.002 A 
ENDBRANCH   2  17
TORSDOF 2
ENDMDL
MODEL 10
REMARK VINA RESULT:      -8.1      3.744      5.690
REMARK  2 active torsions:
REMARK  status: ('A' for Active; 'I' for Inactive)
REMARK    1  A    between atoms: C_9  and  C_10 
REMARK       I    between atoms: C_10  and  N_11 
REMARK    2  A    between atoms: N_11  and  C_12 
ROOT
HETATM    1  C   UNL     1      -6.258   0.084 -32.167  1.00  0.00     0.267 C 
HETATM    2  N   UNL     1      -6.023   1.000 -31.183  1.00  0.00    -0.156 N 
HETATM    3  O   UNL     1      -6.984  -0.866 -31.856  1.00  0.00    -0.270 OA
HETATM    4  H   UNL     1      -6.489   0.772 -30.310  1.00  0.00     0.187 HD
ENDROOT
BRANCH   1   5
HETATM    5  C   UNL     1      -5.719   0.233 -33.615  1.00  0.00     0.282 C 
HETATM    6  N   UNL     1      -4.239  -0.004 -33.806  1.00  0.00    -0.058 N 
HETATM    7  C   UNL     1      -3.791  -1.355 -33.403  1.00  0.00     0.272 C 
HETATM    8  H   UNL     1      -3.980   0.173 -34.781  1.00  0.00     0.278 HD
HETATM    9  H   UNL     1      -3.740   0.711 -33.241  1.00  0.00     0.278 HD
HETATM   10  C   UNL     1      -4.677  -2.440 -33.938  1.00  0.00    -0.026 A 
HETATM   11  C   UNL     1      -5.951  -2.151 -34.471  1.00  0.00    -0.048 A 
HETATM   12  C   UNL     1      -4.251  -3.774 -33.849  1.00  0.00     0.009 A 
HETATM   13  C   UNL     1      -6.760  -3.199 -34.930  1.00  0.00     0.008 A 
HETATM   14  C   UNL     1      -6.444  -0.721 -34.585  1.00  0.00     0.082 C 
HETATM   15  C   UNL     1      -6.321  -4.520 -34.837  1.00  0.00     0.001 A 
HETATM   16  C   UNL     1      -5.071  -4.808 -34.297  1.00  0.00     0.001 A 
ENDBRANCH   1   5
BRANCH   2  17
HETATM   17  C   UNL     1      -5.237   2.114 -31.242  1.00  0.00     0.708 A 
HETATM   18  N   UNL     1      -3.961   2.186 -31.555  1.00  0.00    -0.062 NA
HETATM   19  C   UNL     1      -3.614   3.511 -31.375  1.00  0.00     0.103 A 
HETATM   20  C   UNL     1      -4.704   4.248 -30.932  1.00  0.00     0.078 A 
HETATM   21  C   UNL     1      -2.375   4.146 -31.543  1.00  0.00     0.034 A 
HETATM   22  N   UNL     1      -5.734   3.345 -30.894  1.00  0.00    -0.188 N 
HETATM   23  C   UNL     1      -4.638   5.607 -30.624  1.00  0.00     0.032 A 
HETATM   24  H   UNL     1      -6.683   3.553 -30.615  1.00  0.00     0.184 HD
HETATM   25  C   UNL     1      -3.392   6.224 -30.784  1.00  0.00     0.002 A 
HETATM   26  C   UNL     1      -2.281   5.509 -31.239  1.00  0.00     0.002 A 
ENDBRANCH   2  17
TORSDOF 2
ENDMDL
