MODEL 1
REMARK VINA RESULT:      -9.3      0.000      0.000
REMARK  6 active torsions:
REMARK  status: ('A' for Active; 'I' for Inactive)
REMARK    1  A    between atoms: C_5  and  C_6 
REMARK    2  A    between atoms: C_12  and  C_13 
REMARK       I    between atoms: C_13  and  N_14 
REMARK    3  A    between atoms: N_14  and  C_15 
REMARK    4  A    between atoms: C_18  and  C_19 
REMARK    5  A    between atoms: C_19  and  O_20 
REMARK    6  A    between atoms: C_25  and  C_26 
ROOT
HETATM    1  C   UNL     1      -7.565   0.881 -31.377  1.00  0.00     0.118 C 
HETATM    2  N   UNL     1      -8.870   1.417 -31.806  1.00  0.00    -0.365 N 
HETATM    3  C   UNL     1      -8.923   2.546 -32.571  1.00  0.00     0.138 A 
HETATM    4  N   UNL     1      -7.815   3.339 -32.756  1.00  0.00    -0.240 N 
HETATM    5  N   UNL     1      -8.070   4.478 -33.416  1.00  0.00    -0.181 NA
HETATM    6  C   UNL     1      -9.355   4.351 -33.758  1.00  0.00     0.160 A 
HETATM    7  C   UNL     1      -9.949   3.164 -33.264  1.00  0.00     0.096 A 
HETATM    8  C   UNL     1      -6.520   3.110 -32.144  1.00  0.00     0.221 C 
HETATM    9  C   UNL     1      -6.633   2.056 -31.028  1.00  0.00     0.066 C 
HETATM   10  H   UNL     1      -9.581   1.313 -31.079  1.00  0.00     0.161 HD
ENDROOT
BRANCH   7  11
HETATM   11  C   UNL     1     -11.332   2.751 -33.467  1.00  0.00     0.261 C 
HETATM   12  N   UNL     1     -12.179   3.121 -32.441  1.00  0.00    -0.323 N 
HETATM   13  H   UNL     1     -11.731   3.573 -31.652  1.00  0.00     0.169 HD
HETATM   14  O   UNL     1     -11.652   2.144 -34.482  1.00  0.00    -0.267 OA
BRANCH  12  15
HETATM   15  C   UNL     1     -13.578   2.985 -32.382  1.00  0.00     0.035 A 
HETATM   16  C   UNL     1     -14.269   1.843 -32.785  1.00  0.00     0.030 A 
HETATM   17  C   UNL     1     -15.670   1.800 -32.739  1.00  0.00     0.012 A 
HETATM   18  C   UNL     1     -16.417   2.895 -32.286  1.00  0.00    -0.030 A 
HETATM   19  C   UNL     1     -15.710   4.038 -31.880  1.00  0.00     0.012 A 
HETATM   20  C   UNL     1     -14.311   4.077 -31.912  1.00  0.00     0.030 A 
BRANCH  18  21
HETATM   21  C   UNL     1     -17.936   2.911 -32.306  1.00  0.00     0.147 C 
HETATM   22  C   UNL     1     -18.593   4.221 -31.877  1.00  0.00     0.044 C 
BRANCH  21  23
HETATM   23  O   UNL     1     -18.394   2.607 -33.627  1.00  0.00    -0.391 OA
HETATM   24  H   UNL     1     -17.790   1.940 -33.993  1.00  0.00     0.210 HD
ENDBRANCH  21  23
ENDBRANCH  18  21
ENDBRANCH  12  15
ENDBRANCH   7  11
BRANCH   1  25
HETATM   25  C   UNL     1      -6.996  -0.132 -32.361  1.00  0.00    -0.035 A 
HETATM   26  C   UNL     1      -7.707  -0.571 -33.490  1.00  0.00     0.010 A 
HETATM   27  C   UNL     1      -7.149  -1.481 -34.392  1.00  0.00     0.007 A 
HETATM   28  C   UNL     1      -5.862  -1.982 -34.188  1.00  0.00    -0.062 A 
HETATM   29  C   UNL     1      -5.259  -2.957 -35.156  1.00  0.00     0.048 C 
HETATM   30  C   UNL     1      -5.163  -1.598 -33.041  1.00  0.00     0.007 A 
HETATM   31  C   UNL     1      -5.725  -0.690 -32.137  1.00  0.00     0.010 A 
ENDBRANCH   1  25
BRANCH   8  32
HETATM   32  C   UNL     1      -5.487   2.795 -33.203  1.00  0.00     0.409 C 
HETATM   33  F   UNL     1      -4.463   2.041 -32.767  1.00  0.00    -0.169 F 
HETATM   34  F   UNL     1      -6.032   2.161 -34.268  1.00  0.00    -0.169 F 
HETATM   35  F   UNL     1      -4.957   3.950 -33.689  1.00  0.00    -0.169 F 
ENDBRANCH   8  32
TORSDOF 6
ENDMDL
MODEL 2
REMARK VINA RESULT:      -9.0      4.601      8.174
REMARK  6 active torsions:
REMARK  status: ('A' for Active; 'I' for Inactive)
REMARK    1  A    between atoms: C_5  and  C_6 
REMARK    2  A    between atoms: C_12  and  C_13 
REMARK       I    between atoms: C_13  and  N_14 
REMARK    3  A    between atoms: N_14  and  C_15 
REMARK    4  A    between atoms: C_18  and  C_19 
REMARK    5  A    between atoms: C_19  and  O_20 
REMARK    6  A    between atoms: C_25  and  C_26 
ROOT
HETATM    1  C   UNL     1      -4.699   4.384 -30.501  1.00  0.00     0.118 C 
HETATM    2  N   UNL     1      -5.545   3.246 -30.906  1.00  0.00    -0.365 N 
HETATM    3  C   UNL     1      -6.716   3.472 -31.570  1.00  0.00     0.138 A 
HETATM    4  N   UNL     1      -7.254   4.735 -31.663  1.00  0.00    -0.240 N 
HETATM    5  N   UNL     1      -8.471   4.763 -32.224  1.00  0.00    -0.181 NA
HETATM    6  C   UNL     1      -8.663   3.495 -32.602  1.00  0.00     0.160 A 
HETATM    7  C   UNL     1      -7.601   2.636 -32.226  1.00  0.00     0.096 A 
HETATM    8  C   UNL     1      -6.693   5.922 -31.048  1.00  0.00     0.221 C 
HETATM    9  C   UNL     1      -5.604   5.537 -30.031  1.00  0.00     0.066 C 
HETATM   10  H   UNL     1      -5.544   2.502 -30.204  1.00  0.00     0.161 HD
ENDROOT
BRANCH   7  11
HETATM   11  C   UNL     1      -7.525   1.205 -32.491  1.00  0.00     0.261 C 
HETATM   12  N   UNL     1      -6.545   0.859 -33.401  1.00  0.00    -0.323 N 
HETATM   13  H   UNL     1      -6.047   1.638 -33.818  1.00  0.00     0.169 HD
HETATM   14  O   UNL     1      -8.280   0.429 -31.917  1.00  0.00    -0.267 OA
BRANCH  12  15
HETATM   15  C   UNL     1      -6.133  -0.431 -33.782  1.00  0.00     0.035 A 
HETATM   16  C   UNL     1      -6.952  -1.350 -34.437  1.00  0.00     0.030 A 
HETATM   17  C   UNL     1      -6.483  -2.636 -34.743  1.00  0.00     0.012 A 
HETATM   18  C   UNL     1      -5.183  -3.037 -34.405  1.00  0.00    -0.030 A 
HETATM   19  C   UNL     1      -4.368  -2.101 -33.747  1.00  0.00     0.012 A 
HETATM   20  C   UNL     1      -4.830  -0.812 -33.455  1.00  0.00     0.030 A 
BRANCH  18  21
HETATM   21  C   UNL     1      -4.677  -4.448 -34.644  1.00  0.00     0.147 C 
HETATM   22  C   UNL     1      -3.803  -5.038 -33.539  1.00  0.00     0.044 C 
BRANCH  21  23
HETATM   23  O   UNL     1      -5.792  -5.325 -34.830  1.00  0.00    -0.391 OA
HETATM   24  H   UNL     1      -6.375  -4.911 -35.488  1.00  0.00     0.210 HD
ENDBRANCH  21  23
ENDBRANCH  18  21
ENDBRANCH  12  15
ENDBRANCH   7  11
BRANCH   1  25
HETATM   25  C   UNL     1      -3.668   4.753 -31.558  1.00  0.00    -0.035 A 
HETATM   26  C   UNL     1      -3.538   4.047 -32.766  1.00  0.00     0.010 A 
HETATM   27  C   UNL     1      -2.601   4.426 -33.732  1.00  0.00     0.007 A 
HETATM   28  C   UNL     1      -1.763   5.520 -33.515  1.00  0.00    -0.062 A 
HETATM   29  C   UNL     1      -0.758   5.931 -34.551  1.00  0.00     0.048 C 
HETATM   30  C   UNL     1      -1.842   6.198 -32.296  1.00  0.00     0.007 A 
HETATM   31  C   UNL     1      -2.777   5.816 -31.329  1.00  0.00     0.010 A 
ENDBRANCH   1  25
BRANCH   8  32
HETATM   32  C   UNL     1      -6.243   6.901 -32.111  1.00  0.00     0.409 C 
HETATM   33  F   UNL     1      -5.225   7.694 -31.733  1.00  0.00    -0.169 F 
HETATM   34  F   UNL     1      -5.866   6.272 -33.249  1.00  0.00    -0.169 F 
HETATM   35  F   UNL     1      -7.278   7.713 -32.458  1.00  0.00    -0.169 F 
ENDBRANCH   8  32
TORSDOF 6
ENDMDL
MODEL 3
REMARK VINA RESULT:      -8.8      1.616      2.119
REMARK  6 active torsions:
REMARK  status: ('A' for Active; 'I' for Inactive)
REMARK    1  A    between atoms: C_5  and  C_6 
REMARK    2  A    between atoms: C_12  and  C_13 
REMARK       I    between atoms: C_13  and  N_14 
REMARK    3  A    between atoms: N_14  and  C_15 
REMARK    4  A    between atoms: C_18  and  C_19 
REMARK    5  A    between atoms: C_19  and  O_20 
REMARK    6  A    between atoms: C_25  and  C_26 
ROOT
HETATM    1  C   UNL     1      -5.917   1.671 -30.255  1.00  0.00     0.118 C 
HETATM    2  N   UNL     1      -7.268   2.263 -30.245  1.00  0.00    -0.365 N 
HETATM    3  C   UNL     1      -7.543   3.343 -31.031  1.00  0.00     0.138 A 
HETATM    4  N   UNL     1      -6.540   4.051 -31.652  1.00  0.00    -0.240 N 
HETATM    5  N   UNL     1      -6.966   5.162 -32.271  1.00  0.00    -0.181 NA
HETATM    6  C   UNL     1      -8.295   5.097 -32.134  1.00  0.00     0.160 A 
HETATM    7  C   UNL     1      -8.722   3.983 -31.372  1.00  0.00     0.096 A 
HETATM    8  C   UNL     1      -5.123   3.778 -31.512  1.00  0.00     0.221 C 
HETATM    9  C   UNL     1      -4.878   2.803 -30.346  1.00  0.00     0.066 C 
HETATM   10  H   UNL     1      -7.682   2.249 -29.310  1.00  0.00     0.161 HD
ENDROOT
BRANCH   7  11
HETATM   11  C   UNL     1     -10.103   3.648 -31.048  1.00  0.00     0.261 C 
HETATM   12  N   UNL     1     -11.003   3.971 -32.045  1.00  0.00    -0.323 N 
HETATM   13  H   UNL     1     -10.608   4.455 -32.843  1.00  0.00     0.169 HD
HETATM   14  O   UNL     1     -10.374   3.116 -29.977  1.00  0.00    -0.267 OA
BRANCH  12  15
HETATM   15  C   UNL     1     -12.377   3.676 -32.100  1.00  0.00     0.035 A 
HETATM   16  C   UNL     1     -13.349   4.336 -31.349  1.00  0.00     0.030 A 
HETATM   17  C   UNL     1     -14.695   3.952 -31.424  1.00  0.00     0.012 A 
HETATM   18  C   UNL     1     -15.107   2.900 -32.254  1.00  0.00    -0.030 A 
HETATM   19  C   UNL     1     -14.120   2.245 -33.007  1.00  0.00     0.012 A 
HETATM   20  C   UNL     1     -12.777   2.637 -32.944  1.00  0.00     0.030 A 
BRANCH  18  21
HETATM   21  C   UNL     1     -16.543   2.405 -32.292  1.00  0.00     0.147 C 
HETATM   22  C   UNL     1     -17.615   3.452 -31.994  1.00  0.00     0.044 C 
BRANCH  21  23
HETATM   23  O   UNL     1     -16.819   1.857 -33.584  1.00  0.00    -0.391 OA
HETATM   24  H   UNL     1     -17.633   1.330 -33.503  1.00  0.00     0.210 HD
ENDBRANCH  21  23
ENDBRANCH  18  21
ENDBRANCH  12  15
ENDBRANCH   7  11
BRANCH   1  25
HETATM   25  C   UNL     1      -5.770   0.566 -31.291  1.00  0.00    -0.035 A 
HETATM   26  C   UNL     1      -6.821   0.181 -32.140  1.00  0.00     0.010 A 
HETATM   27  C   UNL     1      -6.648  -0.819 -33.102  1.00  0.00     0.007 A 
HETATM   28  C   UNL     1      -5.419  -1.467 -33.238  1.00  0.00    -0.062 A 
HETATM   29  C   UNL     1      -5.230  -2.538 -34.271  1.00  0.00     0.048 C 
HETATM   30  C   UNL     1      -4.381  -1.133 -32.364  1.00  0.00     0.007 A 
HETATM   31  C   UNL     1      -4.556  -0.135 -31.400  1.00  0.00     0.010 A 
ENDBRANCH   1  25
BRANCH   8  32
HETATM   32  C   UNL     1      -4.541   3.332 -32.835  1.00  0.00     0.409 C 
HETATM   33  F   UNL     1      -5.397   2.644 -33.610  1.00  0.00    -0.169 F 
HETATM   34  F   UNL     1      -4.086   4.378 -33.565  1.00  0.00    -0.169 F 
HETATM   35  F   UNL     1      -3.463   2.532 -32.619  1.00  0.00    -0.169 F 
ENDBRANCH   8  32
TORSDOF 6
ENDMDL
MODEL 4
REMARK VINA RESULT:      -8.6      4.956      8.833
REMARK  6 active torsions:
REMARK  status: ('A' for Active; 'I' for Inactive)
REMARK    1  A    between atoms: C_5  and  C_6 
REMARK    2  A    between atoms: C_12  and  C_13 
REMARK       I    between atoms: C_13  and  N_14 
REMARK    3  A    between atoms: N_14  and  C_15 
REMARK    4  A    between atoms: C_18  and  C_19 
REMARK    5  A    between atoms: C_19  and  O_20 
REMARK    6  A    between atoms: C_25  and  C_26 
ROOT
HETATM    1  C   UNL     1      -6.701   1.126 -34.846  1.00  0.00     0.118 C 
HETATM    2  N   UNL     1      -6.470   2.441 -34.220  1.00  0.00    -0.365 N 
HETATM    3  C   UNL     1      -7.261   2.850 -33.185  1.00  0.00     0.138 A 
HETATM    4  N   UNL     1      -8.420   2.184 -32.864  1.00  0.00    -0.240 N 
HETATM    5  N   UNL     1      -9.149   2.794 -31.918  1.00  0.00    -0.181 NA
HETATM    6  C   UNL     1      -8.373   3.818 -31.548  1.00  0.00     0.160 A 
HETATM    7  C   UNL     1      -7.176   3.909 -32.299  1.00  0.00     0.096 A 
HETATM    8  C   UNL     1      -8.949   1.043 -33.586  1.00  0.00     0.221 C 
HETATM    9  C   UNL     1      -8.217   0.873 -34.930  1.00  0.00     0.066 C 
HETATM   10  H   UNL     1      -6.200   3.148 -34.908  1.00  0.00     0.161 HD
ENDROOT
BRANCH   7  11
HETATM   11  C   UNL     1      -6.138   4.918 -32.133  1.00  0.00     0.261 C 
HETATM   12  N   UNL     1      -5.121   4.535 -31.280  1.00  0.00    -0.323 N 
HETATM   13  H   UNL     1      -5.251   3.636 -30.828  1.00  0.00     0.169 HD
HETATM   14  O   UNL     1      -6.211   5.984 -32.733  1.00  0.00    -0.267 OA
BRANCH  12  15
HETATM   15  C   UNL     1      -3.922   5.217 -31.000  1.00  0.00     0.035 A 
HETATM   16  C   UNL     1      -3.838   6.343 -30.183  1.00  0.00     0.030 A 
HETATM   17  C   UNL     1      -2.612   6.996 -29.988  1.00  0.00     0.012 A 
HETATM   18  C   UNL     1      -1.438   6.539 -30.603  1.00  0.00    -0.030 A 
HETATM   19  C   UNL     1      -1.536   5.403 -31.421  1.00  0.00     0.012 A 
HETATM   20  C   UNL     1      -2.757   4.741 -31.605  1.00  0.00     0.030 A 
BRANCH  18  21
HETATM   21  C   UNL     1      -0.115   7.274 -30.482  1.00  0.00     0.147 C 
HETATM   22  C   UNL     1       0.427   7.438 -29.063  1.00  0.00     0.044 C 
BRANCH  21  23
HETATM   23  O   UNL     1       0.879   6.588 -31.249  1.00  0.00    -0.391 OA
HETATM   24  H   UNL     1       0.651   6.709 -32.186  1.00  0.00     0.210 HD
ENDBRANCH  21  23
ENDBRANCH  18  21
ENDBRANCH  12  15
ENDBRANCH   7  11
BRANCH   1  25
HETATM   25  C   UNL     1      -5.889   0.016 -34.193  1.00  0.00    -0.035 A 
HETATM   26  C   UNL     1      -5.927  -1.314 -34.645  1.00  0.00     0.010 A 
HETATM   27  C   UNL     1      -5.149  -2.308 -34.044  1.00  0.00     0.007 A 
HETATM   28  C   UNL     1      -4.315  -2.001 -32.968  1.00  0.00    -0.062 A 
HETATM   29  C   UNL     1      -3.477  -3.065 -32.323  1.00  0.00     0.048 C 
HETATM   30  C   UNL     1      -4.308  -0.695 -32.472  1.00  0.00     0.007 A 
HETATM   31  C   UNL     1      -5.089   0.298 -33.072  1.00  0.00     0.010 A 
ENDBRANCH   1  25
BRANCH   8  32
HETATM   32  C   UNL     1      -8.939  -0.187 -32.705  1.00  0.00     0.409 C 
HETATM   33  F   UNL     1      -8.620  -1.323 -33.350  1.00  0.00    -0.169 F 
HETATM   34  F   UNL     1      -8.081  -0.057 -31.665  1.00  0.00    -0.169 F 
HETATM   35  F   UNL     1     -10.169  -0.369 -32.153  1.00  0.00    -0.169 F 
ENDBRANCH   8  32
TORSDOF 6
ENDMDL
MODEL 5
REMARK VINA RESULT:      -8.5      5.378      9.272
REMARK  6 active torsions:
REMARK  status: ('A' for Active; 'I' for Inactive)
REMARK    1  A    between atoms: C_5  and  C_6 
REMARK    2  A    between atoms: C_12  and  C_13 
REMARK       I    between atoms: C_13  and  N_14 
REMARK    3  A    between atoms: N_14  and  C_15 
REMARK    4  A    between atoms: C_18  and  C_19 
REMARK    5  A    between atoms: C_19  and  O_20 
REMARK    6  A    between atoms: C_25  and  C_26 
ROOT
HETATM    1  C   UNL     1      -6.533   1.692 -34.324  1.00  0.00     0.118 C 
HETATM    2  N   UNL     1      -5.820   2.649 -33.458  1.00  0.00    -0.365 N 
HETATM    3  C   UNL     1      -6.267   2.884 -32.190  1.00  0.00     0.138 A 
HETATM    4  N   UNL     1      -7.500   2.440 -31.773  1.00  0.00    -0.240 N 
HETATM    5  N   UNL     1      -7.844   2.872 -30.550  1.00  0.00    -0.181 NA
HETATM    6  C   UNL     1      -6.749   3.515 -30.135  1.00  0.00     0.160 A 
HETATM    7  C   UNL     1      -5.723   3.557 -31.111  1.00  0.00     0.096 A 
HETATM    8  C   UNL     1      -8.458   1.742 -32.609  1.00  0.00     0.221 C 
HETATM    9  C   UNL     1      -8.047   1.839 -34.089  1.00  0.00     0.066 C 
HETATM   10  H   UNL     1      -5.473   3.454 -33.986  1.00  0.00     0.161 HD
ENDROOT
BRANCH   7  11
HETATM   11  C   UNL     1      -4.420   4.190 -30.955  1.00  0.00     0.261 C 
HETATM   12  N   UNL     1      -4.468   5.414 -30.317  1.00  0.00    -0.323 N 
HETATM   13  H   UNL     1      -5.398   5.749 -30.094  1.00  0.00     0.169 HD
HETATM   14  O   UNL     1      -3.409   3.630 -31.364  1.00  0.00    -0.267 OA
BRANCH  12  15
HETATM   15  C   UNL     1      -3.390   6.220 -29.907  1.00  0.00     0.035 A 
HETATM   16  C   UNL     1      -2.225   6.403 -30.650  1.00  0.00     0.030 A 
HETATM   17  C   UNL     1      -1.173   7.185 -30.153  1.00  0.00     0.012 A 
HETATM   18  C   UNL     1      -1.259   7.808 -28.900  1.00  0.00    -0.030 A 
HETATM   19  C   UNL     1      -2.438   7.618 -28.162  1.00  0.00     0.012 A 
HETATM   20  C   UNL     1      -3.495   6.849 -28.664  1.00  0.00     0.030 A 
BRANCH  18  21
HETATM   21  C   UNL     1      -0.104   8.590 -28.297  1.00  0.00     0.147 C 
HETATM   22  C   UNL     1      -0.162   8.802 -26.786  1.00  0.00     0.044 C 
BRANCH  21  23
HETATM   23  O   UNL     1       1.125   7.921 -28.595  1.00  0.00    -0.391 OA
HETATM   24  H   UNL     1       1.506   7.632 -27.749  1.00  0.00     0.210 HD
ENDBRANCH  21  23
ENDBRANCH  18  21
ENDBRANCH  12  15
ENDBRANCH   7  11
BRANCH   1  25
HETATM   25  C   UNL     1      -5.990   0.275 -34.202  1.00  0.00    -0.035 A 
HETATM   26  C   UNL     1      -6.529  -0.805 -34.921  1.00  0.00     0.010 A 
HETATM   27  C   UNL     1      -5.991  -2.091 -34.811  1.00  0.00     0.007 A 
HETATM   28  C   UNL     1      -4.901  -2.334 -33.975  1.00  0.00    -0.062 A 
HETATM   29  C   UNL     1      -4.320  -3.713 -33.858  1.00  0.00     0.048 C 
HETATM   30  C   UNL     1      -4.388  -1.282 -33.212  1.00  0.00     0.007 A 
HETATM   31  C   UNL     1      -4.929   0.004 -33.320  1.00  0.00     0.010 A 
ENDBRANCH   1  25
BRANCH   8  32
HETATM   32  C   UNL     1      -8.664   0.331 -32.106  1.00  0.00     0.409 C 
HETATM   33  F   UNL     1      -7.581  -0.208 -31.518  1.00  0.00    -0.169 F 
HETATM   34  F   UNL     1      -9.686   0.253 -31.221  1.00  0.00    -0.169 F 
HETATM   35  F   UNL     1      -9.005  -0.483 -33.141  1.00  0.00    -0.169 F 
ENDBRANCH   8  32
TORSDOF 6
ENDMDL
MODEL 6
REMARK VINA RESULT:      -8.4     16.966     18.698
REMARK  6 active torsions:
REMARK  status: ('A' for Active; 'I' for Inactive)
REMARK    1  A    between atoms: C_5  and  C_6 
REMARK    2  A    between atoms: C_12  and  C_13 
REMARK       I    between atoms: C_13  and  N_14 
REMARK    3  A    between atoms: N_14  and  C_15 
REMARK    4  A    between atoms: C_18  and  C_19 
REMARK    5  A    between atoms: C_19  and  O_20 
REMARK    6  A    between atoms: C_25  and  C_26 
ROOT
HETATM    1  C   UNL     1      -3.758 -12.231 -37.693  1.00  0.00     0.118 C 
HETATM    2  N   UNL     1      -4.721 -12.701 -36.681  1.00  0.00    -0.365 N 
HETATM    3  C   UNL     1      -5.678 -13.611 -37.024  1.00  0.00     0.138 A 
HETATM    4  N   UNL     1      -5.929 -13.925 -38.339  1.00  0.00    -0.240 N 
HETATM    5  N   UNL     1      -6.990 -14.728 -38.510  1.00  0.00    -0.181 NA
HETATM    6  C   UNL     1      -7.353 -15.024 -37.258  1.00  0.00     0.160 A 
HETATM    7  C   UNL     1      -6.573 -14.361 -36.280  1.00  0.00     0.096 A 
HETATM    8  C   UNL     1      -5.271 -13.315 -39.478  1.00  0.00     0.221 C 
HETATM    9  C   UNL     1      -4.489 -12.064 -39.038  1.00  0.00     0.066 C 
HETATM   10  H   UNL     1      -4.999 -11.952 -36.043  1.00  0.00     0.161 HD
ENDROOT
BRANCH   7  11
HETATM   11  C   UNL     1      -6.732 -14.476 -34.836  1.00  0.00     0.261 C 
HETATM   12  N   UNL     1      -6.057 -15.549 -34.286  1.00  0.00    -0.323 N 
HETATM   13  H   UNL     1      -5.592 -16.155 -34.952  1.00  0.00     0.169 HD
HETATM   14  O   UNL     1      -7.406 -13.658 -34.222  1.00  0.00    -0.267 OA
BRANCH  12  15
HETATM   15  C   UNL     1      -5.907 -15.871 -32.925  1.00  0.00     0.035 A 
HETATM   16  C   UNL     1      -4.877 -15.390 -32.118  1.00  0.00     0.030 A 
HETATM   17  C   UNL     1      -4.768 -15.794 -30.779  1.00  0.00     0.012 A 
HETATM   18  C   UNL     1      -5.687 -16.687 -30.211  1.00  0.00    -0.030 A 
HETATM   19  C   UNL     1      -6.721 -17.162 -31.033  1.00  0.00     0.012 A 
HETATM   20  C   UNL     1      -6.840 -16.748 -32.365  1.00  0.00     0.030 A 
BRANCH  18  21
HETATM   21  C   UNL     1      -5.546 -17.210 -28.792  1.00  0.00     0.147 C 
HETATM   22  C   UNL     1      -4.350 -16.678 -28.004  1.00  0.00     0.044 C 
BRANCH  21  23
HETATM   23  O   UNL     1      -6.729 -16.893 -28.052  1.00  0.00    -0.391 OA
HETATM   24  H   UNL     1      -6.943 -15.964 -28.240  1.00  0.00     0.210 HD
ENDBRANCH  21  23
ENDBRANCH  18  21
ENDBRANCH  12  15
ENDBRANCH   7  11
BRANCH   1  25
HETATM   25  C   UNL     1      -2.495 -13.079 -37.739  1.00  0.00    -0.035 A 
HETATM   26  C   UNL     1      -2.268 -14.145 -36.852  1.00  0.00     0.010 A 
HETATM   27  C   UNL     1      -1.111 -14.925 -36.935  1.00  0.00     0.007 A 
HETATM   28  C   UNL     1      -0.144 -14.658 -37.906  1.00  0.00    -0.062 A 
HETATM   29  C   UNL     1       1.097 -15.496 -38.000  1.00  0.00     0.048 C 
HETATM   30  C   UNL     1      -0.330 -13.568 -38.760  1.00  0.00     0.007 A 
HETATM   31  C   UNL     1      -1.486 -12.786 -38.674  1.00  0.00     0.010 A 
ENDBRANCH   1  25
BRANCH   8  32
HETATM   32  C   UNL     1      -4.444 -14.343 -40.220  1.00  0.00     0.409 C 
HETATM   33  F   UNL     1      -3.889 -15.278 -39.429  1.00  0.00    -0.169 F 
HETATM   34  F   UNL     1      -5.170 -14.989 -41.163  1.00  0.00    -0.169 F 
HETATM   35  F   UNL     1      -3.431 -13.726 -40.886  1.00  0.00    -0.169 F 
ENDBRANCH   8  32
TORSDOF 6
ENDMDL
MODEL 7
REMARK VINA RESULT:      -8.2      5.401      8.224
REMARK  6 active torsions:
REMARK  status: ('A' for Active; 'I' for Inactive)
REMARK    1  A    between atoms: C_5  and  C_6 
REMARK    2  A    between atoms: C_12  and  C_13 
REMARK       I    between atoms: C_13  and  N_14 
REMARK    3  A    between atoms: N_14  and  C_15 
REMARK    4  A    between atoms: C_18  and  C_19 
REMARK    5  A    between atoms: C_19  and  O_20 
REMARK    6  A    between atoms: C_25  and  C_26 
ROOT
HETATM    1  C   UNL     1      -2.694   8.015 -31.422  1.00  0.00     0.118 C 
HETATM    2  N   UNL     1      -3.747   7.042 -31.768  1.00  0.00    -0.365 N 
HETATM    3  C   UNL     1      -3.415   5.742 -32.021  1.00  0.00     0.138 A 
HETATM    4  N   UNL     1      -2.107   5.359 -32.200  1.00  0.00    -0.240 N 
HETATM    5  N   UNL     1      -1.966   4.080 -32.577  1.00  0.00    -0.181 NA
HETATM    6  C   UNL     1      -3.215   3.606 -32.524  1.00  0.00     0.160 A 
HETATM    7  C   UNL     1      -4.170   4.594 -32.180  1.00  0.00     0.096 A 
HETATM    8  C   UNL     1      -0.971   6.260 -32.195  1.00  0.00     0.221 C 
HETATM    9  C   UNL     1      -1.445   7.722 -32.272  1.00  0.00     0.066 C 
HETATM   10  H   UNL     1      -4.473   7.460 -32.354  1.00  0.00     0.161 HD
ENDROOT
BRANCH   7  11
HETATM   11  C   UNL     1      -5.606   4.384 -32.049  1.00  0.00     0.261 C 
HETATM   12  N   UNL     1      -6.116   3.453 -32.933  1.00  0.00    -0.323 N 
HETATM   13  H   UNL     1      -5.450   3.080 -33.600  1.00  0.00     0.169 HD
HETATM   14  O   UNL     1      -6.245   5.000 -31.204  1.00  0.00    -0.267 OA
BRANCH  12  15
HETATM   15  C   UNL     1      -7.424   2.937 -32.989  1.00  0.00     0.035 A 
HETATM   16  C   UNL     1      -7.841   1.794 -32.309  1.00  0.00     0.030 A 
HETATM   17  C   UNL     1      -9.151   1.315 -32.451  1.00  0.00     0.012 A 
HETATM   18  C   UNL     1     -10.080   1.967 -33.275  1.00  0.00    -0.030 A 
HETATM   19  C   UNL     1      -9.648   3.118 -33.951  1.00  0.00     0.012 A 
HETATM   20  C   UNL     1      -8.344   3.606 -33.799  1.00  0.00     0.030 A 
BRANCH  18  21
HETATM   21  C   UNL     1     -11.478   1.425 -33.517  1.00  0.00     0.147 C 
HETATM   22  C   UNL     1     -11.997   1.541 -34.948  1.00  0.00     0.044 C 
BRANCH  21  23
HETATM   23  O   UNL     1     -11.518   0.042 -33.151  1.00  0.00    -0.391 OA
HETATM   24  H   UNL     1     -11.647  -0.467 -33.970  1.00  0.00     0.210 HD
ENDBRANCH  21  23
ENDBRANCH  18  21
ENDBRANCH  12  15
ENDBRANCH   7  11
BRANCH   1  25
HETATM   25  C   UNL     1      -2.454   8.108 -29.921  1.00  0.00    -0.035 A 
HETATM   26  C   UNL     1      -3.185   7.352 -28.990  1.00  0.00     0.010 A 
HETATM   27  C   UNL     1      -2.923   7.437 -27.619  1.00  0.00     0.007 A 
HETATM   28  C   UNL     1      -1.924   8.286 -27.140  1.00  0.00    -0.062 A 
HETATM   29  C   UNL     1      -1.639   8.377 -25.670  1.00  0.00     0.048 C 
HETATM   30  C   UNL     1      -1.226   9.085 -28.049  1.00  0.00     0.007 A 
HETATM   31  C   UNL     1      -1.491   9.002 -29.419  1.00  0.00     0.010 A 
ENDBRANCH   1  25
BRANCH   8  32
HETATM   32  C   UNL     1      -0.065   5.955 -31.022  1.00  0.00     0.409 C 
HETATM   33  F   UNL     1      -0.714   5.556 -29.914  1.00  0.00    -0.169 F 
HETATM   34  F   UNL     1       0.848   5.002 -31.322  1.00  0.00    -0.169 F 
HETATM   35  F   UNL     1       0.650   7.064 -30.691  1.00  0.00    -0.169 F 
ENDBRANCH   8  32
TORSDOF 6
ENDMDL
MODEL 8
REMARK VINA RESULT:      -8.0     16.229     18.620
REMARK  6 active torsions:
REMARK  status: ('A' for Active; 'I' for Inactive)
REMARK    1  A    between atoms: C_5  and  C_6 
REMARK    2  A    between atoms: C_12  and  C_13 
REMARK       I    between atoms: C_13  and  N_14 
REMARK    3  A    between atoms: N_14  and  C_15 
REMARK    4  A    between atoms: C_18  and  C_19 
REMARK    5  A    between atoms: C_19  and  O_20 
REMARK    6  A    between atoms: C_25  and  C_26 
ROOT
HETATM    1  C   UNL     1      -6.584 -15.436 -38.665  1.00  0.00     0.118 C 
HETATM    2  N   UNL     1      -6.347 -15.348 -37.212  1.00  0.00    -0.365 N 
HETATM    3  C   UNL     1      -5.613 -14.315 -36.704  1.00  0.00     0.138 A 
HETATM    4  N   UNL     1      -4.883 -13.485 -37.522  1.00  0.00    -0.240 N 
HETATM    5  N   UNL     1      -4.112 -12.612 -36.856  1.00  0.00    -0.181 NA
HETATM    6  C   UNL     1      -4.449 -12.820 -35.579  1.00  0.00     0.160 A 
HETATM    7  C   UNL     1      -5.385 -13.869 -35.414  1.00  0.00     0.096 A 
HETATM    8  C   UNL     1      -4.768 -13.630 -38.960  1.00  0.00     0.221 C 
HETATM    9  C   UNL     1      -5.307 -15.001 -39.406  1.00  0.00     0.066 C 
HETATM   10  H   UNL     1      -6.205 -16.270 -36.793  1.00  0.00     0.161 HD
ENDROOT
BRANCH   7  11
HETATM   11  C   UNL     1      -5.936 -14.332 -34.146  1.00  0.00     0.261 C 
HETATM   12  N   UNL     1      -5.355 -15.494 -33.678  1.00  0.00    -0.323 N 
HETATM   13  H   UNL     1      -4.670 -15.914 -34.295  1.00  0.00     0.169 HD
HETATM   14  O   UNL     1      -6.824 -13.696 -33.591  1.00  0.00    -0.267 OA
BRANCH  12  15
HETATM   15  C   UNL     1      -5.569 -16.132 -32.442  1.00  0.00     0.035 A 
HETATM   16  C   UNL     1      -6.422 -17.219 -32.262  1.00  0.00     0.030 A 
HETATM   17  C   UNL     1      -6.618 -17.773 -30.989  1.00  0.00     0.012 A 
HETATM   18  C   UNL     1      -5.966 -17.255 -29.862  1.00  0.00    -0.030 A 
HETATM   19  C   UNL     1      -5.107 -16.161 -30.056  1.00  0.00     0.012 A 
HETATM   20  C   UNL     1      -4.899 -15.618 -31.329  1.00  0.00     0.030 A 
BRANCH  18  21
HETATM   21  C   UNL     1      -6.224 -17.776 -28.458  1.00  0.00     0.147 C 
HETATM   22  C   UNL     1      -5.027 -17.755 -27.511  1.00  0.00     0.044 C 
BRANCH  21  23
HETATM   23  O   UNL     1      -7.269 -17.008 -27.854  1.00  0.00    -0.391 OA
HETATM   24  H   UNL     1      -7.837 -16.683 -28.573  1.00  0.00     0.210 HD
ENDBRANCH  21  23
ENDBRANCH  18  21
ENDBRANCH  12  15
ENDBRANCH   7  11
BRANCH   1  25
HETATM   25  C   UNL     1      -7.860 -14.726 -39.094  1.00  0.00    -0.035 A 
HETATM   26  C   UNL     1      -8.590 -13.893 -38.228  1.00  0.00     0.010 A 
HETATM   27  C   UNL     1      -9.743 -13.231 -38.658  1.00  0.00     0.007 A 
HETATM   28  C   UNL     1     -10.204 -13.387 -39.966  1.00  0.00    -0.062 A 
HETATM   29  C   UNL     1     -11.440 -12.675 -40.432  1.00  0.00     0.048 C 
HETATM   30  C   UNL     1      -9.520 -14.254 -40.823  1.00  0.00     0.007 A 
HETATM   31  C   UNL     1      -8.368 -14.918 -40.391  1.00  0.00     0.010 A 
ENDBRANCH   1  25
BRANCH   8  32
HETATM   32  C   UNL     1      -5.402 -12.448 -39.660  1.00  0.00     0.409 C 
HETATM   33  F   UNL     1      -5.925 -12.737 -40.864  1.00  0.00    -0.169 F 
HETATM   34  F   UNL     1      -6.384 -11.887 -38.915  1.00  0.00    -0.169 F 
HETATM   35  F   UNL     1      -4.474 -11.471 -39.849  1.00  0.00    -0.169 F 
ENDBRANCH   8  32
TORSDOF 6
ENDMDL
MODEL 9
REMARK VINA RESULT:      -7.9      6.734     11.234
REMARK  6 active torsions:
REMARK  status: ('A' for Active; 'I' for Inactive)
REMARK    1  A    between atoms: C_5  and  C_6 
REMARK    2  A    between atoms: C_12  and  C_13 
REMARK       I    between atoms: C_13  and  N_14 
REMARK    3  A    between atoms: N_14  and  C_15 
REMARK    4  A    between atoms: C_18  and  C_19 
REMARK    5  A    between atoms: C_19  and  O_20 
REMARK    6  A    between atoms: C_25  and  C_26 
ROOT
HETATM    1  C   UNL     1      -5.766   3.202 -30.070  1.00  0.00     0.118 C 
HETATM    2  N   UNL     1      -4.688   4.207 -30.060  1.00  0.00    -0.365 N 
HETATM    3  C   UNL     1      -4.094   4.579 -31.231  1.00  0.00     0.138 A 
HETATM    4  N   UNL     1      -4.299   3.872 -32.393  1.00  0.00    -0.240 N 
HETATM    5  N   UNL     1      -3.536   4.283 -33.417  1.00  0.00    -0.181 NA
HETATM    6  C   UNL     1      -2.911   5.356 -32.920  1.00  0.00     0.160 A 
HETATM    7  C   UNL     1      -3.218   5.598 -31.559  1.00  0.00     0.096 A 
HETATM    8  C   UNL     1      -5.097   2.666 -32.501  1.00  0.00     0.221 C 
HETATM    9  C   UNL     1      -5.424   2.113 -31.102  1.00  0.00     0.066 C 
HETATM   10  H   UNL     1      -4.083   4.108 -29.242  1.00  0.00     0.161 HD
ENDROOT
BRANCH   7  11
HETATM   11  C   UNL     1      -2.689   6.685 -30.744  1.00  0.00     0.261 C 
HETATM   12  N   UNL     1      -1.759   6.277 -29.809  1.00  0.00    -0.323 N 
HETATM   13  H   UNL     1      -1.605   5.276 -29.759  1.00  0.00     0.169 HD
HETATM   14  O   UNL     1      -3.068   7.835 -30.930  1.00  0.00    -0.267 OA
BRANCH  12  15
HETATM   15  C   UNL     1      -0.978   7.080 -28.957  1.00  0.00     0.035 A 
HETATM   16  C   UNL     1       0.372   7.358 -29.166  1.00  0.00     0.030 A 
HETATM   17  C   UNL     1       1.095   8.131 -28.246  1.00  0.00     0.012 A 
HETATM   18  C   UNL     1       0.487   8.648 -27.094  1.00  0.00    -0.030 A 
HETATM   19  C   UNL     1      -0.873   8.363 -26.896  1.00  0.00     0.012 A 
HETATM   20  C   UNL     1      -1.600   7.605 -27.821  1.00  0.00     0.030 A 
BRANCH  18  21
HETATM   21  C   UNL     1       1.264   9.414 -26.036  1.00  0.00     0.147 C 
HETATM   22  C   UNL     1       2.484   8.700 -25.460  1.00  0.00     0.044 C 
BRANCH  21  23
HETATM   23  O   UNL     1       1.708  10.659 -26.586  1.00  0.00    -0.391 OA
HETATM   24  H   UNL     1       0.931  11.092 -26.977  1.00  0.00     0.210 HD
ENDBRANCH  21  23
ENDBRANCH  18  21
ENDBRANCH  12  15
ENDBRANCH   7  11
BRANCH   1  25
HETATM   25  C   UNL     1      -7.148   3.825 -30.213  1.00  0.00    -0.035 A 
HETATM   26  C   UNL     1      -7.346   5.215 -30.285  1.00  0.00     0.010 A 
HETATM   27  C   UNL     1      -8.624   5.758 -30.445  1.00  0.00     0.007 A 
HETATM   28  C   UNL     1      -9.742   4.927 -30.534  1.00  0.00    -0.062 A 
HETATM   29  C   UNL     1     -11.114   5.508 -30.709  1.00  0.00     0.048 C 
HETATM   30  C   UNL     1      -9.567   3.547 -30.410  1.00  0.00     0.007 A 
HETATM   31  C   UNL     1      -8.288   3.004 -30.245  1.00  0.00     0.010 A 
ENDBRANCH   1  25
BRANCH   8  32
HETATM   32  C   UNL     1      -6.305   2.913 -33.377  1.00  0.00     0.409 C 
HETATM   33  F   UNL     1      -6.791   4.165 -33.306  1.00  0.00    -0.169 F 
HETATM   34  F   UNL     1      -6.047   2.652 -34.681  1.00  0.00    -0.169 F 
HETATM   35  F   UNL     1      -7.313   2.071 -33.022  1.00  0.00    -0.169 F 
ENDBRANCH   8  32
TORSDOF 6
ENDMDL
MODEL 10
REMARK VINA RESULT:      -7.9      6.176     10.284
REMARK  6 active torsions:
REMARK  status: ('A' for Active; 'I' for Inactive)
REMARK    1  A    between atoms: C_5  and  C_6 
REMARK    2  A    between atoms: C_12  and  C_13 
REMARK       I    between atoms: C_13  and  N_14 
REMARK    3  A    between atoms: N_14  and  C_15 
REMARK    4  A    between atoms: C_18  and  C_19 
REMARK    5  A    between atoms: C_19  and  O_20 
REMARK    6  A    between atoms: C_25  and  C_26 
ROOT
HETATM    1  C   UNL     1      -5.612   2.942 -33.595  1.00  0.00     0.118 C 
HETATM    2  N   UNL     1      -4.942   4.064 -32.912  1.00  0.00    -0.365 N 
HETATM    3  C   UNL     1      -5.449   4.548 -31.741  1.00  0.00     0.138 A 
HETATM    4  N   UNL     1      -6.701   4.187 -31.300  1.00  0.00    -0.240 N 
HETATM    5  N   UNL     1      -7.103   4.856 -30.209  1.00  0.00    -0.181 NA
HETATM    6  C   UNL     1      -6.029   5.582 -29.884  1.00  0.00     0.160 A 
HETATM    7  C   UNL     1      -4.958   5.434 -30.799  1.00  0.00     0.096 A 
HETATM    8  C   UNL     1      -7.617   3.323 -32.019  1.00  0.00     0.221 C 
HETATM    9  C   UNL     1      -7.136   3.119 -33.467  1.00  0.00     0.066 C 
HETATM   10  H   UNL     1      -4.570   4.747 -33.576  1.00  0.00     0.161 HD
ENDROOT
BRANCH   7  11
HETATM   11  C   UNL     1      -3.664   6.099 -30.715  1.00  0.00     0.261 C 
HETATM   12  N   UNL     1      -3.269   6.387 -29.423  1.00  0.00    -0.323 N 
HETATM   13  H   UNL     1      -3.946   6.163 -28.704  1.00  0.00     0.169 HD
HETATM   14  O   UNL     1      -3.027   6.340 -31.734  1.00  0.00    -0.267 OA
BRANCH  12  15
HETATM   15  C   UNL     1      -2.036   6.910 -28.991  1.00  0.00     0.035 A 
HETATM   16  C   UNL     1      -0.796   6.458 -29.440  1.00  0.00     0.030 A 
HETATM   17  C   UNL     1       0.392   6.999 -28.928  1.00  0.00     0.012 A 
HETATM   18  C   UNL     1       0.372   8.007 -27.954  1.00  0.00    -0.030 A 
HETATM   19  C   UNL     1      -0.883   8.455 -27.512  1.00  0.00     0.012 A 
HETATM   20  C   UNL     1      -2.069   7.926 -28.034  1.00  0.00     0.030 A 
BRANCH  18  21
HETATM   21  C   UNL     1       1.639   8.550 -27.317  1.00  0.00     0.147 C 
HETATM   22  C   UNL     1       1.529   9.945 -26.703  1.00  0.00     0.044 C 
BRANCH  21  23
HETATM   23  O   UNL     1       2.071   7.656 -26.287  1.00  0.00    -0.391 OA
HETATM   24  H   UNL     1       1.277   7.222 -25.933  1.00  0.00     0.210 HD
ENDBRANCH  21  23
ENDBRANCH  18  21
ENDBRANCH  12  15
ENDBRANCH   7  11
BRANCH   1  25
HETATM   25  C   UNL     1      -5.074   1.586 -33.161  1.00  0.00    -0.035 A 
HETATM   26  C   UNL     1      -5.626   0.375 -33.611  1.00  0.00     0.010 A 
HETATM   27  C   UNL     1      -5.094  -0.856 -33.218  1.00  0.00     0.007 A 
HETATM   28  C   UNL     1      -3.996  -0.912 -32.358  1.00  0.00    -0.062 A 
HETATM   29  C   UNL     1      -3.421  -2.232 -31.936  1.00  0.00     0.048 C 
HETATM   30  C   UNL     1      -3.471   0.283 -31.858  1.00  0.00     0.007 A 
HETATM   31  C   UNL     1      -4.006   1.514 -32.249  1.00  0.00     0.010 A 
ENDBRANCH   1  25
BRANCH   8  32
HETATM   32  C   UNL     1      -7.846   2.042 -31.247  1.00  0.00     0.409 C 
HETATM   33  F   UNL     1      -8.119   0.975 -32.020  1.00  0.00    -0.169 F 
HETATM   34  F   UNL     1      -6.783   1.721 -30.473  1.00  0.00    -0.169 F 
HETATM   35  F   UNL     1      -8.894   2.199 -30.395  1.00  0.00    -0.169 F 
ENDBRANCH   8  32
TORSDOF 6
ENDMDL
