MODEL 1
REMARK VINA RESULT:     -10.0      0.000      0.000
REMARK  8 active torsions:
REMARK  status: ('A' for Active; 'I' for Inactive)
REMARK    1  A    between atoms: C_2  and  C_3 
REMARK    2  A    between atoms: C_5  and  C_6 
REMARK       I    between atoms: C_6  and  N_7 
REMARK    3  A    between atoms: N_7  and  C_8 
REMARK    4  A    between atoms: C_8  and  C_9 
REMARK    5  A    between atoms: C_9  and  N_10 
REMARK    6  A    between atoms: C_9  and  C_20 
REMARK       I    between atoms: N_10  and  C_11 
REMARK    7  A    between atoms: C_11  and  C_12 
REMARK    8  A    between atoms: C_14  and  C_15 
ROOT
HETATM    1  C   UNL     1      -6.195   1.238 -33.569  1.00  0.00     0.136 C 
ENDROOT
BRANCH   1   2
HETATM    2  C   UNL     1      -5.612   1.805 -32.249  1.00  0.00     0.153 C 
BRANCH   2   3
HETATM    3  N   UNL     1      -4.601   2.826 -32.452  1.00  0.00    -0.353 N 
HETATM    4  C   UNL     1      -3.337   2.734 -31.914  1.00  0.00     0.275 C 
HETATM    5  O   UNL     1      -3.005   1.803 -31.184  1.00  0.00    -0.265 OA
HETATM    6  H   UNL     1      -4.772   3.551 -33.142  1.00  0.00     0.162 HD
BRANCH   4   7
HETATM    7  C   UNL     1      -2.449   3.812 -32.293  1.00  0.00     0.143 A 
HETATM    8  O   UNL     1      -1.520   4.274 -31.396  1.00  0.00    -0.310 OA
HETATM    9  C   UNL     1      -0.816   5.263 -32.015  1.00  0.00     0.053 A 
HETATM   10  C   UNL     1      -1.287   5.452 -33.296  1.00  0.00     0.036 A 
HETATM   11  C   UNL     1      -2.337   4.520 -33.475  1.00  0.00     0.045 A 
BRANCH   9  12
HETATM   12  C   UNL     1       0.266   5.900 -31.225  1.00  0.00     0.060 C 
HETATM   13  C   UNL     1       0.584   5.106 -29.970  1.00  0.00     0.012 C 
ENDBRANCH   9  12
ENDBRANCH   4   7
ENDBRANCH   2   3
ENDBRANCH   1   2
BRANCH   1  14
HETATM   14  N   UNL     1      -7.628   1.428 -33.775  1.00  0.00    -0.345 N 
HETATM   15  C   UNL     1      -8.633   1.010 -32.936  1.00  0.00     0.276 C 
HETATM   16  O   UNL     1      -8.430   0.548 -31.818  1.00  0.00    -0.265 OA
HETATM   17  H   UNL     1      -7.924   1.712 -34.701  1.00  0.00     0.163 HD
BRANCH  15  18
HETATM   18  C   UNL     1      -9.959   1.168 -33.499  1.00  0.00     0.143 A 
HETATM   19  O   UNL     1     -10.944   0.271 -33.170  1.00  0.00    -0.310 OA
HETATM   20  C   UNL     1     -12.077   0.657 -33.821  1.00  0.00     0.053 A 
HETATM   21  C   UNL     1     -11.835   1.791 -34.565  1.00  0.00     0.036 A 
HETATM   22  C   UNL     1     -10.474   2.119 -34.359  1.00  0.00     0.045 A 
BRANCH  20  23
HETATM   23  C   UNL     1     -13.283  -0.181 -33.603  1.00  0.00     0.060 C 
HETATM   24  C   UNL     1     -14.537   0.505 -34.120  1.00  0.00     0.012 C 
ENDBRANCH  20  23
ENDBRANCH  15  18
ENDBRANCH   1  14
BRANCH   1  25
HETATM   25  C   UNL     1      -5.803  -0.216 -33.786  1.00  0.00    -0.031 A 
HETATM   26  C   UNL     1      -4.747  -0.808 -33.073  1.00  0.00     0.049 A 
HETATM   27  C   UNL     1      -4.410  -2.146 -33.287  1.00  0.00     0.102 A 
HETATM   28  C   UNL     1      -5.098  -2.899 -34.241  1.00  0.00     0.102 A 
HETATM   29  O   UNL     1      -3.385  -2.651 -32.529  1.00  0.00    -0.346 OA
HETATM   30  O   UNL     1      -4.797  -4.206 -34.529  1.00  0.00    -0.346 OA
HETATM   31  C   UNL     1      -6.152  -2.329 -34.949  1.00  0.00     0.040 A 
HETATM   32  C   UNL     1      -3.515  -4.571 -34.009  1.00  0.00     0.202 C 
HETATM   33  C   UNL     1      -3.358  -4.082 -32.579  1.00  0.00     0.202 C 
HETATM   34  C   UNL     1      -6.503  -0.996 -34.723  1.00  0.00     0.012 A 
ENDBRANCH   1  25
TORSDOF 8
ENDMDL
MODEL 2
REMARK VINA RESULT:      -9.4      1.012      1.906
REMARK  8 active torsions:
REMARK  status: ('A' for Active; 'I' for Inactive)
REMARK    1  A    between atoms: C_2  and  C_3 
REMARK    2  A    between atoms: C_5  and  C_6 
REMARK       I    between atoms: C_6  and  N_7 
REMARK    3  A    between atoms: N_7  and  C_8 
REMARK    4  A    between atoms: C_8  and  C_9 
REMARK    5  A    between atoms: C_9  and  N_10 
REMARK    6  A    between atoms: C_9  and  C_20 
REMARK       I    between atoms: N_10  and  C_11 
REMARK    7  A    between atoms: C_11  and  C_12 
REMARK    8  A    between atoms: C_14  and  C_15 
ROOT
HETATM    1  C   UNL     1      -6.163   1.298 -33.484  1.00  0.00     0.136 C 
ENDROOT
BRANCH   1   2
HETATM    2  C   UNL     1      -5.604   1.896 -32.167  1.00  0.00     0.153 C 
BRANCH   2   3
HETATM    3  N   UNL     1      -4.587   2.910 -32.376  1.00  0.00    -0.353 N 
HETATM    4  C   UNL     1      -3.317   2.803 -31.857  1.00  0.00     0.275 C 
HETATM    5  O   UNL     1      -2.983   1.863 -31.140  1.00  0.00    -0.265 OA
HETATM    6  H   UNL     1      -4.762   3.643 -33.058  1.00  0.00     0.162 HD
BRANCH   4   7
HETATM    7  C   UNL     1      -2.424   3.876 -32.240  1.00  0.00     0.143 A 
HETATM    8  O   UNL     1      -1.464   4.307 -31.361  1.00  0.00    -0.310 OA
HETATM    9  C   UNL     1      -0.764   5.299 -31.979  1.00  0.00     0.053 A 
HETATM   10  C   UNL     1      -1.269   5.520 -33.242  1.00  0.00     0.036 A 
HETATM   11  C   UNL     1      -2.336   4.607 -33.409  1.00  0.00     0.045 A 
BRANCH   9  12
HETATM   12  C   UNL     1       0.349   5.905 -31.208  1.00  0.00     0.060 C 
HETATM   13  C   UNL     1       0.052   5.923 -29.719  1.00  0.00     0.012 C 
ENDBRANCH   9  12
ENDBRANCH   4   7
ENDBRANCH   2   3
ENDBRANCH   1   2
BRANCH   1  14
HETATM   14  N   UNL     1      -7.607   1.395 -33.675  1.00  0.00    -0.345 N 
HETATM   15  C   UNL     1      -8.574   1.009 -32.777  1.00  0.00     0.276 C 
HETATM   16  O   UNL     1      -8.328   0.666 -31.625  1.00  0.00    -0.265 OA
HETATM   17  H   UNL     1      -7.934   1.575 -34.616  1.00  0.00     0.163 HD
BRANCH  15  18
HETATM   18  C   UNL     1      -9.917   1.045 -33.322  1.00  0.00     0.143 A 
HETATM   19  O   UNL     1     -10.255   2.026 -34.220  1.00  0.00    -0.310 OA
HETATM   20  C   UNL     1     -11.554   1.820 -34.574  1.00  0.00     0.053 A 
HETATM   21  C   UNL     1     -12.058   0.719 -33.916  1.00  0.00     0.036 A 
HETATM   22  C   UNL     1     -11.006   0.222 -33.111  1.00  0.00     0.045 A 
BRANCH  20  23
HETATM   23  C   UNL     1     -12.134   2.776 -35.551  1.00  0.00     0.060 C 
HETATM   24  C   UNL     1     -11.510   4.155 -35.419  1.00  0.00     0.012 C 
ENDBRANCH  20  23
ENDBRANCH  15  18
ENDBRANCH   1  14
BRANCH   1  25
HETATM   25  C   UNL     1      -5.680  -0.126 -33.711  1.00  0.00    -0.031 A 
HETATM   26  C   UNL     1      -6.521  -1.112 -34.255  1.00  0.00     0.049 A 
HETATM   27  C   UNL     1      -6.052  -2.411 -34.458  1.00  0.00     0.102 A 
HETATM   28  C   UNL     1      -4.749  -2.753 -34.088  1.00  0.00     0.102 A 
HETATM   29  O   UNL     1      -6.932  -3.302 -35.018  1.00  0.00    -0.346 OA
HETATM   30  O   UNL     1      -4.234  -4.017 -34.224  1.00  0.00    -0.346 OA
HETATM   31  C   UNL     1      -3.901  -1.785 -33.557  1.00  0.00     0.040 A 
HETATM   32  C   UNL     1      -5.270  -4.979 -34.448  1.00  0.00     0.202 C 
HETATM   33  C   UNL     1      -6.255  -4.473 -35.490  1.00  0.00     0.202 C 
HETATM   34  C   UNL     1      -4.363  -0.480 -33.370  1.00  0.00     0.012 A 
ENDBRANCH   1  25
TORSDOF 8
ENDMDL
MODEL 3
REMARK VINA RESULT:      -9.3      1.746      7.795
REMARK  8 active torsions:
REMARK  status: ('A' for Active; 'I' for Inactive)
REMARK    1  A    between atoms: C_2  and  C_3 
REMARK    2  A    between atoms: C_5  and  C_6 
REMARK       I    between atoms: C_6  and  N_7 
REMARK    3  A    between atoms: N_7  and  C_8 
REMARK    4  A    between atoms: C_8  and  C_9 
REMARK    5  A    between atoms: C_9  and  N_10 
REMARK    6  A    between atoms: C_9  and  C_20 
REMARK       I    between atoms: N_10  and  C_11 
REMARK    7  A    between atoms: C_11  and  C_12 
REMARK    8  A    between atoms: C_14  and  C_15 
ROOT
HETATM    1  C   UNL     1      -6.979   0.628 -33.592  1.00  0.00     0.136 C 
ENDROOT
BRANCH   1   2
HETATM    2  C   UNL     1      -7.781   1.076 -34.840  1.00  0.00     0.153 C 
BRANCH   2   3
HETATM    3  N   UNL     1      -9.216   1.110 -34.627  1.00  0.00    -0.353 N 
HETATM    4  C   UNL     1      -9.896   2.274 -34.350  1.00  0.00     0.275 C 
HETATM    5  O   UNL     1      -9.319   3.350 -34.214  1.00  0.00    -0.265 OA
HETATM    6  H   UNL     1      -9.761   0.282 -34.847  1.00  0.00     0.162 HD
BRANCH   4   7
HETATM    7  C   UNL     1     -11.331   2.115 -34.247  1.00  0.00     0.143 A 
HETATM    8  O   UNL     1     -11.981   2.529 -33.112  1.00  0.00    -0.310 OA
HETATM    9  C   UNL     1     -13.308   2.281 -33.292  1.00  0.00     0.053 A 
HETATM   10  C   UNL     1     -13.521   1.701 -34.524  1.00  0.00     0.036 A 
HETATM   11  C   UNL     1     -12.251   1.594 -35.137  1.00  0.00     0.045 A 
BRANCH   9  12
HETATM   12  C   UNL     1     -14.212   2.672 -32.182  1.00  0.00     0.060 C 
HETATM   13  C   UNL     1     -15.602   2.085 -32.360  1.00  0.00     0.012 C 
ENDBRANCH   9  12
ENDBRANCH   4   7
ENDBRANCH   2   3
ENDBRANCH   1   2
BRANCH   1  14
HETATM   14  N   UNL     1      -5.987   1.574 -33.088  1.00  0.00    -0.345 N 
HETATM   15  C   UNL     1      -6.214   2.587 -32.187  1.00  0.00     0.276 C 
HETATM   16  O   UNL     1      -7.269   2.724 -31.576  1.00  0.00    -0.265 OA
HETATM   17  H   UNL     1      -5.106   1.622 -33.585  1.00  0.00     0.163 HD
BRANCH  15  18
HETATM   18  C   UNL     1      -5.085   3.482 -32.028  1.00  0.00     0.143 A 
HETATM   19  O   UNL     1      -4.091   3.491 -32.973  1.00  0.00    -0.310 OA
HETATM   20  C   UNL     1      -3.172   4.420 -32.586  1.00  0.00     0.053 A 
HETATM   21  C   UNL     1      -3.562   5.010 -31.403  1.00  0.00     0.036 A 
HETATM   22  C   UNL     1      -4.790   4.406 -31.044  1.00  0.00     0.045 A 
BRANCH  20  23
HETATM   23  C   UNL     1      -1.998   4.601 -33.476  1.00  0.00     0.060 C 
HETATM   24  C   UNL     1      -2.401   5.196 -34.815  1.00  0.00     0.012 C 
ENDBRANCH  20  23
ENDBRANCH  15  18
ENDBRANCH   1  14
BRANCH   1  25
HETATM   25  C   UNL     1      -6.368  -0.753 -33.773  1.00  0.00    -0.031 A 
HETATM   26  C   UNL     1      -5.176  -1.123 -33.126  1.00  0.00     0.049 A 
HETATM   27  C   UNL     1      -4.639  -2.398 -33.306  1.00  0.00     0.102 A 
HETATM   28  C   UNL     1      -5.262  -3.309 -34.162  1.00  0.00     0.102 A 
HETATM   29  O   UNL     1      -3.488  -2.684 -32.616  1.00  0.00    -0.346 OA
HETATM   30  O   UNL     1      -4.771  -4.564 -34.414  1.00  0.00    -0.346 OA
HETATM   31  C   UNL     1      -6.448  -2.961 -34.802  1.00  0.00     0.040 A 
HETATM   32  C   UNL     1      -3.409  -4.685 -33.989  1.00  0.00     0.202 C 
HETATM   33  C   UNL     1      -3.227  -4.091 -32.601  1.00  0.00     0.202 C 
HETATM   34  C   UNL     1      -6.998  -1.692 -34.610  1.00  0.00     0.012 A 
ENDBRANCH   1  25
TORSDOF 8
ENDMDL
MODEL 4
REMARK VINA RESULT:      -9.2      1.491      8.616
REMARK  8 active torsions:
REMARK  status: ('A' for Active; 'I' for Inactive)
REMARK    1  A    between atoms: C_2  and  C_3 
REMARK    2  A    between atoms: C_5  and  C_6 
REMARK       I    between atoms: C_6  and  N_7 
REMARK    3  A    between atoms: N_7  and  C_8 
REMARK    4  A    between atoms: C_8  and  C_9 
REMARK    5  A    between atoms: C_9  and  N_10 
REMARK    6  A    between atoms: C_9  and  C_20 
REMARK       I    between atoms: N_10  and  C_11 
REMARK    7  A    between atoms: C_11  and  C_12 
REMARK    8  A    between atoms: C_14  and  C_15 
ROOT
HETATM    1  C   UNL     1      -6.347   1.512 -33.123  1.00  0.00     0.136 C 
ENDROOT
BRANCH   1   2
HETATM    2  C   UNL     1      -7.500   1.650 -32.096  1.00  0.00     0.153 C 
BRANCH   2   3
HETATM    3  N   UNL     1      -8.795   1.890 -32.706  1.00  0.00    -0.353 N 
HETATM    4  C   UNL     1      -9.695   0.879 -32.957  1.00  0.00     0.275 C 
HETATM    5  O   UNL     1      -9.432  -0.299 -32.726  1.00  0.00    -0.265 OA
HETATM    6  H   UNL     1      -9.117   2.848 -32.804  1.00  0.00     0.162 HD
BRANCH   4   7
HETATM    7  C   UNL     1     -10.960   1.327 -33.497  1.00  0.00     0.143 A 
HETATM    8  O   UNL     1     -12.036   0.477 -33.505  1.00  0.00    -0.310 OA
HETATM    9  C   UNL     1     -13.086   1.156 -34.045  1.00  0.00     0.053 A 
HETATM   10  C   UNL     1     -12.697   2.431 -34.396  1.00  0.00     0.036 A 
HETATM   11  C   UNL     1     -11.331   2.541 -34.046  1.00  0.00     0.045 A 
BRANCH   9  12
HETATM   12  C   UNL     1     -14.373   0.424 -34.134  1.00  0.00     0.060 C 
HETATM   13  C   UNL     1     -15.543   1.298 -33.715  1.00  0.00     0.012 C 
ENDBRANCH   9  12
ENDBRANCH   4   7
ENDBRANCH   2   3
ENDBRANCH   1   2
BRANCH   1  14
HETATM   14  N   UNL     1      -5.980   0.151 -33.502  1.00  0.00    -0.345 N 
HETATM   15  C   UNL     1      -6.483  -0.561 -34.564  1.00  0.00     0.276 C 
HETATM   16  O   UNL     1      -7.207  -0.071 -35.424  1.00  0.00    -0.265 OA
HETATM   17  H   UNL     1      -5.463  -0.391 -32.820  1.00  0.00     0.163 HD
BRANCH  15  18
HETATM   18  C   UNL     1      -6.075  -1.952 -34.573  1.00  0.00     0.143 A 
HETATM   19  O   UNL     1      -4.898  -2.315 -33.968  1.00  0.00    -0.310 OA
HETATM   20  C   UNL     1      -4.768  -3.664 -34.113  1.00  0.00     0.053 A 
HETATM   21  C   UNL     1      -5.845  -4.175 -34.803  1.00  0.00     0.036 A 
HETATM   22  C   UNL     1      -6.685  -3.075 -35.099  1.00  0.00     0.045 A 
BRANCH  20  23
HETATM   23  C   UNL     1      -3.552  -4.279 -33.523  1.00  0.00     0.060 C 
HETATM   24  C   UNL     1      -3.159  -3.598 -32.222  1.00  0.00     0.012 C 
ENDBRANCH  20  23
ENDBRANCH  15  18
ENDBRANCH   1  14
BRANCH   1  25
HETATM   25  C   UNL     1      -5.120   2.311 -32.711  1.00  0.00    -0.031 A 
HETATM   26  C   UNL     1      -4.836   3.568 -33.272  1.00  0.00     0.049 A 
HETATM   27  C   UNL     1      -3.705   4.282 -32.872  1.00  0.00     0.102 A 
HETATM   28  C   UNL     1      -2.824   3.737 -31.936  1.00  0.00     0.102 A 
HETATM   29  O   UNL     1      -3.519   5.512 -33.451  1.00  0.00    -0.346 OA
HETATM   30  O   UNL     1      -1.677   4.366 -31.526  1.00  0.00    -0.346 OA
HETATM   31  C   UNL     1      -3.097   2.497 -31.365  1.00  0.00     0.040 A 
HETATM   32  C   UNL     1      -1.328   5.440 -32.406  1.00  0.00     0.202 C 
HETATM   33  C   UNL     1      -2.550   6.283 -32.732  1.00  0.00     0.202 C 
HETATM   34  C   UNL     1      -4.237   1.788 -31.749  1.00  0.00     0.012 A 
ENDBRANCH   1  25
TORSDOF 8
ENDMDL
MODEL 5
REMARK VINA RESULT:      -9.0      1.774      6.536
REMARK  8 active torsions:
REMARK  status: ('A' for Active; 'I' for Inactive)
REMARK    1  A    between atoms: C_2  and  C_3 
REMARK    2  A    between atoms: C_5  and  C_6 
REMARK       I    between atoms: C_6  and  N_7 
REMARK    3  A    between atoms: N_7  and  C_8 
REMARK    4  A    between atoms: C_8  and  C_9 
REMARK    5  A    between atoms: C_9  and  N_10 
REMARK    6  A    between atoms: C_9  and  C_20 
REMARK       I    between atoms: N_10  and  C_11 
REMARK    7  A    between atoms: C_11  and  C_12 
REMARK    8  A    between atoms: C_14  and  C_15 
ROOT
HETATM    1  C   UNL     1      -8.085   1.713 -33.124  1.00  0.00     0.136 C 
ENDROOT
BRANCH   1   2
HETATM    2  C   UNL     1      -7.327   2.890 -33.791  1.00  0.00     0.153 C 
BRANCH   2   3
HETATM    3  N   UNL     1      -6.012   3.129 -33.224  1.00  0.00    -0.353 N 
HETATM    4  C   UNL     1      -5.214   4.178 -33.621  1.00  0.00     0.275 C 
HETATM    5  O   UNL     1      -5.548   4.947 -34.519  1.00  0.00    -0.265 OA
HETATM    6  H   UNL     1      -5.735   2.607 -32.398  1.00  0.00     0.162 HD
BRANCH   4   7
HETATM    7  C   UNL     1      -3.974   4.294 -32.885  1.00  0.00     0.143 A 
HETATM    8  O   UNL     1      -3.098   5.307 -33.185  1.00  0.00    -0.310 OA
HETATM    9  C   UNL     1      -2.038   5.190 -32.337  1.00  0.00     0.053 A 
HETATM   10  C   UNL     1      -2.214   4.107 -31.503  1.00  0.00     0.036 A 
HETATM   11  C   UNL     1      -3.457   3.531 -31.855  1.00  0.00     0.045 A 
BRANCH   9  12
HETATM   12  C   UNL     1      -0.966   6.206 -32.473  1.00  0.00     0.060 C 
HETATM   13  C   UNL     1      -1.418   7.387 -33.314  1.00  0.00     0.012 C 
ENDBRANCH   9  12
ENDBRANCH   4   7
ENDBRANCH   2   3
ENDBRANCH   1   2
BRANCH   1  14
HETATM   14  N   UNL     1      -7.632   0.371 -33.479  1.00  0.00    -0.345 N 
HETATM   15  C   UNL     1      -6.468  -0.231 -33.063  1.00  0.00     0.276 C 
HETATM   16  O   UNL     1      -5.729   0.246 -32.208  1.00  0.00    -0.265 OA
HETATM   17  H   UNL     1      -8.107  -0.085 -34.248  1.00  0.00     0.163 HD
BRANCH  15  18
HETATM   18  C   UNL     1      -6.196  -1.487 -33.733  1.00  0.00     0.143 A 
HETATM   19  O   UNL     1      -5.001  -2.124 -33.515  1.00  0.00    -0.310 OA
HETATM   20  C   UNL     1      -5.013  -3.271 -34.250  1.00  0.00     0.053 A 
HETATM   21  C   UNL     1      -6.201  -3.382 -34.939  1.00  0.00     0.036 A 
HETATM   22  C   UNL     1      -6.961  -2.235 -34.608  1.00  0.00     0.045 A 
BRANCH  20  23
HETATM   23  C   UNL     1      -3.804  -4.129 -34.160  1.00  0.00     0.060 C 
HETATM   24  C   UNL     1      -3.297  -4.228 -32.730  1.00  0.00     0.012 C 
ENDBRANCH  20  23
ENDBRANCH  15  18
ENDBRANCH   1  14
BRANCH   1  25
HETATM   25  C   UNL     1      -9.591   1.839 -33.291  1.00  0.00    -0.031 A 
HETATM   26  C   UNL     1     -10.416   0.708 -33.416  1.00  0.00     0.049 A 
HETATM   27  C   UNL     1     -11.797   0.852 -33.563  1.00  0.00     0.102 A 
HETATM   28  C   UNL     1     -12.369   2.124 -33.624  1.00  0.00     0.102 A 
HETATM   29  O   UNL     1     -12.529  -0.305 -33.651  1.00  0.00    -0.346 OA
HETATM   30  O   UNL     1     -13.711   2.339 -33.803  1.00  0.00    -0.346 OA
HETATM   31  C   UNL     1     -11.566   3.253 -33.492  1.00  0.00     0.040 A 
HETATM   32  C   UNL     1     -14.371   1.154 -34.261  1.00  0.00     0.202 C 
HETATM   33  C   UNL     1     -13.924  -0.053 -33.453  1.00  0.00     0.202 C 
HETATM   34  C   UNL     1     -10.186   3.112 -33.326  1.00  0.00     0.012 A 
ENDBRANCH   1  25
TORSDOF 8
ENDMDL
MODEL 6
REMARK VINA RESULT:      -8.9      1.810      8.345
REMARK  8 active torsions:
REMARK  status: ('A' for Active; 'I' for Inactive)
REMARK    1  A    between atoms: C_2  and  C_3 
REMARK    2  A    between atoms: C_5  and  C_6 
REMARK       I    between atoms: C_6  and  N_7 
REMARK    3  A    between atoms: N_7  and  C_8 
REMARK    4  A    between atoms: C_8  and  C_9 
REMARK    5  A    between atoms: C_9  and  N_10 
REMARK    6  A    between atoms: C_9  and  C_20 
REMARK       I    between atoms: N_10  and  C_11 
REMARK    7  A    between atoms: C_11  and  C_12 
REMARK    8  A    between atoms: C_14  and  C_15 
ROOT
HETATM    1  C   UNL     1      -6.281   2.608 -32.755  1.00  0.00     0.136 C 
ENDROOT
BRANCH   1   2
HETATM    2  C   UNL     1      -7.596   2.587 -31.934  1.00  0.00     0.153 C 
BRANCH   2   3
HETATM    3  N   UNL     1      -8.788   2.454 -32.751  1.00  0.00    -0.353 N 
HETATM    4  C   UNL     1      -9.606   1.348 -32.694  1.00  0.00     0.275 C 
HETATM    5  O   UNL     1      -9.345   0.380 -31.982  1.00  0.00    -0.265 OA
HETATM    6  H   UNL     1      -9.122   3.265 -33.262  1.00  0.00     0.162 HD
BRANCH   4   7
HETATM    7  C   UNL     1     -10.786   1.436 -33.527  1.00  0.00     0.143 A 
HETATM    8  O   UNL     1     -10.905   2.460 -34.431  1.00  0.00    -0.310 OA
HETATM    9  C   UNL     1     -12.088   2.289 -35.084  1.00  0.00     0.053 A 
HETATM   10  C   UNL     1     -12.740   1.173 -34.603  1.00  0.00     0.036 A 
HETATM   11  C   UNL     1     -11.904   0.626 -33.602  1.00  0.00     0.045 A 
BRANCH   9  12
HETATM   12  C   UNL     1     -12.417   3.285 -36.133  1.00  0.00     0.060 C 
HETATM   13  C   UNL     1     -12.548   4.683 -35.554  1.00  0.00     0.012 C 
ENDBRANCH   9  12
ENDBRANCH   4   7
ENDBRANCH   2   3
ENDBRANCH   1   2
BRANCH   1  14
HETATM   14  N   UNL     1      -5.656   1.312 -33.005  1.00  0.00    -0.345 N 
HETATM   15  C   UNL     1      -6.054   0.384 -33.938  1.00  0.00     0.276 C 
HETATM   16  O   UNL     1      -6.910   0.606 -34.789  1.00  0.00    -0.265 OA
HETATM   17  H   UNL     1      -5.002   0.976 -32.310  1.00  0.00     0.163 HD
BRANCH  15  18
HETATM   18  C   UNL     1      -5.364  -0.885 -33.822  1.00  0.00     0.143 A 
HETATM   19  O   UNL     1      -5.826  -1.972 -34.520  1.00  0.00    -0.310 OA
HETATM   20  C   UNL     1      -4.996  -3.015 -34.241  1.00  0.00     0.053 A 
HETATM   21  C   UNL     1      -4.004  -2.615 -33.372  1.00  0.00     0.036 A 
HETATM   22  C   UNL     1      -4.241  -1.246 -33.102  1.00  0.00     0.045 A 
BRANCH  20  23
HETATM   23  C   UNL     1      -5.311  -4.307 -34.901  1.00  0.00     0.060 C 
HETATM   24  C   UNL     1      -6.793  -4.423 -35.219  1.00  0.00     0.012 C 
ENDBRANCH  20  23
ENDBRANCH  15  18
ENDBRANCH   1  14
BRANCH   1  25
HETATM   25  C   UNL     1      -5.273   3.596 -32.189  1.00  0.00    -0.031 A 
HETATM   26  C   UNL     1      -3.895   3.462 -32.429  1.00  0.00     0.049 A 
HETATM   27  C   UNL     1      -2.991   4.385 -31.901  1.00  0.00     0.102 A 
HETATM   28  C   UNL     1      -3.445   5.433 -31.098  1.00  0.00     0.102 A 
HETATM   29  O   UNL     1      -1.667   4.194 -32.207  1.00  0.00    -0.346 OA
HETATM   30  O   UNL     1      -2.611   6.354 -30.518  1.00  0.00    -0.346 OA
HETATM   31  C   UNL     1      -4.808   5.585 -30.859  1.00  0.00     0.040 A 
HETATM   32  C   UNL     1      -1.250   5.913 -30.544  1.00  0.00     0.202 C 
HETATM   33  C   UNL     1      -0.892   5.361 -31.915  1.00  0.00     0.202 C 
HETATM   34  C   UNL     1      -5.716   4.673 -31.401  1.00  0.00     0.012 A 
ENDBRANCH   1  25
TORSDOF 8
ENDMDL
MODEL 7
REMARK VINA RESULT:      -8.9      2.100      6.273
REMARK  8 active torsions:
REMARK  status: ('A' for Active; 'I' for Inactive)
REMARK    1  A    between atoms: C_2  and  C_3 
REMARK    2  A    between atoms: C_5  and  C_6 
REMARK       I    between atoms: C_6  and  N_7 
REMARK    3  A    between atoms: N_7  and  C_8 
REMARK    4  A    between atoms: C_8  and  C_9 
REMARK    5  A    between atoms: C_9  and  N_10 
REMARK    6  A    between atoms: C_9  and  C_20 
REMARK       I    between atoms: N_10  and  C_11 
REMARK    7  A    between atoms: C_11  and  C_12 
REMARK    8  A    between atoms: C_14  and  C_15 
ROOT
HETATM    1  C   UNL     1      -6.626   2.893 -33.095  1.00  0.00     0.136 C 
ENDROOT
BRANCH   1   2
HETATM    2  C   UNL     1      -5.993   3.865 -34.123  1.00  0.00     0.153 C 
BRANCH   2   3
HETATM    3  N   UNL     1      -4.762   4.479 -33.660  1.00  0.00    -0.353 N 
HETATM    4  C   UNL     1      -3.920   5.175 -34.498  1.00  0.00     0.275 C 
HETATM    5  O   UNL     1      -4.136   5.273 -35.704  1.00  0.00    -0.265 OA
HETATM    6  H   UNL     1      -4.594   4.539 -32.661  1.00  0.00     0.162 HD
BRANCH   4   7
HETATM    7  C   UNL     1      -2.784   5.778 -33.835  1.00  0.00     0.143 A 
HETATM    8  O   UNL     1      -2.105   5.074 -32.874  1.00  0.00    -0.310 OA
HETATM    9  C   UNL     1      -1.085   5.864 -32.437  1.00  0.00     0.053 A 
HETATM   10  C   UNL     1      -1.106   7.074 -33.096  1.00  0.00     0.036 A 
HETATM   11  C   UNL     1      -2.198   7.020 -33.993  1.00  0.00     0.045 A 
BRANCH   9  12
HETATM   12  C   UNL     1      -0.199   5.288 -31.396  1.00  0.00     0.060 C 
HETATM   13  C   UNL     1       0.424   6.369 -30.531  1.00  0.00     0.012 C 
ENDBRANCH   9  12
ENDBRANCH   4   7
ENDBRANCH   2   3
ENDBRANCH   1   2
BRANCH   1  14
HETATM   14  N   UNL     1      -6.295   1.480 -33.255  1.00  0.00    -0.345 N 
HETATM   15  C   UNL     1      -5.083   0.893 -32.982  1.00  0.00     0.276 C 
HETATM   16  O   UNL     1      -4.161   1.476 -32.420  1.00  0.00    -0.265 OA
HETATM   17  H   UNL     1      -6.940   0.916 -33.795  1.00  0.00     0.163 HD
BRANCH  15  18
HETATM   18  C   UNL     1      -4.996  -0.486 -33.422  1.00  0.00     0.143 A 
HETATM   19  O   UNL     1      -6.129  -1.132 -33.847  1.00  0.00    -0.310 OA
HETATM   20  C   UNL     1      -5.764  -2.393 -34.209  1.00  0.00     0.053 A 
HETATM   21  C   UNL     1      -4.410  -2.569 -34.023  1.00  0.00     0.036 A 
HETATM   22  C   UNL     1      -3.916  -1.343 -33.516  1.00  0.00     0.045 A 
BRANCH  20  23
HETATM   23  C   UNL     1      -6.845  -3.278 -34.710  1.00  0.00     0.060 C 
HETATM   24  C   UNL     1      -6.283  -4.493 -35.429  1.00  0.00     0.012 C 
ENDBRANCH  20  23
ENDBRANCH  15  18
ENDBRANCH   1  14
BRANCH   1  25
HETATM   25  C   UNL     1      -8.130   3.089 -32.979  1.00  0.00    -0.031 A 
HETATM   26  C   UNL     1      -9.034   2.311 -33.723  1.00  0.00     0.049 A 
HETATM   27  C   UNL     1     -10.410   2.508 -33.595  1.00  0.00     0.102 A 
HETATM   28  C   UNL     1     -10.901   3.506 -32.751  1.00  0.00     0.102 A 
HETATM   29  O   UNL     1     -11.220   1.687 -34.338  1.00  0.00    -0.346 OA
HETATM   30  O   UNL     1     -12.237   3.778 -32.604  1.00  0.00    -0.346 OA
HETATM   31  C   UNL     1     -10.019   4.277 -32.000  1.00  0.00     0.040 A 
HETATM   32  C   UNL     1     -13.009   3.178 -33.650  1.00  0.00     0.202 C 
HETATM   33  C   UNL     1     -12.575   1.739 -33.878  1.00  0.00     0.202 C 
HETATM   34  C   UNL     1      -8.642   4.071 -32.113  1.00  0.00     0.012 A 
ENDBRANCH   1  25
TORSDOF 8
ENDMDL
MODEL 8
REMARK VINA RESULT:      -8.8      1.638      8.133
REMARK  8 active torsions:
REMARK  status: ('A' for Active; 'I' for Inactive)
REMARK    1  A    between atoms: C_2  and  C_3 
REMARK    2  A    between atoms: C_5  and  C_6 
REMARK       I    between atoms: C_6  and  N_7 
REMARK    3  A    between atoms: N_7  and  C_8 
REMARK    4  A    between atoms: C_8  and  C_9 
REMARK    5  A    between atoms: C_9  and  N_10 
REMARK    6  A    between atoms: C_9  and  C_20 
REMARK       I    between atoms: N_10  and  C_11 
REMARK    7  A    between atoms: C_11  and  C_12 
REMARK    8  A    between atoms: C_14  and  C_15 
ROOT
HETATM    1  C   UNL     1      -6.557   1.113 -33.747  1.00  0.00     0.136 C 
ENDROOT
BRANCH   1   2
HETATM    2  C   UNL     1      -7.534   1.434 -34.907  1.00  0.00     0.153 C 
BRANCH   2   3
HETATM    3  N   UNL     1      -8.927   1.461 -34.503  1.00  0.00    -0.353 N 
HETATM    4  C   UNL     1      -9.575   2.625 -34.154  1.00  0.00     0.275 C 
HETATM    5  O   UNL     1      -8.995   3.707 -34.116  1.00  0.00    -0.265 OA
HETATM    6  H   UNL     1      -9.489   0.625 -34.634  1.00  0.00     0.162 HD
BRANCH   4   7
HETATM    7  C   UNL     1     -10.982   2.457 -33.856  1.00  0.00     0.143 A 
HETATM    8  O   UNL     1     -11.617   1.294 -34.207  1.00  0.00    -0.310 OA
HETATM    9  C   UNL     1     -12.911   1.398 -33.795  1.00  0.00     0.053 A 
HETATM   10  C   UNL     1     -13.121   2.620 -33.193  1.00  0.00     0.036 A 
HETATM   11  C   UNL     1     -11.882   3.301 -33.233  1.00  0.00     0.045 A 
BRANCH   9  12
HETATM   12  C   UNL     1     -13.787   0.230 -34.059  1.00  0.00     0.060 C 
HETATM   13  C   UNL     1     -15.215   0.658 -34.352  1.00  0.00     0.012 C 
ENDBRANCH   9  12
ENDBRANCH   4   7
ENDBRANCH   2   3
ENDBRANCH   1   2
BRANCH   1  14
HETATM   14  N   UNL     1      -5.536   2.118 -33.467  1.00  0.00    -0.345 N 
HETATM   15  C   UNL     1      -5.665   3.195 -32.622  1.00  0.00     0.276 C 
HETATM   16  O   UNL     1      -6.624   3.356 -31.875  1.00  0.00    -0.265 OA
HETATM   17  H   UNL     1      -4.738   2.146 -34.089  1.00  0.00     0.163 HD
BRANCH  15  18
HETATM   18  C   UNL     1      -4.555   4.124 -32.697  1.00  0.00     0.143 A 
HETATM   19  O   UNL     1      -3.644   4.174 -31.672  1.00  0.00    -0.310 OA
HETATM   20  C   UNL     1      -2.714   5.112 -32.002  1.00  0.00     0.053 A 
HETATM   21  C   UNL     1      -3.013   5.669 -33.227  1.00  0.00     0.036 A 
HETATM   22  C   UNL     1      -4.197   5.035 -33.673  1.00  0.00     0.045 A 
BRANCH  20  23
HETATM   23  C   UNL     1      -1.618   5.332 -31.024  1.00  0.00     0.060 C 
HETATM   24  C   UNL     1      -0.286   5.554 -31.722  1.00  0.00     0.012 C 
ENDBRANCH  20  23
ENDBRANCH  15  18
ENDBRANCH   1  14
BRANCH   1  25
HETATM   25  C   UNL     1      -5.935  -0.267 -33.892  1.00  0.00    -0.031 A 
HETATM   26  C   UNL     1      -6.668  -1.357 -34.392  1.00  0.00     0.049 A 
HETATM   27  C   UNL     1      -6.072  -2.612 -34.519  1.00  0.00     0.102 A 
HETATM   28  C   UNL     1      -4.749  -2.806 -34.116  1.00  0.00     0.102 A 
HETATM   29  O   UNL     1      -6.852  -3.614 -35.041  1.00  0.00    -0.346 OA
HETATM   30  O   UNL     1      -4.112  -4.019 -34.179  1.00  0.00    -0.346 OA
HETATM   31  C   UNL     1      -4.007  -1.734 -33.628  1.00  0.00     0.040 A 
HETATM   32  C   UNL     1      -5.046  -5.088 -34.364  1.00  0.00     0.202 C 
HETATM   33  C   UNL     1      -6.058  -4.735 -35.442  1.00  0.00     0.202 C 
HETATM   34  C   UNL     1      -4.596  -0.473 -33.517  1.00  0.00     0.012 A 
ENDBRANCH   1  25
TORSDOF 8
ENDMDL
MODEL 9
REMARK VINA RESULT:      -8.6      2.717      6.525
REMARK  8 active torsions:
REMARK  status: ('A' for Active; 'I' for Inactive)
REMARK    1  A    between atoms: C_2  and  C_3 
REMARK    2  A    between atoms: C_5  and  C_6 
REMARK       I    between atoms: C_6  and  N_7 
REMARK    3  A    between atoms: N_7  and  C_8 
REMARK    4  A    between atoms: C_8  and  C_9 
REMARK    5  A    between atoms: C_9  and  N_10 
REMARK    6  A    between atoms: C_9  and  C_20 
REMARK       I    between atoms: N_10  and  C_11 
REMARK    7  A    between atoms: C_11  and  C_12 
REMARK    8  A    between atoms: C_14  and  C_15 
ROOT
HETATM    1  C   UNL     1      -4.366   2.078 -31.564  1.00  0.00     0.136 C 
ENDROOT
BRANCH   1   2
HETATM    2  C   UNL     1      -3.205   2.919 -32.155  1.00  0.00     0.153 C 
BRANCH   2   3
HETATM    3  N   UNL     1      -2.716   3.947 -31.255  1.00  0.00    -0.353 N 
HETATM    4  C   UNL     1      -1.814   4.909 -31.650  1.00  0.00     0.275 C 
HETATM    5  O   UNL     1      -1.328   4.923 -32.778  1.00  0.00    -0.265 OA
HETATM    6  H   UNL     1      -3.171   4.063 -30.355  1.00  0.00     0.162 HD
BRANCH   4   7
HETATM    7  C   UNL     1      -1.508   5.892 -30.633  1.00  0.00     0.143 A 
HETATM    8  O   UNL     1      -0.394   5.735 -29.849  1.00  0.00    -0.310 OA
HETATM    9  C   UNL     1      -0.340   6.800 -29.002  1.00  0.00     0.053 A 
HETATM   10  C   UNL     1      -1.413   7.637 -29.222  1.00  0.00     0.036 A 
HETATM   11  C   UNL     1      -2.164   7.053 -30.269  1.00  0.00     0.045 A 
BRANCH   9  12
HETATM   12  C   UNL     1       0.809   6.845 -28.065  1.00  0.00     0.060 C 
HETATM   13  C   UNL     1       1.291   8.267 -27.840  1.00  0.00     0.012 C 
ENDBRANCH   9  12
ENDBRANCH   4   7
ENDBRANCH   2   3
ENDBRANCH   1   2
BRANCH   1  14
HETATM   14  N   UNL     1      -4.381   0.661 -31.918  1.00  0.00    -0.345 N 
HETATM   15  C   UNL     1      -3.385  -0.251 -31.663  1.00  0.00     0.276 C 
HETATM   16  O   UNL     1      -2.408  -0.007 -30.962  1.00  0.00    -0.265 OA
HETATM   17  H   UNL     1      -5.088   0.361 -32.577  1.00  0.00     0.163 HD
BRANCH  15  18
HETATM   18  C   UNL     1      -3.598  -1.534 -32.303  1.00  0.00     0.143 A 
HETATM   19  O   UNL     1      -4.403  -1.610 -33.411  1.00  0.00    -0.310 OA
HETATM   20  C   UNL     1      -4.420  -2.913 -33.811  1.00  0.00     0.053 A 
HETATM   21  C   UNL     1      -3.636  -3.677 -32.974  1.00  0.00     0.036 A 
HETATM   22  C   UNL     1      -3.109  -2.791 -32.004  1.00  0.00     0.045 A 
BRANCH  20  23
HETATM   23  C   UNL     1      -5.236  -3.228 -35.010  1.00  0.00     0.060 C 
HETATM   24  C   UNL     1      -5.772  -4.649 -34.961  1.00  0.00     0.012 C 
ENDBRANCH  20  23
ENDBRANCH  15  18
ENDBRANCH   1  14
BRANCH   1  25
HETATM   25  C   UNL     1      -5.721   2.717 -31.825  1.00  0.00    -0.031 A 
HETATM   26  C   UNL     1      -6.778   2.603 -30.905  1.00  0.00     0.049 A 
HETATM   27  C   UNL     1      -8.011   3.203 -31.167  1.00  0.00     0.102 A 
HETATM   28  C   UNL     1      -8.218   3.893 -32.363  1.00  0.00     0.102 A 
HETATM   29  O   UNL     1      -8.979   3.065 -30.203  1.00  0.00    -0.346 OA
HETATM   30  O   UNL     1      -9.413   4.475 -32.701  1.00  0.00    -0.346 OA
HETATM   31  C   UNL     1      -7.177   4.022 -33.279  1.00  0.00     0.040 A 
HETATM   32  C   UNL     1     -10.477   3.997 -31.871  1.00  0.00     0.202 C 
HETATM   33  C   UNL     1     -10.054   3.987 -30.411  1.00  0.00     0.202 C 
HETATM   34  C   UNL     1      -5.937   3.438 -33.012  1.00  0.00     0.012 A 
ENDBRANCH   1  25
TORSDOF 8
ENDMDL
MODEL 10
REMARK VINA RESULT:      -8.5      1.885      6.225
REMARK  8 active torsions:
REMARK  status: ('A' for Active; 'I' for Inactive)
REMARK    1  A    between atoms: C_2  and  C_3 
REMARK    2  A    between atoms: C_5  and  C_6 
REMARK       I    between atoms: C_6  and  N_7 
REMARK    3  A    between atoms: N_7  and  C_8 
REMARK    4  A    between atoms: C_8  and  C_9 
REMARK    5  A    between atoms: C_9  and  N_10 
REMARK    6  A    between atoms: C_9  and  C_20 
REMARK       I    between atoms: N_10  and  C_11 
REMARK    7  A    between atoms: C_11  and  C_12 
REMARK    8  A    between atoms: C_14  and  C_15 
ROOT
HETATM    1  C   UNL     1      -6.896   1.320 -33.096  1.00  0.00     0.136 C 
ENDROOT
BRANCH   1   2
HETATM    2  C   UNL     1      -6.234   2.442 -33.937  1.00  0.00     0.153 C 
BRANCH   2   3
HETATM    3  N   UNL     1      -5.254   3.218 -33.200  1.00  0.00    -0.353 N 
HETATM    4  C   UNL     1      -4.895   4.496 -33.566  1.00  0.00     0.275 C 
HETATM    5  O   UNL     1      -5.347   5.038 -34.572  1.00  0.00    -0.265 OA
HETATM    6  H   UNL     1      -4.941   2.877 -32.297  1.00  0.00     0.162 HD
BRANCH   4   7
HETATM    7  C   UNL     1      -3.962   5.134 -32.662  1.00  0.00     0.143 A 
HETATM    8  O   UNL     1      -2.730   5.524 -33.121  1.00  0.00    -0.310 OA
HETATM    9  C   UNL     1      -2.074   6.105 -32.079  1.00  0.00     0.053 A 
HETATM   10  C   UNL     1      -2.864   6.086 -30.950  1.00  0.00     0.036 A 
HETATM   11  C   UNL     1      -4.077   5.461 -31.324  1.00  0.00     0.045 A 
BRANCH   9  12
HETATM   12  C   UNL     1      -0.712   6.623 -32.358  1.00  0.00     0.060 C 
HETATM   13  C   UNL     1       0.095   6.789 -31.082  1.00  0.00     0.012 C 
ENDBRANCH   9  12
ENDBRANCH   4   7
ENDBRANCH   2   3
ENDBRANCH   1   2
BRANCH   1  14
HETATM   14  N   UNL     1      -6.284  -0.002 -33.188  1.00  0.00    -0.345 N 
HETATM   15  C   UNL     1      -5.276  -0.489 -32.389  1.00  0.00     0.276 C 
HETATM   16  O   UNL     1      -4.867   0.092 -31.389  1.00  0.00    -0.265 OA
HETATM   17  H   UNL     1      -6.470  -0.536 -34.027  1.00  0.00     0.163 HD
BRANCH  15  18
HETATM   18  C   UNL     1      -4.741  -1.757 -32.842  1.00  0.00     0.143 A 
HETATM   19  O   UNL     1      -5.477  -2.532 -33.703  1.00  0.00    -0.310 OA
HETATM   20  C   UNL     1      -4.743  -3.648 -33.971  1.00  0.00     0.053 A 
HETATM   21  C   UNL     1      -3.543  -3.602 -33.295  1.00  0.00     0.036 A 
HETATM   22  C   UNL     1      -3.542  -2.388 -32.569  1.00  0.00     0.045 A 
BRANCH  20  23
HETATM   23  C   UNL     1      -5.354  -4.636 -34.895  1.00  0.00     0.060 C 
HETATM   24  C   UNL     1      -6.768  -4.236 -35.283  1.00  0.00     0.012 C 
ENDBRANCH  20  23
ENDBRANCH  15  18
ENDBRANCH   1  14
BRANCH   1  25
HETATM   25  C   UNL     1      -8.396   1.241 -33.334  1.00  0.00    -0.031 A 
HETATM   26  C   UNL     1      -9.077   2.222 -34.076  1.00  0.00     0.049 A 
HETATM   27  C   UNL     1     -10.454   2.123 -34.284  1.00  0.00     0.102 A 
HETATM   28  C   UNL     1     -11.175   1.067 -33.724  1.00  0.00     0.102 A 
HETATM   29  O   UNL     1     -11.034   3.109 -35.043  1.00  0.00    -0.346 OA
HETATM   30  O   UNL     1     -12.533   0.927 -33.856  1.00  0.00    -0.346 OA
HETATM   31  C   UNL     1     -10.513   0.083 -32.994  1.00  0.00     0.040 A 
HETATM   32  C   UNL     1     -13.138   2.141 -34.316  1.00  0.00     0.202 C 
HETATM   33  C   UNL     1     -12.346   2.730 -35.471  1.00  0.00     0.202 C 
HETATM   34  C   UNL     1      -9.133   0.170 -32.800  1.00  0.00     0.012 A 
ENDBRANCH   1  25
TORSDOF 8
ENDMDL
