MODEL 1
REMARK VINA RESULT:      -8.1      0.000      0.000
REMARK  7 active torsions:
REMARK  status: ('A' for Active; 'I' for Inactive)
REMARK    1  A    between atoms: C_2  and  C_3 
REMARK    2  A    between atoms: C_3  and  N_4 
REMARK       I    between atoms: N_4  and  C_5 
REMARK    3  A    between atoms: C_5  and  C_6 
REMARK    4  A    between atoms: C_7  and  N_8 
REMARK       I    between atoms: N_8  and  C_9 
REMARK    5  A    between atoms: C_9  and  C_10 
REMARK    6  A    between atoms: C_12  and  O_13 
REMARK    7  A    between atoms: O_13  and  C_14 
ROOT
HETATM    1  N   UNL     1      -4.838   0.364 -33.253  1.00  0.00    -0.322 N 
HETATM    2  C   UNL     1      -5.102   0.764 -31.954  1.00  0.00     0.256 C 
HETATM    3  O   UNL     1      -5.545   0.049 -31.061  1.00  0.00    -0.267 OA
HETATM    4  H   UNL     1      -4.100   0.863 -33.733  1.00  0.00     0.169 HD
ENDROOT
BRANCH   1   5
HETATM    5  C   UNL     1      -5.196  -0.900 -33.775  1.00  0.00     0.050 A 
HETATM    6  C   UNL     1      -6.471  -1.240 -34.260  1.00  0.00     0.058 A 
HETATM    7  C   UNL     1      -6.739  -2.557 -34.674  1.00  0.00     0.019 A 
HETATM    8  C   UNL     1      -5.740  -3.528 -34.626  1.00  0.00     0.001 A 
HETATM    9  C   UNL     1      -4.462  -3.184 -34.196  1.00  0.00     0.002 A 
HETATM   10  C   UNL     1      -4.188  -1.876 -33.786  1.00  0.00     0.030 A 
BRANCH   6  11
HETATM   11  C   UNL     1      -7.514  -0.224 -34.556  1.00  0.00     0.254 C 
HETATM   12  N   UNL     1      -8.603  -0.246 -33.709  1.00  0.00    -0.353 N 
HETATM   13  H   UNL     1      -8.459  -0.673 -32.804  1.00  0.00     0.163 HD
HETATM   14  O   UNL     1      -7.390   0.529 -35.515  1.00  0.00    -0.268 OA
BRANCH  12  15
HETATM   15  C   UNL     1      -9.622   0.762 -33.830  1.00  0.00     0.149 C 
BRANCH  15  16
HETATM   16  C   UNL     1      -9.511   1.674 -32.650  1.00  0.00    -0.018 C 
HETATM   17  C   UNL     1      -8.869   1.377 -31.513  1.00  0.00     0.008 C 
ENDBRANCH  15  16
ENDBRANCH  12  15
ENDBRANCH   6  11
ENDBRANCH   1   5
BRANCH   2  18
HETATM   18  C   UNL     1      -4.672   2.146 -31.625  1.00  0.00     0.037 A 
HETATM   19  C   UNL     1      -3.356   2.513 -31.897  1.00  0.00     0.075 A 
HETATM   20  C   UNL     1      -2.971   3.799 -31.582  1.00  0.00     0.165 A 
HETATM   21  N   UNL     1      -3.790   4.722 -31.035  1.00  0.00    -0.237 NA
HETATM   22  C   UNL     1      -5.055   4.331 -30.767  1.00  0.00     0.120 A 
HETATM   23  C   UNL     1      -5.544   3.066 -31.039  1.00  0.00     0.036 A 
BRANCH  20  24
HETATM   24  O   UNL     1      -1.663   4.139 -31.868  1.00  0.00    -0.329 OA
BRANCH  24  25
HETATM   25  C   UNL     1      -1.143   5.297 -31.183  1.00  0.00     0.130 C 
HETATM   26  C   UNL     1       0.352   5.249 -30.766  1.00  0.00     0.032 C 
HETATM   27  C   UNL     1       0.464   6.719 -31.207  1.00  0.00     0.005 C 
HETATM   28  C   UNL     1      -0.752   6.473 -32.116  1.00  0.00     0.032 C 
ENDBRANCH  24  25
ENDBRANCH  20  24
ENDBRANCH   2  18
TORSDOF 7
ENDMDL
MODEL 2
REMARK VINA RESULT:      -7.8      2.589      4.265
REMARK  7 active torsions:
REMARK  status: ('A' for Active; 'I' for Inactive)
REMARK    1  A    between atoms: C_2  and  C_3 
REMARK    2  A    between atoms: C_3  and  N_4 
REMARK       I    between atoms: N_4  and  C_5 
REMARK    3  A    between atoms: C_5  and  C_6 
REMARK    4  A    between atoms: C_7  and  N_8 
REMARK       I    between atoms: N_8  and  C_9 
REMARK    5  A    between atoms: C_9  and  C_10 
REMARK    6  A    between atoms: C_12  and  O_13 
REMARK    7  A    between atoms: O_13  and  C_14 
ROOT
HETATM    1  N   UNL     1      -6.663  -0.216 -34.257  1.00  0.00    -0.322 N 
HETATM    2  C   UNL     1      -7.226   0.368 -33.135  1.00  0.00     0.256 C 
HETATM    3  O   UNL     1      -7.217  -0.103 -32.002  1.00  0.00    -0.267 OA
HETATM    4  H   UNL     1      -6.345   0.418 -34.978  1.00  0.00     0.169 HD
ENDROOT
BRANCH   1   5
HETATM    5  C   UNL     1      -6.131  -1.525 -34.279  1.00  0.00     0.050 A 
HETATM    6  C   UNL     1      -4.822  -1.870 -33.902  1.00  0.00     0.058 A 
HETATM    7  C   UNL     1      -4.372  -3.194 -34.049  1.00  0.00     0.019 A 
HETATM    8  C   UNL     1      -5.224  -4.177 -34.550  1.00  0.00     0.001 A 
HETATM    9  C   UNL     1      -6.538  -3.852 -34.875  1.00  0.00     0.002 A 
HETATM   10  C   UNL     1      -6.993  -2.538 -34.728  1.00  0.00     0.030 A 
BRANCH   6  11
HETATM   11  C   UNL     1      -3.932  -0.945 -33.154  1.00  0.00     0.254 C 
HETATM   12  N   UNL     1      -4.310  -0.706 -31.848  1.00  0.00    -0.353 N 
HETATM   13  H   UNL     1      -4.906  -1.401 -31.419  1.00  0.00     0.163 HD
HETATM   14  O   UNL     1      -2.971  -0.425 -33.708  1.00  0.00    -0.268 OA
BRANCH  12  15
HETATM   15  C   UNL     1      -3.465   0.084 -30.994  1.00  0.00     0.149 C 
BRANCH  15  16
HETATM   16  C   UNL     1      -3.984   1.487 -31.001  1.00  0.00    -0.018 C 
HETATM   17  C   UNL     1      -3.330   2.540 -31.510  1.00  0.00     0.008 C 
ENDBRANCH  15  16
ENDBRANCH  12  15
ENDBRANCH   6  11
ENDBRANCH   1   5
BRANCH   2  18
HETATM   18  C   UNL     1      -7.758   1.739 -33.342  1.00  0.00     0.037 A 
HETATM   19  C   UNL     1      -6.870   2.742 -33.722  1.00  0.00     0.075 A 
HETATM   20  C   UNL     1      -7.379   4.011 -33.907  1.00  0.00     0.165 A 
HETATM   21  N   UNL     1      -8.679   4.336 -33.750  1.00  0.00    -0.237 NA
HETATM   22  C   UNL     1      -9.512   3.344 -33.364  1.00  0.00     0.120 A 
HETATM   23  C   UNL     1      -9.107   2.039 -33.148  1.00  0.00     0.036 A 
BRANCH  20  24
HETATM   24  O   UNL     1      -6.479   4.986 -34.291  1.00  0.00    -0.329 OA
BRANCH  24  25
HETATM   25  C   UNL     1      -5.091   4.719 -34.004  1.00  0.00     0.130 C 
HETATM   26  C   UNL     1      -4.065   5.091 -35.108  1.00  0.00     0.032 C 
HETATM   27  C   UNL     1      -3.143   5.619 -33.996  1.00  0.00     0.005 C 
HETATM   28  C   UNL     1      -4.398   5.793 -33.125  1.00  0.00     0.032 C 
ENDBRANCH  24  25
ENDBRANCH  20  24
ENDBRANCH   2  18
TORSDOF 7
ENDMDL
MODEL 3
REMARK VINA RESULT:      -7.7      2.627      7.864
REMARK  7 active torsions:
REMARK  status: ('A' for Active; 'I' for Inactive)
REMARK    1  A    between atoms: C_2  and  C_3 
REMARK    2  A    between atoms: C_3  and  N_4 
REMARK       I    between atoms: N_4  and  C_5 
REMARK    3  A    between atoms: C_5  and  C_6 
REMARK    4  A    between atoms: C_7  and  N_8 
REMARK       I    between atoms: N_8  and  C_9 
REMARK    5  A    between atoms: C_9  and  C_10 
REMARK    6  A    between atoms: C_12  and  O_13 
REMARK    7  A    between atoms: O_13  and  C_14 
ROOT
HETATM    1  N   UNL     1      -7.677  -0.579 -33.684  1.00  0.00    -0.322 N 
HETATM    2  C   UNL     1      -7.816   0.575 -34.436  1.00  0.00     0.256 C 
HETATM    3  O   UNL     1      -7.117   0.895 -35.391  1.00  0.00    -0.267 OA
HETATM    4  H   UNL     1      -8.521  -0.940 -33.258  1.00  0.00     0.169 HD
ENDROOT
BRANCH   1   5
HETATM    5  C   UNL     1      -6.596  -1.481 -33.819  1.00  0.00     0.050 A 
HETATM    6  C   UNL     1      -5.326  -1.310 -33.241  1.00  0.00     0.058 A 
HETATM    7  C   UNL     1      -4.298  -2.229 -33.517  1.00  0.00     0.019 A 
HETATM    8  C   UNL     1      -4.533  -3.323 -34.348  1.00  0.00     0.001 A 
HETATM    9  C   UNL     1      -5.804  -3.525 -34.880  1.00  0.00     0.002 A 
HETATM   10  C   UNL     1      -6.832  -2.618 -34.608  1.00  0.00     0.030 A 
BRANCH   6  11
HETATM   11  C   UNL     1      -5.058  -0.311 -32.175  1.00  0.00     0.254 C 
HETATM   12  N   UNL     1      -3.901   0.422 -32.344  1.00  0.00    -0.353 N 
HETATM   13  H   UNL     1      -3.539   0.477 -33.287  1.00  0.00     0.163 HD
HETATM   14  O   UNL     1      -5.814  -0.210 -31.216  1.00  0.00    -0.268 OA
BRANCH  12  15
HETATM   15  C   UNL     1      -3.596   1.494 -31.436  1.00  0.00     0.149 C 
BRANCH  15  16
HETATM   16  C   UNL     1      -3.470   2.753 -32.233  1.00  0.00    -0.018 C 
HETATM   17  C   UNL     1      -2.699   3.796 -31.897  1.00  0.00     0.008 C 
ENDBRANCH  15  16
ENDBRANCH  12  15
ENDBRANCH   6  11
ENDBRANCH   1   5
BRANCH   2  18
HETATM   18  C   UNL     1      -9.006   1.398 -34.105  1.00  0.00     0.037 A 
HETATM   19  C   UNL     1     -10.227   0.752 -33.922  1.00  0.00     0.075 A 
HETATM   20  C   UNL     1     -11.324   1.531 -33.619  1.00  0.00     0.165 A 
HETATM   21  N   UNL     1     -11.286   2.873 -33.483  1.00  0.00    -0.237 NA
HETATM   22  C   UNL     1     -10.092   3.471 -33.683  1.00  0.00     0.120 A 
HETATM   23  C   UNL     1      -8.930   2.787 -33.994  1.00  0.00     0.036 A 
BRANCH  20  24
HETATM   24  O   UNL     1     -12.521   0.866 -33.436  1.00  0.00    -0.329 OA
BRANCH  24  25
HETATM   25  C   UNL     1     -13.718   1.630 -33.690  1.00  0.00     0.130 C 
HETATM   26  C   UNL     1     -14.977   0.831 -34.126  1.00  0.00     0.032 C 
HETATM   27  C   UNL     1     -15.806   1.745 -33.208  1.00  0.00     0.005 C 
HETATM   28  C   UNL     1     -14.515   2.016 -32.416  1.00  0.00     0.032 C 
ENDBRANCH  24  25
ENDBRANCH  20  24
ENDBRANCH   2  18
TORSDOF 7
ENDMDL
MODEL 4
REMARK VINA RESULT:      -7.7      1.855      3.914
REMARK  7 active torsions:
REMARK  status: ('A' for Active; 'I' for Inactive)
REMARK    1  A    between atoms: C_2  and  C_3 
REMARK    2  A    between atoms: C_3  and  N_4 
REMARK       I    between atoms: N_4  and  C_5 
REMARK    3  A    between atoms: C_5  and  C_6 
REMARK    4  A    between atoms: C_7  and  N_8 
REMARK       I    between atoms: N_8  and  C_9 
REMARK    5  A    between atoms: C_9  and  C_10 
REMARK    6  A    between atoms: C_12  and  O_13 
REMARK    7  A    between atoms: O_13  and  C_14 
ROOT
HETATM    1  N   UNL     1      -6.443   2.457 -33.630  1.00  0.00    -0.322 N 
HETATM    2  C   UNL     1      -5.716   3.102 -32.643  1.00  0.00     0.256 C 
HETATM    3  O   UNL     1      -5.894   2.989 -31.435  1.00  0.00    -0.267 OA
HETATM    4  H   UNL     1      -5.953   2.272 -34.496  1.00  0.00     0.169 HD
ENDROOT
BRANCH   1   5
HETATM    5  C   UNL     1      -7.604   1.691 -33.379  1.00  0.00     0.050 A 
HETATM    6  C   UNL     1      -7.654   0.287 -33.348  1.00  0.00     0.058 A 
HETATM    7  C   UNL     1      -8.885  -0.371 -33.176  1.00  0.00     0.019 A 
HETATM    8  C   UNL     1     -10.060   0.362 -33.016  1.00  0.00     0.001 A 
HETATM    9  C   UNL     1     -10.008   1.753 -32.993  1.00  0.00     0.002 A 
HETATM   10  C   UNL     1      -8.788   2.413 -33.160  1.00  0.00     0.030 A 
BRANCH   6  11
HETATM   11  C   UNL     1      -6.433  -0.557 -33.282  1.00  0.00     0.254 C 
HETATM   12  N   UNL     1      -6.347  -1.530 -34.258  1.00  0.00    -0.353 N 
HETATM   13  H   UNL     1      -6.894  -1.376 -35.094  1.00  0.00     0.163 HD
HETATM   14  O   UNL     1      -5.612  -0.391 -32.388  1.00  0.00    -0.268 OA
BRANCH  12  15
HETATM   15  C   UNL     1      -5.159  -2.334 -34.362  1.00  0.00     0.149 C 
BRANCH  15  16
HETATM   16  C   UNL     1      -5.560  -3.690 -34.847  1.00  0.00    -0.018 C 
HETATM   17  C   UNL     1      -6.822  -4.135 -34.915  1.00  0.00     0.008 C 
ENDBRANCH  15  16
ENDBRANCH  12  15
ENDBRANCH   6  11
ENDBRANCH   1   5
BRANCH   2  18
HETATM   18  C   UNL     1      -4.551   3.881 -33.132  1.00  0.00     0.037 A 
HETATM   19  C   UNL     1      -3.374   3.847 -32.388  1.00  0.00     0.075 A 
HETATM   20  C   UNL     1      -2.302   4.580 -32.853  1.00  0.00     0.165 A 
HETATM   21  N   UNL     1      -2.322   5.319 -33.982  1.00  0.00    -0.237 NA
HETATM   22  C   UNL     1      -3.483   5.345 -34.671  1.00  0.00     0.120 A 
HETATM   23  C   UNL     1      -4.619   4.651 -34.293  1.00  0.00     0.036 A 
BRANCH  20  24
HETATM   24  O   UNL     1      -1.144   4.524 -32.101  1.00  0.00    -0.329 OA
BRANCH  24  25
HETATM   25  C   UNL     1      -0.483   5.782 -31.857  1.00  0.00     0.130 C 
HETATM   26  C   UNL     1      -1.159   6.739 -30.837  1.00  0.00     0.032 C 
HETATM   27  C   UNL     1       0.244   7.054 -30.289  1.00  0.00     0.005 C 
HETATM   28  C   UNL     1       0.702   5.702 -30.859  1.00  0.00     0.032 C 
ENDBRANCH  24  25
ENDBRANCH  20  24
ENDBRANCH   2  18
TORSDOF 7
ENDMDL
MODEL 5
REMARK VINA RESULT:      -7.5     15.587     17.602
REMARK  7 active torsions:
REMARK  status: ('A' for Active; 'I' for Inactive)
REMARK    1  A    between atoms: C_2  and  C_3 
REMARK    2  A    between atoms: C_3  and  N_4 
REMARK       I    between atoms: N_4  and  C_5 
REMARK    3  A    between atoms: C_5  and  C_6 
REMARK    4  A    between atoms: C_7  and  N_8 
REMARK       I    between atoms: N_8  and  C_9 
REMARK    5  A    between atoms: C_9  and  C_10 
REMARK    6  A    between atoms: C_12  and  O_13 
REMARK    7  A    between atoms: O_13  and  C_14 
ROOT
HETATM    1  N   UNL     1      -2.999 -14.365 -37.797  1.00  0.00    -0.322 N 
HETATM    2  C   UNL     1      -3.683 -13.184 -37.565  1.00  0.00     0.256 C 
HETATM    3  O   UNL     1      -3.470 -12.112 -38.122  1.00  0.00    -0.267 OA
HETATM    4  H   UNL     1      -3.518 -15.220 -37.643  1.00  0.00     0.169 HD
ENDROOT
BRANCH   1   5
HETATM    5  C   UNL     1      -1.843 -14.458 -38.605  1.00  0.00     0.050 A 
HETATM    6  C   UNL     1      -1.833 -14.833 -39.960  1.00  0.00     0.058 A 
HETATM    7  C   UNL     1      -0.613 -14.978 -40.643  1.00  0.00     0.019 A 
HETATM    8  C   UNL     1       0.594 -14.734 -39.989  1.00  0.00     0.001 A 
HETATM    9  C   UNL     1       0.588 -14.312 -38.663  1.00  0.00     0.002 A 
HETATM   10  C   UNL     1      -0.622 -14.163 -37.979  1.00  0.00     0.030 A 
BRANCH   6  11
HETATM   11  C   UNL     1      -3.068 -14.888 -40.785  1.00  0.00     0.254 C 
HETATM   12  N   UNL     1      -3.621 -13.660 -41.084  1.00  0.00    -0.353 N 
HETATM   13  H   UNL     1      -3.000 -12.864 -41.034  1.00  0.00     0.163 HD
HETATM   14  O   UNL     1      -3.544 -15.968 -41.117  1.00  0.00    -0.268 OA
BRANCH  12  15
HETATM   15  C   UNL     1      -4.753 -13.583 -41.969  1.00  0.00     0.149 C 
BRANCH  15  16
HETATM   16  C   UNL     1      -5.942 -13.167 -41.162  1.00  0.00    -0.018 C 
HETATM   17  C   UNL     1      -6.079 -11.976 -40.564  1.00  0.00     0.008 C 
ENDBRANCH  15  16
ENDBRANCH  12  15
ENDBRANCH   6  11
ENDBRANCH   1   5
BRANCH   2  18
HETATM   18  C   UNL     1      -4.850 -13.305 -36.655  1.00  0.00     0.037 A 
HETATM   19  C   UNL     1      -6.117 -13.437 -37.218  1.00  0.00     0.075 A 
HETATM   20  C   UNL     1      -7.191 -13.544 -36.359  1.00  0.00     0.165 A 
HETATM   21  N   UNL     1      -7.089 -13.536 -35.014  1.00  0.00    -0.237 NA
HETATM   22  C   UNL     1      -5.849 -13.388 -34.499  1.00  0.00     0.120 A 
HETATM   23  C   UNL     1      -4.705 -13.269 -35.268  1.00  0.00     0.036 A 
BRANCH  20  24
HETATM   24  O   UNL     1      -8.435 -13.681 -36.943  1.00  0.00    -0.329 OA
BRANCH  24  25
HETATM   25  C   UNL     1      -8.451 -13.853 -38.375  1.00  0.00     0.130 C 
HETATM   26  C   UNL     1      -9.126 -15.142 -38.916  1.00  0.00     0.032 C 
HETATM   27  C   UNL     1      -9.747 -14.282 -40.031  1.00  0.00     0.005 C 
HETATM   28  C   UNL     1      -9.572 -13.068 -39.104  1.00  0.00     0.032 C 
ENDBRANCH  24  25
ENDBRANCH  20  24
ENDBRANCH   2  18
TORSDOF 7
ENDMDL
MODEL 6
REMARK VINA RESULT:      -7.3      1.750      3.370
REMARK  7 active torsions:
REMARK  status: ('A' for Active; 'I' for Inactive)
REMARK    1  A    between atoms: C_2  and  C_3 
REMARK    2  A    between atoms: C_3  and  N_4 
REMARK       I    between atoms: N_4  and  C_5 
REMARK    3  A    between atoms: C_5  and  C_6 
REMARK    4  A    between atoms: C_7  and  N_8 
REMARK       I    between atoms: N_8  and  C_9 
REMARK    5  A    between atoms: C_9  and  C_10 
REMARK    6  A    between atoms: C_12  and  O_13 
REMARK    7  A    between atoms: O_13  and  C_14 
ROOT
HETATM    1  N   UNL     1      -4.819   0.053 -33.366  1.00  0.00    -0.322 N 
HETATM    2  C   UNL     1      -5.116   0.521 -32.097  1.00  0.00     0.256 C 
HETATM    3  O   UNL     1      -5.666  -0.121 -31.209  1.00  0.00    -0.267 OA
HETATM    4  H   UNL     1      -4.016   0.470 -33.820  1.00  0.00     0.169 HD
ENDROOT
BRANCH   1   5
HETATM    5  C   UNL     1      -5.256  -1.195 -33.866  1.00  0.00     0.050 A 
HETATM    6  C   UNL     1      -6.562  -1.476 -34.304  1.00  0.00     0.058 A 
HETATM    7  C   UNL     1      -6.907  -2.780 -34.700  1.00  0.00     0.019 A 
HETATM    8  C   UNL     1      -5.956  -3.799 -34.679  1.00  0.00     0.001 A 
HETATM    9  C   UNL     1      -4.648  -3.514 -34.297  1.00  0.00     0.002 A 
HETATM   10  C   UNL     1      -4.297  -2.219 -33.905  1.00  0.00     0.030 A 
BRANCH   6  11
HETATM   11  C   UNL     1      -7.564  -0.412 -34.572  1.00  0.00     0.254 C 
HETATM   12  N   UNL     1      -8.528  -0.265 -33.596  1.00  0.00    -0.353 N 
HETATM   13  H   UNL     1      -8.293  -0.613 -32.677  1.00  0.00     0.163 HD
HETATM   14  O   UNL     1      -7.520   0.233 -35.613  1.00  0.00    -0.268 OA
BRANCH  12  15
HETATM   15  C   UNL     1      -9.484   0.806 -33.693  1.00  0.00     0.149 C 
BRANCH  15  16
HETATM   16  C   UNL     1      -9.124   1.839 -32.673  1.00  0.00    -0.018 C 
HETATM   17  C   UNL     1      -8.806   1.576 -31.398  1.00  0.00     0.008 C 
ENDBRANCH  15  16
ENDBRANCH  12  15
ENDBRANCH   6  11
ENDBRANCH   1   5
BRANCH   2  18
HETATM   18  C   UNL     1      -4.588   1.874 -31.790  1.00  0.00     0.037 A 
HETATM   19  C   UNL     1      -5.336   2.702 -30.957  1.00  0.00     0.075 A 
HETATM   20  C   UNL     1      -4.833   3.957 -30.683  1.00  0.00     0.165 A 
HETATM   21  N   UNL     1      -3.664   4.426 -31.166  1.00  0.00    -0.237 NA
HETATM   22  C   UNL     1      -2.971   3.606 -31.985  1.00  0.00     0.120 A 
HETATM   23  C   UNL     1      -3.384   2.330 -32.327  1.00  0.00     0.036 A 
BRANCH  20  24
HETATM   24  O   UNL     1      -5.591   4.757 -29.849  1.00  0.00    -0.329 OA
BRANCH  24  25
HETATM   25  C   UNL     1      -7.012   4.511 -29.853  1.00  0.00     0.130 C 
HETATM   26  C   UNL     1      -7.863   5.322 -28.837  1.00  0.00     0.032 C 
HETATM   27  C   UNL     1      -8.916   5.497 -29.945  1.00  0.00     0.005 C 
HETATM   28  C   UNL     1      -7.790   5.262 -30.965  1.00  0.00     0.032 C 
ENDBRANCH  24  25
ENDBRANCH  20  24
ENDBRANCH   2  18
TORSDOF 7
ENDMDL
MODEL 7
REMARK VINA RESULT:      -7.2      2.647      6.984
REMARK  7 active torsions:
REMARK  status: ('A' for Active; 'I' for Inactive)
REMARK    1  A    between atoms: C_2  and  C_3 
REMARK    2  A    between atoms: C_3  and  N_4 
REMARK       I    between atoms: N_4  and  C_5 
REMARK    3  A    between atoms: C_5  and  C_6 
REMARK    4  A    between atoms: C_7  and  N_8 
REMARK       I    between atoms: N_8  and  C_9 
REMARK    5  A    between atoms: C_9  and  C_10 
REMARK    6  A    between atoms: C_12  and  O_13 
REMARK    7  A    between atoms: O_13  and  C_14 
ROOT
HETATM    1  N   UNL     1      -7.109   0.242 -33.084  1.00  0.00    -0.322 N 
HETATM    2  C   UNL     1      -7.588   0.462 -31.804  1.00  0.00     0.256 C 
HETATM    3  O   UNL     1      -7.248  -0.150 -30.798  1.00  0.00    -0.267 OA
HETATM    4  H   UNL     1      -7.106   1.043 -33.704  1.00  0.00     0.169 HD
ENDROOT
BRANCH   1   5
HETATM    5  C   UNL     1      -6.266  -0.837 -33.434  1.00  0.00     0.050 A 
HETATM    6  C   UNL     1      -4.893  -0.916 -33.141  1.00  0.00     0.058 A 
HETATM    7  C   UNL     1      -4.133  -1.999 -33.616  1.00  0.00     0.019 A 
HETATM    8  C   UNL     1      -4.735  -3.011 -34.362  1.00  0.00     0.001 A 
HETATM    9  C   UNL     1      -6.104  -2.964 -34.610  1.00  0.00     0.002 A 
HETATM   10  C   UNL     1      -6.867  -1.892 -34.138  1.00  0.00     0.030 A 
BRANCH   6  11
HETATM   11  C   UNL     1      -4.227  -0.011 -32.170  1.00  0.00     0.254 C 
HETATM   12  N   UNL     1      -4.053   1.285 -32.611  1.00  0.00    -0.353 N 
HETATM   13  H   UNL     1      -4.664   1.592 -33.355  1.00  0.00     0.163 HD
HETATM   14  O   UNL     1      -3.843  -0.437 -31.087  1.00  0.00    -0.268 OA
BRANCH  12  15
HETATM   15  C   UNL     1      -3.521   2.278 -31.716  1.00  0.00     0.149 C 
BRANCH  15  16
HETATM   16  C   UNL     1      -4.296   3.542 -31.916  1.00  0.00    -0.018 C 
HETATM   17  C   UNL     1      -5.312   3.687 -32.776  1.00  0.00     0.008 C 
ENDBRANCH  15  16
ENDBRANCH  12  15
ENDBRANCH   6  11
ENDBRANCH   1   5
BRANCH   2  18
HETATM   18  C   UNL     1      -8.489   1.634 -31.666  1.00  0.00     0.037 A 
HETATM   19  C   UNL     1      -9.564   1.750 -32.544  1.00  0.00     0.075 A 
HETATM   20  C   UNL     1     -10.390   2.846 -32.406  1.00  0.00     0.165 A 
HETATM   21  N   UNL     1     -10.224   3.805 -31.471  1.00  0.00    -0.237 NA
HETATM   22  C   UNL     1      -9.164   3.673 -30.645  1.00  0.00     0.120 A 
HETATM   23  C   UNL     1      -8.272   2.616 -30.699  1.00  0.00     0.036 A 
BRANCH  20  24
HETATM   24  O   UNL     1     -11.451   2.933 -33.285  1.00  0.00    -0.329 OA
BRANCH  24  25
HETATM   25  C   UNL     1     -12.216   1.726 -33.481  1.00  0.00     0.130 C 
HETATM   26  C   UNL     1     -13.743   1.814 -33.213  1.00  0.00     0.032 C 
HETATM   27  C   UNL     1     -13.956   0.946 -34.464  1.00  0.00     0.005 C 
HETATM   28  C   UNL     1     -12.583   1.432 -34.959  1.00  0.00     0.032 C 
ENDBRANCH  24  25
ENDBRANCH  20  24
ENDBRANCH   2  18
TORSDOF 7
ENDMDL
MODEL 8
REMARK VINA RESULT:      -7.1      2.236      8.182
REMARK  7 active torsions:
REMARK  status: ('A' for Active; 'I' for Inactive)
REMARK    1  A    between atoms: C_2  and  C_3 
REMARK    2  A    between atoms: C_3  and  N_4 
REMARK       I    between atoms: N_4  and  C_5 
REMARK    3  A    between atoms: C_5  and  C_6 
REMARK    4  A    between atoms: C_7  and  N_8 
REMARK       I    between atoms: N_8  and  C_9 
REMARK    5  A    between atoms: C_9  and  C_10 
REMARK    6  A    between atoms: C_12  and  O_13 
REMARK    7  A    between atoms: O_13  and  C_14 
ROOT
HETATM    1  N   UNL     1      -3.762   3.991 -32.491  1.00  0.00    -0.322 N 
HETATM    2  C   UNL     1      -5.055   3.943 -32.985  1.00  0.00     0.256 C 
HETATM    3  O   UNL     1      -5.479   4.583 -33.941  1.00  0.00    -0.267 OA
HETATM    4  H   UNL     1      -3.425   3.150 -32.040  1.00  0.00     0.169 HD
ENDROOT
BRANCH   1   5
HETATM    5  C   UNL     1      -2.786   4.914 -32.930  1.00  0.00     0.050 A 
HETATM    6  C   UNL     1      -2.381   6.059 -32.222  1.00  0.00     0.058 A 
HETATM    7  C   UNL     1      -1.464   6.955 -32.798  1.00  0.00     0.019 A 
HETATM    8  C   UNL     1      -0.934   6.708 -34.063  1.00  0.00     0.001 A 
HETATM    9  C   UNL     1      -1.291   5.548 -34.746  1.00  0.00     0.002 A 
HETATM   10  C   UNL     1      -2.201   4.651 -34.179  1.00  0.00     0.030 A 
BRANCH   6  11
HETATM   11  C   UNL     1      -2.717   6.277 -30.792  1.00  0.00     0.254 C 
HETATM   12  N   UNL     1      -1.678   6.751 -30.017  1.00  0.00    -0.353 N 
HETATM   13  H   UNL     1      -0.930   7.221 -30.509  1.00  0.00     0.163 HD
HETATM   14  O   UNL     1      -3.835   6.004 -30.368  1.00  0.00    -0.268 OA
BRANCH  12  15
HETATM   15  C   UNL     1      -1.914   7.105 -28.644  1.00  0.00     0.149 C 
BRANCH  15  16
HETATM   16  C   UNL     1      -0.604   7.490 -28.034  1.00  0.00    -0.018 C 
HETATM   17  C   UNL     1       0.510   7.761 -28.726  1.00  0.00     0.008 C 
ENDBRANCH  15  16
ENDBRANCH  12  15
ENDBRANCH   6  11
ENDBRANCH   1   5
BRANCH   2  18
HETATM   18  C   UNL     1      -5.928   2.920 -32.357  1.00  0.00     0.037 A 
HETATM   19  C   UNL     1      -5.657   1.577 -32.605  1.00  0.00     0.075 A 
HETATM   20  C   UNL     1      -6.480   0.638 -32.017  1.00  0.00     0.165 A 
HETATM   21  N   UNL     1      -7.522   0.941 -31.215  1.00  0.00    -0.237 NA
HETATM   22  C   UNL     1      -7.769   2.253 -31.008  1.00  0.00     0.120 A 
HETATM   23  C   UNL     1      -7.010   3.275 -31.550  1.00  0.00     0.036 A 
BRANCH  20  24
HETATM   24  O   UNL     1      -6.186  -0.686 -32.274  1.00  0.00    -0.329 OA
BRANCH  24  25
HETATM   25  C   UNL     1      -5.917  -1.023 -33.651  1.00  0.00     0.130 C 
HETATM   26  C   UNL     1      -4.760  -2.026 -33.911  1.00  0.00     0.032 C 
HETATM   27  C   UNL     1      -5.646  -2.684 -34.983  1.00  0.00     0.005 C 
HETATM   28  C   UNL     1      -6.862  -2.099 -34.245  1.00  0.00     0.032 C 
ENDBRANCH  24  25
ENDBRANCH  20  24
ENDBRANCH   2  18
TORSDOF 7
ENDMDL
MODEL 9
REMARK VINA RESULT:      -6.9      2.293      7.907
REMARK  7 active torsions:
REMARK  status: ('A' for Active; 'I' for Inactive)
REMARK    1  A    between atoms: C_2  and  C_3 
REMARK    2  A    between atoms: C_3  and  N_4 
REMARK       I    between atoms: N_4  and  C_5 
REMARK    3  A    between atoms: C_5  and  C_6 
REMARK    4  A    between atoms: C_7  and  N_8 
REMARK       I    between atoms: N_8  and  C_9 
REMARK    5  A    between atoms: C_9  and  C_10 
REMARK    6  A    between atoms: C_12  and  O_13 
REMARK    7  A    between atoms: O_13  and  C_14 
ROOT
HETATM    1  N   UNL     1      -4.110   4.054 -33.168  1.00  0.00    -0.322 N 
HETATM    2  C   UNL     1      -3.907   2.888 -32.450  1.00  0.00     0.256 C 
HETATM    3  O   UNL     1      -2.960   2.663 -31.704  1.00  0.00    -0.267 OA
HETATM    4  H   UNL     1      -5.072   4.296 -33.364  1.00  0.00     0.169 HD
ENDROOT
BRANCH   1   5
HETATM    5  C   UNL     1      -3.159   5.096 -33.261  1.00  0.00     0.050 A 
HETATM    6  C   UNL     1      -3.241   6.326 -32.586  1.00  0.00     0.058 A 
HETATM    7  C   UNL     1      -2.281   7.326 -32.823  1.00  0.00     0.019 A 
HETATM    8  C   UNL     1      -1.232   7.099 -33.712  1.00  0.00     0.001 A 
HETATM    9  C   UNL     1      -1.115   5.863 -34.342  1.00  0.00     0.002 A 
HETATM   10  C   UNL     1      -2.065   4.864 -34.109  1.00  0.00     0.030 A 
BRANCH   6  11
HETATM   11  C   UNL     1      -4.186   6.563 -31.464  1.00  0.00     0.254 C 
HETATM   12  N   UNL     1      -3.703   7.379 -30.461  1.00  0.00    -0.353 N 
HETATM   13  H   UNL     1      -2.944   7.998 -30.713  1.00  0.00     0.163 HD
HETATM   14  O   UNL     1      -5.286   6.022 -31.454  1.00  0.00    -0.268 OA
BRANCH  12  15
HETATM   15  C   UNL     1      -4.566   7.769 -29.379  1.00  0.00     0.149 C 
BRANCH  15  16
HETATM   16  C   UNL     1      -4.225   6.929 -28.190  1.00  0.00    -0.018 C 
HETATM   17  C   UNL     1      -5.100   6.174 -27.512  1.00  0.00     0.008 C 
ENDBRANCH  15  16
ENDBRANCH  12  15
ENDBRANCH   6  11
ENDBRANCH   1   5
BRANCH   2  18
HETATM   18  C   UNL     1      -5.021   1.910 -32.517  1.00  0.00     0.037 A 
HETATM   19  C   UNL     1      -4.711   0.564 -32.698  1.00  0.00     0.075 A 
HETATM   20  C   UNL     1      -5.758  -0.332 -32.762  1.00  0.00     0.165 A 
HETATM   21  N   UNL     1      -7.057   0.014 -32.654  1.00  0.00    -0.237 NA
HETATM   22  C   UNL     1      -7.327   1.327 -32.496  1.00  0.00     0.120 A 
HETATM   23  C   UNL     1      -6.355   2.309 -32.422  1.00  0.00     0.036 A 
BRANCH  20  24
HETATM   24  O   UNL     1      -5.422  -1.660 -32.936  1.00  0.00    -0.329 OA
BRANCH  24  25
HETATM   25  C   UNL     1      -5.595  -2.191 -34.266  1.00  0.00     0.130 C 
HETATM   26  C   UNL     1      -4.785  -3.467 -34.620  1.00  0.00     0.032 C 
HETATM   27  C   UNL     1      -6.036  -3.994 -35.343  1.00  0.00     0.005 C 
HETATM   28  C   UNL     1      -6.868  -3.058 -34.451  1.00  0.00     0.032 C 
ENDBRANCH  24  25
ENDBRANCH  20  24
ENDBRANCH   2  18
TORSDOF 7
ENDMDL
MODEL 10
REMARK VINA RESULT:      -6.9      2.186      7.522
REMARK  7 active torsions:
REMARK  status: ('A' for Active; 'I' for Inactive)
REMARK    1  A    between atoms: C_2  and  C_3 
REMARK    2  A    between atoms: C_3  and  N_4 
REMARK       I    between atoms: N_4  and  C_5 
REMARK    3  A    between atoms: C_5  and  C_6 
REMARK    4  A    between atoms: C_7  and  N_8 
REMARK       I    between atoms: N_8  and  C_9 
REMARK    5  A    between atoms: C_9  and  C_10 
REMARK    6  A    between atoms: C_12  and  O_13 
REMARK    7  A    between atoms: O_13  and  C_14 
ROOT
HETATM    1  N   UNL     1      -2.814   4.098 -30.923  1.00  0.00    -0.322 N 
HETATM    2  C   UNL     1      -3.173   3.199 -31.914  1.00  0.00     0.256 C 
HETATM    3  O   UNL     1      -2.772   3.214 -33.073  1.00  0.00    -0.267 OA
HETATM    4  H   UNL     1      -2.833   3.747 -29.974  1.00  0.00     0.169 HD
ENDROOT
BRANCH   1   5
HETATM    5  C   UNL     1      -2.048   5.262 -31.158  1.00  0.00     0.050 A 
HETATM    6  C   UNL     1      -2.560   6.483 -31.630  1.00  0.00     0.058 A 
HETATM    7  C   UNL     1      -1.689   7.550 -31.912  1.00  0.00     0.019 A 
HETATM    8  C   UNL     1      -0.317   7.413 -31.708  1.00  0.00     0.001 A 
HETATM    9  C   UNL     1       0.190   6.224 -31.191  1.00  0.00     0.002 A 
HETATM   10  C   UNL     1      -0.671   5.160 -30.906  1.00  0.00     0.030 A 
BRANCH   6  11
HETATM   11  C   UNL     1      -4.014   6.786 -31.657  1.00  0.00     0.254 C 
HETATM   12  N   UNL     1      -4.701   6.238 -32.720  1.00  0.00    -0.353 N 
HETATM   13  H   UNL     1      -4.274   5.437 -33.166  1.00  0.00     0.163 HD
HETATM   14  O   UNL     1      -4.513   7.506 -30.799  1.00  0.00    -0.268 OA
BRANCH  12  15
HETATM   15  C   UNL     1      -6.132   6.370 -32.790  1.00  0.00     0.149 C 
BRANCH  15  16
HETATM   16  C   UNL     1      -6.659   5.245 -33.623  1.00  0.00    -0.018 C 
HETATM   17  C   UNL     1      -6.600   3.951 -33.284  1.00  0.00     0.008 C 
ENDBRANCH  15  16
ENDBRANCH  12  15
ENDBRANCH   6  11
ENDBRANCH   1   5
BRANCH   2  18
HETATM   18  C   UNL     1      -4.012   2.063 -31.455  1.00  0.00     0.037 A 
HETATM   19  C   UNL     1      -3.795   0.810 -32.021  1.00  0.00     0.075 A 
HETATM   20  C   UNL     1      -4.584  -0.235 -31.587  1.00  0.00     0.165 A 
HETATM   21  N   UNL     1      -5.546  -0.117 -30.647  1.00  0.00    -0.237 NA
HETATM   22  C   UNL     1      -5.744   1.115 -30.130  1.00  0.00     0.120 A 
HETATM   23  C   UNL     1      -5.012   2.230 -30.496  1.00  0.00     0.036 A 
BRANCH  20  24
HETATM   24  O   UNL     1      -4.344  -1.469 -32.159  1.00  0.00    -0.329 OA
BRANCH  24  25
HETATM   25  C   UNL     1      -4.616  -1.579 -33.571  1.00  0.00     0.130 C 
HETATM   26  C   UNL     1      -4.473  -2.990 -34.203  1.00  0.00     0.032 C 
HETATM   27  C   UNL     1      -5.748  -2.696 -35.012  1.00  0.00     0.005 C 
HETATM   28  C   UNL     1      -6.123  -1.670 -33.930  1.00  0.00     0.032 C 
ENDBRANCH  24  25
ENDBRANCH  20  24
ENDBRANCH   2  18
TORSDOF 7
ENDMDL
