MODEL 1
REMARK VINA RESULT:      -8.1      0.000      0.000
REMARK  5 active torsions:
REMARK  status: ('A' for Active; 'I' for Inactive)
REMARK    1  A    between atoms: C_3  and  N_4 
REMARK       I    between atoms: N_4  and  C_5 
REMARK    2  A    between atoms: C_5  and  C_6 
REMARK    3  A    between atoms: C_6  and  N_7 
REMARK    4  A    between atoms: C_6  and  C_16 
REMARK       I    between atoms: N_7  and  C_8 
REMARK    5  A    between atoms: C_8  and  C_9 
ROOT
HETATM    1  C   UNL     1      -6.189   3.556 -32.828  1.00  0.00     0.210 C 
ENDROOT
BRANCH   1   2
HETATM    2  C   UNL     1      -6.252   2.000 -32.677  1.00  0.00     0.249 C 
HETATM    3  N   UNL     1      -5.888   1.303 -33.817  1.00  0.00    -0.324 N 
HETATM    4  H   UNL     1      -5.502   1.898 -34.550  1.00  0.00     0.169 HD
HETATM    5  O   UNL     1      -6.436   1.505 -31.564  1.00  0.00    -0.270 OA
BRANCH   3   6
HETATM    6  C   UNL     1      -5.605  -0.079 -33.939  1.00  0.00     0.046 A 
HETATM    7  C   UNL     1      -4.454  -0.708 -33.416  1.00  0.00    -0.035 A 
HETATM    8  C   UNL     1      -3.419  -0.029 -32.564  1.00  0.00     0.050 C 
HETATM    9  C   UNL     1      -4.254  -2.083 -33.654  1.00  0.00     0.009 A 
HETATM   10  C   UNL     1      -5.196  -2.845 -34.335  1.00  0.00     0.001 A 
HETATM   11  C   UNL     1      -6.360  -2.246 -34.793  1.00  0.00     0.009 A 
HETATM   12  C   UNL     1      -6.579  -0.871 -34.608  1.00  0.00    -0.035 A 
HETATM   13  C   UNL     1      -7.857  -0.291 -35.161  1.00  0.00     0.050 C 
ENDBRANCH   3   6
ENDBRANCH   1   2
BRANCH   1  14
HETATM   14  N   UNL     1      -7.352   4.130 -33.500  1.00  0.00    -0.338 N 
HETATM   15  C   UNL     1      -8.585   4.366 -32.945  1.00  0.00     0.273 C 
HETATM   16  O   UNL     1      -8.831   4.214 -31.752  1.00  0.00    -0.266 OA
HETATM   17  H   UNL     1      -7.316   4.253 -34.508  1.00  0.00     0.164 HD
BRANCH  15  18
HETATM   18  C   UNL     1      -9.588   4.809 -33.924  1.00  0.00     0.145 A 
HETATM   19  N   UNL     1      -9.316   5.762 -34.841  1.00  0.00    -0.170 NA
HETATM   20  N   UNL     1     -10.457   5.874 -35.545  1.00  0.00    -0.289 N 
HETATM   21  H   UNL     1     -10.492   6.543 -36.307  1.00  0.00     0.188 HD
HETATM   22  C   UNL     1     -11.444   5.037 -35.120  1.00  0.00     0.112 A 
HETATM   23  C   UNL     1     -10.914   4.329 -34.068  1.00  0.00     0.058 A 
ENDBRANCH  15  18
ENDBRANCH   1  14
BRANCH   1  24
HETATM   24  C   UNL     1      -4.829   4.042 -33.335  1.00  0.00    -0.026 A 
HETATM   25  C   UNL     1      -3.616   3.681 -32.726  1.00  0.00     0.010 A 
HETATM   26  C   UNL     1      -2.392   4.143 -33.221  1.00  0.00     0.001 A 
HETATM   27  C   UNL     1      -2.354   4.952 -34.353  1.00  0.00     0.000 A 
HETATM   28  C   UNL     1      -3.538   5.289 -34.999  1.00  0.00     0.001 A 
HETATM   29  C   UNL     1      -4.760   4.831 -34.500  1.00  0.00     0.010 A 
ENDBRANCH   1  24
TORSDOF 5
ENDMDL
MODEL 2
REMARK VINA RESULT:      -8.1      2.408      6.742
REMARK  5 active torsions:
REMARK  status: ('A' for Active; 'I' for Inactive)
REMARK    1  A    between atoms: C_3  and  N_4 
REMARK       I    between atoms: N_4  and  C_5 
REMARK    2  A    between atoms: C_5  and  C_6 
REMARK    3  A    between atoms: C_6  and  N_7 
REMARK    4  A    between atoms: C_6  and  C_16 
REMARK       I    between atoms: N_7  and  C_8 
REMARK    5  A    between atoms: C_8  and  C_9 
ROOT
HETATM    1  C   UNL     1      -6.894  -0.264 -33.194  1.00  0.00     0.210 C 
ENDROOT
BRANCH   1   2
HETATM    2  C   UNL     1      -8.003   0.408 -34.069  1.00  0.00     0.249 C 
HETATM    3  N   UNL     1      -8.901   1.181 -33.352  1.00  0.00    -0.324 N 
HETATM    4  H   UNL     1      -8.635   1.313 -32.376  1.00  0.00     0.169 HD
HETATM    5  O   UNL     1      -7.917   0.365 -35.296  1.00  0.00    -0.270 OA
BRANCH   3   6
HETATM    6  C   UNL     1      -9.853   2.102 -33.855  1.00  0.00     0.046 A 
HETATM    7  C   UNL     1     -11.211   1.798 -34.089  1.00  0.00    -0.035 A 
HETATM    8  C   UNL     1     -11.871   0.493 -33.739  1.00  0.00     0.050 C 
HETATM    9  C   UNL     1     -12.050   2.784 -34.648  1.00  0.00     0.009 A 
HETATM   10  C   UNL     1     -11.583   4.066 -34.913  1.00  0.00     0.001 A 
HETATM   11  C   UNL     1     -10.267   4.389 -34.623  1.00  0.00     0.009 A 
HETATM   12  C   UNL     1      -9.391   3.424 -34.100  1.00  0.00    -0.035 A 
HETATM   13  C   UNL     1      -7.966   3.848 -33.838  1.00  0.00     0.050 C 
ENDBRANCH   3   6
ENDBRANCH   1   2
BRANCH   1  14
HETATM   14  N   UNL     1      -5.888   0.671 -32.696  1.00  0.00    -0.338 N 
HETATM   15  C   UNL     1      -6.009   1.502 -31.611  1.00  0.00     0.273 C 
HETATM   16  O   UNL     1      -6.968   1.480 -30.845  1.00  0.00    -0.266 OA
HETATM   17  H   UNL     1      -5.063   0.841 -33.264  1.00  0.00     0.164 HD
BRANCH  15  18
HETATM   18  C   UNL     1      -4.881   2.432 -31.462  1.00  0.00     0.145 A 
HETATM   19  N   UNL     1      -4.939   3.496 -30.631  1.00  0.00    -0.170 NA
HETATM   20  N   UNL     1      -3.734   4.079 -30.762  1.00  0.00    -0.289 N 
HETATM   21  H   UNL     1      -3.540   4.915 -30.220  1.00  0.00     0.188 HD
HETATM   22  C   UNL     1      -2.910   3.438 -31.637  1.00  0.00     0.112 A 
HETATM   23  C   UNL     1      -3.622   2.362 -32.110  1.00  0.00     0.058 A 
ENDBRANCH  15  18
ENDBRANCH   1  14
BRANCH   1  24
HETATM   24  C   UNL     1      -6.344  -1.547 -33.826  1.00  0.00    -0.026 A 
HETATM   25  C   UNL     1      -4.970  -1.791 -33.979  1.00  0.00     0.010 A 
HETATM   26  C   UNL     1      -4.507  -2.977 -34.560  1.00  0.00     0.001 A 
HETATM   27  C   UNL     1      -5.408  -3.954 -34.973  1.00  0.00     0.000 A 
HETATM   28  C   UNL     1      -6.772  -3.753 -34.794  1.00  0.00     0.001 A 
HETATM   29  C   UNL     1      -7.233  -2.567 -34.219  1.00  0.00     0.010 A 
ENDBRANCH   1  24
TORSDOF 5
ENDMDL
MODEL 3
REMARK VINA RESULT:      -8.1      2.507      5.410
REMARK  5 active torsions:
REMARK  status: ('A' for Active; 'I' for Inactive)
REMARK    1  A    between atoms: C_3  and  N_4 
REMARK       I    between atoms: N_4  and  C_5 
REMARK    2  A    between atoms: C_5  and  C_6 
REMARK    3  A    between atoms: C_6  and  N_7 
REMARK    4  A    between atoms: C_6  and  C_16 
REMARK       I    between atoms: N_7  and  C_8 
REMARK    5  A    between atoms: C_8  and  C_9 
ROOT
HETATM    1  C   UNL     1      -6.576   1.476 -33.554  1.00  0.00     0.210 C 
ENDROOT
BRANCH   1   2
HETATM    2  C   UNL     1      -6.339  -0.059 -33.368  1.00  0.00     0.249 C 
HETATM    3  N   UNL     1      -5.050  -0.474 -33.659  1.00  0.00    -0.324 N 
HETATM    4  H   UNL     1      -4.403   0.296 -33.823  1.00  0.00     0.169 HD
HETATM    5  O   UNL     1      -7.208  -0.747 -32.831  1.00  0.00    -0.270 OA
BRANCH   3   6
HETATM    6  C   UNL     1      -4.451  -1.724 -33.365  1.00  0.00     0.046 A 
HETATM    7  C   UNL     1      -4.654  -2.902 -34.115  1.00  0.00    -0.035 A 
HETATM    8  C   UNL     1      -5.445  -2.982 -35.391  1.00  0.00     0.050 C 
HETATM    9  C   UNL     1      -4.047  -4.101 -33.688  1.00  0.00     0.009 A 
HETATM   10  C   UNL     1      -3.202  -4.133 -32.585  1.00  0.00     0.001 A 
HETATM   11  C   UNL     1      -2.947  -2.965 -31.884  1.00  0.00     0.009 A 
HETATM   12  C   UNL     1      -3.562  -1.757 -32.256  1.00  0.00    -0.035 A 
HETATM   13  C   UNL     1      -3.253  -0.536 -31.425  1.00  0.00     0.050 C 
ENDBRANCH   3   6
ENDBRANCH   1   2
BRANCH   1  14
HETATM   14  N   UNL     1      -5.570   2.311 -32.903  1.00  0.00    -0.338 N 
HETATM   15  C   UNL     1      -5.070   3.502 -33.366  1.00  0.00     0.273 C 
HETATM   16  O   UNL     1      -5.500   4.075 -34.362  1.00  0.00    -0.266 OA
HETATM   17  H   UNL     1      -5.078   1.935 -32.097  1.00  0.00     0.164 HD
BRANCH  15  18
HETATM   18  C   UNL     1      -3.957   4.019 -32.557  1.00  0.00     0.145 A 
HETATM   19  N   UNL     1      -4.141   4.469 -31.297  1.00  0.00    -0.170 NA
HETATM   20  N   UNL     1      -2.909   4.836 -30.898  1.00  0.00    -0.289 N 
HETATM   21  H   UNL     1      -2.797   5.211 -29.961  1.00  0.00     0.188 HD
HETATM   22  C   UNL     1      -1.949   4.641 -31.844  1.00  0.00     0.112 A 
HETATM   23  C   UNL     1      -2.593   4.111 -32.935  1.00  0.00     0.058 A 
ENDBRANCH  15  18
ENDBRANCH   1  14
BRANCH   1  24
HETATM   24  C   UNL     1      -8.031   1.880 -33.300  1.00  0.00    -0.026 A 
HETATM   25  C   UNL     1      -8.455   2.488 -32.106  1.00  0.00     0.010 A 
HETATM   26  C   UNL     1      -9.794   2.845 -31.913  1.00  0.00     0.001 A 
HETATM   27  C   UNL     1     -10.730   2.629 -32.920  1.00  0.00     0.000 A 
HETATM   28  C   UNL     1     -10.327   2.067 -34.126  1.00  0.00     0.001 A 
HETATM   29  C   UNL     1      -8.991   1.706 -34.316  1.00  0.00     0.010 A 
ENDBRANCH   1  24
TORSDOF 5
ENDMDL
MODEL 4
REMARK VINA RESULT:      -7.9      2.645      3.541
REMARK  5 active torsions:
REMARK  status: ('A' for Active; 'I' for Inactive)
REMARK    1  A    between atoms: C_3  and  N_4 
REMARK       I    between atoms: N_4  and  C_5 
REMARK    2  A    between atoms: C_5  and  C_6 
REMARK    3  A    between atoms: C_6  and  N_7 
REMARK    4  A    between atoms: C_6  and  C_16 
REMARK       I    between atoms: N_7  and  C_8 
REMARK    5  A    between atoms: C_8  and  C_9 
ROOT
HETATM    1  C   UNL     1      -5.459   3.205 -31.826  1.00  0.00     0.210 C 
ENDROOT
BRANCH   1   2
HETATM    2  C   UNL     1      -6.064   1.851 -32.323  1.00  0.00     0.249 C 
HETATM    3  N   UNL     1      -5.299   1.203 -33.278  1.00  0.00    -0.324 N 
HETATM    4  H   UNL     1      -4.385   1.631 -33.425  1.00  0.00     0.169 HD
HETATM    5  O   UNL     1      -7.038   1.372 -31.741  1.00  0.00    -0.270 OA
BRANCH   3   6
HETATM    6  C   UNL     1      -5.432  -0.128 -33.744  1.00  0.00     0.046 A 
HETATM    7  C   UNL     1      -6.472  -0.580 -34.584  1.00  0.00    -0.035 A 
HETATM    8  C   UNL     1      -7.527   0.302 -35.193  1.00  0.00     0.050 C 
HETATM    9  C   UNL     1      -6.530  -1.944 -34.934  1.00  0.00     0.009 A 
HETATM   10  C   UNL     1      -5.549  -2.840 -34.523  1.00  0.00     0.001 A 
HETATM   11  C   UNL     1      -4.489  -2.388 -33.753  1.00  0.00     0.009 A 
HETATM   12  C   UNL     1      -4.415  -1.043 -33.354  1.00  0.00    -0.035 A 
HETATM   13  C   UNL     1      -3.244  -0.637 -32.494  1.00  0.00     0.050 C 
ENDBRANCH   3   6
ENDBRANCH   1   2
BRANCH   1  14
HETATM   14  N   UNL     1      -6.434   4.091 -31.196  1.00  0.00    -0.338 N 
HETATM   15  C   UNL     1      -6.242   4.854 -30.072  1.00  0.00     0.273 C 
HETATM   16  O   UNL     1      -5.158   4.965 -29.507  1.00  0.00    -0.266 OA
HETATM   17  H   UNL     1      -7.397   4.057 -31.520  1.00  0.00     0.164 HD
BRANCH  15  18
HETATM   18  C   UNL     1      -7.467   5.518 -29.603  1.00  0.00     0.145 A 
HETATM   19  N   UNL     1      -8.691   5.134 -30.024  1.00  0.00    -0.170 NA
HETATM   20  N   UNL     1      -9.533   5.956 -29.372  1.00  0.00    -0.289 N 
HETATM   21  H   UNL     1     -10.531   5.851 -29.531  1.00  0.00     0.188 HD
HETATM   22  C   UNL     1      -8.904   6.846 -28.555  1.00  0.00     0.112 A 
HETATM   23  C   UNL     1      -7.560   6.590 -28.679  1.00  0.00     0.058 A 
ENDBRANCH  15  18
ENDBRANCH   1  14
BRANCH   1  24
HETATM   24  C   UNL     1      -4.553   3.862 -32.872  1.00  0.00    -0.026 A 
HETATM   25  C   UNL     1      -5.054   4.518 -34.008  1.00  0.00     0.010 A 
HETATM   26  C   UNL     1      -4.193   5.108 -34.941  1.00  0.00     0.001 A 
HETATM   27  C   UNL     1      -2.816   5.079 -34.740  1.00  0.00     0.000 A 
HETATM   28  C   UNL     1      -2.298   4.472 -33.602  1.00  0.00     0.001 A 
HETATM   29  C   UNL     1      -3.158   3.878 -32.675  1.00  0.00     0.010 A 
ENDBRANCH   1  24
TORSDOF 5
ENDMDL
MODEL 5
REMARK VINA RESULT:      -7.9      1.727      2.243
REMARK  5 active torsions:
REMARK  status: ('A' for Active; 'I' for Inactive)
REMARK    1  A    between atoms: C_3  and  N_4 
REMARK       I    between atoms: N_4  and  C_5 
REMARK    2  A    between atoms: C_5  and  C_6 
REMARK    3  A    between atoms: C_6  and  N_7 
REMARK    4  A    between atoms: C_6  and  C_16 
REMARK       I    between atoms: N_7  and  C_8 
REMARK    5  A    between atoms: C_8  and  C_9 
ROOT
HETATM    1  C   UNL     1      -7.131   2.218 -32.553  1.00  0.00     0.210 C 
ENDROOT
BRANCH   1   2
HETATM    2  C   UNL     1      -6.703   0.739 -32.281  1.00  0.00     0.249 C 
HETATM    3  N   UNL     1      -5.740   0.257 -33.152  1.00  0.00    -0.324 N 
HETATM    4  H   UNL     1      -5.348   0.974 -33.761  1.00  0.00     0.169 HD
HETATM    5  O   UNL     1      -7.088   0.173 -31.257  1.00  0.00    -0.270 OA
BRANCH   3   6
HETATM    6  C   UNL     1      -4.973  -0.929 -33.033  1.00  0.00     0.046 A 
HETATM    7  C   UNL     1      -3.933  -1.116 -32.098  1.00  0.00    -0.035 A 
HETATM    8  C   UNL     1      -3.558  -0.133 -31.023  1.00  0.00     0.050 C 
HETATM    9  C   UNL     1      -3.201  -2.321 -32.115  1.00  0.00     0.009 A 
HETATM   10  C   UNL     1      -3.525  -3.352 -32.989  1.00  0.00     0.001 A 
HETATM   11  C   UNL     1      -4.589  -3.199 -33.865  1.00  0.00     0.009 A 
HETATM   12  C   UNL     1      -5.318  -1.999 -33.903  1.00  0.00    -0.035 A 
HETATM   13  C   UNL     1      -6.444  -1.902 -34.904  1.00  0.00     0.050 C 
ENDBRANCH   3   6
ENDBRANCH   1   2
BRANCH   1  14
HETATM   14  N   UNL     1      -8.333   2.342 -33.374  1.00  0.00    -0.338 N 
HETATM   15  C   UNL     1      -9.625   2.448 -32.924  1.00  0.00     0.273 C 
HETATM   16  O   UNL     1      -9.922   2.558 -31.738  1.00  0.00    -0.266 OA
HETATM   17  H   UNL     1      -8.248   2.207 -34.377  1.00  0.00     0.164 HD
BRANCH  15  18
HETATM   18  C   UNL     1     -10.622   2.402 -34.003  1.00  0.00     0.145 A 
HETATM   19  N   UNL     1     -10.652   3.329 -34.984  1.00  0.00    -0.170 NA
HETATM   20  N   UNL     1     -11.675   2.942 -35.768  1.00  0.00    -0.289 N 
HETATM   21  H   UNL     1     -11.891   3.498 -36.590  1.00  0.00     0.188 HD
HETATM   22  C   UNL     1     -12.298   1.812 -35.333  1.00  0.00     0.112 A 
HETATM   23  C   UNL     1     -11.640   1.433 -34.189  1.00  0.00     0.058 A 
ENDBRANCH  15  18
ENDBRANCH   1  14
BRANCH   1  24
HETATM   24  C   UNL     1      -5.953   3.103 -32.971  1.00  0.00    -0.026 A 
HETATM   25  C   UNL     1      -5.974   3.901 -34.127  1.00  0.00     0.010 A 
HETATM   26  C   UNL     1      -4.878   4.699 -34.474  1.00  0.00     0.001 A 
HETATM   27  C   UNL     1      -3.751   4.736 -33.658  1.00  0.00     0.000 A 
HETATM   28  C   UNL     1      -3.723   3.987 -32.488  1.00  0.00     0.001 A 
HETATM   29  C   UNL     1      -4.816   3.187 -32.144  1.00  0.00     0.010 A 
ENDBRANCH   1  24
TORSDOF 5
ENDMDL
MODEL 6
REMARK VINA RESULT:      -7.9      2.440      6.668
REMARK  5 active torsions:
REMARK  status: ('A' for Active; 'I' for Inactive)
REMARK    1  A    between atoms: C_3  and  N_4 
REMARK       I    between atoms: N_4  and  C_5 
REMARK    2  A    between atoms: C_5  and  C_6 
REMARK    3  A    between atoms: C_6  and  N_7 
REMARK    4  A    between atoms: C_6  and  C_16 
REMARK       I    between atoms: N_7  and  C_8 
REMARK    5  A    between atoms: C_8  and  C_9 
ROOT
HETATM    1  C   UNL     1      -5.629   1.212 -32.649  1.00  0.00     0.210 C 
ENDROOT
BRANCH   1   2
HETATM    2  C   UNL     1      -6.971   1.920 -33.027  1.00  0.00     0.249 C 
HETATM    3  N   UNL     1      -7.990   1.736 -32.108  1.00  0.00    -0.324 N 
HETATM    4  H   UNL     1      -7.683   1.279 -31.249  1.00  0.00     0.169 HD
HETATM    5  O   UNL     1      -6.996   2.706 -33.975  1.00  0.00    -0.270 OA
BRANCH   3   6
HETATM    6  C   UNL     1      -9.224   2.427 -32.025  1.00  0.00     0.046 A 
HETATM    7  C   UNL     1     -10.334   2.179 -32.861  1.00  0.00    -0.035 A 
HETATM    8  C   UNL     1     -10.410   1.080 -33.884  1.00  0.00     0.050 C 
HETATM    9  C   UNL     1     -11.491   2.974 -32.721  1.00  0.00     0.009 A 
HETATM   10  C   UNL     1     -11.584   3.950 -31.736  1.00  0.00     0.001 A 
HETATM   11  C   UNL     1     -10.521   4.152 -30.869  1.00  0.00     0.009 A 
HETATM   12  C   UNL     1      -9.338   3.405 -31.000  1.00  0.00    -0.035 A 
HETATM   13  C   UNL     1      -8.217   3.705 -30.035  1.00  0.00     0.050 C 
ENDBRANCH   3   6
ENDBRANCH   1   2
BRANCH   1  14
HETATM   14  N   UNL     1      -4.460   2.086 -32.721  1.00  0.00    -0.338 N 
HETATM   15  C   UNL     1      -4.056   2.993 -31.774  1.00  0.00     0.273 C 
HETATM   16  O   UNL     1      -4.588   3.105 -30.673  1.00  0.00    -0.266 OA
HETATM   17  H   UNL     1      -3.956   2.146 -33.601  1.00  0.00     0.164 HD
BRANCH  15  18
HETATM   18  C   UNL     1      -2.929   3.828 -32.212  1.00  0.00     0.145 A 
HETATM   19  N   UNL     1      -1.874   4.080 -31.407  1.00  0.00    -0.170 NA
HETATM   20  N   UNL     1      -1.067   4.852 -32.158  1.00  0.00    -0.289 N 
HETATM   21  H   UNL     1      -0.191   5.170 -31.755  1.00  0.00     0.188 HD
HETATM   22  C   UNL     1      -1.558   5.104 -33.403  1.00  0.00     0.112 A 
HETATM   23  C   UNL     1      -2.766   4.454 -33.474  1.00  0.00     0.058 A 
ENDBRANCH  15  18
ENDBRANCH   1  14
BRANCH   1  24
HETATM   24  C   UNL     1      -5.473  -0.152 -33.327  1.00  0.00    -0.026 A 
HETATM   25  C   UNL     1      -4.310  -0.931 -33.212  1.00  0.00     0.010 A 
HETATM   26  C   UNL     1      -4.207  -2.175 -33.846  1.00  0.00     0.001 A 
HETATM   27  C   UNL     1      -5.276  -2.677 -34.582  1.00  0.00     0.000 A 
HETATM   28  C   UNL     1      -6.453  -1.944 -34.676  1.00  0.00     0.001 A 
HETATM   29  C   UNL     1      -6.553  -0.700 -34.048  1.00  0.00     0.010 A 
ENDBRANCH   1  24
TORSDOF 5
ENDMDL
MODEL 7
REMARK VINA RESULT:      -7.8     16.218     17.835
REMARK  5 active torsions:
REMARK  status: ('A' for Active; 'I' for Inactive)
REMARK    1  A    between atoms: C_3  and  N_4 
REMARK       I    between atoms: N_4  and  C_5 
REMARK    2  A    between atoms: C_5  and  C_6 
REMARK    3  A    between atoms: C_6  and  N_7 
REMARK    4  A    between atoms: C_6  and  C_16 
REMARK       I    between atoms: N_7  and  C_8 
REMARK    5  A    between atoms: C_8  and  C_9 
ROOT
HETATM    1  C   UNL     1      -6.192 -13.236 -36.633  1.00  0.00     0.210 C 
ENDROOT
BRANCH   1   2
HETATM    2  C   UNL     1      -4.776 -13.248 -37.297  1.00  0.00     0.249 C 
HETATM    3  N   UNL     1      -4.591 -14.264 -38.221  1.00  0.00    -0.324 N 
HETATM    4  H   UNL     1      -5.446 -14.776 -38.438  1.00  0.00     0.169 HD
HETATM    5  O   UNL     1      -4.009 -12.304 -37.110  1.00  0.00    -0.270 OA
BRANCH   3   6
HETATM    6  C   UNL     1      -3.539 -14.406 -39.160  1.00  0.00     0.046 A 
HETATM    7  C   UNL     1      -2.230 -14.822 -38.834  1.00  0.00    -0.035 A 
HETATM    8  C   UNL     1      -1.788 -15.277 -37.471  1.00  0.00     0.050 C 
HETATM    9  C   UNL     1      -1.252 -14.869 -39.848  1.00  0.00     0.009 A 
HETATM   10  C   UNL     1      -1.565 -14.578 -41.171  1.00  0.00     0.001 A 
HETATM   11  C   UNL     1      -2.865 -14.234 -41.507  1.00  0.00     0.009 A 
HETATM   12  C   UNL     1      -3.860 -14.140 -40.519  1.00  0.00    -0.035 A 
HETATM   13  C   UNL     1      -5.243 -13.732 -40.963  1.00  0.00     0.050 C 
ENDBRANCH   3   6
ENDBRANCH   1   2
BRANCH   1  14
HETATM   14  N   UNL     1      -6.288 -14.065 -35.434  1.00  0.00    -0.338 N 
HETATM   15  C   UNL     1      -6.932 -13.744 -34.266  1.00  0.00     0.273 C 
HETATM   16  O   UNL     1      -7.614 -12.733 -34.124  1.00  0.00    -0.266 OA
HETATM   17  H   UNL     1      -5.721 -14.907 -35.383  1.00  0.00     0.164 HD
BRANCH  15  18
HETATM   18  C   UNL     1      -6.715 -14.725 -33.193  1.00  0.00     0.145 A 
HETATM   19  N   UNL     1      -5.887 -14.476 -32.156  1.00  0.00    -0.170 NA
HETATM   20  N   UNL     1      -5.967 -15.585 -31.399  1.00  0.00    -0.289 N 
HETATM   21  H   UNL     1      -5.420 -15.628 -30.546  1.00  0.00     0.188 HD
HETATM   22  C   UNL     1      -6.808 -16.530 -31.905  1.00  0.00     0.112 A 
HETATM   23  C   UNL     1      -7.312 -16.005 -33.069  1.00  0.00     0.058 A 
ENDBRANCH  15  18
ENDBRANCH   1  14
BRANCH   1  24
HETATM   24  C   UNL     1      -7.320 -13.419 -37.652  1.00  0.00    -0.026 A 
HETATM   25  C   UNL     1      -8.042 -14.617 -37.782  1.00  0.00     0.010 A 
HETATM   26  C   UNL     1      -9.068 -14.744 -38.725  1.00  0.00     0.001 A 
HETATM   27  C   UNL     1      -9.414 -13.668 -39.535  1.00  0.00     0.000 A 
HETATM   28  C   UNL     1      -8.742 -12.458 -39.397  1.00  0.00     0.001 A 
HETATM   29  C   UNL     1      -7.714 -12.333 -38.460  1.00  0.00     0.010 A 
ENDBRANCH   1  24
TORSDOF 5
ENDMDL
MODEL 8
REMARK VINA RESULT:      -7.8      2.960      5.839
REMARK  5 active torsions:
REMARK  status: ('A' for Active; 'I' for Inactive)
REMARK    1  A    between atoms: C_3  and  N_4 
REMARK       I    between atoms: N_4  and  C_5 
REMARK    2  A    between atoms: C_5  and  C_6 
REMARK    3  A    between atoms: C_6  and  N_7 
REMARK    4  A    between atoms: C_6  and  C_16 
REMARK       I    between atoms: N_7  and  C_8 
REMARK    5  A    between atoms: C_8  and  C_9 
ROOT
HETATM    1  C   UNL     1      -7.330   0.199 -33.582  1.00  0.00     0.210 C 
ENDROOT
BRANCH   1   2
HETATM    2  C   UNL     1      -6.819   0.856 -32.258  1.00  0.00     0.249 C 
HETATM    3  N   UNL     1      -6.749   2.239 -32.300  1.00  0.00    -0.324 N 
HETATM    4  H   UNL     1      -7.168   2.641 -33.138  1.00  0.00     0.169 HD
HETATM    5  O   UNL     1      -6.687   0.164 -31.248  1.00  0.00    -0.270 OA
BRANCH   3   6
HETATM    6  C   UNL     1      -6.568   3.135 -31.218  1.00  0.00     0.046 A 
HETATM    7  C   UNL     1      -5.321   3.659 -30.815  1.00  0.00    -0.035 A 
HETATM    8  C   UNL     1      -4.021   3.431 -31.537  1.00  0.00     0.050 C 
HETATM    9  C   UNL     1      -5.260   4.498 -29.684  1.00  0.00     0.009 A 
HETATM   10  C   UNL     1      -6.410   4.872 -28.997  1.00  0.00     0.001 A 
HETATM   11  C   UNL     1      -7.645   4.414 -29.429  1.00  0.00     0.009 A 
HETATM   12  C   UNL     1      -7.743   3.546 -30.529  1.00  0.00    -0.035 A 
HETATM   13  C   UNL     1      -9.121   3.071 -30.919  1.00  0.00     0.050 C 
ENDBRANCH   3   6
ENDBRANCH   1   2
BRANCH   1  14
HETATM   14  N   UNL     1      -8.786   0.136 -33.685  1.00  0.00    -0.338 N 
HETATM   15  C   UNL     1      -9.627   1.163 -34.031  1.00  0.00     0.273 C 
HETATM   16  O   UNL     1      -9.234   2.263 -34.408  1.00  0.00    -0.266 OA
HETATM   17  H   UNL     1      -9.259  -0.697 -33.345  1.00  0.00     0.164 HD
BRANCH  15  18
HETATM   18  C   UNL     1     -11.050   0.821 -33.894  1.00  0.00     0.145 A 
HETATM   19  N   UNL     1     -11.464  -0.214 -33.131  1.00  0.00    -0.170 NA
HETATM   20  N   UNL     1     -12.804  -0.193 -33.250  1.00  0.00    -0.289 N 
HETATM   21  H   UNL     1     -13.344  -0.893 -32.751  1.00  0.00     0.188 HD
HETATM   22  C   UNL     1     -13.264   0.806 -34.052  1.00  0.00     0.112 A 
HETATM   23  C   UNL     1     -12.153   1.486 -34.488  1.00  0.00     0.058 A 
ENDBRANCH  15  18
ENDBRANCH   1  14
BRANCH   1  24
HETATM   24  C   UNL     1      -6.590  -1.099 -33.916  1.00  0.00    -0.026 A 
HETATM   25  C   UNL     1      -7.243  -2.247 -34.394  1.00  0.00     0.010 A 
HETATM   26  C   UNL     1      -6.531  -3.414 -34.691  1.00  0.00     0.001 A 
HETATM   27  C   UNL     1      -5.148  -3.448 -34.544  1.00  0.00     0.000 A 
HETATM   28  C   UNL     1      -4.473  -2.312 -34.112  1.00  0.00     0.001 A 
HETATM   29  C   UNL     1      -5.186  -1.148 -33.811  1.00  0.00     0.010 A 
ENDBRANCH   1  24
TORSDOF 5
ENDMDL
MODEL 9
REMARK VINA RESULT:      -7.8      2.937      5.959
REMARK  5 active torsions:
REMARK  status: ('A' for Active; 'I' for Inactive)
REMARK    1  A    between atoms: C_3  and  N_4 
REMARK       I    between atoms: N_4  and  C_5 
REMARK    2  A    between atoms: C_5  and  C_6 
REMARK    3  A    between atoms: C_6  and  N_7 
REMARK    4  A    between atoms: C_6  and  C_16 
REMARK       I    between atoms: N_7  and  C_8 
REMARK    5  A    between atoms: C_8  and  C_9 
ROOT
HETATM    1  C   UNL     1      -7.406   0.537 -33.568  1.00  0.00     0.210 C 
ENDROOT
BRANCH   1   2
HETATM    2  C   UNL     1      -7.037   1.139 -32.173  1.00  0.00     0.249 C 
HETATM    3  N   UNL     1      -6.880   2.515 -32.170  1.00  0.00    -0.324 N 
HETATM    4  H   UNL     1      -7.159   2.956 -33.047  1.00  0.00     0.169 HD
HETATM    5  O   UNL     1      -7.081   0.423 -31.172  1.00  0.00    -0.270 OA
BRANCH   3   6
HETATM    6  C   UNL     1      -6.792   3.380 -31.052  1.00  0.00     0.046 A 
HETATM    7  C   UNL     1      -7.899   3.830 -30.301  1.00  0.00    -0.035 A 
HETATM    8  C   UNL     1      -9.317   3.375 -30.508  1.00  0.00     0.050 C 
HETATM    9  C   UNL     1      -7.689   4.738 -29.243  1.00  0.00     0.009 A 
HETATM   10  C   UNL     1      -6.410   5.147 -28.883  1.00  0.00     0.001 A 
HETATM   11  C   UNL     1      -5.314   4.656 -29.575  1.00  0.00     0.009 A 
HETATM   12  C   UNL     1      -5.485   3.779 -30.659  1.00  0.00    -0.035 A 
HETATM   13  C   UNL     1      -4.242   3.312 -31.377  1.00  0.00     0.050 C 
ENDBRANCH   3   6
ENDBRANCH   1   2
BRANCH   1  14
HETATM   14  N   UNL     1      -8.844   0.471 -33.820  1.00  0.00    -0.338 N 
HETATM   15  C   UNL     1      -9.675   1.525 -34.104  1.00  0.00     0.273 C 
HETATM   16  O   UNL     1      -9.276   2.671 -34.289  1.00  0.00    -0.266 OA
HETATM   17  H   UNL     1      -9.325  -0.407 -33.644  1.00  0.00     0.164 HD
BRANCH  15  18
HETATM   18  C   UNL     1     -11.095   1.149 -34.154  1.00  0.00     0.145 A 
HETATM   19  N   UNL     1     -11.612   0.210 -33.332  1.00  0.00    -0.170 NA
HETATM   20  N   UNL     1     -12.914   0.163 -33.669  1.00  0.00    -0.289 N 
HETATM   21  H   UNL     1     -13.519  -0.484 -33.172  1.00  0.00     0.188 HD
HETATM   22  C   UNL     1     -13.251   1.028 -34.666  1.00  0.00     0.112 A 
HETATM   23  C   UNL     1     -12.094   1.686 -35.005  1.00  0.00     0.058 A 
ENDBRANCH  15  18
ENDBRANCH   1  14
BRANCH   1  24
HETATM   24  C   UNL     1      -6.623  -0.742 -33.881  1.00  0.00    -0.026 A 
HETATM   25  C   UNL     1      -7.231  -1.900 -34.392  1.00  0.00     0.010 A 
HETATM   26  C   UNL     1      -6.480  -3.049 -34.668  1.00  0.00     0.001 A 
HETATM   27  C   UNL     1      -5.103  -3.051 -34.467  1.00  0.00     0.000 A 
HETATM   28  C   UNL     1      -4.473  -1.903 -34.002  1.00  0.00     0.001 A 
HETATM   29  C   UNL     1      -5.223  -0.759 -33.722  1.00  0.00     0.010 A 
ENDBRANCH   1  24
TORSDOF 5
ENDMDL
MODEL 10
REMARK VINA RESULT:      -7.7      2.290      6.322
REMARK  5 active torsions:
REMARK  status: ('A' for Active; 'I' for Inactive)
REMARK    1  A    between atoms: C_3  and  N_4 
REMARK       I    between atoms: N_4  and  C_5 
REMARK    2  A    between atoms: C_5  and  C_6 
REMARK    3  A    between atoms: C_6  and  N_7 
REMARK    4  A    between atoms: C_6  and  C_16 
REMARK       I    between atoms: N_7  and  C_8 
REMARK    5  A    between atoms: C_8  and  C_9 
ROOT
HETATM    1  C   UNL     1      -5.109   1.135 -32.219  1.00  0.00     0.210 C 
ENDROOT
BRANCH   1   2
HETATM    2  C   UNL     1      -6.431   1.541 -31.488  1.00  0.00     0.249 C 
HETATM    3  N   UNL     1      -7.054   2.659 -32.018  1.00  0.00    -0.324 N 
HETATM    4  H   UNL     1      -6.636   2.980 -32.892  1.00  0.00     0.169 HD
HETATM    5  O   UNL     1      -6.916   0.785 -30.645  1.00  0.00    -0.270 OA
BRANCH   3   6
HETATM    6  C   UNL     1      -8.362   3.134 -31.756  1.00  0.00     0.046 A 
HETATM    7  C   UNL     1      -8.726   3.885 -30.618  1.00  0.00    -0.035 A 
HETATM    8  C   UNL     1      -7.763   4.383 -29.575  1.00  0.00     0.050 C 
HETATM    9  C   UNL     1     -10.075   4.252 -30.438  1.00  0.00     0.009 A 
HETATM   10  C   UNL     1     -11.042   3.945 -31.390  1.00  0.00     0.001 A 
HETATM   11  C   UNL     1     -10.678   3.266 -32.541  1.00  0.00     0.009 A 
HETATM   12  C   UNL     1      -9.350   2.851 -32.739  1.00  0.00    -0.035 A 
HETATM   13  C   UNL     1      -9.041   2.092 -34.006  1.00  0.00     0.050 C 
ENDBRANCH   3   6
ENDBRANCH   1   2
BRANCH   1  14
HETATM   14  N   UNL     1      -4.419   2.255 -32.854  1.00  0.00    -0.338 N 
HETATM   15  C   UNL     1      -3.359   2.959 -32.344  1.00  0.00     0.273 C 
HETATM   16  O   UNL     1      -2.780   2.654 -31.305  1.00  0.00    -0.266 OA
HETATM   17  H   UNL     1      -4.826   2.658 -33.694  1.00  0.00     0.164 HD
BRANCH  15  18
HETATM   18  C   UNL     1      -2.990   4.127 -33.158  1.00  0.00     0.145 A 
HETATM   19  N   UNL     1      -3.872   4.723 -33.989  1.00  0.00    -0.170 NA
HETATM   20  N   UNL     1      -3.175   5.738 -34.531  1.00  0.00    -0.289 N 
HETATM   21  H   UNL     1      -3.642   6.341 -35.201  1.00  0.00     0.188 HD
HETATM   22  C   UNL     1      -1.890   5.817 -34.085  1.00  0.00     0.112 A 
HETATM   23  C   UNL     1      -1.735   4.786 -33.190  1.00  0.00     0.058 A 
ENDBRANCH  15  18
ENDBRANCH   1  14
BRANCH   1  24
HETATM   24  C   UNL     1      -5.279  -0.114 -33.089  1.00  0.00    -0.026 A 
HETATM   25  C   UNL     1      -6.336  -0.267 -34.001  1.00  0.00     0.010 A 
HETATM   26  C   UNL     1      -6.456  -1.423 -34.781  1.00  0.00     0.001 A 
HETATM   27  C   UNL     1      -5.505  -2.434 -34.686  1.00  0.00     0.000 A 
HETATM   28  C   UNL     1      -4.427  -2.288 -33.821  1.00  0.00     0.001 A 
HETATM   29  C   UNL     1      -4.311  -1.136 -33.039  1.00  0.00     0.010 A 
ENDBRANCH   1  24
TORSDOF 5
ENDMDL
