MODEL 1
REMARK VINA RESULT:      -9.8      0.000      0.000
REMARK  11 active torsions:
REMARK  status: ('A' for Active; 'I' for Inactive)
REMARK    1  A    between atoms: C_2  and  N_3 
REMARK    2  A    between atoms: N_3  and  C_4 
REMARK    3  A    between atoms: C_6  and  N_7 
REMARK    4  A    between atoms: N_10  and  C_12 
REMARK    5  A    between atoms: C_25  and  N_26 
REMARK    6  A    between atoms: N_26  and  C_27 
REMARK    7  A    between atoms: C_27  and  C_28 
REMARK    8  A    between atoms: C_28  and  C_29 
REMARK    9  A    between atoms: C_29  and  O_30 
REMARK   10  A    between atoms: C_34  and  O_35 
REMARK   11  A    between atoms: O_35  and  C_36 
ROOT
HETATM    1  C   UNL     1      -3.912   1.793 -31.111  1.00  0.00     0.758 C 
HETATM    2  N   UNL     1      -3.118   2.781 -31.514  1.00  0.00     0.131 NA
HETATM    3  C   UNL     1      -3.545   4.012 -31.283  1.00  0.00     0.756 C 
HETATM    4  N   UNL     1      -4.636   4.284 -30.585  1.00  0.00     0.131 NA
HETATM    5  C   UNL     1      -5.389   3.248 -30.248  1.00  0.00     0.754 C 
HETATM    6  N   UNL     1      -5.077   1.985 -30.509  1.00  0.00     0.131 NA
ENDROOT
BRANCH   3   7
HETATM    7  N   UNL     1      -2.812   5.084 -31.793  1.00  0.00    -0.210 N 
HETATM    8  C   UNL     1      -1.354   4.949 -31.734  1.00  0.00     0.169 C 
HETATM    9  C   UNL     1      -0.785   5.365 -30.363  1.00  0.00     0.256 C 
HETATM   10  N   UNL     1      -1.263   6.789 -29.982  1.00  0.00    -0.059 N 
HETATM   11  H   UNL     1      -0.962   7.393 -30.757  1.00  0.00     0.281 HD
HETATM   12  C   UNL     1      -2.811   6.819 -30.015  1.00  0.00     0.256 C 
HETATM   13  C   UNL     1      -3.341   6.392 -31.406  1.00  0.00     0.169 C 
BRANCH  10  14
HETATM   14  C   UNL     1      -0.608   7.379 -28.715  1.00  0.00     0.129 C 
HETATM   15  C   UNL     1       0.841   7.830 -29.046  1.00  0.00     0.043 C 
HETATM   16  C   UNL     1       1.508   8.461 -27.811  1.00  0.00    -0.012 C 
HETATM   17  C   UNL     1       1.532   7.426 -26.672  1.00  0.00     0.009 C 
HETATM   18  C   UNL     1       0.702   9.689 -27.370  1.00  0.00     0.009 C 
HETATM   19  C   UNL     1       0.097   6.996 -26.319  1.00  0.00    -0.012 C 
HETATM   20  C   UNL     1      -0.568   6.360 -27.557  1.00  0.00     0.043 C 
HETATM   21  C   UNL     1      -0.702   8.235 -25.884  1.00  0.00     0.009 C 
HETATM   22  C   UNL     1      -0.732   9.271 -27.021  1.00  0.00    -0.012 C 
HETATM   23  C   UNL     1      -1.396   8.637 -28.257  1.00  0.00     0.043 C 
ENDBRANCH  10  14
ENDBRANCH   3   7
BRANCH   1  24
HETATM   24  N   UNL     1      -3.545   0.472 -31.360  1.00  0.00    -0.187 N 
HETATM   25  H   UNL     1      -2.587   0.294 -31.083  1.00  0.00     0.184 HD
BRANCH  24  26
HETATM   26  C   UNL     1      -4.060  -0.434 -32.300  1.00  0.00     0.049 A 
HETATM   27  C   UNL     1      -3.529  -1.714 -32.488  1.00  0.00     0.033 A 
HETATM   28  C   UNL     1      -4.042  -2.580 -33.460  1.00  0.00     0.039 A 
HETATM   29  C   UNL     1      -5.086  -2.170 -34.286  1.00  0.00     0.076 A 
HETATM   30  C   UNL     1      -5.629  -0.898 -34.100  1.00  0.00     0.039 A 
HETATM   31  C   UNL     1      -5.124  -0.040 -33.116  1.00  0.00     0.033 A 
BRANCH  29  32
HETATM   32  O   UNL     1      -5.660  -2.898 -35.287  1.00  0.00    -0.270 OA
BRANCH  32  33
HETATM   33  C   UNL     1      -6.300  -4.123 -34.949  1.00  0.00     0.447 C 
HETATM   34 CL   UNL     1      -5.103  -5.305 -34.430  1.00  0.00    -0.014 Cl
HETATM   35  F   UNL     1      -7.201  -3.911 -33.951  1.00  0.00    -0.159 F 
HETATM   36  F   UNL     1      -6.986  -4.592 -36.022  1.00  0.00    -0.159 F 
ENDBRANCH  32  33
ENDBRANCH  29  32
ENDBRANCH  24  26
ENDBRANCH   1  24
BRANCH   5  37
HETATM   37  N   UNL     1      -6.585   3.551 -29.626  1.00  0.00    -0.221 N 
HETATM   38  H   UNL     1      -7.274   2.841 -29.848  1.00  0.00     0.177 HD
BRANCH  37  39
HETATM   39  C   UNL     1      -7.057   4.925 -29.636  1.00  0.00     0.140 C 
BRANCH  39  40
HETATM   40  C   UNL     1      -7.161   5.482 -28.217  1.00  0.00     0.046 C 
BRANCH  40  41
HETATM   41  C   UNL     1      -5.858   6.041 -27.655  1.00  0.00     0.165 C 
BRANCH  41  42
HETATM   42  O   UNL     1      -4.930   5.001 -27.375  1.00  0.00    -0.401 OA
HETATM   43  H   UNL     1      -5.191   4.260 -27.956  1.00  0.00     0.209 HD
ENDBRANCH  41  42
ENDBRANCH  40  41
ENDBRANCH  39  40
ENDBRANCH  37  39
ENDBRANCH   5  37
TORSDOF 11
ENDMDL
MODEL 2
REMARK VINA RESULT:      -9.7      1.296      2.130
REMARK  11 active torsions:
REMARK  status: ('A' for Active; 'I' for Inactive)
REMARK    1  A    between atoms: C_2  and  N_3 
REMARK    2  A    between atoms: N_3  and  C_4 
REMARK    3  A    between atoms: C_6  and  N_7 
REMARK    4  A    between atoms: N_10  and  C_12 
REMARK    5  A    between atoms: C_25  and  N_26 
REMARK    6  A    between atoms: N_26  and  C_27 
REMARK    7  A    between atoms: C_27  and  C_28 
REMARK    8  A    between atoms: C_28  and  C_29 
REMARK    9  A    between atoms: C_29  and  O_30 
REMARK   10  A    between atoms: C_34  and  O_35 
REMARK   11  A    between atoms: O_35  and  C_36 
ROOT
HETATM    1  C   UNL     1      -5.328   3.316 -32.804  1.00  0.00     0.758 C 
HETATM    2  N   UNL     1      -4.255   4.013 -33.169  1.00  0.00     0.131 NA
HETATM    3  C   UNL     1      -3.646   4.699 -32.215  1.00  0.00     0.756 C 
HETATM    4  N   UNL     1      -3.981   4.623 -30.937  1.00  0.00     0.131 NA
HETATM    5  C   UNL     1      -5.079   3.936 -30.659  1.00  0.00     0.754 C 
HETATM    6  N   UNL     1      -5.797   3.284 -31.565  1.00  0.00     0.131 NA
ENDROOT
BRANCH   3   7
HETATM    7  N   UNL     1      -2.591   5.543 -32.565  1.00  0.00    -0.210 N 
HETATM    8  C   UNL     1      -1.257   5.110 -32.140  1.00  0.00     0.169 C 
HETATM    9  C   UNL     1      -0.947   5.520 -30.686  1.00  0.00     0.256 C 
HETATM   10  N   UNL     1      -1.168   7.041 -30.488  1.00  0.00    -0.059 N 
HETATM   11  H   UNL     1      -0.565   7.496 -31.185  1.00  0.00     0.281 HD
HETATM   12  C   UNL     1      -2.617   7.392 -30.906  1.00  0.00     0.256 C 
HETATM   13  C   UNL     1      -2.887   6.962 -32.369  1.00  0.00     0.169 C 
BRANCH  10  14
HETATM   14  C   UNL     1      -0.714   7.593 -29.120  1.00  0.00     0.129 C 
HETATM   15  C   UNL     1      -1.176   6.627 -27.995  1.00  0.00     0.043 C 
HETATM   16  C   UNL     1      -0.702   7.129 -26.619  1.00  0.00    -0.012 C 
HETATM   17  C   UNL     1      -1.285   8.531 -26.372  1.00  0.00     0.009 C 
HETATM   18  C   UNL     1       0.831   7.200 -26.605  1.00  0.00     0.009 C 
HETATM   19  C   UNL     1      -0.808   9.503 -27.467  1.00  0.00    -0.012 C 
HETATM   20  C   UNL     1      -1.288   8.999 -28.844  1.00  0.00     0.043 C 
HETATM   21  C   UNL     1       0.728   9.562 -27.446  1.00  0.00     0.009 C 
HETATM   22  C   UNL     1       1.315   8.162 -27.698  1.00  0.00    -0.012 C 
HETATM   23  C   UNL     1       0.836   7.659 -29.072  1.00  0.00     0.043 C 
ENDBRANCH  10  14
ENDBRANCH   3   7
BRANCH   1  24
HETATM   24  N   UNL     1      -6.045   2.605 -33.765  1.00  0.00    -0.187 N 
HETATM   25  H   UNL     1      -6.799   3.159 -34.152  1.00  0.00     0.184 HD
BRANCH  24  26
HETATM   26  C   UNL     1      -6.202   1.218 -33.913  1.00  0.00     0.049 A 
HETATM   27  C   UNL     1      -7.100   0.652 -34.822  1.00  0.00     0.033 A 
HETATM   28  C   UNL     1      -7.260  -0.736 -34.920  1.00  0.00     0.039 A 
HETATM   29  C   UNL     1      -6.539  -1.587 -34.085  1.00  0.00     0.076 A 
HETATM   30  C   UNL     1      -5.634  -1.031 -33.180  1.00  0.00     0.039 A 
HETATM   31  C   UNL     1      -5.464   0.357 -33.096  1.00  0.00     0.033 A 
BRANCH  29  32
HETATM   32  O   UNL     1      -6.618  -2.948 -34.054  1.00  0.00    -0.270 OA
BRANCH  32  33
HETATM   33  C   UNL     1      -5.913  -3.688 -35.044  1.00  0.00     0.447 C 
HETATM   34 CL   UNL     1      -4.864  -4.875 -34.276  1.00  0.00    -0.014 Cl
HETATM   35  F   UNL     1      -6.798  -4.316 -35.864  1.00  0.00    -0.159 F 
HETATM   36  F   UNL     1      -5.179  -2.842 -35.811  1.00  0.00    -0.159 F 
ENDBRANCH  32  33
ENDBRANCH  29  32
ENDBRANCH  24  26
ENDBRANCH   1  24
BRANCH   5  37
HETATM   37  N   UNL     1      -5.489   3.965 -29.340  1.00  0.00    -0.221 N 
HETATM   38  H   UNL     1      -5.280   3.076 -28.900  1.00  0.00     0.177 HD
BRANCH  37  39
HETATM   39  C   UNL     1      -6.775   4.555 -29.015  1.00  0.00     0.140 C 
BRANCH  39  40
HETATM   40  C   UNL     1      -6.612   5.742 -28.065  1.00  0.00     0.046 C 
BRANCH  40  41
HETATM   41  C   UNL     1      -5.188   5.972 -27.572  1.00  0.00     0.165 C 
BRANCH  41  42
HETATM   42  O   UNL     1      -4.829   5.024 -26.575  1.00  0.00    -0.401 OA
HETATM   43  H   UNL     1      -3.980   4.645 -26.875  1.00  0.00     0.209 HD
ENDBRANCH  41  42
ENDBRANCH  40  41
ENDBRANCH  39  40
ENDBRANCH  37  39
ENDBRANCH   5  37
TORSDOF 11
ENDMDL
MODEL 3
REMARK VINA RESULT:      -9.5      3.717      5.697
REMARK  11 active torsions:
REMARK  status: ('A' for Active; 'I' for Inactive)
REMARK    1  A    between atoms: C_2  and  N_3 
REMARK    2  A    between atoms: N_3  and  C_4 
REMARK    3  A    between atoms: C_6  and  N_7 
REMARK    4  A    between atoms: N_10  and  C_12 
REMARK    5  A    between atoms: C_25  and  N_26 
REMARK    6  A    between atoms: N_26  and  C_27 
REMARK    7  A    between atoms: C_27  and  C_28 
REMARK    8  A    between atoms: C_28  and  C_29 
REMARK    9  A    between atoms: C_29  and  O_30 
REMARK   10  A    between atoms: C_34  and  O_35 
REMARK   11  A    between atoms: O_35  and  C_36 
ROOT
HETATM    1  C   UNL     1      -8.585   1.588 -32.732  1.00  0.00     0.758 C 
HETATM    2  N   UNL     1      -8.185   2.510 -31.861  1.00  0.00     0.131 NA
HETATM    3  C   UNL     1      -8.438   3.770 -32.179  1.00  0.00     0.756 C 
HETATM    4  N   UNL     1      -9.153   4.124 -33.234  1.00  0.00     0.131 NA
HETATM    5  C   UNL     1      -9.486   3.152 -34.070  1.00  0.00     0.754 C 
HETATM    6  N   UNL     1      -9.204   1.871 -33.870  1.00  0.00     0.131 NA
ENDROOT
BRANCH   3   7
HETATM    7  N   UNL     1      -7.933   4.783 -31.362  1.00  0.00    -0.210 N 
HETATM    8  C   UNL     1      -7.654   6.060 -32.024  1.00  0.00     0.169 C 
HETATM    9  C   UNL     1      -6.269   6.077 -32.700  1.00  0.00     0.256 C 
HETATM   10  N   UNL     1      -5.163   5.679 -31.690  1.00  0.00    -0.059 N 
HETATM   11  H   UNL     1      -5.253   6.346 -30.913  1.00  0.00     0.281 HD
HETATM   12  C   UNL     1      -5.512   4.296 -31.089  1.00  0.00     0.256 C 
HETATM   13  C   UNL     1      -6.910   4.322 -30.423  1.00  0.00     0.169 C 
BRANCH  10  14
HETATM   14  C   UNL     1      -3.718   5.839 -32.210  1.00  0.00     0.129 C 
HETATM   15  C   UNL     1      -3.732   5.897 -33.762  1.00  0.00     0.043 C 
HETATM   16  C   UNL     1      -2.307   6.097 -34.310  1.00  0.00    -0.012 C 
HETATM   17  C   UNL     1      -1.424   4.928 -33.841  1.00  0.00     0.009 C 
HETATM   18  C   UNL     1      -1.738   7.417 -33.775  1.00  0.00     0.009 C 
HETATM   19  C   UNL     1      -1.381   4.881 -32.303  1.00  0.00    -0.012 C 
HETATM   20  C   UNL     1      -2.810   4.677 -31.757  1.00  0.00     0.043 C 
HETATM   21  C   UNL     1      -0.814   6.210 -31.779  1.00  0.00     0.009 C 
HETATM   22  C   UNL     1      -1.698   7.382 -32.242  1.00  0.00    -0.012 C 
HETATM   23  C   UNL     1      -3.123   7.178 -31.697  1.00  0.00     0.043 C 
ENDBRANCH  10  14
ENDBRANCH   3   7
BRANCH   1  24
HETATM   24  N   UNL     1      -8.314   0.244 -32.483  1.00  0.00    -0.187 N 
HETATM   25  H   UNL     1      -8.760  -0.073 -31.630  1.00  0.00     0.184 HD
BRANCH  24  26
HETATM   26  C   UNL     1      -7.226  -0.538 -32.899  1.00  0.00     0.049 A 
HETATM   27  C   UNL     1      -5.971  -0.475 -32.286  1.00  0.00     0.033 A 
HETATM   28  C   UNL     1      -4.894  -1.242 -32.750  1.00  0.00     0.039 A 
HETATM   29  C   UNL     1      -5.048  -2.071 -33.858  1.00  0.00     0.076 A 
HETATM   30  C   UNL     1      -6.300  -2.147 -34.471  1.00  0.00     0.039 A 
HETATM   31  C   UNL     1      -7.378  -1.392 -33.995  1.00  0.00     0.033 A 
BRANCH  29  32
HETATM   32  O   UNL     1      -4.083  -2.847 -34.429  1.00  0.00    -0.270 OA
BRANCH  32  33
HETATM   33  C   UNL     1      -3.819  -4.124 -33.861  1.00  0.00     0.447 C 
HETATM   34 CL   UNL     1      -3.175  -3.938 -32.233  1.00  0.00    -0.014 Cl
HETATM   35  F   UNL     1      -4.966  -4.855 -33.822  1.00  0.00    -0.159 F 
HETATM   36  F   UNL     1      -2.935  -4.798 -34.639  1.00  0.00    -0.159 F 
ENDBRANCH  32  33
ENDBRANCH  29  32
ENDBRANCH  24  26
ENDBRANCH   1  24
BRANCH   5  37
HETATM   37  N   UNL     1     -10.126   3.547 -35.228  1.00  0.00    -0.221 N 
HETATM   38  H   UNL     1      -9.456   3.600 -35.987  1.00  0.00     0.177 HD
BRANCH  37  39
HETATM   39  C   UNL     1     -11.104   4.619 -35.162  1.00  0.00     0.140 C 
BRANCH  39  40
HETATM   40  C   UNL     1     -12.475   4.145 -35.643  1.00  0.00     0.046 C 
BRANCH  40  41
HETATM   41  C   UNL     1     -12.796   2.690 -35.317  1.00  0.00     0.165 C 
BRANCH  41  42
HETATM   42  O   UNL     1     -12.345   1.820 -36.347  1.00  0.00    -0.401 OA
HETATM   43  H   UNL     1     -12.964   1.959 -37.090  1.00  0.00     0.209 HD
ENDBRANCH  41  42
ENDBRANCH  40  41
ENDBRANCH  39  40
ENDBRANCH  37  39
ENDBRANCH   5  37
TORSDOF 11
ENDMDL
MODEL 4
REMARK VINA RESULT:      -9.4      1.300      1.952
REMARK  11 active torsions:
REMARK  status: ('A' for Active; 'I' for Inactive)
REMARK    1  A    between atoms: C_2  and  N_3 
REMARK    2  A    between atoms: N_3  and  C_4 
REMARK    3  A    between atoms: C_6  and  N_7 
REMARK    4  A    between atoms: N_10  and  C_12 
REMARK    5  A    between atoms: C_25  and  N_26 
REMARK    6  A    between atoms: N_26  and  C_27 
REMARK    7  A    between atoms: C_27  and  C_28 
REMARK    8  A    between atoms: C_28  and  C_29 
REMARK    9  A    between atoms: C_29  and  O_30 
REMARK   10  A    between atoms: C_34  and  O_35 
REMARK   11  A    between atoms: O_35  and  C_36 
ROOT
HETATM    1  C   UNL     1      -4.513   1.920 -30.935  1.00  0.00     0.758 C 
HETATM    2  N   UNL     1      -3.738   2.892 -31.408  1.00  0.00     0.131 NA
HETATM    3  C   UNL     1      -4.107   4.131 -31.125  1.00  0.00     0.756 C 
HETATM    4  N   UNL     1      -5.115   4.423 -30.319  1.00  0.00     0.131 NA
HETATM    5  C   UNL     1      -5.857   3.403 -29.915  1.00  0.00     0.754 C 
HETATM    6  N   UNL     1      -5.606   2.135 -30.217  1.00  0.00     0.131 NA
ENDROOT
BRANCH   3   7
HETATM    7  N   UNL     1      -3.402   5.189 -31.698  1.00  0.00    -0.210 N 
HETATM    8  C   UNL     1      -1.945   5.035 -31.751  1.00  0.00     0.169 C 
HETATM    9  C   UNL     1      -1.267   5.453 -30.431  1.00  0.00     0.256 C 
HETATM   10  N   UNL     1      -1.697   6.886 -30.025  1.00  0.00    -0.059 N 
HETATM   11  H   UNL     1      -1.448   7.480 -30.826  1.00  0.00     0.281 HD
HETATM   12  C   UNL     1      -3.242   6.936 -29.939  1.00  0.00     0.256 C 
HETATM   13  C   UNL     1      -3.883   6.507 -31.282  1.00  0.00     0.169 C 
BRANCH  10  14
HETATM   14  C   UNL     1      -0.939   7.475 -28.817  1.00  0.00     0.129 C 
HETATM   15  C   UNL     1      -1.248   8.994 -28.705  1.00  0.00     0.043 C 
HETATM   16  C   UNL     1      -0.537   9.603 -27.483  1.00  0.00    -0.012 C 
HETATM   17  C   UNL     1       0.979   9.390 -27.630  1.00  0.00     0.009 C 
HETATM   18  C   UNL     1      -1.033   8.908 -26.209  1.00  0.00     0.009 C 
HETATM   19  C   UNL     1       1.296   7.887 -27.711  1.00  0.00    -0.012 C 
HETATM   20  C   UNL     1       0.587   7.279 -28.939  1.00  0.00     0.043 C 
HETATM   21  C   UNL     1       0.791   7.200 -26.432  1.00  0.00     0.009 C 
HETATM   22  C   UNL     1      -0.726   7.407 -26.284  1.00  0.00    -0.012 C 
HETATM   23  C   UNL     1      -1.435   6.801 -27.509  1.00  0.00     0.043 C 
ENDBRANCH  10  14
ENDBRANCH   3   7
BRANCH   1  24
HETATM   24  N   UNL     1      -4.207   0.592 -31.230  1.00  0.00    -0.187 N 
HETATM   25  H   UNL     1      -3.299   0.331 -30.865  1.00  0.00     0.184 HD
BRANCH  24  26
HETATM   26  C   UNL     1      -4.673  -0.218 -32.276  1.00  0.00     0.049 A 
HETATM   27  C   UNL     1      -5.999  -0.192 -32.720  1.00  0.00     0.033 A 
HETATM   28  C   UNL     1      -6.441  -1.041 -33.743  1.00  0.00     0.039 A 
HETATM   29  C   UNL     1      -5.566  -1.953 -34.326  1.00  0.00     0.076 A 
HETATM   30  C   UNL     1      -4.238  -1.980 -33.895  1.00  0.00     0.039 A 
HETATM   31  C   UNL     1      -3.795  -1.119 -32.884  1.00  0.00     0.033 A 
BRANCH  29  32
HETATM   32  O   UNL     1      -5.868  -2.853 -35.306  1.00  0.00    -0.270 OA
BRANCH  32  33
HETATM   33  C   UNL     1      -6.351  -4.135 -34.920  1.00  0.00     0.447 C 
HETATM   34 CL   UNL     1      -5.029  -5.109 -34.285  1.00  0.00    -0.014 Cl
HETATM   35  F   UNL     1      -7.317  -3.995 -33.972  1.00  0.00    -0.159 F 
HETATM   36  F   UNL     1      -6.916  -4.752 -35.988  1.00  0.00    -0.159 F 
ENDBRANCH  32  33
ENDBRANCH  29  32
ENDBRANCH  24  26
ENDBRANCH   1  24
BRANCH   5  37
HETATM   37  N   UNL     1      -6.976   3.729 -29.174  1.00  0.00    -0.221 N 
HETATM   38  H   UNL     1      -7.453   2.882 -28.886  1.00  0.00     0.177 HD
BRANCH  37  39
HETATM   39  C   UNL     1      -7.824   4.820 -29.621  1.00  0.00     0.140 C 
BRANCH  39  40
HETATM   40  C   UNL     1      -8.604   4.433 -30.877  1.00  0.00     0.046 C 
BRANCH  40  41
HETATM   41  C   UNL     1      -9.859   3.606 -30.618  1.00  0.00     0.165 C 
BRANCH  41  42
HETATM   42  O   UNL     1      -9.531   2.262 -30.288  1.00  0.00    -0.401 OA
HETATM   43  H   UNL     1      -9.784   1.736 -31.071  1.00  0.00     0.209 HD
ENDBRANCH  41  42
ENDBRANCH  40  41
ENDBRANCH  39  40
ENDBRANCH  37  39
ENDBRANCH   5  37
TORSDOF 11
ENDMDL
MODEL 5
REMARK VINA RESULT:      -9.4      3.507      5.467
REMARK  11 active torsions:
REMARK  status: ('A' for Active; 'I' for Inactive)
REMARK    1  A    between atoms: C_2  and  N_3 
REMARK    2  A    between atoms: N_3  and  C_4 
REMARK    3  A    between atoms: C_6  and  N_7 
REMARK    4  A    between atoms: N_10  and  C_12 
REMARK    5  A    between atoms: C_25  and  N_26 
REMARK    6  A    between atoms: N_26  and  C_27 
REMARK    7  A    between atoms: C_27  and  C_28 
REMARK    8  A    between atoms: C_28  and  C_29 
REMARK    9  A    between atoms: C_29  and  O_30 
REMARK   10  A    between atoms: C_34  and  O_35 
REMARK   11  A    between atoms: O_35  and  C_36 
ROOT
HETATM    1  C   UNL     1      -7.985   1.885 -31.357  1.00  0.00     0.758 C 
HETATM    2  N   UNL     1      -7.510   3.024 -30.862  1.00  0.00     0.131 NA
HETATM    3  C   UNL     1      -8.287   4.089 -30.984  1.00  0.00     0.756 C 
HETATM    4  N   UNL     1      -9.522   4.037 -31.456  1.00  0.00     0.131 NA
HETATM    5  C   UNL     1      -9.909   2.875 -31.959  1.00  0.00     0.754 C 
HETATM    6  N   UNL     1      -9.165   1.776 -31.951  1.00  0.00     0.131 NA
ENDROOT
BRANCH   3   7
HETATM    7  N   UNL     1      -7.789   5.332 -30.593  1.00  0.00    -0.210 N 
HETATM    8  C   UNL     1      -7.627   6.322 -31.661  1.00  0.00     0.169 C 
HETATM    9  C   UNL     1      -6.292   6.156 -32.414  1.00  0.00     0.256 C 
HETATM   10  N   UNL     1      -5.102   6.156 -31.421  1.00  0.00    -0.059 N 
HETATM   11  H   UNL     1      -5.179   7.041 -30.905  1.00  0.00     0.281 HD
HETATM   12  C   UNL     1      -5.332   5.043 -30.369  1.00  0.00     0.256 C 
HETATM   13  C   UNL     1      -6.683   5.246 -29.639  1.00  0.00     0.169 C 
BRANCH  10  14
HETATM   14  C   UNL     1      -3.706   6.178 -32.078  1.00  0.00     0.129 C 
HETATM   15  C   UNL     1      -3.052   7.570 -31.855  1.00  0.00     0.043 C 
HETATM   16  C   UNL     1      -1.640   7.610 -32.465  1.00  0.00    -0.012 C 
HETATM   17  C   UNL     1      -1.738   7.317 -33.972  1.00  0.00     0.009 C 
HETATM   18  C   UNL     1      -0.765   6.545 -31.791  1.00  0.00     0.009 C 
HETATM   19  C   UNL     1      -2.357   5.927 -34.201  1.00  0.00    -0.012 C 
HETATM   20  C   UNL     1      -3.775   5.890 -33.593  1.00  0.00     0.043 C 
HETATM   21  C   UNL     1      -1.476   4.869 -33.518  1.00  0.00     0.009 C 
HETATM   22  C   UNL     1      -1.379   5.156 -32.009  1.00  0.00    -0.012 C 
HETATM   23  C   UNL     1      -2.793   5.120 -31.401  1.00  0.00     0.043 C 
ENDBRANCH  10  14
ENDBRANCH   3   7
BRANCH   1  24
HETATM   24  N   UNL     1      -7.202   0.732 -31.302  1.00  0.00    -0.187 N 
HETATM   25  H   UNL     1      -6.561   0.757 -30.518  1.00  0.00     0.184 HD
BRANCH  24  26
HETATM   26  C   UNL     1      -6.834  -0.144 -32.333  1.00  0.00     0.049 A 
HETATM   27  C   UNL     1      -7.683  -0.461 -33.397  1.00  0.00     0.033 A 
HETATM   28  C   UNL     1      -7.299  -1.369 -34.391  1.00  0.00     0.039 A 
HETATM   29  C   UNL     1      -6.059  -2.001 -34.324  1.00  0.00     0.076 A 
HETATM   30  C   UNL     1      -5.201  -1.685 -33.270  1.00  0.00     0.039 A 
HETATM   31  C   UNL     1      -5.582  -0.764 -32.287  1.00  0.00     0.033 A 
BRANCH  29  32
HETATM   32  O   UNL     1      -5.572  -2.922 -35.204  1.00  0.00    -0.270 OA
BRANCH  32  33
HETATM   33  C   UNL     1      -5.944  -4.285 -35.030  1.00  0.00     0.447 C 
HETATM   34 CL   UNL     1      -4.667  -5.155 -34.186  1.00  0.00    -0.014 Cl
HETATM   35  F   UNL     1      -7.101  -4.357 -34.317  1.00  0.00    -0.159 F 
HETATM   36  F   UNL     1      -6.177  -4.853 -36.240  1.00  0.00    -0.159 F 
ENDBRANCH  32  33
ENDBRANCH  29  32
ENDBRANCH  24  26
ENDBRANCH   1  24
BRANCH   5  37
HETATM   37  N   UNL     1     -11.154   2.863 -32.559  1.00  0.00    -0.221 N 
HETATM   38  H   UNL     1     -11.849   3.207 -31.906  1.00  0.00     0.177 HD
BRANCH  37  39
HETATM   39  C   UNL     1     -11.539   1.715 -33.359  1.00  0.00     0.140 C 
BRANCH  39  40
HETATM   40  C   UNL     1     -13.061   1.591 -33.448  1.00  0.00     0.046 C 
BRANCH  40  41
HETATM   41  C   UNL     1     -13.570   0.178 -33.708  1.00  0.00     0.165 C 
BRANCH  41  42
HETATM   42  O   UNL     1     -12.757  -0.791 -33.060  1.00  0.00    -0.401 OA
HETATM   43  H   UNL     1     -12.924  -1.628 -33.536  1.00  0.00     0.209 HD
ENDBRANCH  41  42
ENDBRANCH  40  41
ENDBRANCH  39  40
ENDBRANCH  37  39
ENDBRANCH   5  37
TORSDOF 11
ENDMDL
MODEL 6
REMARK VINA RESULT:      -9.3      1.664      2.413
REMARK  11 active torsions:
REMARK  status: ('A' for Active; 'I' for Inactive)
REMARK    1  A    between atoms: C_2  and  N_3 
REMARK    2  A    between atoms: N_3  and  C_4 
REMARK    3  A    between atoms: C_6  and  N_7 
REMARK    4  A    between atoms: N_10  and  C_12 
REMARK    5  A    between atoms: C_25  and  N_26 
REMARK    6  A    between atoms: N_26  and  C_27 
REMARK    7  A    between atoms: C_27  and  C_28 
REMARK    8  A    between atoms: C_28  and  C_29 
REMARK    9  A    between atoms: C_29  and  O_30 
REMARK   10  A    between atoms: C_34  and  O_35 
REMARK   11  A    between atoms: O_35  and  C_36 
ROOT
HETATM    1  C   UNL     1      -3.575   2.056 -31.197  1.00  0.00     0.758 C 
HETATM    2  N   UNL     1      -2.760   3.058 -31.513  1.00  0.00     0.131 NA
HETATM    3  C   UNL     1      -3.296   4.267 -31.540  1.00  0.00     0.756 C 
HETATM    4  N   UNL     1      -4.537   4.522 -31.160  1.00  0.00     0.131 NA
HETATM    5  C   UNL     1      -5.295   3.469 -30.891  1.00  0.00     0.754 C 
HETATM    6  N   UNL     1      -4.861   2.215 -30.918  1.00  0.00     0.131 NA
ENDROOT
BRANCH   3   7
HETATM    7  N   UNL     1      -2.517   5.337 -31.984  1.00  0.00    -0.210 N 
HETATM    8  C   UNL     1      -1.068   5.187 -31.820  1.00  0.00     0.169 C 
HETATM    9  C   UNL     1      -0.598   5.585 -30.407  1.00  0.00     0.256 C 
HETATM   10  N   UNL     1      -1.091   7.010 -30.049  1.00  0.00    -0.059 N 
HETATM   11  H   UNL     1      -0.727   7.618 -30.793  1.00  0.00     0.281 HD
HETATM   12  C   UNL     1      -2.631   7.055 -30.195  1.00  0.00     0.256 C 
HETATM   13  C   UNL     1      -3.061   6.646 -31.625  1.00  0.00     0.169 C 
BRANCH  10  14
HETATM   14  C   UNL     1      -0.525   7.583 -28.731  1.00  0.00     0.129 C 
HETATM   15  C   UNL     1      -0.588   6.493 -27.626  1.00  0.00     0.043 C 
HETATM   16  C   UNL     1       0.007   7.022 -26.308  1.00  0.00    -0.012 C 
HETATM   17  C   UNL     1      -0.789   8.261 -25.863  1.00  0.00     0.009 C 
HETATM   18  C   UNL     1       1.474   7.407 -26.533  1.00  0.00     0.009 C 
HETATM   19  C   UNL     1      -0.707   9.357 -26.940  1.00  0.00    -0.012 C 
HETATM   20  C   UNL     1      -1.308   8.826 -28.259  1.00  0.00     0.043 C 
HETATM   21  C   UNL     1       0.768   9.731 -27.160  1.00  0.00     0.009 C 
HETATM   22  C   UNL     1       1.566   8.495 -27.610  1.00  0.00    -0.012 C 
HETATM   23  C   UNL     1       0.967   7.965 -28.925  1.00  0.00     0.043 C 
ENDBRANCH  10  14
ENDBRANCH   3   7
BRANCH   1  24
HETATM   24  N   UNL     1      -3.089   0.749 -31.191  1.00  0.00    -0.187 N 
HETATM   25  H   UNL     1      -2.144   0.706 -30.828  1.00  0.00     0.184 HD
BRANCH  24  26
HETATM   26  C   UNL     1      -3.459  -0.342 -31.991  1.00  0.00     0.049 A 
HETATM   27  C   UNL     1      -4.298  -0.216 -33.102  1.00  0.00     0.033 A 
HETATM   28  C   UNL     1      -4.678  -1.332 -33.859  1.00  0.00     0.039 A 
HETATM   29  C   UNL     1      -4.244  -2.605 -33.499  1.00  0.00     0.076 A 
HETATM   30  C   UNL     1      -3.399  -2.740 -32.397  1.00  0.00     0.039 A 
HETATM   31  C   UNL     1      -3.007  -1.621 -31.652  1.00  0.00     0.033 A 
BRANCH  29  32
HETATM   32  O   UNL     1      -4.558  -3.775 -34.126  1.00  0.00    -0.270 OA
BRANCH  32  33
HETATM   33  C   UNL     1      -5.638  -3.774 -35.054  1.00  0.00     0.447 C 
HETATM   34 CL   UNL     1      -7.113  -3.233 -34.261  1.00  0.00    -0.014 Cl
HETATM   35  F   UNL     1      -5.345  -2.950 -36.097  1.00  0.00    -0.159 F 
HETATM   36  F   UNL     1      -5.808  -5.022 -35.558  1.00  0.00    -0.159 F 
ENDBRANCH  32  33
ENDBRANCH  29  32
ENDBRANCH  24  26
ENDBRANCH   1  24
BRANCH   5  37
HETATM   37  N   UNL     1      -6.622   3.737 -30.615  1.00  0.00    -0.221 N 
HETATM   38  H   UNL     1      -6.840   3.435 -29.672  1.00  0.00     0.177 HD
BRANCH  37  39
HETATM   39  C   UNL     1      -7.624   3.454 -31.627  1.00  0.00     0.140 C 
BRANCH  39  40
HETATM   40  C   UNL     1      -8.699   2.510 -31.089  1.00  0.00     0.046 C 
BRANCH  40  41
HETATM   41  C   UNL     1      -8.570   1.065 -31.558  1.00  0.00     0.165 C 
BRANCH  41  42
HETATM   42  O   UNL     1      -7.239   0.590 -31.404  1.00  0.00    -0.401 OA
HETATM   43  H   UNL     1      -7.163   0.336 -30.463  1.00  0.00     0.209 HD
ENDBRANCH  41  42
ENDBRANCH  40  41
ENDBRANCH  39  40
ENDBRANCH  37  39
ENDBRANCH   5  37
TORSDOF 11
ENDMDL
MODEL 7
REMARK VINA RESULT:      -9.1      3.869      8.241
REMARK  11 active torsions:
REMARK  status: ('A' for Active; 'I' for Inactive)
REMARK    1  A    between atoms: C_2  and  N_3 
REMARK    2  A    between atoms: N_3  and  C_4 
REMARK    3  A    between atoms: C_6  and  N_7 
REMARK    4  A    between atoms: N_10  and  C_12 
REMARK    5  A    between atoms: C_25  and  N_26 
REMARK    6  A    between atoms: N_26  and  C_27 
REMARK    7  A    between atoms: C_27  and  C_28 
REMARK    8  A    between atoms: C_28  and  C_29 
REMARK    9  A    between atoms: C_29  and  O_30 
REMARK   10  A    between atoms: C_34  and  O_35 
REMARK   11  A    between atoms: O_35  and  C_36 
ROOT
HETATM    1  C   UNL     1      -5.157   2.047 -31.177  1.00  0.00     0.758 C 
HETATM    2  N   UNL     1      -6.175   2.903 -31.168  1.00  0.00     0.131 NA
HETATM    3  C   UNL     1      -5.864   4.188 -31.218  1.00  0.00     0.756 C 
HETATM    4  N   UNL     1      -4.630   4.632 -31.393  1.00  0.00     0.131 NA
HETATM    5  C   UNL     1      -3.669   3.720 -31.359  1.00  0.00     0.754 C 
HETATM    6  N   UNL     1      -3.886   2.417 -31.232  1.00  0.00     0.131 NA
ENDROOT
BRANCH   3   7
HETATM    7  N   UNL     1      -6.884   5.131 -31.087  1.00  0.00    -0.210 N 
HETATM    8  C   UNL     1      -8.034   4.723 -30.275  1.00  0.00     0.169 C 
HETATM    9  C   UNL     1      -9.058   3.902 -31.085  1.00  0.00     0.256 C 
HETATM   10  N   UNL     1      -9.479   4.666 -32.366  1.00  0.00    -0.059 N 
HETATM   11  H   UNL     1      -9.839   5.570 -32.037  1.00  0.00     0.281 HD
HETATM   12  C   UNL     1      -8.208   5.002 -33.185  1.00  0.00     0.256 C 
HETATM   13  C   UNL     1      -7.207   5.823 -32.336  1.00  0.00     0.169 C 
BRANCH  10  14
HETATM   14  C   UNL     1     -10.635   4.020 -33.159  1.00  0.00     0.129 C 
HETATM   15  C   UNL     1     -10.790   2.535 -32.728  1.00  0.00     0.043 C 
HETATM   16  C   UNL     1     -11.963   1.874 -33.472  1.00  0.00    -0.012 C 
HETATM   17  C   UNL     1     -11.701   1.952 -34.987  1.00  0.00     0.009 C 
HETATM   18  C   UNL     1     -13.262   2.618 -33.137  1.00  0.00     0.009 C 
HETATM   19  C   UNL     1     -11.576   3.421 -35.427  1.00  0.00    -0.012 C 
HETATM   20  C   UNL     1     -10.397   4.081 -34.682  1.00  0.00     0.043 C 
HETATM   21  C   UNL     1     -12.880   4.158 -35.082  1.00  0.00     0.009 C 
HETATM   22  C   UNL     1     -13.143   4.087 -33.567  1.00  0.00    -0.012 C 
HETATM   23  C   UNL     1     -11.967   4.744 -32.824  1.00  0.00     0.043 C 
ENDBRANCH  10  14
ENDBRANCH   3   7
BRANCH   1  24
HETATM   24  N   UNL     1      -5.409   0.679 -31.084  1.00  0.00    -0.187 N 
HETATM   25  H   UNL     1      -5.202   0.326 -30.157  1.00  0.00     0.184 HD
BRANCH  24  26
HETATM   26  C   UNL     1      -5.419  -0.296 -32.092  1.00  0.00     0.049 A 
HETATM   27  C   UNL     1      -4.314  -1.107 -32.371  1.00  0.00     0.033 A 
HETATM   28  C   UNL     1      -4.344  -2.046 -33.410  1.00  0.00     0.039 A 
HETATM   29  C   UNL     1      -5.477  -2.173 -34.210  1.00  0.00     0.076 A 
HETATM   30  C   UNL     1      -6.587  -1.374 -33.934  1.00  0.00     0.039 A 
HETATM   31  C   UNL     1      -6.560  -0.448 -32.884  1.00  0.00     0.033 A 
BRANCH  29  32
HETATM   32  O   UNL     1      -5.631  -3.022 -35.267  1.00  0.00    -0.270 OA
BRANCH  32  33
HETATM   33  C   UNL     1      -6.114  -4.336 -35.012  1.00  0.00     0.447 C 
HETATM   34 CL   UNL     1      -4.866  -5.294 -34.221  1.00  0.00    -0.014 Cl
HETATM   35  F   UNL     1      -7.218  -4.274 -34.221  1.00  0.00    -0.159 F 
HETATM   36  F   UNL     1      -6.483  -4.922 -36.179  1.00  0.00    -0.159 F 
ENDBRANCH  32  33
ENDBRANCH  29  32
ENDBRANCH  24  26
ENDBRANCH   1  24
BRANCH   5  37
HETATM   37  N   UNL     1      -2.377   4.205 -31.420  1.00  0.00    -0.221 N 
HETATM   38  H   UNL     1      -1.993   4.267 -30.484  1.00  0.00     0.177 HD
BRANCH  37  39
HETATM   39  C   UNL     1      -2.082   5.315 -32.308  1.00  0.00     0.140 C 
BRANCH  39  40
HETATM   40  C   UNL     1      -1.849   4.829 -33.739  1.00  0.00     0.046 C 
BRANCH  40  41
HETATM   41  C   UNL     1      -2.941   5.218 -34.729  1.00  0.00     0.165 C 
BRANCH  41  42
HETATM   42  O   UNL     1      -3.975   5.957 -34.092  1.00  0.00    -0.401 OA
HETATM   43  H   UNL     1      -3.551   6.382 -33.322  1.00  0.00     0.209 HD
ENDBRANCH  41  42
ENDBRANCH  40  41
ENDBRANCH  39  40
ENDBRANCH  37  39
ENDBRANCH   5  37
TORSDOF 11
ENDMDL
MODEL 8
REMARK VINA RESULT:      -9.1      2.115      2.548
REMARK  11 active torsions:
REMARK  status: ('A' for Active; 'I' for Inactive)
REMARK    1  A    between atoms: C_2  and  N_3 
REMARK    2  A    between atoms: N_3  and  C_4 
REMARK    3  A    between atoms: C_6  and  N_7 
REMARK    4  A    between atoms: N_10  and  C_12 
REMARK    5  A    between atoms: C_25  and  N_26 
REMARK    6  A    between atoms: N_26  and  C_27 
REMARK    7  A    between atoms: C_27  and  C_28 
REMARK    8  A    between atoms: C_28  and  C_29 
REMARK    9  A    between atoms: C_29  and  O_30 
REMARK   10  A    between atoms: C_34  and  O_35 
REMARK   11  A    between atoms: O_35  and  C_36 
ROOT
HETATM    1  C   UNL     1      -3.331   3.288 -31.729  1.00  0.00     0.758 C 
HETATM    2  N   UNL     1      -2.156   3.899 -31.612  1.00  0.00     0.131 NA
HETATM    3  C   UNL     1      -2.061   5.104 -32.150  1.00  0.00     0.756 C 
HETATM    4  N   UNL     1      -3.090   5.749 -32.676  1.00  0.00     0.131 NA
HETATM    5  C   UNL     1      -4.217   5.062 -32.786  1.00  0.00     0.754 C 
HETATM    6  N   UNL     1      -4.377   3.820 -32.345  1.00  0.00     0.131 NA
ENDROOT
BRANCH   3   7
HETATM    7  N   UNL     1      -0.818   5.738 -32.164  1.00  0.00    -0.210 N 
HETATM    8  C   UNL     1       0.211   5.149 -31.302  1.00  0.00     0.169 C 
HETATM    9  C   UNL     1       0.106   5.647 -29.846  1.00  0.00     0.256 C 
HETATM   10  N   UNL     1       0.106   7.196 -29.797  1.00  0.00    -0.059 N 
HETATM   11  H   UNL     1       0.972   7.482 -30.272  1.00  0.00     0.281 HD
HETATM   12  C   UNL     1      -1.046   7.722 -30.688  1.00  0.00     0.256 C 
HETATM   13  C   UNL     1      -0.904   7.198 -32.138  1.00  0.00     0.169 C 
BRANCH  10  14
HETATM   14  C   UNL     1       0.189   7.802 -28.380  1.00  0.00     0.129 C 
HETATM   15  C   UNL     1       1.562   8.506 -28.199  1.00  0.00     0.043 C 
HETATM   16  C   UNL     1       1.658   9.157 -26.807  1.00  0.00    -0.012 C 
HETATM   17  C   UNL     1       1.485   8.068 -25.734  1.00  0.00     0.009 C 
HETATM   18  C   UNL     1       0.548  10.205 -26.659  1.00  0.00     0.009 C 
HETATM   19  C   UNL     1       0.115   7.386 -25.888  1.00  0.00    -0.012 C 
HETATM   20  C   UNL     1       0.022   6.731 -27.282  1.00  0.00     0.043 C 
HETATM   21  C   UNL     1      -0.989   8.446 -25.743  1.00  0.00     0.009 C 
HETATM   22  C   UNL     1      -0.823   9.535 -26.818  1.00  0.00    -0.012 C 
HETATM   23  C   UNL     1      -0.915   8.881 -28.209  1.00  0.00     0.043 C 
ENDBRANCH  10  14
ENDBRANCH   3   7
BRANCH   1  24
HETATM   24  N   UNL     1      -3.490   1.999 -31.222  1.00  0.00    -0.187 N 
HETATM   25  H   UNL     1      -2.831   1.810 -30.476  1.00  0.00     0.184 HD
BRANCH  24  26
HETATM   26  C   UNL     1      -4.014   0.857 -31.844  1.00  0.00     0.049 A 
HETATM   27  C   UNL     1      -5.265   0.323 -31.516  1.00  0.00     0.033 A 
HETATM   28  C   UNL     1      -5.743  -0.841 -32.130  1.00  0.00     0.039 A 
HETATM   29  C   UNL     1      -4.964  -1.511 -33.070  1.00  0.00     0.076 A 
HETATM   30  C   UNL     1      -3.719  -0.982 -33.410  1.00  0.00     0.039 A 
HETATM   31  C   UNL     1      -3.250   0.192 -32.807  1.00  0.00     0.033 A 
BRANCH  29  32
HETATM   32  O   UNL     1      -5.294  -2.664 -33.720  1.00  0.00    -0.270 OA
BRANCH  32  33
HETATM   33  C   UNL     1      -6.411  -2.647 -34.602  1.00  0.00     0.447 C 
HETATM   34 CL   UNL     1      -6.667  -1.017 -35.217  1.00  0.00    -0.014 Cl
HETATM   35  F   UNL     1      -6.192  -3.502 -35.637  1.00  0.00    -0.159 F 
HETATM   36  F   UNL     1      -7.518  -3.078 -33.946  1.00  0.00    -0.159 F 
ENDBRANCH  32  33
ENDBRANCH  29  32
ENDBRANCH  24  26
ENDBRANCH   1  24
BRANCH   5  37
HETATM   37  N   UNL     1      -5.249   5.701 -33.445  1.00  0.00    -0.221 N 
HETATM   38  H   UNL     1      -4.873   6.427 -34.044  1.00  0.00     0.177 HD
BRANCH  37  39
HETATM   39  C   UNL     1      -6.454   6.039 -32.708  1.00  0.00     0.140 C 
BRANCH  39  40
HETATM   40  C   UNL     1      -7.688   5.402 -33.347  1.00  0.00     0.046 C 
BRANCH  40  41
HETATM   41  C   UNL     1      -8.167   4.123 -32.669  1.00  0.00     0.165 C 
BRANCH  41  42
HETATM   42  O   UNL     1      -7.145   3.554 -31.861  1.00  0.00    -0.401 OA
HETATM   43  H   UNL     1      -7.552   3.427 -30.982  1.00  0.00     0.209 HD
ENDBRANCH  41  42
ENDBRANCH  40  41
ENDBRANCH  39  40
ENDBRANCH  37  39
ENDBRANCH   5  37
TORSDOF 11
ENDMDL
MODEL 9
REMARK VINA RESULT:      -8.7      3.173      5.054
REMARK  11 active torsions:
REMARK  status: ('A' for Active; 'I' for Inactive)
REMARK    1  A    between atoms: C_2  and  N_3 
REMARK    2  A    between atoms: N_3  and  C_4 
REMARK    3  A    between atoms: C_6  and  N_7 
REMARK    4  A    between atoms: N_10  and  C_12 
REMARK    5  A    between atoms: C_25  and  N_26 
REMARK    6  A    between atoms: N_26  and  C_27 
REMARK    7  A    between atoms: C_27  and  C_28 
REMARK    8  A    between atoms: C_28  and  C_29 
REMARK    9  A    between atoms: C_29  and  O_30 
REMARK   10  A    between atoms: C_34  and  O_35 
REMARK   11  A    between atoms: O_35  and  C_36 
ROOT
HETATM    1  C   UNL     1      -5.067   4.246 -31.539  1.00  0.00     0.758 C 
HETATM    2  N   UNL     1      -4.156   5.131 -31.934  1.00  0.00     0.131 NA
HETATM    3  C   UNL     1      -2.909   4.695 -32.018  1.00  0.00     0.756 C 
HETATM    4  N   UNL     1      -2.568   3.428 -31.845  1.00  0.00     0.131 NA
HETATM    5  C   UNL     1      -3.525   2.617 -31.421  1.00  0.00     0.754 C 
HETATM    6  N   UNL     1      -4.785   2.988 -31.233  1.00  0.00     0.131 NA
ENDROOT
BRANCH   3   7
HETATM    7  N   UNL     1      -1.896   5.610 -32.308  1.00  0.00    -0.210 N 
HETATM    8  C   UNL     1      -0.550   5.238 -31.865  1.00  0.00     0.169 C 
HETATM    9  C   UNL     1      -0.298   5.607 -30.390  1.00  0.00     0.256 C 
HETATM   10  N   UNL     1      -0.611   7.105 -30.141  1.00  0.00    -0.059 N 
HETATM   11  H   UNL     1      -0.018   7.619 -30.804  1.00  0.00     0.281 HD
HETATM   12  C   UNL     1      -2.067   7.389 -30.583  1.00  0.00     0.256 C 
HETATM   13  C   UNL     1      -2.278   7.002 -32.067  1.00  0.00     0.169 C 
BRANCH  10  14
HETATM   14  C   UNL     1      -0.221   7.627 -28.742  1.00  0.00     0.129 C 
HETATM   15  C   UNL     1      -1.202   8.756 -28.321  1.00  0.00     0.043 C 
HETATM   16  C   UNL     1      -0.864   9.271 -26.910  1.00  0.00    -0.012 C 
HETATM   17  C   UNL     1       0.578   9.807 -26.907  1.00  0.00     0.009 C 
HETATM   18  C   UNL     1      -0.986   8.117 -25.906  1.00  0.00     0.009 C 
HETATM   19  C   UNL     1       1.559   8.687 -27.294  1.00  0.00    -0.012 C 
HETATM   20  C   UNL     1       1.221   8.175 -28.710  1.00  0.00     0.043 C 
HETATM   21  C   UNL     1       1.426   7.535 -26.285  1.00  0.00     0.009 C 
HETATM   22  C   UNL     1      -0.014   6.992 -26.289  1.00  0.00    -0.012 C 
HETATM   23  C   UNL     1      -0.352   6.482 -27.701  1.00  0.00     0.043 C 
ENDBRANCH  10  14
ENDBRANCH   3   7
BRANCH   1  24
HETATM   24  N   UNL     1      -6.393   4.647 -31.387  1.00  0.00    -0.187 N 
HETATM   25  H   UNL     1      -6.513   5.234 -30.570  1.00  0.00     0.184 HD
BRANCH  24  26
HETATM   26  C   UNL     1      -7.568   4.027 -31.839  1.00  0.00     0.049 A 
HETATM   27  C   UNL     1      -7.911   3.952 -33.193  1.00  0.00     0.033 A 
HETATM   28  C   UNL     1      -9.109   3.359 -33.609  1.00  0.00     0.039 A 
HETATM   29  C   UNL     1     -10.004   2.851 -32.671  1.00  0.00     0.076 A 
HETATM   30  C   UNL     1      -9.667   2.913 -31.318  1.00  0.00     0.039 A 
HETATM   31  C   UNL     1      -8.460   3.492 -30.906  1.00  0.00     0.033 A 
BRANCH  29  32
HETATM   32  O   UNL     1     -11.213   2.276 -32.934  1.00  0.00    -0.270 OA
BRANCH  32  33
HETATM   33  C   UNL     1     -11.232   1.029 -33.619  1.00  0.00     0.447 C 
HETATM   34 CL   UNL     1     -12.852   0.340 -33.572  1.00  0.00    -0.014 Cl
HETATM   35  F   UNL     1     -10.846   1.210 -34.911  1.00  0.00    -0.159 F 
HETATM   36  F   UNL     1     -10.345   0.177 -33.045  1.00  0.00    -0.159 F 
ENDBRANCH  32  33
ENDBRANCH  29  32
ENDBRANCH  24  26
ENDBRANCH   1  24
BRANCH   5  37
HETATM   37  N   UNL     1      -3.132   1.325 -31.127  1.00  0.00    -0.221 N 
HETATM   38  H   UNL     1      -2.160   1.322 -30.839  1.00  0.00     0.177 HD
BRANCH  37  39
HETATM   39  C   UNL     1      -3.542   0.246 -32.008  1.00  0.00     0.140 C 
BRANCH  39  40
HETATM   40  C   UNL     1      -2.629  -0.970 -31.852  1.00  0.00     0.046 C 
BRANCH  40  41
HETATM   41  C   UNL     1      -3.322  -2.315 -32.039  1.00  0.00     0.165 C 
BRANCH  41  42
HETATM   42  O   UNL     1      -2.606  -3.358 -31.391  1.00  0.00    -0.401 OA
HETATM   43  H   UNL     1      -2.401  -4.005 -32.094  1.00  0.00     0.209 HD
ENDBRANCH  41  42
ENDBRANCH  40  41
ENDBRANCH  39  40
ENDBRANCH  37  39
ENDBRANCH   5  37
TORSDOF 11
ENDMDL
MODEL 10
REMARK VINA RESULT:      -8.6      2.119      2.451
REMARK  11 active torsions:
REMARK  status: ('A' for Active; 'I' for Inactive)
REMARK    1  A    between atoms: C_2  and  N_3 
REMARK    2  A    between atoms: N_3  and  C_4 
REMARK    3  A    between atoms: C_6  and  N_7 
REMARK    4  A    between atoms: N_10  and  C_12 
REMARK    5  A    between atoms: C_25  and  N_26 
REMARK    6  A    between atoms: N_26  and  C_27 
REMARK    7  A    between atoms: C_27  and  C_28 
REMARK    8  A    between atoms: C_28  and  C_29 
REMARK    9  A    between atoms: C_29  and  O_30 
REMARK   10  A    between atoms: C_34  and  O_35 
REMARK   11  A    between atoms: O_35  and  C_36 
ROOT
HETATM    1  C   UNL     1      -5.653   3.005 -32.599  1.00  0.00     0.758 C 
HETATM    2  N   UNL     1      -4.418   3.494 -32.660  1.00  0.00     0.131 NA
HETATM    3  C   UNL     1      -4.297   4.737 -33.097  1.00  0.00     0.756 C 
HETATM    4  N   UNL     1      -5.332   5.522 -33.352  1.00  0.00     0.131 NA
HETATM    5  C   UNL     1      -6.526   4.952 -33.300  1.00  0.00     0.754 C 
HETATM    6  N   UNL     1      -6.733   3.689 -32.949  1.00  0.00     0.131 NA
ENDROOT
BRANCH   3   7
HETATM    7  N   UNL     1      -3.018   5.258 -33.297  1.00  0.00    -0.210 N 
HETATM    8  C   UNL     1      -1.915   4.492 -32.709  1.00  0.00     0.169 C 
HETATM    9  C   UNL     1      -1.694   4.836 -31.223  1.00  0.00     0.256 C 
HETATM   10  N   UNL     1      -1.520   6.365 -31.037  1.00  0.00    -0.059 N 
HETATM   11  H   UNL     1      -0.732   6.624 -31.644  1.00  0.00     0.281 HD
HETATM   12  C   UNL     1      -2.755   7.083 -31.634  1.00  0.00     0.256 C 
HETATM   13  C   UNL     1      -2.942   6.708 -33.125  1.00  0.00     0.169 C 
BRANCH  10  14
HETATM   14  C   UNL     1      -1.111   6.806 -29.615  1.00  0.00     0.129 C 
HETATM   15  C   UNL     1       0.016   5.875 -29.090  1.00  0.00     0.043 C 
HETATM   16  C   UNL     1       0.474   6.314 -27.688  1.00  0.00    -0.012 C 
HETATM   17  C   UNL     1      -0.730   6.264 -26.731  1.00  0.00     0.009 C 
HETATM   18  C   UNL     1       1.015   7.748 -27.757  1.00  0.00     0.009 C 
HETATM   19  C   UNL     1      -1.840   7.206 -27.228  1.00  0.00    -0.012 C 
HETATM   20  C   UNL     1      -2.300   6.761 -28.632  1.00  0.00     0.043 C 
HETATM   21  C   UNL     1      -1.285   8.638 -27.298  1.00  0.00     0.009 C 
HETATM   22  C   UNL     1      -0.084   8.694 -28.258  1.00  0.00    -0.012 C 
HETATM   23  C   UNL     1      -0.542   8.250 -29.658  1.00  0.00     0.043 C 
ENDBRANCH  10  14
ENDBRANCH   3   7
BRANCH   1  24
HETATM   24  N   UNL     1      -5.851   1.688 -32.188  1.00  0.00    -0.187 N 
HETATM   25  H   UNL     1      -5.659   1.575 -31.199  1.00  0.00     0.184 HD
BRANCH  24  26
HETATM   26  C   UNL     1      -5.789   0.502 -32.935  1.00  0.00     0.049 A 
HETATM   27  C   UNL     1      -4.838  -0.494 -32.697  1.00  0.00     0.033 A 
HETATM   28  C   UNL     1      -4.779  -1.650 -33.486  1.00  0.00     0.039 A 
HETATM   29  C   UNL     1      -5.661  -1.818 -34.551  1.00  0.00     0.076 A 
HETATM   30  C   UNL     1      -6.620  -0.833 -34.791  1.00  0.00     0.039 A 
HETATM   31  C   UNL     1      -6.686   0.314 -33.991  1.00  0.00     0.033 A 
BRANCH  29  32
HETATM   32  O   UNL     1      -5.696  -2.875 -35.412  1.00  0.00    -0.270 OA
BRANCH  32  33
HETATM   33  C   UNL     1      -6.273  -4.095 -34.961  1.00  0.00     0.447 C 
HETATM   34 CL   UNL     1      -5.040  -5.104 -34.213  1.00  0.00    -0.014 Cl
HETATM   35  F   UNL     1      -7.260  -3.831 -34.062  1.00  0.00    -0.159 F 
HETATM   36  F   UNL     1      -6.841  -4.747 -36.006  1.00  0.00    -0.159 F 
ENDBRANCH  32  33
ENDBRANCH  29  32
ENDBRANCH  24  26
ENDBRANCH   1  24
BRANCH   5  37
HETATM   37  N   UNL     1      -7.589   5.746 -33.686  1.00  0.00    -0.221 N 
HETATM   38  H   UNL     1      -7.241   6.614 -34.078  1.00  0.00     0.177 HD
BRANCH  37  39
HETATM   39  C   UNL     1      -8.741   5.856 -32.809  1.00  0.00     0.140 C 
BRANCH  39  40
HETATM   40  C   UNL     1      -8.428   6.730 -31.595  1.00  0.00     0.046 C 
BRANCH  40  41
HETATM   41  C   UNL     1      -7.926   8.130 -31.931  1.00  0.00     0.165 C 
BRANCH  41  42
HETATM   42  O   UNL     1      -7.655   8.877 -30.752  1.00  0.00    -0.401 OA
HETATM   43  H   UNL     1      -6.885   9.437 -30.973  1.00  0.00     0.209 HD
ENDBRANCH  41  42
ENDBRANCH  40  41
ENDBRANCH  39  40
ENDBRANCH  37  39
ENDBRANCH   5  37
TORSDOF 11
ENDMDL
