MODEL 1
REMARK VINA RESULT:      -9.5      0.000      0.000
REMARK  3 active torsions:
REMARK  status: ('A' for Active; 'I' for Inactive)
REMARK    1  A    between atoms: C_3  and  C_4 
REMARK    2  A    between atoms: C_4  and  N_5 
REMARK       I    between atoms: N_5  and  C_6 
REMARK    3  A    between atoms: C_6  and  C_7 
ROOT
HETATM    1  C   UNL     1      -3.538   0.798 -31.792  1.00  0.00     0.155 A 
HETATM    2  N   UNL     1      -2.590   0.188 -31.041  1.00  0.00    -0.168 NA
HETATM    3  N   UNL     1      -2.643  -1.105 -31.432  1.00  0.00    -0.276 N 
HETATM    4  H   UNL     1      -2.003  -1.766 -31.003  1.00  0.00     0.189 HD
HETATM    5  C   UNL     1      -3.585  -1.339 -32.380  1.00  0.00     0.074 A 
HETATM    6  C   UNL     1      -4.188  -0.136 -32.630  1.00  0.00     0.031 A 
HETATM    7  C   UNL     1      -5.278  -0.002 -33.621  1.00  0.00     0.219 A 
HETATM    8  O   UNL     1      -5.706  -1.242 -34.253  1.00  0.00    -0.346 OA
HETATM    9  C   UNL     1      -5.035  -2.417 -33.985  1.00  0.00     0.081 A 
HETATM   10  C   UNL     1      -3.973  -2.544 -33.067  1.00  0.00     0.026 A 
HETATM   11  C   UNL     1      -5.476  -3.535 -34.691  1.00  0.00     0.038 A 
HETATM   12  C   UNL     1      -4.865  -4.774 -34.492  1.00  0.00     0.003 A 
HETATM   13  C   UNL     1      -3.812  -4.898 -33.585  1.00  0.00     0.001 A 
HETATM   14  C   UNL     1      -3.363  -3.784 -32.869  1.00  0.00     0.016 A 
ENDROOT
BRANCH   1  15
HETATM   15  C   UNL     1      -3.805   2.241 -31.698  1.00  0.00     0.272 C 
HETATM   16  N   UNL     1      -3.033   2.990 -32.554  1.00  0.00    -0.351 N 
HETATM   17  H   UNL     1      -2.368   2.471 -33.121  1.00  0.00     0.163 HD
HETATM   18  O   UNL     1      -4.633   2.712 -30.925  1.00  0.00    -0.266 OA
BRANCH  16  19
HETATM   19  C   UNL     1      -3.099   4.427 -32.627  1.00  0.00     0.163 C 
BRANCH  19  20
HETATM   20  C   UNL     1      -1.884   5.148 -32.085  1.00  0.00    -0.019 A 
HETATM   21  C   UNL     1      -1.183   4.691 -30.954  1.00  0.00     0.010 A 
HETATM   22  C   UNL     1      -0.068   5.379 -30.468  1.00  0.00     0.001 A 
HETATM   23  C   UNL     1       0.373   6.536 -31.102  1.00  0.00     0.002 A 
HETATM   24  C   UNL     1      -0.301   7.006 -32.226  1.00  0.00     0.024 A 
HETATM   25  C   UNL     1      -1.418   6.319 -32.715  1.00  0.00     0.042 A 
HETATM   26 CL   UNL     1      -2.193   6.962 -34.123  1.00  0.00    -0.084 Cl
ENDBRANCH  19  20
ENDBRANCH  16  19
ENDBRANCH   1  15
TORSDOF 3
ENDMDL
MODEL 2
REMARK VINA RESULT:      -9.3      2.570      3.374
REMARK  3 active torsions:
REMARK  status: ('A' for Active; 'I' for Inactive)
REMARK    1  A    between atoms: C_3  and  C_4 
REMARK    2  A    between atoms: C_4  and  N_5 
REMARK       I    between atoms: N_5  and  C_6 
REMARK    3  A    between atoms: C_6  and  C_7 
ROOT
HETATM    1  C   UNL     1      -6.782   1.230 -33.842  1.00  0.00     0.155 A 
HETATM    2  N   UNL     1      -7.925   0.902 -34.490  1.00  0.00    -0.168 NA
HETATM    3  N   UNL     1      -7.782  -0.414 -34.763  1.00  0.00    -0.276 N 
HETATM    4  H   UNL     1      -8.535  -0.891 -35.248  1.00  0.00     0.189 HD
HETATM    5  C   UNL     1      -6.601  -0.925 -34.331  1.00  0.00     0.074 A 
HETATM    6  C   UNL     1      -5.927   0.109 -33.740  1.00  0.00     0.031 A 
HETATM    7  C   UNL     1      -4.585  -0.075 -33.145  1.00  0.00     0.219 A 
HETATM    8  O   UNL     1      -4.011  -1.405 -33.295  1.00  0.00    -0.346 OA
HETATM    9  C   UNL     1      -4.755  -2.414 -33.869  1.00  0.00     0.081 A 
HETATM   10  C   UNL     1      -6.047  -2.252 -34.408  1.00  0.00     0.026 A 
HETATM   11  C   UNL     1      -4.143  -3.666 -33.905  1.00  0.00     0.038 A 
HETATM   12  C   UNL     1      -4.810  -4.755 -34.467  1.00  0.00     0.003 A 
HETATM   13  C   UNL     1      -6.091  -4.595 -34.997  1.00  0.00     0.001 A 
HETATM   14  C   UNL     1      -6.713  -3.343 -34.970  1.00  0.00     0.016 A 
ENDROOT
BRANCH   1  15
HETATM   15  C   UNL     1      -6.528   2.588 -33.337  1.00  0.00     0.272 C 
HETATM   16  N   UNL     1      -5.836   3.374 -34.228  1.00  0.00    -0.351 N 
HETATM   17  H   UNL     1      -5.569   2.927 -35.100  1.00  0.00     0.163 HD
HETATM   18  O   UNL     1      -6.899   2.962 -32.230  1.00  0.00    -0.266 OA
BRANCH  16  19
HETATM   19  C   UNL     1      -5.452   4.735 -33.949  1.00  0.00     0.163 C 
BRANCH  19  20
HETATM   20  C   UNL     1      -3.960   4.965 -33.845  1.00  0.00    -0.019 A 
HETATM   21  C   UNL     1      -3.162   5.231 -34.974  1.00  0.00     0.010 A 
HETATM   22  C   UNL     1      -1.784   5.432 -34.853  1.00  0.00     0.001 A 
HETATM   23  C   UNL     1      -1.174   5.375 -33.604  1.00  0.00     0.002 A 
HETATM   24  C   UNL     1      -1.943   5.118 -32.472  1.00  0.00     0.024 A 
HETATM   25  C   UNL     1      -3.323   4.917 -32.590  1.00  0.00     0.042 A 
HETATM   26 CL   UNL     1      -4.208   4.614 -31.134  1.00  0.00    -0.084 Cl
ENDBRANCH  19  20
ENDBRANCH  16  19
ENDBRANCH   1  15
TORSDOF 3
ENDMDL
MODEL 3
REMARK VINA RESULT:      -9.3      1.237      1.602
REMARK  3 active torsions:
REMARK  status: ('A' for Active; 'I' for Inactive)
REMARK    1  A    between atoms: C_3  and  C_4 
REMARK    2  A    between atoms: C_4  and  N_5 
REMARK       I    between atoms: N_5  and  C_6 
REMARK    3  A    between atoms: C_6  and  C_7 
ROOT
HETATM    1  C   UNL     1      -3.739   0.639 -31.991  1.00  0.00     0.155 A 
HETATM    2  N   UNL     1      -2.774   0.095 -31.213  1.00  0.00    -0.168 NA
HETATM    3  N   UNL     1      -2.774  -1.213 -31.555  1.00  0.00    -0.276 N 
HETATM    4  H   UNL     1      -2.112  -1.831 -31.098  1.00  0.00     0.189 HD
HETATM    5  C   UNL     1      -3.700  -1.518 -32.499  1.00  0.00     0.074 A 
HETATM    6  C   UNL     1      -4.347  -0.350 -32.797  1.00  0.00     0.031 A 
HETATM    7  C   UNL     1      -5.435  -0.295 -33.799  1.00  0.00     0.219 A 
HETATM    8  O   UNL     1      -5.809  -1.574 -34.386  1.00  0.00    -0.346 OA
HETATM    9  C   UNL     1      -5.096  -2.711 -34.070  1.00  0.00     0.081 A 
HETATM   10  C   UNL     1      -4.037  -2.762 -33.142  1.00  0.00     0.026 A 
HETATM   11  C   UNL     1      -5.489  -3.871 -34.736  1.00  0.00     0.038 A 
HETATM   12  C   UNL     1      -4.832  -5.077 -34.487  1.00  0.00     0.003 A 
HETATM   13  C   UNL     1      -3.781  -5.126 -33.570  1.00  0.00     0.001 A 
HETATM   14  C   UNL     1      -3.381  -3.970 -32.894  1.00  0.00     0.016 A 
ENDROOT
BRANCH   1  15
HETATM   15  C   UNL     1      -4.062   2.074 -31.954  1.00  0.00     0.272 C 
HETATM   16  N   UNL     1      -3.033   2.846 -31.471  1.00  0.00    -0.351 N 
HETATM   17  H   UNL     1      -2.198   2.345 -31.182  1.00  0.00     0.163 HD
HETATM   18  O   UNL     1      -5.146   2.518 -32.317  1.00  0.00    -0.266 OA
BRANCH  16  19
HETATM   19  C   UNL     1      -3.121   4.277 -31.320  1.00  0.00     0.163 C 
BRANCH  19  20
HETATM   20  C   UNL     1      -2.358   5.074 -32.356  1.00  0.00    -0.019 A 
HETATM   21  C   UNL     1      -2.202   4.626 -33.681  1.00  0.00     0.010 A 
HETATM   22  C   UNL     1      -1.486   5.376 -34.618  1.00  0.00     0.001 A 
HETATM   23  C   UNL     1      -0.913   6.590 -34.253  1.00  0.00     0.002 A 
HETATM   24  C   UNL     1      -1.057   7.056 -32.949  1.00  0.00     0.024 A 
HETATM   25  C   UNL     1      -1.774   6.308 -32.009  1.00  0.00     0.042 A 
HETATM   26 CL   UNL     1      -1.917   6.963 -30.414  1.00  0.00    -0.084 Cl
ENDBRANCH  19  20
ENDBRANCH  16  19
ENDBRANCH   1  15
TORSDOF 3
ENDMDL
MODEL 4
REMARK VINA RESULT:      -9.0      1.923      2.564
REMARK  3 active torsions:
REMARK  status: ('A' for Active; 'I' for Inactive)
REMARK    1  A    between atoms: C_3  and  C_4 
REMARK    2  A    between atoms: C_4  and  N_5 
REMARK       I    between atoms: N_5  and  C_6 
REMARK    3  A    between atoms: C_6  and  C_7 
ROOT
HETATM    1  C   UNL     1      -4.627   0.894 -32.677  1.00  0.00     0.155 A 
HETATM    2  N   UNL     1      -5.774   1.278 -33.287  1.00  0.00    -0.168 NA
HETATM    3  N   UNL     1      -6.231   0.148 -33.870  1.00  0.00    -0.276 N 
HETATM    4  H   UNL     1      -7.102   0.190 -34.389  1.00  0.00     0.189 HD
HETATM    5  C   UNL     1      -5.422  -0.923 -33.668  1.00  0.00     0.074 A 
HETATM    6  C   UNL     1      -4.373  -0.477 -32.911  1.00  0.00     0.031 A 
HETATM    7  C   UNL     1      -3.278  -1.378 -32.489  1.00  0.00     0.219 A 
HETATM    8  O   UNL     1      -3.361  -2.742 -32.992  1.00  0.00    -0.346 OA
HETATM    9  C   UNL     1      -4.461  -3.140 -33.722  1.00  0.00     0.081 A 
HETATM   10  C   UNL     1      -5.524  -2.294 -34.098  1.00  0.00     0.026 A 
HETATM   11  C   UNL     1      -4.479  -4.482 -34.099  1.00  0.00     0.038 A 
HETATM   12  C   UNL     1      -5.547  -4.986 -34.842  1.00  0.00     0.003 A 
HETATM   13  C   UNL     1      -6.601  -4.148 -35.211  1.00  0.00     0.001 A 
HETATM   14  C   UNL     1      -6.592  -2.800 -34.842  1.00  0.00     0.016 A 
ENDROOT
BRANCH   1  15
HETATM   15  C   UNL     1      -3.804   1.827 -31.894  1.00  0.00     0.272 C 
HETATM   16  N   UNL     1      -4.150   3.143 -32.084  1.00  0.00    -0.351 N 
HETATM   17  H   UNL     1      -4.901   3.314 -32.746  1.00  0.00     0.163 HD
HETATM   18  O   UNL     1      -2.901   1.451 -31.153  1.00  0.00    -0.266 OA
BRANCH  16  19
HETATM   19  C   UNL     1      -3.472   4.240 -31.441  1.00  0.00     0.163 C 
BRANCH  19  20
HETATM   20  C   UNL     1      -2.589   5.064 -32.353  1.00  0.00    -0.019 A 
HETATM   21  C   UNL     1      -2.378   4.723 -33.701  1.00  0.00     0.010 A 
HETATM   22  C   UNL     1      -1.552   5.496 -34.522  1.00  0.00     0.001 A 
HETATM   23  C   UNL     1      -0.921   6.627 -34.014  1.00  0.00     0.002 A 
HETATM   24  C   UNL     1      -1.118   6.988 -32.684  1.00  0.00     0.024 A 
HETATM   25  C   UNL     1      -1.945   6.216 -31.860  1.00  0.00     0.042 A 
HETATM   26 CL   UNL     1      -2.146   6.739 -30.223  1.00  0.00    -0.084 Cl
ENDBRANCH  19  20
ENDBRANCH  16  19
ENDBRANCH   1  15
TORSDOF 3
ENDMDL
MODEL 5
REMARK VINA RESULT:      -8.6      5.028      8.413
REMARK  3 active torsions:
REMARK  status: ('A' for Active; 'I' for Inactive)
REMARK    1  A    between atoms: C_3  and  C_4 
REMARK    2  A    between atoms: C_4  and  N_5 
REMARK       I    between atoms: N_5  and  C_6 
REMARK    3  A    between atoms: C_6  and  C_7 
ROOT
HETATM    1  C   UNL     1      -7.471   1.594 -33.257  1.00  0.00     0.155 A 
HETATM    2  N   UNL     1      -7.373   2.810 -33.845  1.00  0.00    -0.168 NA
HETATM    3  N   UNL     1      -8.642   3.106 -34.203  1.00  0.00    -0.276 N 
HETATM    4  H   UNL     1      -8.820   3.993 -34.663  1.00  0.00     0.189 HD
HETATM    5  C   UNL     1      -9.530   2.130 -33.881  1.00  0.00     0.074 A 
HETATM    6  C   UNL     1      -8.808   1.137 -33.278  1.00  0.00     0.031 A 
HETATM    7  C   UNL     1      -9.449  -0.103 -32.786  1.00  0.00     0.219 A 
HETATM    8  O   UNL     1     -10.877  -0.217 -33.051  1.00  0.00    -0.346 OA
HETATM    9  C   UNL     1     -11.554   0.835 -33.632  1.00  0.00     0.081 A 
HETATM   10  C   UNL     1     -10.954   2.032 -34.072  1.00  0.00     0.026 A 
HETATM   11  C   UNL     1     -12.928   0.655 -33.782  1.00  0.00     0.038 A 
HETATM   12  C   UNL     1     -13.706   1.658 -34.360  1.00  0.00     0.003 A 
HETATM   13  C   UNL     1     -13.112   2.845 -34.792  1.00  0.00     0.001 A 
HETATM   14  C   UNL     1     -11.734   3.035 -34.651  1.00  0.00     0.016 A 
ENDROOT
BRANCH   1  15
HETATM   15  C   UNL     1      -6.305   0.898 -32.693  1.00  0.00     0.272 C 
HETATM   16  N   UNL     1      -5.747  -0.012 -33.559  1.00  0.00    -0.351 N 
HETATM   17  H   UNL     1      -6.210  -0.111 -34.458  1.00  0.00     0.163 HD
HETATM   18  O   UNL     1      -5.887   1.118 -31.560  1.00  0.00    -0.266 OA
BRANCH  16  19
HETATM   19  C   UNL     1      -4.610  -0.830 -33.222  1.00  0.00     0.163 C 
BRANCH  19  20
HETATM   20  C   UNL     1      -4.701  -2.267 -33.687  1.00  0.00    -0.019 A 
HETATM   21  C   UNL     1      -5.577  -2.670 -34.711  1.00  0.00     0.010 A 
HETATM   22  C   UNL     1      -5.649  -4.006 -35.118  1.00  0.00     0.001 A 
HETATM   23  C   UNL     1      -4.846  -4.966 -34.511  1.00  0.00     0.002 A 
HETATM   24  C   UNL     1      -3.967  -4.591 -33.499  1.00  0.00     0.024 A 
HETATM   25  C   UNL     1      -3.893  -3.255 -33.090  1.00  0.00     0.042 A 
HETATM   26 CL   UNL     1      -2.768  -2.870 -31.833  1.00  0.00    -0.084 Cl
ENDBRANCH  19  20
ENDBRANCH  16  19
ENDBRANCH   1  15
TORSDOF 3
ENDMDL
MODEL 6
REMARK VINA RESULT:      -8.4      4.408      6.435
REMARK  3 active torsions:
REMARK  status: ('A' for Active; 'I' for Inactive)
REMARK    1  A    between atoms: C_3  and  C_4 
REMARK    2  A    between atoms: C_4  and  N_5 
REMARK       I    between atoms: N_5  and  C_6 
REMARK    3  A    between atoms: C_6  and  C_7 
ROOT
HETATM    1  C   UNL     1      -5.943   1.062 -33.320  1.00  0.00     0.155 A 
HETATM    2  N   UNL     1      -4.788   1.143 -32.617  1.00  0.00    -0.168 NA
HETATM    3  N   UNL     1      -4.267  -0.102 -32.695  1.00  0.00    -0.276 N 
HETATM    4  H   UNL     1      -3.378  -0.283 -32.240  1.00  0.00     0.189 HD
HETATM    5  C   UNL     1      -5.044  -0.963 -33.400  1.00  0.00     0.074 A 
HETATM    6  C   UNL     1      -6.136  -0.249 -33.811  1.00  0.00     0.031 A 
HETATM    7  C   UNL     1      -7.214  -0.867 -34.615  1.00  0.00     0.219 A 
HETATM    8  O   UNL     1      -7.061  -2.292 -34.875  1.00  0.00    -0.346 OA
HETATM    9  C   UNL     1      -5.919  -2.947 -34.465  1.00  0.00     0.081 A 
HETATM   10  C   UNL     1      -4.875  -2.355 -33.727  1.00  0.00     0.026 A 
HETATM   11  C   UNL     1      -5.838  -4.293 -34.822  1.00  0.00     0.038 A 
HETATM   12  C   UNL     1      -4.724  -5.048 -34.453  1.00  0.00     0.003 A 
HETATM   13  C   UNL     1      -3.688  -4.460 -33.726  1.00  0.00     0.001 A 
HETATM   14  C   UNL     1      -3.761  -3.112 -33.360  1.00  0.00     0.016 A 
ENDROOT
BRANCH   1  15
HETATM   15  C   UNL     1      -6.830   2.220 -33.509  1.00  0.00     0.272 C 
HETATM   16  N   UNL     1      -7.958   2.169 -32.727  1.00  0.00    -0.351 N 
HETATM   17  H   UNL     1      -8.056   1.345 -32.140  1.00  0.00     0.163 HD
HETATM   18  O   UNL     1      -6.574   3.128 -34.293  1.00  0.00    -0.266 OA
BRANCH  16  19
HETATM   19  C   UNL     1      -8.986   3.180 -32.755  1.00  0.00     0.163 C 
BRANCH  19  20
HETATM   20  C   UNL     1     -10.160   2.867 -33.656  1.00  0.00    -0.019 A 
HETATM   21  C   UNL     1     -10.911   1.684 -33.528  1.00  0.00     0.010 A 
HETATM   22  C   UNL     1     -11.987   1.414 -34.378  1.00  0.00     0.001 A 
HETATM   23  C   UNL     1     -12.338   2.321 -35.373  1.00  0.00     0.002 A 
HETATM   24  C   UNL     1     -11.613   3.502 -35.517  1.00  0.00     0.024 A 
HETATM   25  C   UNL     1     -10.536   3.774 -34.667  1.00  0.00     0.042 A 
HETATM   26 CL   UNL     1      -9.695   5.268 -34.905  1.00  0.00    -0.084 Cl
ENDBRANCH  19  20
ENDBRANCH  16  19
ENDBRANCH   1  15
TORSDOF 3
ENDMDL
MODEL 7
REMARK VINA RESULT:      -8.4      2.815      8.212
REMARK  3 active torsions:
REMARK  status: ('A' for Active; 'I' for Inactive)
REMARK    1  A    between atoms: C_3  and  C_4 
REMARK    2  A    between atoms: C_4  and  N_5 
REMARK       I    between atoms: N_5  and  C_6 
REMARK    3  A    between atoms: C_6  and  C_7 
ROOT
HETATM    1  C   UNL     1      -5.839   3.670 -31.961  1.00  0.00     0.155 A 
HETATM    2  N   UNL     1      -6.485   4.790 -32.362  1.00  0.00    -0.168 NA
HETATM    3  N   UNL     1      -5.501   5.706 -32.500  1.00  0.00    -0.276 N 
HETATM    4  H   UNL     1      -5.750   6.641 -32.806  1.00  0.00     0.189 HD
HETATM    5  C   UNL     1      -4.272   5.220 -32.192  1.00  0.00     0.074 A 
HETATM    6  C   UNL     1      -4.453   3.913 -31.832  1.00  0.00     0.031 A 
HETATM    7  C   UNL     1      -3.320   3.051 -31.427  1.00  0.00     0.219 A 
HETATM    8  O   UNL     1      -2.022   3.710 -31.373  1.00  0.00    -0.346 OA
HETATM    9  C   UNL     1      -1.899   5.021 -31.782  1.00  0.00     0.081 A 
HETATM   10  C   UNL     1      -2.970   5.836 -32.200  1.00  0.00     0.026 A 
HETATM   11  C   UNL     1      -0.604   5.538 -31.757  1.00  0.00     0.038 A 
HETATM   12  C   UNL     1      -0.371   6.857 -32.150  1.00  0.00     0.003 A 
HETATM   13  C   UNL     1      -1.431   7.662 -32.567  1.00  0.00     0.001 A 
HETATM   14  C   UNL     1      -2.734   7.155 -32.593  1.00  0.00     0.016 A 
ENDROOT
BRANCH   1  15
HETATM   15  C   UNL     1      -6.545   2.404 -31.712  1.00  0.00     0.272 C 
HETATM   16  N   UNL     1      -6.390   1.489 -32.726  1.00  0.00    -0.351 N 
HETATM   17  H   UNL     1      -5.837   1.797 -33.521  1.00  0.00     0.163 HD
HETATM   18  O   UNL     1      -7.205   2.203 -30.697  1.00  0.00    -0.266 OA
BRANCH  16  19
HETATM   19  C   UNL     1      -7.005   0.186 -32.717  1.00  0.00     0.163 C 
BRANCH  19  20
HETATM   20  C   UNL     1      -6.176  -0.912 -33.348  1.00  0.00    -0.019 A 
HETATM   21  C   UNL     1      -6.601  -1.609 -34.494  1.00  0.00     0.010 A 
HETATM   22  C   UNL     1      -5.821  -2.625 -35.053  1.00  0.00     0.001 A 
HETATM   23  C   UNL     1      -4.600  -2.966 -34.481  1.00  0.00     0.002 A 
HETATM   24  C   UNL     1      -4.155  -2.288 -33.348  1.00  0.00     0.024 A 
HETATM   25  C   UNL     1      -4.934  -1.270 -32.787  1.00  0.00     0.042 A 
HETATM   26 CL   UNL     1      -4.305  -0.469 -31.388  1.00  0.00    -0.084 Cl
ENDBRANCH  19  20
ENDBRANCH  16  19
ENDBRANCH   1  15
TORSDOF 3
ENDMDL
MODEL 8
REMARK VINA RESULT:      -8.2      2.856      8.612
REMARK  3 active torsions:
REMARK  status: ('A' for Active; 'I' for Inactive)
REMARK    1  A    between atoms: C_3  and  C_4 
REMARK    2  A    between atoms: C_4  and  N_5 
REMARK       I    between atoms: N_5  and  C_6 
REMARK    3  A    between atoms: C_6  and  C_7 
ROOT
HETATM    1  C   UNL     1      -3.436   4.331 -32.816  1.00  0.00     0.155 A 
HETATM    2  N   UNL     1      -2.276   4.153 -33.494  1.00  0.00    -0.168 NA
HETATM    3  N   UNL     1      -1.370   4.864 -32.786  1.00  0.00    -0.276 N 
HETATM    4  H   UNL     1      -0.407   4.872 -33.106  1.00  0.00     0.189 HD
HETATM    5  C   UNL     1      -1.905   5.490 -31.707  1.00  0.00     0.074 A 
HETATM    6  C   UNL     1      -3.237   5.176 -31.701  1.00  0.00     0.031 A 
HETATM    7  C   UNL     1      -4.153   5.686 -30.657  1.00  0.00     0.219 A 
HETATM    8  O   UNL     1      -3.553   6.593 -29.688  1.00  0.00    -0.346 OA
HETATM    9  C   UNL     1      -2.198   6.843 -29.727  1.00  0.00     0.081 A 
HETATM   10  C   UNL     1      -1.315   6.333 -30.700  1.00  0.00     0.026 A 
HETATM   11  C   UNL     1      -1.710   7.670 -28.716  1.00  0.00     0.038 A 
HETATM   12  C   UNL     1      -0.352   7.987 -28.666  1.00  0.00     0.003 A 
HETATM   13  C   UNL     1       0.522   7.478 -29.627  1.00  0.00     0.001 A 
HETATM   14  C   UNL     1       0.044   6.650 -30.647  1.00  0.00     0.016 A 
ENDROOT
BRANCH   1  15
HETATM   15  C   UNL     1      -4.696   3.702 -33.239  1.00  0.00     0.272 C 
HETATM   16  N   UNL     1      -4.889   2.457 -32.689  1.00  0.00    -0.351 N 
HETATM   17  H   UNL     1      -4.145   2.117 -32.086  1.00  0.00     0.163 HD
HETATM   18  O   UNL     1      -5.481   4.245 -34.009  1.00  0.00    -0.266 OA
BRANCH  16  19
HETATM   19  C   UNL     1      -6.040   1.638 -32.972  1.00  0.00     0.163 C 
BRANCH  19  20
HETATM   20  C   UNL     1      -5.722   0.222 -33.403  1.00  0.00    -0.019 A 
HETATM   21  C   UNL     1      -4.672  -0.519 -32.829  1.00  0.00     0.010 A 
HETATM   22  C   UNL     1      -4.393  -1.822 -33.250  1.00  0.00     0.001 A 
HETATM   23  C   UNL     1      -5.156  -2.413 -34.251  1.00  0.00     0.002 A 
HETATM   24  C   UNL     1      -6.203  -1.702 -34.832  1.00  0.00     0.024 A 
HETATM   25  C   UNL     1      -6.486  -0.397 -34.412  1.00  0.00     0.042 A 
HETATM   26 CL   UNL     1      -7.810   0.414 -35.175  1.00  0.00    -0.084 Cl
ENDBRANCH  19  20
ENDBRANCH  16  19
ENDBRANCH   1  15
TORSDOF 3
ENDMDL
MODEL 9
REMARK VINA RESULT:      -8.2      2.381      3.352
REMARK  3 active torsions:
REMARK  status: ('A' for Active; 'I' for Inactive)
REMARK    1  A    between atoms: C_3  and  C_4 
REMARK    2  A    between atoms: C_4  and  N_5 
REMARK       I    between atoms: N_5  and  C_6 
REMARK    3  A    between atoms: C_6  and  C_7 
ROOT
HETATM    1  C   UNL     1      -3.737   3.556 -31.951  1.00  0.00     0.155 A 
HETATM    2  N   UNL     1      -2.982   2.643 -31.294  1.00  0.00    -0.168 NA
HETATM    3  N   UNL     1      -3.476   1.453 -31.701  1.00  0.00    -0.276 N 
HETATM    4  H   UNL     1      -3.052   0.605 -31.339  1.00  0.00     0.189 HD
HETATM    5  C   UNL     1      -4.511   1.573 -32.570  1.00  0.00     0.074 A 
HETATM    6  C   UNL     1      -4.713   2.914 -32.747  1.00  0.00     0.031 A 
HETATM    7  C   UNL     1      -5.773   3.432 -33.640  1.00  0.00     0.219 A 
HETATM    8  O   UNL     1      -6.622   2.421 -34.255  1.00  0.00    -0.346 OA
HETATM    9  C   UNL     1      -6.346   1.083 -34.065  1.00  0.00     0.081 A 
HETATM   10  C   UNL     1      -5.316   0.585 -33.242  1.00  0.00     0.026 A 
HETATM   11  C   UNL     1      -7.174   0.196 -34.750  1.00  0.00     0.038 A 
HETATM   12  C   UNL     1      -6.981  -1.180 -34.624  1.00  0.00     0.003 A 
HETATM   13  C   UNL     1      -5.958  -1.673 -33.812  1.00  0.00     0.001 A 
HETATM   14  C   UNL     1      -5.124  -0.792 -33.118  1.00  0.00     0.016 A 
ENDROOT
BRANCH   1  15
HETATM   15  C   UNL     1      -3.518   5.003 -31.811  1.00  0.00     0.272 C 
HETATM   16  N   UNL     1      -3.237   5.385 -30.521  1.00  0.00    -0.351 N 
HETATM   17  H   UNL     1      -3.236   4.641 -29.828  1.00  0.00     0.163 HD
HETATM   18  O   UNL     1      -3.587   5.778 -32.760  1.00  0.00    -0.266 OA
BRANCH  16  19
HETATM   19  C   UNL     1      -3.007   6.753 -30.133  1.00  0.00     0.163 C 
BRANCH  19  20
HETATM   20  C   UNL     1      -1.698   6.999 -29.414  1.00  0.00    -0.019 A 
HETATM   21  C   UNL     1      -1.612   7.058 -28.011  1.00  0.00     0.010 A 
HETATM   22  C   UNL     1      -0.392   7.294 -27.371  1.00  0.00     0.001 A 
HETATM   23  C   UNL     1       0.767   7.474 -28.118  1.00  0.00     0.002 A 
HETATM   24  C   UNL     1       0.709   7.416 -29.508  1.00  0.00     0.024 A 
HETATM   25  C   UNL     1      -0.511   7.179 -30.151  1.00  0.00     0.042 A 
HETATM   26 CL   UNL     1      -0.496   7.110 -31.880  1.00  0.00    -0.084 Cl
ENDBRANCH  19  20
ENDBRANCH  16  19
ENDBRANCH   1  15
TORSDOF 3
ENDMDL
MODEL 10
REMARK VINA RESULT:      -8.1      2.969      8.214
REMARK  3 active torsions:
REMARK  status: ('A' for Active; 'I' for Inactive)
REMARK    1  A    between atoms: C_3  and  C_4 
REMARK    2  A    between atoms: C_4  and  N_5 
REMARK       I    between atoms: N_5  and  C_6 
REMARK    3  A    between atoms: C_6  and  C_7 
ROOT
HETATM    1  C   UNL     1      -5.336   4.261 -31.719  1.00  0.00     0.155 A 
HETATM    2  N   UNL     1      -5.891   5.129 -30.840  1.00  0.00    -0.168 NA
HETATM    3  N   UNL     1      -4.846   5.866 -30.401  1.00  0.00    -0.276 N 
HETATM    4  H   UNL     1      -5.024   6.602 -29.726  1.00  0.00     0.189 HD
HETATM    5  C   UNL     1      -3.662   5.494 -30.950  1.00  0.00     0.074 A 
HETATM    6  C   UNL     1      -3.938   4.457 -31.798  1.00  0.00     0.031 A 
HETATM    7  C   UNL     1      -2.878   3.788 -32.583  1.00  0.00     0.219 A 
HETATM    8  O   UNL     1      -1.523   4.263 -32.336  1.00  0.00    -0.346 OA
HETATM    9  C   UNL     1      -1.313   5.336 -31.496  1.00  0.00     0.081 A 
HETATM   10  C   UNL     1      -2.325   5.999 -30.772  1.00  0.00     0.026 A 
HETATM   11  C   UNL     1       0.010   5.758 -31.379  1.00  0.00     0.038 A 
HETATM   12  C   UNL     1       0.331   6.835 -30.552  1.00  0.00     0.003 A 
HETATM   13  C   UNL     1      -0.672   7.493 -29.838  1.00  0.00     0.001 A 
HETATM   14  C   UNL     1      -2.002   7.076 -29.945  1.00  0.00     0.016 A 
ENDROOT
BRANCH   1  15
HETATM   15  C   UNL     1      -6.136   3.273 -32.458  1.00  0.00     0.272 C 
HETATM   16  N   UNL     1      -6.189   2.048 -31.839  1.00  0.00    -0.351 N 
HETATM   17  H   UNL     1      -5.662   1.964 -30.974  1.00  0.00     0.163 HD
HETATM   18  O   UNL     1      -6.690   3.533 -33.522  1.00  0.00    -0.266 OA
BRANCH  16  19
HETATM   19  C   UNL     1      -6.895   0.916 -32.384  1.00  0.00     0.163 C 
BRANCH  19  20
HETATM   20  C   UNL     1      -6.010  -0.223 -32.844  1.00  0.00    -0.019 A 
HETATM   21  C   UNL     1      -4.921  -0.682 -32.081  1.00  0.00     0.010 A 
HETATM   22  C   UNL     1      -4.113  -1.730 -32.532  1.00  0.00     0.001 A 
HETATM   23  C   UNL     1      -4.378  -2.344 -33.752  1.00  0.00     0.002 A 
HETATM   24  C   UNL     1      -5.454  -1.910 -34.523  1.00  0.00     0.024 A 
HETATM   25  C   UNL     1      -6.264  -0.861 -34.074  1.00  0.00     0.042 A 
HETATM   26 CL   UNL     1      -7.586  -0.390 -35.086  1.00  0.00    -0.084 Cl
ENDBRANCH  19  20
ENDBRANCH  16  19
ENDBRANCH   1  15
TORSDOF 3
ENDMDL
