MODEL 1
REMARK VINA RESULT:      -8.6      0.000      0.000
REMARK  6 active torsions:
REMARK  status: ('A' for Active; 'I' for Inactive)
REMARK    1  A    between atoms: C_4  and  C_5 
REMARK    2  A    between atoms: C_5  and  N_6 
REMARK    3  A    between atoms: C_5  and  C_19 
REMARK       I    between atoms: N_6  and  C_7 
REMARK    4  A    between atoms: C_7  and  C_8 
REMARK       I    between atoms: C_19  and  N_20 
REMARK    5  A    between atoms: N_20  and  C_21 
REMARK    6  A    between atoms: C_21  and  C_22 
ROOT
HETATM    1  C   UNL     1      -4.911   1.023 -32.024  1.00  0.00     0.210 C 
ENDROOT
BRANCH   1   2
HETATM    2  C   UNL     1      -5.095  -0.167 -32.957  1.00  0.00    -0.026 A 
HETATM    3  C   UNL     1      -6.222  -0.238 -33.794  1.00  0.00     0.010 A 
HETATM    4  C   UNL     1      -6.397  -1.317 -34.664  1.00  0.00     0.001 A 
HETATM    5  C   UNL     1      -5.456  -2.343 -34.705  1.00  0.00     0.000 A 
HETATM    6  C   UNL     1      -4.343  -2.296 -33.870  1.00  0.00     0.001 A 
HETATM    7  C   UNL     1      -4.165  -1.218 -33.002  1.00  0.00     0.010 A 
ENDBRANCH   1   2
BRANCH   1   8
HETATM    8  N   UNL     1      -4.287   2.164 -32.697  1.00  0.00    -0.340 N 
HETATM    9  C   UNL     1      -3.304   2.954 -32.158  1.00  0.00     0.253 C 
HETATM   10  O   UNL     1      -2.649   2.631 -31.173  1.00  0.00    -0.268 OA
HETATM   11  H   UNL     1      -4.706   2.447 -33.571  1.00  0.00     0.164 HD
BRANCH   9  12
HETATM   12  C   UNL     1      -2.969   4.194 -32.889  1.00  0.00     0.047 A 
HETATM   13  C   UNL     1      -1.947   5.078 -32.489  1.00  0.00     0.027 A 
HETATM   14  C   UNL     1      -1.776   6.218 -33.271  1.00  0.00     0.138 A 
HETATM   15  C   UNL     1      -0.946   5.143 -31.473  1.00  0.00     0.033 A 
HETATM   16  N   UNL     1      -0.761   6.961 -32.735  1.00  0.00    -0.350 N 
HETATM   17  N   UNL     1      -2.460   6.569 -34.374  1.00  0.00    -0.242 NA
HETATM   18  H   UNL     1      -0.445   7.838 -33.125  1.00  0.00     0.166 HD
HETATM   19  C   UNL     1      -0.244   6.319 -31.640  1.00  0.00     0.090 A 
HETATM   20  C   UNL     1      -3.397   5.666 -34.732  1.00  0.00     0.120 A 
HETATM   21  C   UNL     1      -3.688   4.496 -34.051  1.00  0.00     0.037 A 
ENDBRANCH   9  12
ENDBRANCH   1   8
BRANCH   1  22
HETATM   22  C   UNL     1      -6.150   1.278 -31.119  1.00  0.00     0.245 C 
HETATM   23  N   UNL     1      -6.965   2.336 -31.457  1.00  0.00    -0.354 N 
HETATM   24  H   UNL     1      -6.844   2.708 -32.401  1.00  0.00     0.162 HD
HETATM   25  O   UNL     1      -6.450   0.497 -30.210  1.00  0.00    -0.271 OA
BRANCH  23  26
HETATM   26  C   UNL     1      -8.295   2.404 -30.900  1.00  0.00     0.168 C 
BRANCH  26  27
HETATM   27  C   UNL     1      -9.309   1.839 -31.842  1.00  0.00     0.000 A 
HETATM   28  S   UNL     1     -10.401   2.854 -32.692  1.00  0.00    -0.105 SA
HETATM   29  C   UNL     1     -11.096   1.530 -33.518  1.00  0.00     0.050 A 
HETATM   30  C   UNL     1     -10.501   0.337 -33.177  1.00  0.00     0.008 A 
HETATM   31  C   UNL     1      -9.472   0.516 -32.207  1.00  0.00     0.017 A 
ENDBRANCH  26  27
ENDBRANCH  23  26
ENDBRANCH   1  22
TORSDOF 6
ENDMDL
MODEL 2
REMARK VINA RESULT:      -8.6      3.091      6.315
REMARK  6 active torsions:
REMARK  status: ('A' for Active; 'I' for Inactive)
REMARK    1  A    between atoms: C_4  and  C_5 
REMARK    2  A    between atoms: C_5  and  N_6 
REMARK    3  A    between atoms: C_5  and  C_19 
REMARK       I    between atoms: N_6  and  C_7 
REMARK    4  A    between atoms: C_7  and  C_8 
REMARK       I    between atoms: C_19  and  N_20 
REMARK    5  A    between atoms: N_20  and  C_21 
REMARK    6  A    between atoms: C_21  and  C_22 
ROOT
HETATM    1  C   UNL     1      -5.697  -0.527 -33.691  1.00  0.00     0.210 C 
ENDROOT
BRANCH   1   2
HETATM    2  C   UNL     1      -5.666  -1.998 -34.084  1.00  0.00    -0.026 A 
HETATM    3  C   UNL     1      -4.463  -2.722 -34.010  1.00  0.00     0.010 A 
HETATM    4  C   UNL     1      -4.423  -4.075 -34.355  1.00  0.00     0.001 A 
HETATM    5  C   UNL     1      -5.578  -4.722 -34.787  1.00  0.00     0.000 A 
HETATM    6  C   UNL     1      -6.774  -4.015 -34.882  1.00  0.00     0.001 A 
HETATM    7  C   UNL     1      -6.817  -2.664 -34.536  1.00  0.00     0.010 A 
ENDBRANCH   1   2
BRANCH   1   8
HETATM    8  N   UNL     1      -7.050   0.032 -33.744  1.00  0.00    -0.340 N 
HETATM    9  C   UNL     1      -7.352   1.368 -33.670  1.00  0.00     0.253 C 
HETATM   10  O   UNL     1      -6.518   2.254 -33.826  1.00  0.00    -0.268 OA
HETATM   11  H   UNL     1      -7.807  -0.635 -33.713  1.00  0.00     0.164 HD
BRANCH   9  12
HETATM   12  C   UNL     1      -8.777   1.721 -33.503  1.00  0.00     0.047 A 
HETATM   13  C   UNL     1      -9.273   2.437 -32.394  1.00  0.00     0.027 A 
HETATM   14  C   UNL     1     -10.647   2.666 -32.373  1.00  0.00     0.138 A 
HETATM   15  C   UNL     1      -8.750   3.068 -31.226  1.00  0.00     0.033 A 
HETATM   16  N   UNL     1     -10.952   3.355 -31.232  1.00  0.00    -0.350 N 
HETATM   17  N   UNL     1     -11.557   2.299 -33.292  1.00  0.00    -0.242 NA
HETATM   18  H   UNL     1     -11.889   3.641 -30.986  1.00  0.00     0.166 HD
HETATM   19  C   UNL     1      -9.807   3.609 -30.523  1.00  0.00     0.090 A 
HETATM   20  C   UNL     1     -11.020   1.654 -34.349  1.00  0.00     0.120 A 
HETATM   21  C   UNL     1      -9.678   1.346 -34.506  1.00  0.00     0.037 A 
ENDBRANCH   9  12
ENDBRANCH   1   8
BRANCH   1  22
HETATM   22  C   UNL     1      -4.811  -0.215 -32.451  1.00  0.00     0.245 C 
HETATM   23  N   UNL     1      -3.880   0.793 -32.584  1.00  0.00    -0.354 N 
HETATM   24  H   UNL     1      -4.011   1.417 -33.381  1.00  0.00     0.162 HD
HETATM   25  O   UNL     1      -5.013  -0.767 -31.365  1.00  0.00    -0.271 OA
BRANCH  23  26
HETATM   26  C   UNL     1      -3.295   1.369 -31.398  1.00  0.00     0.168 C 
BRANCH  26  27
HETATM   27  C   UNL     1      -3.713   2.794 -31.222  1.00  0.00     0.000 A 
HETATM   28  S   UNL     1      -2.710   4.088 -31.737  1.00  0.00    -0.105 SA
HETATM   29  C   UNL     1      -3.864   5.258 -31.270  1.00  0.00     0.050 A 
HETATM   30  C   UNL     1      -5.002   4.685 -30.753  1.00  0.00     0.008 A 
HETATM   31  C   UNL     1      -4.913   3.263 -30.722  1.00  0.00     0.017 A 
ENDBRANCH  26  27
ENDBRANCH  23  26
ENDBRANCH   1  22
TORSDOF 6
ENDMDL
MODEL 3
REMARK VINA RESULT:      -8.4      2.837      6.985
REMARK  6 active torsions:
REMARK  status: ('A' for Active; 'I' for Inactive)
REMARK    1  A    between atoms: C_4  and  C_5 
REMARK    2  A    between atoms: C_5  and  N_6 
REMARK    3  A    between atoms: C_5  and  C_19 
REMARK       I    between atoms: N_6  and  C_7 
REMARK    4  A    between atoms: C_7  and  C_8 
REMARK       I    between atoms: C_19  and  N_20 
REMARK    5  A    between atoms: N_20  and  C_21 
REMARK    6  A    between atoms: C_21  and  C_22 
ROOT
HETATM    1  C   UNL     1      -7.815   1.838 -32.466  1.00  0.00     0.210 C 
ENDROOT
BRANCH   1   2
HETATM    2  C   UNL     1      -9.169   1.763 -33.158  1.00  0.00    -0.026 A 
HETATM    3  C   UNL     1     -10.034   0.685 -32.902  1.00  0.00     0.010 A 
HETATM    4  C   UNL     1     -11.285   0.612 -33.520  1.00  0.00     0.001 A 
HETATM    5  C   UNL     1     -11.687   1.607 -34.407  1.00  0.00     0.000 A 
HETATM    6  C   UNL     1     -10.836   2.673 -34.684  1.00  0.00     0.001 A 
HETATM    7  C   UNL     1      -9.587   2.749 -34.067  1.00  0.00     0.010 A 
ENDBRANCH   1   2
BRANCH   1   8
HETATM    8  N   UNL     1      -6.994   0.652 -32.723  1.00  0.00    -0.340 N 
HETATM    9  C   UNL     1      -6.611   0.215 -33.965  1.00  0.00     0.253 C 
HETATM   10  O   UNL     1      -6.680   0.912 -34.972  1.00  0.00    -0.268 OA
HETATM   11  H   UNL     1      -6.806   0.061 -31.926  1.00  0.00     0.164 HD
BRANCH   9  12
HETATM   12  C   UNL     1      -5.989  -1.124 -34.039  1.00  0.00     0.047 A 
HETATM   13  C   UNL     1      -4.873  -1.503 -33.265  1.00  0.00     0.027 A 
HETATM   14  C   UNL     1      -4.390  -2.793 -33.472  1.00  0.00     0.138 A 
HETATM   15  C   UNL     1      -4.055  -0.935 -32.243  1.00  0.00     0.033 A 
HETATM   16  N   UNL     1      -3.308  -2.984 -32.657  1.00  0.00    -0.350 N 
HETATM   17  N   UNL     1      -4.870  -3.728 -34.311  1.00  0.00    -0.242 NA
HETATM   18  H   UNL     1      -2.781  -3.845 -32.624  1.00  0.00     0.166 HD
HETATM   19  C   UNL     1      -3.092  -1.862 -31.902  1.00  0.00     0.090 A 
HETATM   20  C   UNL     1      -5.963  -3.323 -34.993  1.00  0.00     0.120 A 
HETATM   21  C   UNL     1      -6.551  -2.072 -34.901  1.00  0.00     0.037 A 
ENDBRANCH   9  12
ENDBRANCH   1   8
BRANCH   1  22
HETATM   22  C   UNL     1      -7.153   3.241 -32.585  1.00  0.00     0.245 C 
HETATM   23  N   UNL     1      -6.215   3.409 -33.580  1.00  0.00    -0.354 N 
HETATM   24  H   UNL     1      -6.210   2.696 -34.312  1.00  0.00     0.162 HD
HETATM   25  O   UNL     1      -7.536   4.189 -31.892  1.00  0.00    -0.271 OA
BRANCH  23  26
HETATM   26  C   UNL     1      -5.842   4.746 -33.975  1.00  0.00     0.168 C 
BRANCH  26  27
HETATM   27  C   UNL     1      -4.356   4.893 -34.058  1.00  0.00     0.000 A 
HETATM   28  S   UNL     1      -3.347   4.532 -32.718  1.00  0.00    -0.105 SA
HETATM   29  C   UNL     1      -1.928   4.872 -33.608  1.00  0.00     0.050 A 
HETATM   30  C   UNL     1      -2.206   5.233 -34.907  1.00  0.00     0.008 A 
HETATM   31  C   UNL     1      -3.607   5.248 -35.165  1.00  0.00     0.017 A 
ENDBRANCH  26  27
ENDBRANCH  23  26
ENDBRANCH   1  22
TORSDOF 6
ENDMDL
MODEL 4
REMARK VINA RESULT:      -8.4      3.103      6.606
REMARK  6 active torsions:
REMARK  status: ('A' for Active; 'I' for Inactive)
REMARK    1  A    between atoms: C_4  and  C_5 
REMARK    2  A    between atoms: C_5  and  N_6 
REMARK    3  A    between atoms: C_5  and  C_19 
REMARK       I    between atoms: N_6  and  C_7 
REMARK    4  A    between atoms: C_7  and  C_8 
REMARK       I    between atoms: C_19  and  N_20 
REMARK    5  A    between atoms: N_20  and  C_21 
REMARK    6  A    between atoms: C_21  and  C_22 
ROOT
HETATM    1  C   UNL     1      -6.359   1.092 -33.406  1.00  0.00     0.210 C 
ENDROOT
BRANCH   1   2
HETATM    2  C   UNL     1      -5.298   1.987 -32.780  1.00  0.00    -0.026 A 
HETATM    3  C   UNL     1      -4.325   1.437 -31.928  1.00  0.00     0.010 A 
HETATM    4  C   UNL     1      -3.338   2.245 -31.357  1.00  0.00     0.001 A 
HETATM    5  C   UNL     1      -3.313   3.612 -31.620  1.00  0.00     0.000 A 
HETATM    6  C   UNL     1      -4.280   4.176 -32.449  1.00  0.00     0.001 A 
HETATM    7  C   UNL     1      -5.266   3.371 -33.022  1.00  0.00     0.010 A 
ENDBRANCH   1   2
BRANCH   1   8
HETATM    8  N   UNL     1      -5.859  -0.258 -33.673  1.00  0.00    -0.340 N 
HETATM    9  C   UNL     1      -6.411  -1.138 -34.569  1.00  0.00     0.253 C 
HETATM   10  O   UNL     1      -7.209  -0.800 -35.437  1.00  0.00    -0.268 OA
HETATM   11  H   UNL     1      -5.129  -0.590 -33.061  1.00  0.00     0.164 HD
BRANCH   9  12
HETATM   12  C   UNL     1      -5.914  -2.529 -34.529  1.00  0.00     0.047 A 
HETATM   13  C   UNL     1      -4.816  -2.937 -33.744  1.00  0.00     0.027 A 
HETATM   14  C   UNL     1      -4.457  -4.280 -33.838  1.00  0.00     0.138 A 
HETATM   15  C   UNL     1      -3.923  -2.356 -32.795  1.00  0.00     0.033 A 
HETATM   16  N   UNL     1      -3.375  -4.495 -33.030  1.00  0.00    -0.350 N 
HETATM   17  N   UNL     1      -5.043  -5.239 -34.577  1.00  0.00    -0.242 NA
HETATM   18  H   UNL     1      -2.927  -5.394 -32.925  1.00  0.00     0.166 HD
HETATM   19  C   UNL     1      -3.039  -3.333 -32.387  1.00  0.00     0.090 A 
HETATM   20  C   UNL     1      -6.112  -4.800 -35.273  1.00  0.00     0.120 A 
HETATM   21  C   UNL     1      -6.582  -3.497 -35.288  1.00  0.00     0.037 A 
ENDBRANCH   9  12
ENDBRANCH   1   8
BRANCH   1  22
HETATM   22  C   UNL     1      -7.754   1.250 -32.735  1.00  0.00     0.245 C 
HETATM   23  N   UNL     1      -8.851   0.856 -33.470  1.00  0.00    -0.354 N 
HETATM   24  H   UNL     1      -8.655   0.265 -34.279  1.00  0.00     0.162 HD
HETATM   25  O   UNL     1      -7.860   1.605 -31.557  1.00  0.00    -0.271 OA
BRANCH  23  26
HETATM   26  C   UNL     1     -10.106   0.634 -32.794  1.00  0.00     0.168 C 
BRANCH  26  27
HETATM   27  C   UNL     1     -11.255   1.164 -33.591  1.00  0.00     0.000 A 
HETATM   28  S   UNL     1     -11.095   2.572 -34.559  1.00  0.00    -0.105 SA
HETATM   29  C   UNL     1     -12.702   2.446 -35.127  1.00  0.00     0.050 A 
HETATM   30  C   UNL     1     -13.348   1.345 -34.613  1.00  0.00     0.008 A 
HETATM   31  C   UNL     1     -12.514   0.608 -33.724  1.00  0.00     0.017 A 
ENDBRANCH  26  27
ENDBRANCH  23  26
ENDBRANCH   1  22
TORSDOF 6
ENDMDL
MODEL 5
REMARK VINA RESULT:      -8.4      2.642      6.821
REMARK  6 active torsions:
REMARK  status: ('A' for Active; 'I' for Inactive)
REMARK    1  A    between atoms: C_4  and  C_5 
REMARK    2  A    between atoms: C_5  and  N_6 
REMARK    3  A    between atoms: C_5  and  C_19 
REMARK       I    between atoms: N_6  and  C_7 
REMARK    4  A    between atoms: C_7  and  C_8 
REMARK       I    between atoms: C_19  and  N_20 
REMARK    5  A    between atoms: N_20  and  C_21 
REMARK    6  A    between atoms: C_21  and  C_22 
ROOT
HETATM    1  C   UNL     1      -4.631   3.003 -32.134  1.00  0.00     0.210 C 
ENDROOT
BRANCH   1   2
HETATM    2  C   UNL     1      -3.803   3.891 -33.054  1.00  0.00    -0.026 A 
HETATM    3  C   UNL     1      -4.401   4.507 -34.166  1.00  0.00     0.010 A 
HETATM    4  C   UNL     1      -3.656   5.335 -35.010  1.00  0.00     0.001 A 
HETATM    5  C   UNL     1      -2.303   5.551 -34.762  1.00  0.00     0.000 A 
HETATM    6  C   UNL     1      -1.690   4.934 -33.674  1.00  0.00     0.001 A 
HETATM    7  C   UNL     1      -2.433   4.109 -32.829  1.00  0.00     0.010 A 
ENDBRANCH   1   2
BRANCH   1   8
HETATM    8  N   UNL     1      -6.070   3.204 -32.317  1.00  0.00    -0.340 N 
HETATM    9  C   UNL     1      -7.014   3.075 -31.330  1.00  0.00     0.253 C 
HETATM   10  O   UNL     1      -6.736   3.046 -30.136  1.00  0.00    -0.268 OA
HETATM   11  H   UNL     1      -6.383   3.331 -33.268  1.00  0.00     0.164 HD
BRANCH   9  12
HETATM   12  C   UNL     1      -8.429   3.084 -31.756  1.00  0.00     0.047 A 
HETATM   13  C   UNL     1      -9.117   1.931 -32.184  1.00  0.00     0.027 A 
HETATM   14  C   UNL     1     -10.440   2.113 -32.579  1.00  0.00     0.138 A 
HETATM   15  C   UNL     1      -8.856   0.533 -32.312  1.00  0.00     0.033 A 
HETATM   16  N   UNL     1     -10.944   0.904 -32.971  1.00  0.00    -0.350 N 
HETATM   17  N   UNL     1     -11.147   3.257 -32.586  1.00  0.00    -0.242 NA
HETATM   18  H   UNL     1     -11.889   0.774 -33.303  1.00  0.00     0.166 HD
HETATM   19  C   UNL     1      -9.991  -0.069 -32.814  1.00  0.00     0.090 A 
HETATM   20  C   UNL     1     -10.451   4.319 -32.128  1.00  0.00     0.120 A 
HETATM   21  C   UNL     1      -9.130   4.295 -31.711  1.00  0.00     0.037 A 
ENDBRANCH   9  12
ENDBRANCH   1   8
BRANCH   1  22
HETATM   22  C   UNL     1      -4.087   1.548 -32.051  1.00  0.00     0.245 C 
HETATM   23  N   UNL     1      -4.662   0.615 -32.886  1.00  0.00    -0.354 N 
HETATM   24  H   UNL     1      -5.211   0.991 -33.662  1.00  0.00     0.162 HD
HETATM   25  O   UNL     1      -3.109   1.270 -31.350  1.00  0.00    -0.271 OA
BRANCH  23  26
HETATM   26  C   UNL     1      -3.979  -0.633 -33.121  1.00  0.00     0.168 C 
BRANCH  26  27
HETATM   27  C   UNL     1      -4.880  -1.633 -33.772  1.00  0.00     0.000 A 
HETATM   28  S   UNL     1      -4.287  -3.151 -34.311  1.00  0.00    -0.105 SA
HETATM   29  C   UNL     1      -5.839  -3.654 -34.818  1.00  0.00     0.050 A 
HETATM   30  C   UNL     1      -6.800  -2.701 -34.566  1.00  0.00     0.008 A 
HETATM   31  C   UNL     1      -6.245  -1.534 -33.965  1.00  0.00     0.017 A 
ENDBRANCH  26  27
ENDBRANCH  23  26
ENDBRANCH   1  22
TORSDOF 6
ENDMDL
MODEL 6
REMARK VINA RESULT:      -8.3      3.551      8.399
REMARK  6 active torsions:
REMARK  status: ('A' for Active; 'I' for Inactive)
REMARK    1  A    between atoms: C_4  and  C_5 
REMARK    2  A    between atoms: C_5  and  N_6 
REMARK    3  A    between atoms: C_5  and  C_19 
REMARK       I    between atoms: N_6  and  C_7 
REMARK    4  A    between atoms: C_7  and  C_8 
REMARK       I    between atoms: C_19  and  N_20 
REMARK    5  A    between atoms: N_20  and  C_21 
REMARK    6  A    between atoms: C_21  and  C_22 
ROOT
HETATM    1  C   UNL     1      -8.161   2.333 -33.938  1.00  0.00     0.210 C 
ENDROOT
BRANCH   1   2
HETATM    2  C   UNL     1      -7.520   0.952 -33.925  1.00  0.00    -0.026 A 
HETATM    3  C   UNL     1      -7.540   0.154 -35.082  1.00  0.00     0.010 A 
HETATM    4  C   UNL     1      -6.944  -1.110 -35.088  1.00  0.00     0.001 A 
HETATM    5  C   UNL     1      -6.329  -1.598 -33.938  1.00  0.00     0.000 A 
HETATM    6  C   UNL     1      -6.314  -0.828 -32.779  1.00  0.00     0.001 A 
HETATM    7  C   UNL     1      -6.907   0.436 -32.772  1.00  0.00     0.010 A 
ENDBRANCH   1   2
BRANCH   1   8
HETATM    8  N   UNL     1      -9.570   2.295 -33.544  1.00  0.00    -0.340 N 
HETATM    9  C   UNL     1     -10.548   3.122 -34.036  1.00  0.00     0.253 C 
HETATM   10  O   UNL     1     -10.408   3.796 -35.051  1.00  0.00    -0.268 OA
HETATM   11  H   UNL     1      -9.798   1.690 -32.768  1.00  0.00     0.164 HD
BRANCH   9  12
HETATM   12  C   UNL     1     -11.855   3.091 -33.348  1.00  0.00     0.047 A 
HETATM   13  C   UNL     1     -12.755   2.010 -33.442  1.00  0.00     0.027 A 
HETATM   14  C   UNL     1     -13.959   2.148 -32.754  1.00  0.00     0.138 A 
HETATM   15  C   UNL     1     -12.792   0.717 -34.045  1.00  0.00     0.033 A 
HETATM   16  N   UNL     1     -14.708   1.024 -32.965  1.00  0.00    -0.350 N 
HETATM   17  N   UNL     1     -14.360   3.184 -31.997  1.00  0.00    -0.242 NA
HETATM   18  H   UNL     1     -15.627   0.883 -32.570  1.00  0.00     0.166 HD
HETATM   19  C   UNL     1     -14.010   0.142 -33.748  1.00  0.00     0.090 A 
HETATM   20  C   UNL     1     -13.442   4.170 -31.910  1.00  0.00     0.120 A 
HETATM   21  C   UNL     1     -12.209   4.179 -32.542  1.00  0.00     0.037 A 
ENDBRANCH   9  12
ENDBRANCH   1   8
BRANCH   1  22
HETATM   22  C   UNL     1      -7.245   3.429 -33.321  1.00  0.00     0.245 C 
HETATM   23  N   UNL     1      -6.305   4.001 -34.151  1.00  0.00    -0.354 N 
HETATM   24  H   UNL     1      -6.446   3.853 -35.152  1.00  0.00     0.162 HD
HETATM   25  O   UNL     1      -7.430   3.845 -32.174  1.00  0.00    -0.271 OA
BRANCH  23  26
HETATM   26  C   UNL     1      -5.689   5.246 -33.761  1.00  0.00     0.168 C 
BRANCH  26  27
HETATM   27  C   UNL     1      -4.202   5.187 -33.907  1.00  0.00     0.000 A 
HETATM   28  S   UNL     1      -3.189   4.813 -32.574  1.00  0.00    -0.105 SA
HETATM   29  C   UNL     1      -1.780   4.882 -33.538  1.00  0.00     0.050 A 
HETATM   30  C   UNL     1      -2.067   5.160 -34.855  1.00  0.00     0.008 A 
HETATM   31  C   UNL     1      -3.464   5.340 -35.067  1.00  0.00     0.017 A 
ENDBRANCH  26  27
ENDBRANCH  23  26
ENDBRANCH   1  22
TORSDOF 6
ENDMDL
MODEL 7
REMARK VINA RESULT:      -8.3      3.385      7.589
REMARK  6 active torsions:
REMARK  status: ('A' for Active; 'I' for Inactive)
REMARK    1  A    between atoms: C_4  and  C_5 
REMARK    2  A    between atoms: C_5  and  N_6 
REMARK    3  A    between atoms: C_5  and  C_19 
REMARK       I    between atoms: N_6  and  C_7 
REMARK    4  A    between atoms: C_7  and  C_8 
REMARK       I    between atoms: C_19  and  N_20 
REMARK    5  A    between atoms: N_20  and  C_21 
REMARK    6  A    between atoms: C_21  and  C_22 
ROOT
HETATM    1  C   UNL     1      -6.783   1.594 -32.609  1.00  0.00     0.210 C 
ENDROOT
BRANCH   1   2
HETATM    2  C   UNL     1      -5.818   2.705 -32.999  1.00  0.00    -0.026 A 
HETATM    3  C   UNL     1      -4.590   2.840 -32.329  1.00  0.00     0.010 A 
HETATM    4  C   UNL     1      -3.689   3.847 -32.686  1.00  0.00     0.001 A 
HETATM    5  C   UNL     1      -4.005   4.738 -33.709  1.00  0.00     0.000 A 
HETATM    6  C   UNL     1      -5.224   4.628 -34.372  1.00  0.00     0.001 A 
HETATM    7  C   UNL     1      -6.124   3.622 -34.018  1.00  0.00     0.010 A 
ENDBRANCH   1   2
BRANCH   1   8
HETATM    8  N   UNL     1      -8.087   1.737 -33.261  1.00  0.00    -0.340 N 
HETATM    9  C   UNL     1      -9.292   1.783 -32.608  1.00  0.00     0.253 C 
HETATM   10  O   UNL     1      -9.394   1.984 -31.402  1.00  0.00    -0.268 OA
HETATM   11  H   UNL     1      -8.088   1.677 -34.269  1.00  0.00     0.164 HD
BRANCH   9  12
HETATM   12  C   UNL     1     -10.507   1.692 -33.444  1.00  0.00     0.047 A 
HETATM   13  C   UNL     1     -10.899   2.695 -34.353  1.00  0.00     0.027 A 
HETATM   14  C   UNL     1     -12.086   2.469 -35.047  1.00  0.00     0.138 A 
HETATM   15  C   UNL     1     -10.394   3.942 -34.832  1.00  0.00     0.033 A 
HETATM   16  N   UNL     1     -12.317   3.539 -35.866  1.00  0.00    -0.350 N 
HETATM   17  N   UNL     1     -12.896   1.400 -34.964  1.00  0.00    -0.242 NA
HETATM   18  H   UNL     1     -13.121   3.612 -36.475  1.00  0.00     0.166 HD
HETATM   19  C   UNL     1     -11.295   4.444 -35.748  1.00  0.00     0.090 A 
HETATM   20  C   UNL     1     -12.450   0.455 -34.110  1.00  0.00     0.120 A 
HETATM   21  C   UNL     1     -11.297   0.541 -33.346  1.00  0.00     0.037 A 
ENDBRANCH   9  12
ENDBRANCH   1   8
BRANCH   1  22
HETATM   22  C   UNL     1      -6.111   0.191 -32.589  1.00  0.00     0.245 C 
HETATM   23  N   UNL     1      -5.469  -0.213 -33.739  1.00  0.00    -0.354 N 
HETATM   24  H   UNL     1      -5.265   0.523 -34.417  1.00  0.00     0.162 HD
HETATM   25  O   UNL     1      -6.059  -0.478 -31.552  1.00  0.00    -0.271 OA
BRANCH  23  26
HETATM   26  C   UNL     1      -4.535  -1.312 -33.673  1.00  0.00     0.168 C 
BRANCH  26  27
HETATM   27  C   UNL     1      -5.140  -2.572 -34.202  1.00  0.00     0.000 A 
HETATM   28  S   UNL     1      -4.270  -4.052 -34.193  1.00  0.00    -0.105 SA
HETATM   29  C   UNL     1      -5.593  -4.913 -34.845  1.00  0.00     0.050 A 
HETATM   30  C   UNL     1      -6.688  -4.104 -35.048  1.00  0.00     0.008 A 
HETATM   31  C   UNL     1      -6.425  -2.753 -34.679  1.00  0.00     0.017 A 
ENDBRANCH  26  27
ENDBRANCH  23  26
ENDBRANCH   1  22
TORSDOF 6
ENDMDL
MODEL 8
REMARK VINA RESULT:      -8.2      2.756      7.116
REMARK  6 active torsions:
REMARK  status: ('A' for Active; 'I' for Inactive)
REMARK    1  A    between atoms: C_4  and  C_5 
REMARK    2  A    between atoms: C_5  and  N_6 
REMARK    3  A    between atoms: C_5  and  C_19 
REMARK       I    between atoms: N_6  and  C_7 
REMARK    4  A    between atoms: C_7  and  C_8 
REMARK       I    between atoms: C_19  and  N_20 
REMARK    5  A    between atoms: N_20  and  C_21 
REMARK    6  A    between atoms: C_21  and  C_22 
ROOT
HETATM    1  C   UNL     1      -6.590   1.189 -31.515  1.00  0.00     0.210 C 
ENDROOT
BRANCH   1   2
HETATM    2  C   UNL     1      -7.822   1.247 -32.408  1.00  0.00    -0.026 A 
HETATM    3  C   UNL     1      -7.812   0.622 -33.667  1.00  0.00     0.010 A 
HETATM    4  C   UNL     1      -8.941   0.657 -34.490  1.00  0.00     0.001 A 
HETATM    5  C   UNL     1     -10.091   1.322 -34.073  1.00  0.00     0.000 A 
HETATM    6  C   UNL     1     -10.112   1.960 -32.836  1.00  0.00     0.001 A 
HETATM    7  C   UNL     1      -8.987   1.925 -32.011  1.00  0.00     0.010 A 
ENDBRANCH   1   2
BRANCH   1   8
HETATM    8  N   UNL     1      -5.863  -0.075 -31.654  1.00  0.00    -0.340 N 
HETATM    9  C   UNL     1      -4.705  -0.242 -32.370  1.00  0.00     0.253 C 
HETATM   10  O   UNL     1      -4.006   0.694 -32.743  1.00  0.00    -0.268 OA
HETATM   11  H   UNL     1      -6.325  -0.895 -31.289  1.00  0.00     0.164 HD
BRANCH   9  12
HETATM   12  C   UNL     1      -4.251  -1.632 -32.589  1.00  0.00     0.047 A 
HETATM   13  C   UNL     1      -4.783  -2.471 -33.588  1.00  0.00     0.027 A 
HETATM   14  C   UNL     1      -4.266  -3.764 -33.646  1.00  0.00     0.138 A 
HETATM   15  C   UNL     1      -5.733  -2.379 -34.650  1.00  0.00     0.033 A 
HETATM   16  N   UNL     1      -4.899  -4.437 -34.655  1.00  0.00    -0.350 N 
HETATM   17  N   UNL     1      -3.307  -4.302 -32.873  1.00  0.00    -0.242 NA
HETATM   18  H   UNL     1      -4.698  -5.397 -34.896  1.00  0.00     0.166 HD
HETATM   19  C   UNL     1      -5.794  -3.607 -35.276  1.00  0.00     0.090 A 
HETATM   20  C   UNL     1      -2.807  -3.440 -31.962  1.00  0.00     0.120 A 
HETATM   21  C   UNL     1      -3.225  -2.132 -31.779  1.00  0.00     0.037 A 
ENDBRANCH   9  12
ENDBRANCH   1   8
BRANCH   1  22
HETATM   22  C   UNL     1      -5.780   2.517 -31.518  1.00  0.00     0.245 C 
HETATM   23  N   UNL     1      -5.664   3.178 -32.721  1.00  0.00    -0.354 N 
HETATM   24  H   UNL     1      -6.317   2.890 -33.451  1.00  0.00     0.162 HD
HETATM   25  O   UNL     1      -5.360   3.011 -30.467  1.00  0.00    -0.271 OA
BRANCH  23  26
HETATM   26  C   UNL     1      -5.255   4.562 -32.726  1.00  0.00     0.168 C 
BRANCH  26  27
HETATM   27  C   UNL     1      -3.887   4.723 -33.307  1.00  0.00     0.000 A 
HETATM   28  S   UNL     1      -3.662   5.251 -34.924  1.00  0.00    -0.105 SA
HETATM   29  C   UNL     1      -1.960   5.229 -34.766  1.00  0.00     0.050 A 
HETATM   30  C   UNL     1      -1.563   4.850 -33.505  1.00  0.00     0.008 A 
HETATM   31  C   UNL     1      -2.675   4.555 -32.664  1.00  0.00     0.017 A 
ENDBRANCH  26  27
ENDBRANCH  23  26
ENDBRANCH   1  22
TORSDOF 6
ENDMDL
MODEL 9
REMARK VINA RESULT:      -8.1      4.710      8.586
REMARK  6 active torsions:
REMARK  status: ('A' for Active; 'I' for Inactive)
REMARK    1  A    between atoms: C_4  and  C_5 
REMARK    2  A    between atoms: C_5  and  N_6 
REMARK    3  A    between atoms: C_5  and  C_19 
REMARK       I    between atoms: N_6  and  C_7 
REMARK    4  A    between atoms: C_7  and  C_8 
REMARK       I    between atoms: C_19  and  N_20 
REMARK    5  A    between atoms: N_20  and  C_21 
REMARK    6  A    between atoms: C_21  and  C_22 
ROOT
HETATM    1  C   UNL     1      -8.454   0.779 -31.891  1.00  0.00     0.210 C 
ENDROOT
BRANCH   1   2
HETATM    2  C   UNL     1      -8.060   2.029 -31.116  1.00  0.00    -0.026 A 
HETATM    3  C   UNL     1      -8.970   3.091 -30.982  1.00  0.00     0.010 A 
HETATM    4  C   UNL     1      -8.625   4.238 -30.261  1.00  0.00     0.001 A 
HETATM    5  C   UNL     1      -7.367   4.345 -29.674  1.00  0.00     0.000 A 
HETATM    6  C   UNL     1      -6.448   3.309 -29.812  1.00  0.00     0.001 A 
HETATM    7  C   UNL     1      -6.790   2.161 -30.529  1.00  0.00     0.010 A 
ENDBRANCH   1   2
BRANCH   1   8
HETATM    8  N   UNL     1      -9.889   0.732 -32.177  1.00  0.00    -0.340 N 
HETATM    9  C   UNL     1     -10.454   0.953 -33.407  1.00  0.00     0.253 C 
HETATM   10  O   UNL     1      -9.812   0.945 -34.451  1.00  0.00    -0.268 OA
HETATM   11  H   UNL     1     -10.498   0.646 -31.376  1.00  0.00     0.164 HD
BRANCH   9  12
HETATM   12  C   UNL     1     -11.925   1.097 -33.448  1.00  0.00     0.047 A 
HETATM   13  C   UNL     1     -12.587   2.333 -33.302  1.00  0.00     0.027 A 
HETATM   14  C   UNL     1     -13.979   2.294 -33.338  1.00  0.00     0.138 A 
HETATM   15  C   UNL     1     -12.235   3.707 -33.149  1.00  0.00     0.033 A 
HETATM   16  N   UNL     1     -14.451   3.566 -33.168  1.00  0.00    -0.350 N 
HETATM   17  N   UNL     1     -14.768   1.220 -33.512  1.00  0.00    -0.242 NA
HETATM   18  H   UNL     1     -15.433   3.800 -33.157  1.00  0.00     0.166 HD
HETATM   19  C   UNL     1     -13.400   4.439 -33.052  1.00  0.00     0.090 A 
HETATM   20  C   UNL     1     -14.079   0.072 -33.689  1.00  0.00     0.120 A 
HETATM   21  C   UNL     1     -12.699  -0.048 -33.669  1.00  0.00     0.037 A 
ENDBRANCH   9  12
ENDBRANCH   1   8
BRANCH   1  22
HETATM   22  C   UNL     1      -7.456   0.439 -33.036  1.00  0.00     0.245 C 
HETATM   23  N   UNL     1      -7.403  -0.873 -33.453  1.00  0.00    -0.354 N 
HETATM   24  H   UNL     1      -8.186  -1.463 -33.166  1.00  0.00     0.162 HD
HETATM   25  O   UNL     1      -6.826   1.327 -33.618  1.00  0.00    -0.271 OA
BRANCH  23  26
HETATM   26  C   UNL     1      -6.790  -1.183 -34.721  1.00  0.00     0.168 C 
BRANCH  26  27
HETATM   27  C   UNL     1      -6.124  -2.521 -34.691  1.00  0.00     0.000 A 
HETATM   28  S   UNL     1      -4.505  -2.700 -34.151  1.00  0.00    -0.105 SA
HETATM   29  C   UNL     1      -4.552  -4.396 -34.356  1.00  0.00     0.050 A 
HETATM   30  C   UNL     1      -5.779  -4.829 -34.805  1.00  0.00     0.008 A 
HETATM   31  C   UNL     1      -6.684  -3.746 -35.001  1.00  0.00     0.017 A 
ENDBRANCH  26  27
ENDBRANCH  23  26
ENDBRANCH   1  22
TORSDOF 6
ENDMDL
MODEL 10
REMARK VINA RESULT:      -8.1      2.696      6.692
REMARK  6 active torsions:
REMARK  status: ('A' for Active; 'I' for Inactive)
REMARK    1  A    between atoms: C_4  and  C_5 
REMARK    2  A    between atoms: C_5  and  N_6 
REMARK    3  A    between atoms: C_5  and  C_19 
REMARK       I    between atoms: N_6  and  C_7 
REMARK    4  A    between atoms: C_7  and  C_8 
REMARK       I    between atoms: C_19  and  N_20 
REMARK    5  A    between atoms: N_20  and  C_21 
REMARK    6  A    between atoms: C_21  and  C_22 
ROOT
HETATM    1  C   UNL     1      -6.077   1.855 -33.347  1.00  0.00     0.210 C 
ENDROOT
BRANCH   1   2
HETATM    2  C   UNL     1      -5.220   3.108 -33.226  1.00  0.00    -0.026 A 
HETATM    3  C   UNL     1      -4.189   3.169 -32.272  1.00  0.00     0.010 A 
HETATM    4  C   UNL     1      -3.387   4.307 -32.160  1.00  0.00     0.001 A 
HETATM    5  C   UNL     1      -3.607   5.404 -32.990  1.00  0.00     0.000 A 
HETATM    6  C   UNL     1      -4.634   5.366 -33.929  1.00  0.00     0.001 A 
HETATM    7  C   UNL     1      -5.435   4.229 -34.044  1.00  0.00     0.010 A 
ENDBRANCH   1   2
BRANCH   1   8
HETATM    8  N   UNL     1      -5.283   0.628 -33.249  1.00  0.00    -0.340 N 
HETATM    9  C   UNL     1      -5.569  -0.547 -33.895  1.00  0.00     0.253 C 
HETATM   10  O   UNL     1      -6.356  -0.623 -34.832  1.00  0.00    -0.268 OA
HETATM   11  H   UNL     1      -4.544   0.632 -32.561  1.00  0.00     0.164 HD
BRANCH   9  12
HETATM   12  C   UNL     1      -4.792  -1.737 -33.489  1.00  0.00     0.047 A 
HETATM   13  C   UNL     1      -4.969  -3.011 -34.064  1.00  0.00     0.027 A 
HETATM   14  C   UNL     1      -4.177  -4.036 -33.550  1.00  0.00     0.138 A 
HETATM   15  C   UNL     1      -5.747  -3.600 -35.107  1.00  0.00     0.033 A 
HETATM   16  N   UNL     1      -4.487  -5.193 -34.209  1.00  0.00    -0.350 N 
HETATM   17  N   UNL     1      -3.249  -3.951 -32.581  1.00  0.00    -0.242 NA
HETATM   18  H   UNL     1      -4.046  -6.081 -34.015  1.00  0.00     0.166 HD
HETATM   19  C   UNL     1      -5.441  -4.944 -35.160  1.00  0.00     0.090 A 
HETATM   20  C   UNL     1      -3.094  -2.700 -32.097  1.00  0.00     0.120 A 
HETATM   21  C   UNL     1      -3.813  -1.587 -32.500  1.00  0.00     0.037 A 
ENDBRANCH   9  12
ENDBRANCH   1   8
BRANCH   1  22
HETATM   22  C   UNL     1      -7.402   1.951 -32.538  1.00  0.00     0.245 C 
HETATM   23  N   UNL     1      -8.568   2.088 -33.259  1.00  0.00    -0.354 N 
HETATM   24  H   UNL     1      -8.505   1.865 -34.253  1.00  0.00     0.162 HD
HETATM   25  O   UNL     1      -7.415   1.795 -31.313  1.00  0.00    -0.271 OA
BRANCH  23  26
HETATM   26  C   UNL     1      -9.829   1.819 -32.612  1.00  0.00     0.168 C 
BRANCH  26  27
HETATM   27  C   UNL     1     -10.965   1.892 -33.582  1.00  0.00     0.000 A 
HETATM   28  S   UNL     1     -11.095   3.182 -34.707  1.00  0.00    -0.105 SA
HETATM   29  C   UNL     1     -12.503   2.517 -35.410  1.00  0.00     0.050 A 
HETATM   30  C   UNL     1     -12.862   1.325 -34.822  1.00  0.00     0.008 A 
HETATM   31  C   UNL     1     -11.976   0.967 -33.765  1.00  0.00     0.017 A 
ENDBRANCH  26  27
ENDBRANCH  23  26
ENDBRANCH   1  22
TORSDOF 6
ENDMDL
