MODEL 1
REMARK VINA RESULT:     -10.4      0.000      0.000
REMARK  4 active torsions:
REMARK  status: ('A' for Active; 'I' for Inactive)
REMARK    1  A    between atoms: C_2  and  C_3 
REMARK    2  A    between atoms: C_2  and  C_19 
REMARK       I    between atoms: C_3  and  N_4 
REMARK    3  A    between atoms: N_4  and  C_5 
REMARK    4  A    between atoms: C_12  and  C_13 
REMARK       I    between atoms: C_13  and  N_14 
ROOT
HETATM    1  C   UNL     1      -8.748   0.941 -34.018  1.00  0.00     0.230 C 
HETATM    2  N   UNL     1      -9.730   1.667 -34.671  1.00  0.00    -0.327 N 
HETATM    3  O   UNL     1      -8.933   0.198 -33.055  1.00  0.00    -0.272 OA
HETATM    4  H   UNL     1      -9.477   2.101 -35.547  1.00  0.00     0.169 HD
ENDROOT
BRANCH   2   5
HETATM    5  C   UNL     1     -11.069   1.836 -34.260  1.00  0.00     0.035 A 
HETATM    6  C   UNL     1     -11.437   2.587 -33.135  1.00  0.00     0.046 A 
HETATM    7  C   UNL     1     -12.804   2.756 -32.829  1.00  0.00     0.030 A 
HETATM    8  C   UNL     1     -13.753   2.141 -33.635  1.00  0.00     0.063 A 
HETATM    9  C   UNL     1     -13.558   3.470 -31.849  1.00  0.00     0.156 A 
HETATM   10  N   UNL     1     -14.961   2.465 -33.084  1.00  0.00    -0.277 N 
HETATM   11  C   UNL     1     -13.422   1.379 -34.757  1.00  0.00     0.034 A 
HETATM   12  H   UNL     1     -15.879   2.178 -33.405  1.00  0.00     0.189 HD
HETATM   13  N   UNL     1     -14.886   3.273 -32.014  1.00  0.00    -0.168 NA
HETATM   14  C   UNL     1     -12.060   1.257 -35.063  1.00  0.00     0.032 A 
BRANCH   9  15
HETATM   15  C   UNL     1     -13.045   4.345 -30.785  1.00  0.00     0.270 C 
HETATM   16  N   UNL     1     -12.362   3.685 -29.800  1.00  0.00    -0.365 N 
HETATM   17  H   UNL     1     -12.287   2.676 -29.856  1.00  0.00     0.159 HD
HETATM   18  H   UNL     1     -12.013   4.198 -29.007  1.00  0.00     0.159 HD
HETATM   19  O   UNL     1     -13.209   5.559 -30.737  1.00  0.00    -0.266 OA
ENDBRANCH   9  15
ENDBRANCH   2   5
BRANCH   1  20
HETATM   20  C   UNL     1      -7.329   1.132 -34.579  1.00  0.00     0.107 C 
HETATM   21  C   UNL     1      -6.728   2.468 -34.131  1.00  0.00     0.025 C 
BRANCH  20  22
HETATM   22  C   UNL     1      -6.478  -0.109 -34.344  1.00  0.00    -0.044 A 
HETATM   23  C   UNL     1      -6.932  -1.337 -34.867  1.00  0.00     0.020 A 
HETATM   24  C   UNL     1      -6.209  -2.529 -34.698  1.00  0.00    -0.025 A 
HETATM   25  C   UNL     1      -4.987  -2.499 -33.995  1.00  0.00    -0.026 A 
HETATM   26  C   UNL     1      -6.678  -3.748 -35.215  1.00  0.00     0.012 A 
HETATM   27  C   UNL     1      -4.527  -1.278 -33.480  1.00  0.00     0.013 A 
HETATM   28  C   UNL     1      -4.262  -3.691 -33.830  1.00  0.00     0.012 A 
HETATM   29  C   UNL     1      -5.261  -0.098 -33.653  1.00  0.00     0.009 A 
HETATM   30  C   UNL     1      -4.739  -4.896 -34.351  1.00  0.00     0.001 A 
HETATM   31  C   UNL     1      -5.948  -4.924 -35.042  1.00  0.00     0.001 A 
ENDBRANCH  20  22
ENDBRANCH   1  20
TORSDOF 4
ENDMDL
MODEL 2
REMARK VINA RESULT:     -10.4      1.638      2.435
REMARK  4 active torsions:
REMARK  status: ('A' for Active; 'I' for Inactive)
REMARK    1  A    between atoms: C_2  and  C_3 
REMARK    2  A    between atoms: C_2  and  C_19 
REMARK       I    between atoms: C_3  and  N_4 
REMARK    3  A    between atoms: N_4  and  C_5 
REMARK    4  A    between atoms: C_12  and  C_13 
REMARK       I    between atoms: C_13  and  N_14 
ROOT
HETATM    1  C   UNL     1      -8.198   1.285 -33.799  1.00  0.00     0.230 C 
HETATM    2  N   UNL     1      -9.143   2.136 -34.347  1.00  0.00    -0.327 N 
HETATM    3  O   UNL     1      -8.366   0.576 -32.808  1.00  0.00    -0.272 OA
HETATM    4  H   UNL     1      -8.940   2.529 -35.255  1.00  0.00     0.169 HD
ENDROOT
BRANCH   2   5
HETATM    5  C   UNL     1     -10.389   2.486 -33.785  1.00  0.00     0.035 A 
HETATM    6  C   UNL     1     -11.567   1.765 -34.023  1.00  0.00     0.046 A 
HETATM    7  C   UNL     1     -12.760   2.147 -33.372  1.00  0.00     0.030 A 
HETATM    8  C   UNL     1     -12.742   3.255 -32.535  1.00  0.00     0.063 A 
HETATM    9  C   UNL     1     -14.098   1.654 -33.304  1.00  0.00     0.156 A 
HETATM   10  N   UNL     1     -14.023   3.385 -32.078  1.00  0.00    -0.277 N 
HETATM   11  C   UNL     1     -11.589   4.001 -32.283  1.00  0.00     0.034 A 
HETATM   12  H   UNL     1     -14.383   4.096 -31.452  1.00  0.00     0.189 HD
HETATM   13  N   UNL     1     -14.867   2.433 -32.509  1.00  0.00    -0.168 NA
HETATM   14  C   UNL     1     -10.409   3.580 -32.910  1.00  0.00     0.032 A 
BRANCH   9  15
HETATM   15  C   UNL     1     -14.646   0.455 -33.954  1.00  0.00     0.270 C 
HETATM   16  N   UNL     1     -14.091  -0.718 -33.520  1.00  0.00    -0.365 N 
HETATM   17  H   UNL     1     -13.350  -0.677 -32.831  1.00  0.00     0.159 HD
HETATM   18  H   UNL     1     -14.373  -1.588 -33.943  1.00  0.00     0.159 HD
HETATM   19  O   UNL     1     -15.509   0.463 -34.824  1.00  0.00    -0.266 OA
ENDBRANCH   9  15
ENDBRANCH   2   5
BRANCH   1  20
HETATM   20  C   UNL     1      -6.843   1.280 -34.526  1.00  0.00     0.107 C 
HETATM   21  C   UNL     1      -6.057   2.565 -34.248  1.00  0.00     0.025 C 
BRANCH  20  22
HETATM   22  C   UNL     1      -6.104  -0.033 -34.294  1.00  0.00    -0.044 A 
HETATM   23  C   UNL     1      -6.651  -1.211 -34.840  1.00  0.00     0.020 A 
HETATM   24  C   UNL     1      -6.035  -2.462 -34.675  1.00  0.00    -0.025 A 
HETATM   25  C   UNL     1      -4.828  -2.545 -33.952  1.00  0.00    -0.026 A 
HETATM   26  C   UNL     1      -6.597  -3.630 -35.215  1.00  0.00     0.012 A 
HETATM   27  C   UNL     1      -4.275  -1.372 -33.414  1.00  0.00     0.013 A 
HETATM   28  C   UNL     1      -4.209  -3.796 -33.791  1.00  0.00     0.012 A 
HETATM   29  C   UNL     1      -4.903  -0.133 -33.583  1.00  0.00     0.009 A 
HETATM   30  C   UNL     1      -4.778  -4.949 -34.336  1.00  0.00     0.001 A 
HETATM   31  C   UNL     1      -5.973  -4.866 -35.047  1.00  0.00     0.001 A 
ENDBRANCH  20  22
ENDBRANCH   1  20
TORSDOF 4
ENDMDL
MODEL 3
REMARK VINA RESULT:     -10.1      2.570      3.128
REMARK  4 active torsions:
REMARK  status: ('A' for Active; 'I' for Inactive)
REMARK    1  A    between atoms: C_2  and  C_3 
REMARK    2  A    between atoms: C_2  and  C_19 
REMARK       I    between atoms: C_3  and  N_4 
REMARK    3  A    between atoms: N_4  and  C_5 
REMARK    4  A    between atoms: C_12  and  C_13 
REMARK       I    between atoms: C_13  and  N_14 
ROOT
HETATM    1  C   UNL     1      -6.695   1.796 -33.146  1.00  0.00     0.230 C 
HETATM    2  N   UNL     1      -7.999   1.779 -32.682  1.00  0.00    -0.327 N 
HETATM    3  O   UNL     1      -6.328   2.258 -34.226  1.00  0.00    -0.272 OA
HETATM    4  H   UNL     1      -8.141   1.530 -31.714  1.00  0.00     0.169 HD
ENDROOT
BRANCH   2   5
HETATM    5  C   UNL     1      -9.158   2.114 -33.412  1.00  0.00     0.035 A 
HETATM    6  C   UNL     1     -10.292   1.292 -33.470  1.00  0.00     0.046 A 
HETATM    7  C   UNL     1     -11.435   1.730 -34.174  1.00  0.00     0.030 A 
HETATM    8  C   UNL     1     -11.392   2.958 -34.823  1.00  0.00     0.063 A 
HETATM    9  C   UNL     1     -12.753   1.235 -34.406  1.00  0.00     0.156 A 
HETATM   10  N   UNL     1     -12.613   3.093 -35.421  1.00  0.00    -0.277 N 
HETATM   11  C   UNL     1     -10.277   3.797 -34.794  1.00  0.00     0.034 A 
HETATM   12  H   UNL     1     -12.933   3.866 -35.994  1.00  0.00     0.189 HD
HETATM   13  N   UNL     1     -13.464   2.083 -35.184  1.00  0.00    -0.168 NA
HETATM   14  C   UNL     1      -9.169   3.358 -34.057  1.00  0.00     0.032 A 
BRANCH   9  15
HETATM   15  C   UNL     1     -13.350  -0.004 -33.886  1.00  0.00     0.270 C 
HETATM   16  N   UNL     1     -14.696  -0.110 -34.106  1.00  0.00    -0.365 N 
HETATM   17  H   UNL     1     -15.173   0.656 -34.566  1.00  0.00     0.159 HD
HETATM   18  H   UNL     1     -15.198  -0.905 -33.744  1.00  0.00     0.159 HD
HETATM   19  O   UNL     1     -12.735  -0.879 -33.286  1.00  0.00    -0.266 OA
ENDBRANCH   9  15
ENDBRANCH   2   5
BRANCH   1  20
HETATM   20  C   UNL     1      -5.668   1.158 -32.196  1.00  0.00     0.107 C 
HETATM   21  C   UNL     1      -6.128   1.245 -30.737  1.00  0.00     0.025 C 
BRANCH  20  22
HETATM   22  C   UNL     1      -5.246  -0.219 -32.694  1.00  0.00    -0.044 A 
HETATM   23  C   UNL     1      -6.177  -0.973 -33.436  1.00  0.00     0.020 A 
HETATM   24  C   UNL     1      -5.871  -2.250 -33.934  1.00  0.00    -0.025 A 
HETATM   25  C   UNL     1      -4.592  -2.794 -33.695  1.00  0.00    -0.026 A 
HETATM   26  C   UNL     1      -6.812  -2.995 -34.663  1.00  0.00     0.012 A 
HETATM   27  C   UNL     1      -3.659  -2.043 -32.964  1.00  0.00     0.013 A 
HETATM   28  C   UNL     1      -4.285  -4.069 -34.198  1.00  0.00     0.012 A 
HETATM   29  C   UNL     1      -3.980  -0.773 -32.471  1.00  0.00     0.009 A 
HETATM   30  C   UNL     1      -5.230  -4.798 -34.923  1.00  0.00     0.001 A 
HETATM   31  C   UNL     1      -6.493  -4.261 -35.155  1.00  0.00     0.001 A 
ENDBRANCH  20  22
ENDBRANCH   1  20
TORSDOF 4
ENDMDL
MODEL 4
REMARK VINA RESULT:      -9.7      5.337      7.713
REMARK  4 active torsions:
REMARK  status: ('A' for Active; 'I' for Inactive)
REMARK    1  A    between atoms: C_2  and  C_3 
REMARK    2  A    between atoms: C_2  and  C_19 
REMARK       I    between atoms: C_3  and  N_4 
REMARK    3  A    between atoms: N_4  and  C_5 
REMARK    4  A    between atoms: C_12  and  C_13 
REMARK       I    between atoms: C_13  and  N_14 
ROOT
HETATM    1  C   UNL     1      -5.423   2.698 -32.931  1.00  0.00     0.230 C 
HETATM    2  N   UNL     1      -4.276   3.114 -32.277  1.00  0.00    -0.327 N 
HETATM    3  O   UNL     1      -5.873   3.190 -33.964  1.00  0.00    -0.272 OA
HETATM    4  H   UNL     1      -3.923   2.520 -31.540  1.00  0.00     0.169 HD
ENDROOT
BRANCH   2   5
HETATM    5  C   UNL     1      -3.519   4.271 -32.556  1.00  0.00     0.035 A 
HETATM    6  C   UNL     1      -3.800   5.525 -31.997  1.00  0.00     0.046 A 
HETATM    7  C   UNL     1      -2.954   6.619 -32.281  1.00  0.00     0.030 A 
HETATM    8  C   UNL     1      -1.879   6.430 -33.140  1.00  0.00     0.063 A 
HETATM    9  C   UNL     1      -2.868   7.985 -31.876  1.00  0.00     0.156 A 
HETATM   10  N   UNL     1      -1.273   7.651 -33.235  1.00  0.00    -0.277 N 
HETATM   11  C   UNL     1      -1.576   5.198 -33.722  1.00  0.00     0.034 A 
HETATM   12  H   UNL     1      -0.458   7.890 -33.789  1.00  0.00     0.189 HD
HETATM   13  N   UNL     1      -1.831   8.610 -32.480  1.00  0.00    -0.168 NA
HETATM   14  C   UNL     1      -2.407   4.118 -33.394  1.00  0.00     0.032 A 
BRANCH   9  15
HETATM   15  C   UNL     1      -3.729   8.692 -30.917  1.00  0.00     0.270 C 
HETATM   16  N   UNL     1      -3.698   8.173 -29.651  1.00  0.00    -0.365 N 
HETATM   17  H   UNL     1      -3.130   7.352 -29.478  1.00  0.00     0.159 HD
HETATM   18  H   UNL     1      -4.292   8.565 -28.938  1.00  0.00     0.159 HD
HETATM   19  O   UNL     1      -4.440   9.652 -31.191  1.00  0.00    -0.266 OA
ENDBRANCH   9  15
ENDBRANCH   2   5
BRANCH   1  20
HETATM   20  C   UNL     1      -6.158   1.528 -32.255  1.00  0.00     0.107 C 
HETATM   21  C   UNL     1      -7.677   1.722 -32.300  1.00  0.00     0.025 C 
BRANCH  20  22
HETATM   22  C   UNL     1      -5.629   0.189 -32.754  1.00  0.00    -0.044 A 
HETATM   23  C   UNL     1      -6.522  -0.672 -33.423  1.00  0.00     0.020 A 
HETATM   24  C   UNL     1      -6.118  -1.923 -33.917  1.00  0.00    -0.025 A 
HETATM   25  C   UNL     1      -4.778  -2.329 -33.751  1.00  0.00    -0.026 A 
HETATM   26  C   UNL     1      -7.020  -2.776 -34.573  1.00  0.00     0.012 A 
HETATM   27  C   UNL     1      -3.883  -1.471 -33.093  1.00  0.00     0.013 A 
HETATM   28  C   UNL     1      -4.373  -3.578 -34.249  1.00  0.00     0.012 A 
HETATM   29  C   UNL     1      -4.301  -0.228 -32.602  1.00  0.00     0.009 A 
HETATM   30  C   UNL     1      -5.281  -4.416 -34.901  1.00  0.00     0.001 A 
HETATM   31  C   UNL     1      -6.605  -4.014 -35.062  1.00  0.00     0.001 A 
ENDBRANCH  20  22
ENDBRANCH   1  20
TORSDOF 4
ENDMDL
MODEL 5
REMARK VINA RESULT:      -9.6      1.973      3.288
REMARK  4 active torsions:
REMARK  status: ('A' for Active; 'I' for Inactive)
REMARK    1  A    between atoms: C_2  and  C_3 
REMARK    2  A    between atoms: C_2  and  C_19 
REMARK       I    between atoms: C_3  and  N_4 
REMARK    3  A    between atoms: N_4  and  C_5 
REMARK    4  A    between atoms: C_12  and  C_13 
REMARK       I    between atoms: C_13  and  N_14 
ROOT
HETATM    1  C   UNL     1      -6.590   2.096 -33.221  1.00  0.00     0.230 C 
HETATM    2  N   UNL     1      -7.506   1.900 -32.202  1.00  0.00    -0.327 N 
HETATM    3  O   UNL     1      -6.732   2.867 -34.168  1.00  0.00    -0.272 OA
HETATM    4  H   UNL     1      -7.198   1.372 -31.398  1.00  0.00     0.169 HD
ENDROOT
BRANCH   2   5
HETATM    5  C   UNL     1      -8.826   2.395 -32.148  1.00  0.00     0.035 A 
HETATM    6  C   UNL     1      -9.834   1.991 -33.035  1.00  0.00     0.046 A 
HETATM    7  C   UNL     1     -11.144   2.490 -32.873  1.00  0.00     0.030 A 
HETATM    8  C   UNL     1     -11.395   3.399 -31.853  1.00  0.00     0.063 A 
HETATM    9  C   UNL     1     -12.409   2.283 -33.503  1.00  0.00     0.156 A 
HETATM   10  N   UNL     1     -12.721   3.709 -31.962  1.00  0.00    -0.277 N 
HETATM   11  C   UNL     1     -10.414   3.830 -30.958  1.00  0.00     0.034 A 
HETATM   12  H   UNL     1     -13.250   4.354 -31.387  1.00  0.00     0.189 HD
HETATM   13  N   UNL     1     -13.369   3.049 -32.936  1.00  0.00    -0.168 NA
HETATM   14  C   UNL     1      -9.129   3.292 -31.115  1.00  0.00     0.032 A 
BRANCH   9  15
HETATM   15  C   UNL     1     -12.721   1.363 -34.606  1.00  0.00     0.270 C 
HETATM   16  N   UNL     1     -13.301   0.190 -34.207  1.00  0.00    -0.365 N 
HETATM   17  H   UNL     1     -13.441   0.031 -33.216  1.00  0.00     0.159 HD
HETATM   18  H   UNL     1     -13.508  -0.520 -34.891  1.00  0.00     0.159 HD
HETATM   19  O   UNL     1     -12.482   1.582 -35.789  1.00  0.00    -0.266 OA
ENDBRANCH   9  15
ENDBRANCH   2   5
BRANCH   1  20
HETATM   20  C   UNL     1      -5.316   1.242 -33.109  1.00  0.00     0.107 C 
HETATM   21  C   UNL     1      -4.680   1.367 -31.721  1.00  0.00     0.025 C 
BRANCH  20  22
HETATM   22  C   UNL     1      -5.562  -0.173 -33.619  1.00  0.00    -0.044 A 
HETATM   23  C   UNL     1      -4.599  -1.161 -33.332  1.00  0.00     0.020 A 
HETATM   24  C   UNL     1      -4.747  -2.490 -33.762  1.00  0.00    -0.025 A 
HETATM   25  C   UNL     1      -5.896  -2.853 -34.493  1.00  0.00    -0.026 A 
HETATM   26  C   UNL     1      -3.774  -3.462 -33.478  1.00  0.00     0.012 A 
HETATM   27  C   UNL     1      -6.862  -1.874 -34.773  1.00  0.00     0.013 A 
HETATM   28  C   UNL     1      -6.046  -4.183 -34.918  1.00  0.00     0.012 A 
HETATM   29  C   UNL     1      -6.699  -0.552 -34.342  1.00  0.00     0.009 A 
HETATM   30  C   UNL     1      -5.071  -5.140 -34.627  1.00  0.00     0.001 A 
HETATM   31  C   UNL     1      -3.935  -4.779 -33.908  1.00  0.00     0.001 A 
ENDBRANCH  20  22
ENDBRANCH   1  20
TORSDOF 4
ENDMDL
MODEL 6
REMARK VINA RESULT:      -9.5      2.364      2.708
REMARK  4 active torsions:
REMARK  status: ('A' for Active; 'I' for Inactive)
REMARK    1  A    between atoms: C_2  and  C_3 
REMARK    2  A    between atoms: C_2  and  C_19 
REMARK       I    between atoms: C_3  and  N_4 
REMARK    3  A    between atoms: N_4  and  C_5 
REMARK    4  A    between atoms: C_12  and  C_13 
REMARK       I    between atoms: C_13  and  N_14 
ROOT
HETATM    1  C   UNL     1      -7.145   1.266 -33.854  1.00  0.00     0.230 C 
HETATM    2  N   UNL     1      -8.162   1.177 -32.919  1.00  0.00    -0.327 N 
HETATM    3  O   UNL     1      -7.300   1.346 -35.071  1.00  0.00    -0.272 OA
HETATM    4  H   UNL     1      -7.908   1.290 -31.948  1.00  0.00     0.169 HD
ENDROOT
BRANCH   2   5
HETATM    5  C   UNL     1      -9.534   0.981 -33.181  1.00  0.00     0.035 A 
HETATM    6  C   UNL     1     -10.329   1.923 -33.849  1.00  0.00     0.046 A 
HETATM    7  C   UNL     1     -11.680   1.622 -34.126  1.00  0.00     0.030 A 
HETATM    8  C   UNL     1     -12.198   0.407 -33.696  1.00  0.00     0.063 A 
HETATM    9  C   UNL     1     -12.757   2.261 -34.811  1.00  0.00     0.156 A 
HETATM   10  N   UNL     1     -13.508   0.414 -34.085  1.00  0.00    -0.277 N 
HETATM   11  C   UNL     1     -11.438  -0.549 -33.020  1.00  0.00     0.034 A 
HETATM   12  H   UNL     1     -14.199  -0.310 -33.927  1.00  0.00     0.189 HD
HETATM   13  N   UNL     1     -13.880   1.508 -34.769  1.00  0.00    -0.168 NA
HETATM   14  C   UNL     1     -10.089  -0.244 -32.791  1.00  0.00     0.032 A 
BRANCH   9  15
HETATM   15  C   UNL     1     -12.731   3.550 -35.517  1.00  0.00     0.270 C 
HETATM   16  N   UNL     1     -13.324   4.574 -34.831  1.00  0.00    -0.365 N 
HETATM   17  H   UNL     1     -13.749   4.374 -33.934  1.00  0.00     0.159 HD
HETATM   18  H   UNL     1     -13.394   5.484 -35.258  1.00  0.00     0.159 HD
HETATM   19  O   UNL     1     -12.248   3.729 -36.630  1.00  0.00    -0.266 OA
ENDBRANCH   9  15
ENDBRANCH   2   5
BRANCH   1  20
HETATM   20  C   UNL     1      -5.726   1.244 -33.261  1.00  0.00     0.107 C 
HETATM   21  C   UNL     1      -5.666   1.998 -31.928  1.00  0.00     0.025 C 
BRANCH  20  22
HETATM   22  C   UNL     1      -5.153  -0.168 -33.268  1.00  0.00    -0.044 A 
HETATM   23  C   UNL     1      -5.823  -1.155 -34.019  1.00  0.00     0.020 A 
HETATM   24  C   UNL     1      -5.363  -2.480 -34.082  1.00  0.00    -0.025 A 
HETATM   25  C   UNL     1      -4.191  -2.836 -33.384  1.00  0.00    -0.026 A 
HETATM   26  C   UNL     1      -6.047  -3.456 -34.826  1.00  0.00     0.012 A 
HETATM   27  C   UNL     1      -3.516  -1.855 -32.642  1.00  0.00     0.013 A 
HETATM   28  C   UNL     1      -3.729  -4.161 -33.452  1.00  0.00     0.012 A 
HETATM   29  C   UNL     1      -3.989  -0.539 -32.585  1.00  0.00     0.009 A 
HETATM   30  C   UNL     1      -4.418  -5.121 -34.197  1.00  0.00     0.001 A 
HETATM   31  C   UNL     1      -5.577  -4.768 -34.883  1.00  0.00     0.001 A 
ENDBRANCH  20  22
ENDBRANCH   1  20
TORSDOF 4
ENDMDL
MODEL 7
REMARK VINA RESULT:      -9.4      4.197      5.383
REMARK  4 active torsions:
REMARK  status: ('A' for Active; 'I' for Inactive)
REMARK    1  A    between atoms: C_2  and  C_3 
REMARK    2  A    between atoms: C_2  and  C_19 
REMARK       I    between atoms: C_3  and  N_4 
REMARK    3  A    between atoms: N_4  and  C_5 
REMARK    4  A    between atoms: C_12  and  C_13 
REMARK       I    between atoms: C_13  and  N_14 
ROOT
HETATM    1  C   UNL     1      -4.704   2.045 -32.156  1.00  0.00     0.230 C 
HETATM    2  N   UNL     1      -5.415   1.996 -30.969  1.00  0.00    -0.327 N 
HETATM    3  O   UNL     1      -4.730   2.971 -32.965  1.00  0.00    -0.272 OA
HETATM    4  H   UNL     1      -5.175   1.263 -30.317  1.00  0.00     0.169 HD
ENDROOT
BRANCH   2   5
HETATM    5  C   UNL     1      -6.422   2.891 -30.551  1.00  0.00     0.035 A 
HETATM    6  C   UNL     1      -6.175   3.986 -29.713  1.00  0.00     0.046 A 
HETATM    7  C   UNL     1      -7.228   4.870 -29.392  1.00  0.00     0.030 A 
HETATM    8  C   UNL     1      -8.498   4.608 -29.892  1.00  0.00     0.063 A 
HETATM    9  C   UNL     1      -7.365   6.083 -28.653  1.00  0.00     0.156 A 
HETATM   10  N   UNL     1      -9.292   5.605 -29.401  1.00  0.00    -0.277 N 
HETATM   11  C   UNL     1      -8.781   3.522 -30.721  1.00  0.00     0.034 A 
HETATM   12  H   UNL     1     -10.287   5.728 -29.551  1.00  0.00     0.189 HD
HETATM   13  N   UNL     1      -8.645   6.520 -28.661  1.00  0.00    -0.168 NA
HETATM   14  C   UNL     1      -7.712   2.681 -31.057  1.00  0.00     0.032 A 
BRANCH   9  15
HETATM   15  C   UNL     1      -6.306   6.840 -27.968  1.00  0.00     0.270 C 
HETATM   16  N   UNL     1      -6.064   8.073 -28.508  1.00  0.00    -0.365 N 
HETATM   17  H   UNL     1      -6.589   8.355 -29.327  1.00  0.00     0.159 HD
HETATM   18  H   UNL     1      -5.324   8.644 -28.132  1.00  0.00     0.159 HD
HETATM   19  O   UNL     1      -5.662   6.430 -27.009  1.00  0.00    -0.266 OA
ENDBRANCH   9  15
ENDBRANCH   2   5
BRANCH   1  20
HETATM   20  C   UNL     1      -3.840   0.804 -32.437  1.00  0.00     0.107 C 
HETATM   21  C   UNL     1      -3.057   0.376 -31.192  1.00  0.00     0.025 C 
BRANCH  20  22
HETATM   22  C   UNL     1      -4.653  -0.280 -33.134  1.00  0.00    -0.044 A 
HETATM   23  C   UNL     1      -4.096  -1.571 -33.233  1.00  0.00     0.020 A 
HETATM   24  C   UNL     1      -4.776  -2.629 -33.857  1.00  0.00    -0.025 A 
HETATM   25  C   UNL     1      -6.060  -2.400 -34.392  1.00  0.00    -0.026 A 
HETATM   26  C   UNL     1      -4.204  -3.907 -33.958  1.00  0.00     0.012 A 
HETATM   27  C   UNL     1      -6.623  -1.119 -34.288  1.00  0.00     0.013 A 
HETATM   28  C   UNL     1      -6.743  -3.460 -35.012  1.00  0.00     0.012 A 
HETATM   29  C   UNL     1      -5.931  -0.073 -33.667  1.00  0.00     0.009 A 
HETATM   30  C   UNL     1      -6.163  -4.727 -35.104  1.00  0.00     0.001 A 
HETATM   31  C   UNL     1      -4.894  -4.950 -34.577  1.00  0.00     0.001 A 
ENDBRANCH  20  22
ENDBRANCH   1  20
TORSDOF 4
ENDMDL
MODEL 8
REMARK VINA RESULT:      -9.2      5.313      7.799
REMARK  4 active torsions:
REMARK  status: ('A' for Active; 'I' for Inactive)
REMARK    1  A    between atoms: C_2  and  C_3 
REMARK    2  A    between atoms: C_2  and  C_19 
REMARK       I    between atoms: C_3  and  N_4 
REMARK    3  A    between atoms: N_4  and  C_5 
REMARK    4  A    between atoms: C_12  and  C_13 
REMARK       I    between atoms: C_13  and  N_14 
ROOT
HETATM    1  C   UNL     1      -5.814   3.065 -31.112  1.00  0.00     0.230 C 
HETATM    2  N   UNL     1      -5.975   3.866 -32.230  1.00  0.00    -0.327 N 
HETATM    3  O   UNL     1      -4.834   3.067 -30.368  1.00  0.00    -0.272 OA
HETATM    4  H   UNL     1      -6.892   3.890 -32.652  1.00  0.00     0.169 HD
ENDROOT
BRANCH   2   5
HETATM    5  C   UNL     1      -4.997   4.690 -32.825  1.00  0.00     0.035 A 
HETATM    6  C   UNL     1      -4.311   5.693 -32.126  1.00  0.00     0.046 A 
HETATM    7  C   UNL     1      -3.303   6.433 -32.781  1.00  0.00     0.030 A 
HETATM    8  C   UNL     1      -3.040   6.168 -34.119  1.00  0.00     0.063 A 
HETATM    9  C   UNL     1      -2.372   7.451 -32.416  1.00  0.00     0.156 A 
HETATM   10  N   UNL     1      -2.049   7.040 -34.473  1.00  0.00    -0.277 N 
HETATM   11  C   UNL     1      -3.710   5.183 -34.848  1.00  0.00     0.034 A 
HETATM   12  H   UNL     1      -1.615   7.140 -35.383  1.00  0.00     0.189 HD
HETATM   13  N   UNL     1      -1.612   7.822 -33.472  1.00  0.00    -0.168 NA
HETATM   14  C   UNL     1      -4.679   4.436 -34.165  1.00  0.00     0.032 A 
BRANCH   9  15
HETATM   15  C   UNL     1      -2.178   8.055 -31.089  1.00  0.00     0.270 C 
HETATM   16  N   UNL     1      -3.005   9.113 -30.832  1.00  0.00    -0.365 N 
HETATM   17  H   UNL     1      -3.647   9.414 -31.556  1.00  0.00     0.159 HD
HETATM   18  H   UNL     1      -2.912   9.618 -29.965  1.00  0.00     0.159 HD
HETATM   19  O   UNL     1      -1.348   7.685 -30.267  1.00  0.00    -0.266 OA
ENDBRANCH   9  15
ENDBRANCH   2   5
BRANCH   1  20
HETATM   20  C   UNL     1      -6.983   2.104 -30.838  1.00  0.00     0.107 C 
HETATM   21  C   UNL     1      -8.295   2.867 -30.632  1.00  0.00     0.025 C 
BRANCH  20  22
HETATM   22  C   UNL     1      -7.009   0.972 -31.858  1.00  0.00    -0.044 A 
HETATM   23  C   UNL     1      -5.823   0.242 -32.074  1.00  0.00     0.020 A 
HETATM   24  C   UNL     1      -5.759  -0.817 -32.993  1.00  0.00    -0.025 A 
HETATM   25  C   UNL     1      -6.916  -1.171 -33.717  1.00  0.00    -0.026 A 
HETATM   26  C   UNL     1      -4.567  -1.530 -33.206  1.00  0.00     0.012 A 
HETATM   27  C   UNL     1      -8.101  -0.452 -33.500  1.00  0.00     0.013 A 
HETATM   28  C   UNL     1      -6.852  -2.234 -34.634  1.00  0.00     0.012 A 
HETATM   29  C   UNL     1      -8.149   0.604 -32.582  1.00  0.00     0.009 A 
HETATM   30  C   UNL     1      -5.661  -2.935 -34.833  1.00  0.00     0.001 A 
HETATM   31  C   UNL     1      -4.519  -2.582 -34.120  1.00  0.00     0.001 A 
ENDBRANCH  20  22
ENDBRANCH   1  20
TORSDOF 4
ENDMDL
MODEL 9
REMARK VINA RESULT:      -9.2      2.636      3.051
REMARK  4 active torsions:
REMARK  status: ('A' for Active; 'I' for Inactive)
REMARK    1  A    between atoms: C_2  and  C_3 
REMARK    2  A    between atoms: C_2  and  C_19 
REMARK       I    between atoms: C_3  and  N_4 
REMARK    3  A    between atoms: N_4  and  C_5 
REMARK    4  A    between atoms: C_12  and  C_13 
REMARK       I    between atoms: C_13  and  N_14 
ROOT
HETATM    1  C   UNL     1      -6.724   1.970 -33.303  1.00  0.00     0.230 C 
HETATM    2  N   UNL     1      -7.998   1.948 -32.762  1.00  0.00    -0.327 N 
HETATM    3  O   UNL     1      -6.426   2.421 -34.407  1.00  0.00    -0.272 OA
HETATM    4  H   UNL     1      -8.082   1.710 -31.784  1.00  0.00     0.169 HD
ENDROOT
BRANCH   2   5
HETATM    5  C   UNL     1      -9.202   2.262 -33.427  1.00  0.00     0.035 A 
HETATM    6  C   UNL     1      -9.519   3.554 -33.870  1.00  0.00     0.046 A 
HETATM    7  C   UNL     1     -10.718   3.771 -34.583  1.00  0.00     0.030 A 
HETATM    8  C   UNL     1     -11.574   2.698 -34.796  1.00  0.00     0.063 A 
HETATM    9  C   UNL     1     -11.345   4.878 -35.229  1.00  0.00     0.156 A 
HETATM   10  N   UNL     1     -12.638   3.215 -35.480  1.00  0.00    -0.277 N 
HETATM   11  C   UNL     1     -11.295   1.401 -34.361  1.00  0.00     0.034 A 
HETATM   12  H   UNL     1     -13.465   2.720 -35.795  1.00  0.00     0.189 HD
HETATM   13  N   UNL     1     -12.533   4.522 -35.770  1.00  0.00    -0.168 NA
HETATM   14  C   UNL     1     -10.081   1.203 -33.690  1.00  0.00     0.032 A 
BRANCH   9  15
HETATM   15  C   UNL     1     -10.829   6.249 -35.361  1.00  0.00     0.270 C 
HETATM   16  N   UNL     1     -11.496   7.171 -34.601  1.00  0.00    -0.365 N 
HETATM   17  H   UNL     1     -12.285   6.862 -34.046  1.00  0.00     0.159 HD
HETATM   18  H   UNL     1     -11.241   8.144 -34.662  1.00  0.00     0.159 HD
HETATM   19  O   UNL     1      -9.901   6.580 -36.089  1.00  0.00    -0.266 OA
ENDBRANCH   9  15
ENDBRANCH   2   5
BRANCH   1  20
HETATM   20  C   UNL     1      -5.637   1.354 -32.406  1.00  0.00     0.107 C 
HETATM   21  C   UNL     1      -5.994   1.490 -30.923  1.00  0.00     0.025 C 
BRANCH  20  22
HETATM   22  C   UNL     1      -5.259  -0.042 -32.888  1.00  0.00    -0.044 A 
HETATM   23  C   UNL     1      -6.255  -0.826 -33.505  1.00  0.00     0.020 A 
HETATM   24  C   UNL     1      -5.992  -2.121 -33.980  1.00  0.00    -0.025 A 
HETATM   25  C   UNL     1      -4.693  -2.653 -33.846  1.00  0.00    -0.026 A 
HETATM   26  C   UNL     1      -6.996  -2.896 -34.583  1.00  0.00     0.012 A 
HETATM   27  C   UNL     1      -3.697  -1.872 -33.240  1.00  0.00     0.013 A 
HETATM   28  C   UNL     1      -4.430  -3.947 -34.326  1.00  0.00     0.012 A 
HETATM   29  C   UNL     1      -3.974  -0.584 -32.768  1.00  0.00     0.009 A 
HETATM   30  C   UNL     1      -5.437  -4.705 -34.925  1.00  0.00     0.001 A 
HETATM   31  C   UNL     1      -6.720  -4.180 -35.053  1.00  0.00     0.001 A 
ENDBRANCH  20  22
ENDBRANCH   1  20
TORSDOF 4
ENDMDL
MODEL 10
REMARK VINA RESULT:      -9.1      1.990      3.338
REMARK  4 active torsions:
REMARK  status: ('A' for Active; 'I' for Inactive)
REMARK    1  A    between atoms: C_2  and  C_3 
REMARK    2  A    between atoms: C_2  and  C_19 
REMARK       I    between atoms: C_3  and  N_4 
REMARK    3  A    between atoms: N_4  and  C_5 
REMARK    4  A    between atoms: C_12  and  C_13 
REMARK       I    between atoms: C_13  and  N_14 
ROOT
HETATM    1  C   UNL     1      -8.713   3.665 -33.632  1.00  0.00     0.230 C 
HETATM    2  N   UNL     1      -9.420   3.198 -32.538  1.00  0.00    -0.327 N 
HETATM    3  O   UNL     1      -9.175   4.357 -34.538  1.00  0.00    -0.272 OA
HETATM    4  H   UNL     1      -8.888   2.789 -31.783  1.00  0.00     0.169 HD
ENDROOT
BRANCH   2   5
HETATM    5  C   UNL     1     -10.816   3.268 -32.343  1.00  0.00     0.035 A 
HETATM    6  C   UNL     1     -11.724   2.422 -32.994  1.00  0.00     0.046 A 
HETATM    7  C   UNL     1     -13.101   2.518 -32.696  1.00  0.00     0.030 A 
HETATM    8  C   UNL     1     -13.524   3.478 -31.785  1.00  0.00     0.063 A 
HETATM    9  C   UNL     1     -14.287   1.824 -33.081  1.00  0.00     0.156 A 
HETATM   10  N   UNL     1     -14.883   3.343 -31.723  1.00  0.00    -0.277 N 
HETATM   11  C   UNL     1     -12.649   4.343 -31.127  1.00  0.00     0.034 A 
HETATM   12  H   UNL     1     -15.529   3.890 -31.166  1.00  0.00     0.189 HD
HETATM   13  N   UNL     1     -15.379   2.351 -32.480  1.00  0.00    -0.168 NA
HETATM   14  C   UNL     1     -11.283   4.203 -31.410  1.00  0.00     0.032 A 
BRANCH   9  15
HETATM   15  C   UNL     1     -14.398   0.667 -33.981  1.00  0.00     0.270 C 
HETATM   16  N   UNL     1     -13.499  -0.331 -33.720  1.00  0.00    -0.365 N 
HETATM   17  H   UNL     1     -12.828  -0.195 -32.974  1.00  0.00     0.159 HD
HETATM   18  H   UNL     1     -13.471  -1.143 -34.315  1.00  0.00     0.159 HD
HETATM   19  O   UNL     1     -15.196   0.575 -34.907  1.00  0.00    -0.266 OA
ENDBRANCH   9  15
ENDBRANCH   2   5
BRANCH   1  20
HETATM   20  C   UNL     1      -7.235   3.238 -33.669  1.00  0.00     0.107 C 
HETATM   21  C   UNL     1      -6.492   3.692 -32.409  1.00  0.00     0.025 C 
BRANCH  20  22
HETATM   22  C   UNL     1      -7.102   1.767 -34.043  1.00  0.00    -0.044 A 
HETATM   23  C   UNL     1      -5.969   1.064 -33.587  1.00  0.00     0.020 A 
HETATM   24  C   UNL     1      -5.767  -0.294 -33.884  1.00  0.00    -0.025 A 
HETATM   25  C   UNL     1      -6.730  -0.980 -34.652  1.00  0.00    -0.026 A 
HETATM   26  C   UNL     1      -4.628  -0.980 -33.432  1.00  0.00     0.012 A 
HETATM   27  C   UNL     1      -7.864  -0.286 -35.101  1.00  0.00     0.013 A 
HETATM   28  C   UNL     1      -6.530  -2.340 -34.945  1.00  0.00     0.012 A 
HETATM   29  C   UNL     1      -8.049   1.068 -34.800  1.00  0.00     0.009 A 
HETATM   30  C   UNL     1      -5.394  -3.010 -34.487  1.00  0.00     0.001 A 
HETATM   31  C   UNL     1      -4.443  -2.329 -33.732  1.00  0.00     0.001 A 
ENDBRANCH  20  22
ENDBRANCH   1  20
TORSDOF 4
ENDMDL
