MODEL 1
REMARK VINA RESULT:      -8.5      0.000      0.000
REMARK  7 active torsions:
REMARK  status: ('A' for Active; 'I' for Inactive)
REMARK    1  A    between atoms: C_4  and  C_5 
REMARK    2  A    between atoms: C_5  and  N_6 
REMARK       I    between atoms: N_6  and  C_7 
REMARK    3  A    between atoms: C_7  and  C_8 
REMARK    4  A    between atoms: C_8  and  C_9 
REMARK    5  A    between atoms: C_9  and  N_10 
REMARK    6  A    between atoms: N_10  and  C_11 
REMARK    7  A    between atoms: C_13  and  N_14 
ROOT
HETATM    1  N   UNL     1      -4.116   2.538 -32.235  1.00  0.00    -0.262 NA
HETATM    2  H   UNL     1      -3.551   1.723 -32.498  1.00  0.00     0.130 HD
ENDROOT
BRANCH   1   3
HETATM    3  C   UNL     1      -4.678   2.359 -30.890  1.00  0.00     0.104 C 
BRANCH   3   4
HETATM    4  C   UNL     1      -4.817   0.871 -30.581  1.00  0.00     0.117 C 
BRANCH   4   5
HETATM    5  C   UNL     1      -3.833   0.070 -31.407  1.00  0.00     0.219 C 
HETATM    6  N   UNL     1      -4.421  -0.590 -32.457  1.00  0.00    -0.357 N 
HETATM    7  H   UNL     1      -5.429  -0.610 -32.533  1.00  0.00     0.162 HD
HETATM    8  O   UNL     1      -2.637   0.027 -31.138  1.00  0.00    -0.274 OA
BRANCH   6   9
HETATM    9  C   UNL     1      -3.686  -1.511 -33.300  1.00  0.00     0.161 C 
BRANCH   9  10
HETATM   10  C   UNL     1      -4.601  -2.566 -33.864  1.00  0.00    -0.041 A 
HETATM   11  C   UNL     1      -5.904  -2.239 -34.273  1.00  0.00     0.009 A 
HETATM   12  C   UNL     1      -6.751  -3.219 -34.793  1.00  0.00     0.001 A 
HETATM   13  C   UNL     1      -6.307  -4.534 -34.912  1.00  0.00     0.000 A 
HETATM   14  C   UNL     1      -5.017  -4.873 -34.505  1.00  0.00     0.001 A 
HETATM   15  C   UNL     1      -4.171  -3.896 -33.978  1.00  0.00     0.009 A 
ENDBRANCH   9  10
ENDBRANCH   6   9
ENDBRANCH   4   5
ENDBRANCH   3   4
ENDBRANCH   1   3
BRANCH   1  16
HETATM   16  C   UNL     1      -3.249   3.615 -32.363  1.00  0.00     0.181 A 
HETATM   17  N   UNL     1      -3.428   4.436 -33.407  1.00  0.00    -0.207 NA
HETATM   18  C   UNL     1      -2.625   5.510 -33.479  1.00  0.00     0.116 A 
HETATM   19  C   UNL     1      -1.628   5.783 -32.527  1.00  0.00     0.031 A 
HETATM   20  C   UNL     1      -1.524   4.880 -31.452  1.00  0.00     0.048 A 
HETATM   21  C   UNL     1      -0.735   6.878 -32.570  1.00  0.00     0.017 A 
HETATM   22  N   UNL     1      -2.350   3.829 -31.408  1.00  0.00    -0.330 N 
HETATM   23  C   UNL     1      -0.572   5.076 -30.441  1.00  0.00     0.030 A 
HETATM   24  H   UNL     1      -2.341   3.185 -30.627  1.00  0.00     0.168 HD
HETATM   25  C   UNL     1       0.292   6.169 -30.498  1.00  0.00     0.002 A 
HETATM   26  C   UNL     1       0.213   7.065 -31.561  1.00  0.00     0.001 A 
BRANCH  18  27
HETATM   27  N   UNL     1      -2.806   6.313 -34.600  1.00  0.00    -0.286 NA
HETATM   28  H   UNL     1      -2.512   7.267 -34.403  1.00  0.00     0.125 HD
HETATM   29  H   UNL     1      -2.358   5.959 -35.440  1.00  0.00     0.125 HD
ENDBRANCH  18  27
ENDBRANCH   1  16
TORSDOF 7
ENDMDL
MODEL 2
REMARK VINA RESULT:      -8.3      1.081      1.259
REMARK  7 active torsions:
REMARK  status: ('A' for Active; 'I' for Inactive)
REMARK    1  A    between atoms: C_4  and  C_5 
REMARK    2  A    between atoms: C_5  and  N_6 
REMARK       I    between atoms: N_6  and  C_7 
REMARK    3  A    between atoms: C_7  and  C_8 
REMARK    4  A    between atoms: C_8  and  C_9 
REMARK    5  A    between atoms: C_9  and  N_10 
REMARK    6  A    between atoms: N_10  and  C_11 
REMARK    7  A    between atoms: C_13  and  N_14 
ROOT
HETATM    1  N   UNL     1      -4.293   2.514 -31.920  1.00  0.00    -0.262 NA
HETATM    2  H   UNL     1      -4.654   2.238 -32.839  1.00  0.00     0.130 HD
ENDROOT
BRANCH   1   3
HETATM    3  C   UNL     1      -3.666   1.368 -31.250  1.00  0.00     0.104 C 
BRANCH   3   4
HETATM    4  C   UNL     1      -4.741   0.478 -30.632  1.00  0.00     0.117 C 
BRANCH   4   5
HETATM    5  C   UNL     1      -5.666  -0.050 -31.708  1.00  0.00     0.219 C 
HETATM    6  N   UNL     1      -5.030  -0.280 -32.902  1.00  0.00    -0.357 N 
HETATM    7  H   UNL     1      -4.073   0.022 -33.025  1.00  0.00     0.162 HD
HETATM    8  O   UNL     1      -6.862  -0.236 -31.507  1.00  0.00    -0.274 OA
BRANCH   6   9
HETATM    9  C   UNL     1      -5.748  -0.668 -34.098  1.00  0.00     0.161 C 
BRANCH   9  10
HETATM   10  C   UNL     1      -5.661  -2.157 -34.316  1.00  0.00    -0.041 A 
HETATM   11  C   UNL     1      -6.787  -2.885 -34.732  1.00  0.00     0.009 A 
HETATM   12  C   UNL     1      -6.705  -4.264 -34.930  1.00  0.00     0.001 A 
HETATM   13  C   UNL     1      -5.500  -4.930 -34.716  1.00  0.00     0.000 A 
HETATM   14  C   UNL     1      -4.376  -4.218 -34.299  1.00  0.00     0.001 A 
HETATM   15  C   UNL     1      -4.458  -2.840 -34.093  1.00  0.00     0.009 A 
ENDBRANCH   9  10
ENDBRANCH   6   9
ENDBRANCH   4   5
ENDBRANCH   3   4
ENDBRANCH   1   3
BRANCH   1  16
HETATM   16  C   UNL     1      -3.432   3.570 -32.190  1.00  0.00     0.181 A 
HETATM   17  N   UNL     1      -3.679   4.308 -33.281  1.00  0.00    -0.207 NA
HETATM   18  C   UNL     1      -2.878   5.365 -33.492  1.00  0.00     0.116 A 
HETATM   19  C   UNL     1      -1.817   5.703 -32.634  1.00  0.00     0.031 A 
HETATM   20  C   UNL     1      -1.644   4.885 -31.501  1.00  0.00     0.048 A 
HETATM   21  C   UNL     1      -0.924   6.783 -32.823  1.00  0.00     0.017 A 
HETATM   22  N   UNL     1      -2.469   3.849 -31.318  1.00  0.00    -0.330 N 
HETATM   23  C   UNL     1      -0.625   5.151 -30.575  1.00  0.00     0.030 A 
HETATM   24  H   UNL     1      -2.410   3.268 -30.491  1.00  0.00     0.168 HD
HETATM   25  C   UNL     1       0.238   6.228 -30.776  1.00  0.00     0.002 A 
HETATM   26  C   UNL     1       0.090   7.039 -31.898  1.00  0.00     0.001 A 
BRANCH  18  27
HETATM   27  N   UNL     1      -3.131   6.080 -34.657  1.00  0.00    -0.286 NA
HETATM   28  H   UNL     1      -3.767   5.562 -35.260  1.00  0.00     0.125 HD
HETATM   29  H   UNL     1      -3.467   7.026 -34.499  1.00  0.00     0.125 HD
ENDBRANCH  18  27
ENDBRANCH   1  16
TORSDOF 7
ENDMDL
MODEL 3
REMARK VINA RESULT:      -8.0      4.773      6.999
REMARK  7 active torsions:
REMARK  status: ('A' for Active; 'I' for Inactive)
REMARK    1  A    between atoms: C_4  and  C_5 
REMARK    2  A    between atoms: C_5  and  N_6 
REMARK       I    between atoms: N_6  and  C_7 
REMARK    3  A    between atoms: C_7  and  C_8 
REMARK    4  A    between atoms: C_8  and  C_9 
REMARK    5  A    between atoms: C_9  and  N_10 
REMARK    6  A    between atoms: N_10  and  C_11 
REMARK    7  A    between atoms: C_13  and  N_14 
ROOT
HETATM    1  N   UNL     1      -8.449   1.340 -30.931  1.00  0.00    -0.262 NA
HETATM    2  H   UNL     1      -8.452   0.334 -31.128  1.00  0.00     0.130 HD
ENDROOT
BRANCH   1   3
HETATM    3  C   UNL     1      -7.072   1.827 -30.769  1.00  0.00     0.104 C 
BRANCH   3   4
HETATM    4  C   UNL     1      -6.093   0.665 -30.910  1.00  0.00     0.117 C 
BRANCH   4   5
HETATM    5  C   UNL     1      -5.707   0.478 -32.361  1.00  0.00     0.219 C 
HETATM    6  N   UNL     1      -6.528  -0.396 -33.030  1.00  0.00    -0.357 N 
HETATM    7  H   UNL     1      -7.214  -0.931 -32.514  1.00  0.00     0.162 HD
HETATM    8  O   UNL     1      -4.748   1.056 -32.863  1.00  0.00    -0.274 OA
BRANCH   6   9
HETATM    9  C   UNL     1      -6.266  -0.815 -34.392  1.00  0.00     0.161 C 
BRANCH   9  10
HETATM   10  C   UNL     1      -5.833  -2.257 -34.435  1.00  0.00    -0.041 A 
HETATM   11  C   UNL     1      -6.728  -3.261 -34.839  1.00  0.00     0.009 A 
HETATM   12  C   UNL     1      -6.325  -4.597 -34.875  1.00  0.00     0.001 A 
HETATM   13  C   UNL     1      -5.027  -4.945 -34.511  1.00  0.00     0.000 A 
HETATM   14  C   UNL     1      -4.130  -3.958 -34.103  1.00  0.00     0.001 A 
HETATM   15  C   UNL     1      -4.533  -2.622 -34.059  1.00  0.00     0.009 A 
ENDBRANCH   9  10
ENDBRANCH   6   9
ENDBRANCH   4   5
ENDBRANCH   3   4
ENDBRANCH   1   3
BRANCH   1  16
HETATM   16  C   UNL     1      -9.141   1.902 -31.997  1.00  0.00     0.181 A 
HETATM   17  N   UNL     1      -8.602   2.976 -32.589  1.00  0.00    -0.207 NA
HETATM   18  C   UNL     1      -9.249   3.467 -33.659  1.00  0.00     0.116 A 
HETATM   19  C   UNL     1     -10.441   2.909 -34.153  1.00  0.00     0.031 A 
HETATM   20  C   UNL     1     -10.924   1.769 -33.482  1.00  0.00     0.048 A 
HETATM   21  C   UNL     1     -11.180   3.401 -35.253  1.00  0.00     0.017 A 
HETATM   22  N   UNL     1     -10.246   1.302 -32.429  1.00  0.00    -0.330 N 
HETATM   23  C   UNL     1     -12.096   1.129 -33.910  1.00  0.00     0.030 A 
HETATM   24  H   UNL     1     -10.531   0.457 -31.951  1.00  0.00     0.168 HD
HETATM   25  C   UNL     1     -12.804   1.627 -35.005  1.00  0.00     0.002 A 
HETATM   26  C   UNL     1     -12.348   2.761 -35.672  1.00  0.00     0.001 A 
BRANCH  18  27
HETATM   27  N   UNL     1      -8.689   4.610 -34.220  1.00  0.00    -0.286 NA
HETATM   28  H   UNL     1      -8.985   5.437 -33.706  1.00  0.00     0.125 HD
HETATM   29  H   UNL     1      -7.678   4.576 -34.309  1.00  0.00     0.125 HD
ENDBRANCH  18  27
ENDBRANCH   1  16
TORSDOF 7
ENDMDL
MODEL 4
REMARK VINA RESULT:      -8.0      3.144      7.404
REMARK  7 active torsions:
REMARK  status: ('A' for Active; 'I' for Inactive)
REMARK    1  A    between atoms: C_4  and  C_5 
REMARK    2  A    between atoms: C_5  and  N_6 
REMARK       I    between atoms: N_6  and  C_7 
REMARK    3  A    between atoms: C_7  and  C_8 
REMARK    4  A    between atoms: C_8  and  C_9 
REMARK    5  A    between atoms: C_9  and  N_10 
REMARK    6  A    between atoms: N_10  and  C_11 
REMARK    7  A    between atoms: C_13  and  N_14 
ROOT
HETATM    1  N   UNL     1      -3.372   0.461 -32.610  1.00  0.00    -0.262 NA
HETATM    2  H   UNL     1      -3.250   1.152 -33.359  1.00  0.00     0.130 HD
ENDROOT
BRANCH   1   3
HETATM    3  C   UNL     1      -3.956   1.093 -31.420  1.00  0.00     0.104 C 
BRANCH   3   4
HETATM    4  C   UNL     1      -3.702   2.598 -31.456  1.00  0.00     0.117 C 
BRANCH   4   5
HETATM    5  C   UNL     1      -4.697   3.275 -32.375  1.00  0.00     0.219 C 
HETATM    6  N   UNL     1      -5.916   2.645 -32.408  1.00  0.00    -0.357 N 
HETATM    7  H   UNL     1      -6.029   1.750 -31.951  1.00  0.00     0.162 HD
HETATM    8  O   UNL     1      -4.413   4.279 -33.019  1.00  0.00    -0.274 OA
BRANCH   6   9
HETATM    9  C   UNL     1      -6.972   3.052 -33.312  1.00  0.00     0.161 C 
BRANCH   9  10
HETATM   10  C   UNL     1      -8.138   2.101 -33.236  1.00  0.00    -0.041 A 
HETATM   11  C   UNL     1      -8.252   1.194 -32.171  1.00  0.00     0.009 A 
HETATM   12  C   UNL     1      -9.332   0.313 -32.103  1.00  0.00     0.001 A 
HETATM   13  C   UNL     1     -10.309   0.328 -33.095  1.00  0.00     0.000 A 
HETATM   14  C   UNL     1     -10.205   1.222 -34.160  1.00  0.00     0.001 A 
HETATM   15  C   UNL     1      -9.122   2.099 -34.234  1.00  0.00     0.009 A 
ENDBRANCH   9  10
ENDBRANCH   6   9
ENDBRANCH   4   5
ENDBRANCH   3   4
ENDBRANCH   1   3
BRANCH   1  16
HETATM   16  C   UNL     1      -4.155  -0.533 -33.182  1.00  0.00     0.181 A 
HETATM   17  N   UNL     1      -5.281  -0.156 -33.803  1.00  0.00    -0.207 NA
HETATM   18  C   UNL     1      -5.993  -1.121 -34.408  1.00  0.00     0.116 A 
HETATM   19  C   UNL     1      -5.607  -2.473 -34.400  1.00  0.00     0.031 A 
HETATM   20  C   UNL     1      -4.400  -2.776 -33.743  1.00  0.00     0.048 A 
HETATM   21  C   UNL     1      -6.332  -3.533 -34.991  1.00  0.00     0.017 A 
HETATM   22  N   UNL     1      -3.712  -1.786 -33.163  1.00  0.00    -0.330 N 
HETATM   23  C   UNL     1      -3.920  -4.093 -33.697  1.00  0.00     0.030 A 
HETATM   24  H   UNL     1      -2.816  -1.954 -32.725  1.00  0.00     0.168 HD
HETATM   25  C   UNL     1      -4.647  -5.122 -34.296  1.00  0.00     0.002 A 
HETATM   26  C   UNL     1      -5.850  -4.843 -34.939  1.00  0.00     0.001 A 
BRANCH  18  27
HETATM   27  N   UNL     1      -7.179  -0.703 -35.000  1.00  0.00    -0.286 NA
HETATM   28  H   UNL     1      -7.564  -1.443 -35.584  1.00  0.00     0.125 HD
HETATM   29  H   UNL     1      -7.872  -0.359 -34.342  1.00  0.00     0.125 HD
ENDBRANCH  18  27
ENDBRANCH   1  16
TORSDOF 7
ENDMDL
MODEL 5
REMARK VINA RESULT:      -7.9      1.768      2.274
REMARK  7 active torsions:
REMARK  status: ('A' for Active; 'I' for Inactive)
REMARK    1  A    between atoms: C_4  and  C_5 
REMARK    2  A    between atoms: C_5  and  N_6 
REMARK       I    between atoms: N_6  and  C_7 
REMARK    3  A    between atoms: C_7  and  C_8 
REMARK    4  A    between atoms: C_8  and  C_9 
REMARK    5  A    between atoms: C_9  and  N_10 
REMARK    6  A    between atoms: N_10  and  C_11 
REMARK    7  A    between atoms: C_13  and  N_14 
ROOT
HETATM    1  N   UNL     1      -4.692   2.586 -31.698  1.00  0.00    -0.262 NA
HETATM    2  H   UNL     1      -4.158   1.712 -31.767  1.00  0.00     0.130 HD
ENDROOT
BRANCH   1   3
HETATM    3  C   UNL     1      -5.220   2.757 -30.338  1.00  0.00     0.104 C 
BRANCH   3   4
HETATM    4  C   UNL     1      -6.633   2.186 -30.256  1.00  0.00     0.117 C 
BRANCH   4   5
HETATM    5  C   UNL     1      -7.145   1.855 -31.642  1.00  0.00     0.219 C 
HETATM    6  N   UNL     1      -7.220   0.505 -31.881  1.00  0.00    -0.357 N 
HETATM    7  H   UNL     1      -6.828  -0.144 -31.211  1.00  0.00     0.162 HD
HETATM    8  O   UNL     1      -7.449   2.724 -32.451  1.00  0.00    -0.274 OA
BRANCH   6   9
HETATM    9  C   UNL     1      -7.566  -0.031 -33.181  1.00  0.00     0.161 C 
BRANCH   9  10
HETATM   10  C   UNL     1      -6.535  -1.029 -33.640  1.00  0.00    -0.041 A 
HETATM   11  C   UNL     1      -5.186  -0.882 -33.279  1.00  0.00     0.009 A 
HETATM   12  C   UNL     1      -4.233  -1.806 -33.707  1.00  0.00     0.001 A 
HETATM   13  C   UNL     1      -4.614  -2.886 -34.499  1.00  0.00     0.000 A 
HETATM   14  C   UNL     1      -5.949  -3.042 -34.869  1.00  0.00     0.001 A 
HETATM   15  C   UNL     1      -6.903  -2.114 -34.447  1.00  0.00     0.009 A 
ENDBRANCH   9  10
ENDBRANCH   6   9
ENDBRANCH   4   5
ENDBRANCH   3   4
ENDBRANCH   1   3
BRANCH   1  16
HETATM   16  C   UNL     1      -3.797   3.569 -32.101  1.00  0.00     0.181 A 
HETATM   17  N   UNL     1      -4.053   4.207 -33.251  1.00  0.00    -0.207 NA
HETATM   18  C   UNL     1      -3.216   5.200 -33.593  1.00  0.00     0.116 A 
HETATM   19  C   UNL     1      -2.110   5.571 -32.808  1.00  0.00     0.031 A 
HETATM   20  C   UNL     1      -1.930   4.862 -31.606  1.00  0.00     0.048 A 
HETATM   21  C   UNL     1      -1.180   6.584 -33.134  1.00  0.00     0.017 A 
HETATM   22  N   UNL     1      -2.791   3.888 -31.293  1.00  0.00    -0.330 N 
HETATM   23  C   UNL     1      -0.866   5.170 -30.745  1.00  0.00     0.030 A 
HETATM   24  H   UNL     1      -2.726   3.389 -30.415  1.00  0.00     0.168 HD
HETATM   25  C   UNL     1       0.034   6.181 -31.082  1.00  0.00     0.002 A 
HETATM   26  C   UNL     1      -0.121   6.884 -32.273  1.00  0.00     0.001 A 
BRANCH  18  27
HETATM   27  N   UNL     1      -3.482   5.808 -34.815  1.00  0.00    -0.286 NA
HETATM   28  H   UNL     1      -2.691   6.379 -35.106  1.00  0.00     0.125 HD
HETATM   29  H   UNL     1      -3.757   5.161 -35.548  1.00  0.00     0.125 HD
ENDBRANCH  18  27
ENDBRANCH   1  16
TORSDOF 7
ENDMDL
MODEL 6
REMARK VINA RESULT:      -7.9      1.377      1.994
REMARK  7 active torsions:
REMARK  status: ('A' for Active; 'I' for Inactive)
REMARK    1  A    between atoms: C_4  and  C_5 
REMARK    2  A    between atoms: C_5  and  N_6 
REMARK       I    between atoms: N_6  and  C_7 
REMARK    3  A    between atoms: C_7  and  C_8 
REMARK    4  A    between atoms: C_8  and  C_9 
REMARK    5  A    between atoms: C_9  and  N_10 
REMARK    6  A    between atoms: N_10  and  C_11 
REMARK    7  A    between atoms: C_13  and  N_14 
ROOT
HETATM    1  N   UNL     1      -5.205   2.440 -31.869  1.00  0.00    -0.262 NA
HETATM    2  H   UNL     1      -4.676   1.684 -32.316  1.00  0.00     0.130 HD
ENDROOT
BRANCH   1   3
HETATM    3  C   UNL     1      -5.569   2.069 -30.495  1.00  0.00     0.104 C 
BRANCH   3   4
HETATM    4  C   UNL     1      -5.469   0.556 -30.325  1.00  0.00     0.117 C 
BRANCH   4   5
HETATM    5  C   UNL     1      -4.406  -0.006 -31.244  1.00  0.00     0.219 C 
HETATM    6  N   UNL     1      -4.916  -0.513 -32.413  1.00  0.00    -0.357 N 
HETATM    7  H   UNL     1      -5.918  -0.598 -32.526  1.00  0.00     0.162 HD
HETATM    8  O   UNL     1      -3.216  -0.003 -30.946  1.00  0.00    -0.274 OA
BRANCH   6   9
HETATM    9  C   UNL     1      -4.092  -1.209 -33.379  1.00  0.00     0.161 C 
BRANCH   9  10
HETATM   10  C   UNL     1      -4.806  -2.422 -33.917  1.00  0.00    -0.041 A 
HETATM   11  C   UNL     1      -6.132  -2.330 -34.366  1.00  0.00     0.009 A 
HETATM   12  C   UNL     1      -6.793  -3.455 -34.862  1.00  0.00     0.001 A 
HETATM   13  C   UNL     1      -6.136  -4.682 -34.916  1.00  0.00     0.000 A 
HETATM   14  C   UNL     1      -4.820  -4.788 -34.469  1.00  0.00     0.001 A 
HETATM   15  C   UNL     1      -4.160  -3.665 -33.966  1.00  0.00     0.009 A 
ENDBRANCH   9  10
ENDBRANCH   6   9
ENDBRANCH   4   5
ENDBRANCH   3   4
ENDBRANCH   1   3
BRANCH   1  16
HETATM   16  C   UNL     1      -4.375   3.549 -31.970  1.00  0.00     0.181 A 
HETATM   17  N   UNL     1      -4.282   4.354 -30.903  1.00  0.00    -0.207 NA
HETATM   18  C   UNL     1      -3.424   5.384 -30.992  1.00  0.00     0.116 A 
HETATM   19  C   UNL     1      -2.654   5.638 -32.140  1.00  0.00     0.031 A 
HETATM   20  C   UNL     1      -2.798   4.729 -33.205  1.00  0.00     0.048 A 
HETATM   21  C   UNL     1      -1.761   6.722 -32.302  1.00  0.00     0.017 A 
HETATM   22  N   UNL     1      -3.653   3.709 -33.074  1.00  0.00    -0.330 N 
HETATM   23  C   UNL     1      -2.059   4.886 -34.386  1.00  0.00     0.030 A 
HETATM   24  H   UNL     1      -3.749   3.006 -33.796  1.00  0.00     0.168 HD
HETATM   25  C   UNL     1      -1.175   5.958 -34.520  1.00  0.00     0.002 A 
HETATM   26  C   UNL     1      -1.030   6.874 -33.482  1.00  0.00     0.001 A 
BRANCH  18  27
HETATM   27  N   UNL     1      -3.389   6.226 -29.887  1.00  0.00    -0.286 NA
HETATM   28  H   UNL     1      -2.451   6.598 -29.755  1.00  0.00     0.125 HD
HETATM   29  H   UNL     1      -4.078   6.972 -29.912  1.00  0.00     0.125 HD
ENDBRANCH  18  27
ENDBRANCH   1  16
TORSDOF 7
ENDMDL
MODEL 7
REMARK VINA RESULT:      -7.8      1.785      8.261
REMARK  7 active torsions:
REMARK  status: ('A' for Active; 'I' for Inactive)
REMARK    1  A    between atoms: C_4  and  C_5 
REMARK    2  A    between atoms: C_5  and  N_6 
REMARK       I    between atoms: N_6  and  C_7 
REMARK    3  A    between atoms: C_7  and  C_8 
REMARK    4  A    between atoms: C_8  and  C_9 
REMARK    5  A    between atoms: C_9  and  N_10 
REMARK    6  A    between atoms: N_10  and  C_11 
REMARK    7  A    between atoms: C_13  and  N_14 
ROOT
HETATM    1  N   UNL     1      -6.342   1.730 -31.329  1.00  0.00    -0.262 NA
HETATM    2  H   UNL     1      -7.335   1.486 -31.256  1.00  0.00     0.130 HD
ENDROOT
BRANCH   1   3
HETATM    3  C   UNL     1      -5.800   2.074 -30.008  1.00  0.00     0.104 C 
BRANCH   3   4
HETATM    4  C   UNL     1      -5.430   3.554 -29.970  1.00  0.00     0.117 C 
BRANCH   4   5
HETATM    5  C   UNL     1      -4.800   3.971 -31.282  1.00  0.00     0.219 C 
HETATM    6  N   UNL     1      -3.588   3.370 -31.514  1.00  0.00    -0.357 N 
HETATM    7  H   UNL     1      -3.153   2.823 -30.783  1.00  0.00     0.162 HD
HETATM    8  O   UNL     1      -5.337   4.773 -32.039  1.00  0.00    -0.274 OA
BRANCH   6   9
HETATM    9  C   UNL     1      -2.757   3.718 -32.648  1.00  0.00     0.161 C 
BRANCH   9  10
HETATM   10  C   UNL     1      -1.825   4.850 -32.301  1.00  0.00    -0.041 A 
HETATM   11  C   UNL     1      -1.673   5.943 -33.169  1.00  0.00     0.009 A 
HETATM   12  C   UNL     1      -0.807   6.989 -32.847  1.00  0.00     0.001 A 
HETATM   13  C   UNL     1      -0.085   6.956 -31.656  1.00  0.00     0.000 A 
HETATM   14  C   UNL     1      -0.224   5.874 -30.788  1.00  0.00     0.001 A 
HETATM   15  C   UNL     1      -1.084   4.823 -31.112  1.00  0.00     0.009 A 
ENDBRANCH   9  10
ENDBRANCH   6   9
ENDBRANCH   4   5
ENDBRANCH   3   4
ENDBRANCH   1   3
BRANCH   1  16
HETATM   16  C   UNL     1      -5.757   0.620 -31.926  1.00  0.00     0.181 A 
HETATM   17  N   UNL     1      -4.526   0.278 -31.525  1.00  0.00    -0.207 NA
HETATM   18  C   UNL     1      -4.001  -0.836 -32.063  1.00  0.00     0.116 A 
HETATM   19  C   UNL     1      -4.681  -1.621 -33.010  1.00  0.00     0.031 A 
HETATM   20  C   UNL     1      -5.979  -1.199 -33.357  1.00  0.00     0.048 A 
HETATM   21  C   UNL     1      -4.167  -2.782 -33.631  1.00  0.00     0.017 A 
HETATM   22  N   UNL     1      -6.472  -0.092 -32.791  1.00  0.00    -0.330 N 
HETATM   23  C   UNL     1      -6.746  -1.925 -34.278  1.00  0.00     0.030 A 
HETATM   24  H   UNL     1      -7.418   0.217 -32.975  1.00  0.00     0.168 HD
HETATM   25  C   UNL     1      -6.222  -3.074 -34.872  1.00  0.00     0.002 A 
HETATM   26  C   UNL     1      -4.935  -3.499 -34.551  1.00  0.00     0.001 A 
BRANCH  18  27
HETATM   27  N   UNL     1      -2.703  -1.135 -31.662  1.00  0.00    -0.286 NA
HETATM   28  H   UNL     1      -2.716  -1.786 -30.879  1.00  0.00     0.125 HD
HETATM   29  H   UNL     1      -2.106  -1.474 -32.410  1.00  0.00     0.125 HD
ENDBRANCH  18  27
ENDBRANCH   1  16
TORSDOF 7
ENDMDL
MODEL 8
REMARK VINA RESULT:      -7.7      2.167      2.937
REMARK  7 active torsions:
REMARK  status: ('A' for Active; 'I' for Inactive)
REMARK    1  A    between atoms: C_4  and  C_5 
REMARK    2  A    between atoms: C_5  and  N_6 
REMARK       I    between atoms: N_6  and  C_7 
REMARK    3  A    between atoms: C_7  and  C_8 
REMARK    4  A    between atoms: C_8  and  C_9 
REMARK    5  A    between atoms: C_9  and  N_10 
REMARK    6  A    between atoms: N_10  and  C_11 
REMARK    7  A    between atoms: C_13  and  N_14 
ROOT
HETATM    1  N   UNL     1      -6.349   1.997 -29.346  1.00  0.00    -0.262 NA
HETATM    2  H   UNL     1      -7.366   2.115 -29.403  1.00  0.00     0.130 HD
ENDROOT
BRANCH   1   3
HETATM    3  C   UNL     1      -5.970   0.626 -29.712  1.00  0.00     0.104 C 
BRANCH   3   4
HETATM    4  C   UNL     1      -6.869   0.125 -30.840  1.00  0.00     0.117 C 
BRANCH   4   5
HETATM    5  C   UNL     1      -6.070  -0.031 -32.116  1.00  0.00     0.219 C 
HETATM    6  N   UNL     1      -6.814  -0.519 -33.162  1.00  0.00    -0.357 N 
HETATM    7  H   UNL     1      -7.755  -0.850 -32.994  1.00  0.00     0.162 HD
HETATM    8  O   UNL     1      -4.878   0.251 -32.180  1.00  0.00    -0.274 OA
BRANCH   6   9
HETATM    9  C   UNL     1      -6.222  -0.860 -34.439  1.00  0.00     0.161 C 
BRANCH   9  10
HETATM   10  C   UNL     1      -5.795  -2.305 -34.461  1.00  0.00    -0.041 A 
HETATM   11  C   UNL     1      -6.702  -3.313 -34.824  1.00  0.00     0.009 A 
HETATM   12  C   UNL     1      -6.305  -4.651 -34.842  1.00  0.00     0.001 A 
HETATM   13  C   UNL     1      -5.000  -4.997 -34.500  1.00  0.00     0.000 A 
HETATM   14  C   UNL     1      -4.091  -4.005 -34.133  1.00  0.00     0.001 A 
HETATM   15  C   UNL     1      -4.488  -2.667 -34.108  1.00  0.00     0.009 A 
ENDBRANCH   9  10
ENDBRANCH   6   9
ENDBRANCH   4   5
ENDBRANCH   3   4
ENDBRANCH   1   3
BRANCH   1  16
HETATM   16  C   UNL     1      -5.840   2.982 -30.182  1.00  0.00     0.181 A 
HETATM   17  N   UNL     1      -6.648   4.000 -30.506  1.00  0.00    -0.207 NA
HETATM   18  C   UNL     1      -6.120   4.978 -31.260  1.00  0.00     0.116 A 
HETATM   19  C   UNL     1      -4.789   4.960 -31.713  1.00  0.00     0.031 A 
HETATM   20  C   UNL     1      -4.005   3.863 -31.307  1.00  0.00     0.048 A 
HETATM   21  C   UNL     1      -4.191   5.943 -32.533  1.00  0.00     0.017 A 
HETATM   22  N   UNL     1      -4.563   2.915 -30.546  1.00  0.00    -0.330 N 
HETATM   23  C   UNL     1      -2.661   3.763 -31.691  1.00  0.00     0.030 A 
HETATM   24  H   UNL     1      -4.021   2.137 -30.192  1.00  0.00     0.168 HD
HETATM   25  C   UNL     1      -2.088   4.750 -32.493  1.00  0.00     0.002 A 
HETATM   26  C   UNL     1      -2.852   5.835 -32.914  1.00  0.00     0.001 A 
BRANCH  18  27
HETATM   27  N   UNL     1      -7.000   5.994 -31.618  1.00  0.00    -0.286 NA
HETATM   28  H   UNL     1      -7.205   5.951 -32.614  1.00  0.00     0.125 HD
HETATM   29  H   UNL     1      -7.854   6.015 -31.069  1.00  0.00     0.125 HD
ENDBRANCH  18  27
ENDBRANCH   1  16
TORSDOF 7
ENDMDL
MODEL 9
REMARK VINA RESULT:      -7.7      5.742      9.045
REMARK  7 active torsions:
REMARK  status: ('A' for Active; 'I' for Inactive)
REMARK    1  A    between atoms: C_4  and  C_5 
REMARK    2  A    between atoms: C_5  and  N_6 
REMARK       I    between atoms: N_6  and  C_7 
REMARK    3  A    between atoms: C_7  and  C_8 
REMARK    4  A    between atoms: C_8  and  C_9 
REMARK    5  A    between atoms: C_9  and  N_10 
REMARK    6  A    between atoms: N_10  and  C_11 
REMARK    7  A    between atoms: C_13  and  N_14 
ROOT
HETATM    1  N   UNL     1      -7.729   0.732 -34.592  1.00  0.00    -0.262 NA
HETATM    2  H   UNL     1      -8.625   0.275 -34.392  1.00  0.00     0.130 HD
ENDROOT
BRANCH   1   3
HETATM    3  C   UNL     1      -7.537   1.892 -33.711  1.00  0.00     0.104 C 
BRANCH   3   4
HETATM    4  C   UNL     1      -8.779   2.097 -32.849  1.00  0.00     0.117 C 
BRANCH   4   5
HETATM    5  C   UNL     1      -9.947   1.320 -33.418  1.00  0.00     0.219 C 
HETATM    6  N   UNL     1     -10.739   2.069 -34.252  1.00  0.00    -0.357 N 
HETATM    7  H   UNL     1     -10.584   3.066 -34.327  1.00  0.00     0.162 HD
HETATM    8  O   UNL     1     -10.146   0.142 -33.140  1.00  0.00    -0.274 OA
BRANCH   6   9
HETATM    9  C   UNL     1     -11.976   1.560 -34.807  1.00  0.00     0.161 C 
BRANCH   9  10
HETATM   10  C   UNL     1     -13.138   1.870 -33.899  1.00  0.00    -0.041 A 
HETATM   11  C   UNL     1     -13.025   2.854 -32.905  1.00  0.00     0.009 A 
HETATM   12  C   UNL     1     -14.102   3.138 -32.063  1.00  0.00     0.001 A 
HETATM   13  C   UNL     1     -15.301   2.444 -32.205  1.00  0.00     0.000 A 
HETATM   14  C   UNL     1     -15.424   1.461 -33.186  1.00  0.00     0.001 A 
HETATM   15  C   UNL     1     -14.346   1.171 -34.024  1.00  0.00     0.009 A 
ENDBRANCH   9  10
ENDBRANCH   6   9
ENDBRANCH   4   5
ENDBRANCH   3   4
ENDBRANCH   1   3
BRANCH   1  16
HETATM   16  C   UNL     1      -6.785  -0.275 -34.439  1.00  0.00     0.181 A 
HETATM   17  N   UNL     1      -5.614   0.052 -33.876  1.00  0.00    -0.207 NA
HETATM   18  C   UNL     1      -4.738  -0.946 -33.674  1.00  0.00     0.116 A 
HETATM   19  C   UNL     1      -5.003  -2.279 -34.034  1.00  0.00     0.031 A 
HETATM   20  C   UNL     1      -6.266  -2.536 -34.600  1.00  0.00     0.048 A 
HETATM   21  C   UNL     1      -4.108  -3.362 -33.875  1.00  0.00     0.017 A 
HETATM   22  N   UNL     1      -7.117  -1.518 -34.774  1.00  0.00    -0.330 N 
HETATM   23  C   UNL     1      -6.632  -3.836 -34.975  1.00  0.00     0.030 A 
HETATM   24  H   UNL     1      -8.052  -1.668 -35.130  1.00  0.00     0.168 HD
HETATM   25  C   UNL     1      -5.737  -4.892 -34.800  1.00  0.00     0.002 A 
HETATM   26  C   UNL     1      -4.478  -4.654 -34.254  1.00  0.00     0.001 A 
BRANCH  18  27
HETATM   27  N   UNL     1      -3.516  -0.564 -33.133  1.00  0.00    -0.286 NA
HETATM   28  H   UNL     1      -3.338   0.421 -33.320  1.00  0.00     0.125 HD
HETATM   29  H   UNL     1      -3.417  -0.772 -32.144  1.00  0.00     0.125 HD
ENDBRANCH  18  27
ENDBRANCH   1  16
TORSDOF 7
ENDMDL
MODEL 10
REMARK VINA RESULT:      -7.5      3.135      6.900
REMARK  7 active torsions:
REMARK  status: ('A' for Active; 'I' for Inactive)
REMARK    1  A    between atoms: C_4  and  C_5 
REMARK    2  A    between atoms: C_5  and  N_6 
REMARK       I    between atoms: N_6  and  C_7 
REMARK    3  A    between atoms: C_7  and  C_8 
REMARK    4  A    between atoms: C_8  and  C_9 
REMARK    5  A    between atoms: C_9  and  N_10 
REMARK    6  A    between atoms: N_10  and  C_11 
REMARK    7  A    between atoms: C_13  and  N_14 
ROOT
HETATM    1  N   UNL     1      -4.662   2.746 -31.948  1.00  0.00    -0.262 NA
HETATM    2  H   UNL     1      -4.597   2.699 -30.925  1.00  0.00     0.130 HD
ENDROOT
BRANCH   1   3
HETATM    3  C   UNL     1      -3.659   3.676 -32.483  1.00  0.00     0.104 C 
BRANCH   3   4
HETATM    4  C   UNL     1      -4.353   4.895 -33.085  1.00  0.00     0.117 C 
BRANCH   4   5
HETATM    5  C   UNL     1      -5.835   4.857 -32.781  1.00  0.00     0.219 C 
HETATM    6  N   UNL     1      -6.568   4.213 -33.747  1.00  0.00    -0.357 N 
HETATM    7  H   UNL     1      -6.122   3.938 -34.612  1.00  0.00     0.162 HD
HETATM    8  O   UNL     1      -6.308   5.365 -31.770  1.00  0.00    -0.274 OA
BRANCH   6   9
HETATM    9  C   UNL     1      -8.015   4.169 -33.719  1.00  0.00     0.161 C 
BRANCH   9  10
HETATM   10  C   UNL     1      -8.501   2.801 -33.316  1.00  0.00    -0.041 A 
HETATM   11  C   UNL     1      -9.091   1.945 -34.259  1.00  0.00     0.009 A 
HETATM   12  C   UNL     1      -9.543   0.679 -33.883  1.00  0.00     0.001 A 
HETATM   13  C   UNL     1      -9.410   0.254 -32.563  1.00  0.00     0.000 A 
HETATM   14  C   UNL     1      -8.829   1.096 -31.616  1.00  0.00     0.001 A 
HETATM   15  C   UNL     1      -8.384   2.366 -31.988  1.00  0.00     0.009 A 
ENDBRANCH   9  10
ENDBRANCH   6   9
ENDBRANCH   4   5
ENDBRANCH   3   4
ENDBRANCH   1   3
BRANCH   1  16
HETATM   16  C   UNL     1      -4.512   1.429 -32.364  1.00  0.00     0.181 A 
HETATM   17  N   UNL     1      -3.508   0.721 -31.833  1.00  0.00    -0.207 NA
HETATM   18  C   UNL     1      -3.417  -0.570 -32.195  1.00  0.00     0.116 A 
HETATM   19  C   UNL     1      -4.312  -1.175 -33.094  1.00  0.00     0.031 A 
HETATM   20  C   UNL     1      -5.351  -0.362 -33.587  1.00  0.00     0.048 A 
HETATM   21  C   UNL     1      -4.247  -2.517 -33.535  1.00  0.00     0.017 A 
HETATM   22  N   UNL     1      -5.415   0.915 -33.194  1.00  0.00    -0.330 N 
HETATM   23  C   UNL     1      -6.305  -0.878 -34.475  1.00  0.00     0.030 A 
HETATM   24  H   UNL     1      -6.174   1.518 -33.485  1.00  0.00     0.168 HD
HETATM   25  C   UNL     1      -6.227  -2.208 -34.888  1.00  0.00     0.002 A 
HETATM   26  C   UNL     1      -5.199  -3.023 -34.422  1.00  0.00     0.001 A 
BRANCH  18  27
HETATM   27  N   UNL     1      -2.335  -1.262 -31.663  1.00  0.00    -0.286 NA
HETATM   28  H   UNL     1      -1.546  -1.234 -32.305  1.00  0.00     0.125 HD
HETATM   29  H   UNL     1      -2.062  -0.955 -30.734  1.00  0.00     0.125 HD
ENDBRANCH  18  27
ENDBRANCH   1  16
TORSDOF 7
ENDMDL
