MODEL 1
REMARK VINA RESULT:      -9.4      0.000      0.000
REMARK  9 active torsions:
REMARK  status: ('A' for Active; 'I' for Inactive)
REMARK    1  A    between atoms: C_2  and  C_3 
REMARK    2  A    between atoms: C_4  and  N_5 
REMARK       I    between atoms: N_5  and  C_6 
REMARK    3  A    between atoms: C_6  and  C_7 
REMARK    4  A    between atoms: C_7  and  S_8 
REMARK    5  A    between atoms: S_8  and  C_9 
REMARK    6  A    between atoms: C_13  and  C_14 
REMARK       I    between atoms: C_14  and  N_15 
REMARK    7  A    between atoms: N_15  and  C_16 
REMARK    8  A    between atoms: C_17  and  O_18 
REMARK    9  A    between atoms: C_25  and  C_26 
ROOT
HETATM    1  C   UNL     1      -4.115   3.844 -32.640  1.00  0.00     0.088 C 
HETATM    2  N   UNL     1      -5.105   4.814 -32.646  1.00  0.00    -0.353 N 
HETATM    3  C   UNL     1      -6.312   4.676 -31.963  1.00  0.00     0.019 C 
HETATM    4  C   UNL     1      -6.886   5.985 -31.480  1.00  0.00     0.069 C 
HETATM    5  C   UNL     1      -6.777   3.437 -31.663  1.00  0.00     0.046 C 
HETATM    6  C   UNL     1      -5.887   2.214 -31.972  1.00  0.00     0.106 C 
HETATM    7  C   UNL     1      -4.440   2.567 -32.336  1.00  0.00     0.069 C 
HETATM    8  C   UNL     1      -3.471   1.525 -32.216  1.00  0.00     0.099 C 
HETATM    9  N   UNL     1      -2.698   0.665 -32.116  1.00  0.00    -0.192 NA
HETATM   10  H   UNL     1      -4.716   5.755 -32.654  1.00  0.00     0.166 HD
ENDROOT
BRANCH   1  11
HETATM   11  S   UNL     1      -2.452   4.373 -32.790  1.00  0.00    -0.102 SA
BRANCH  11  12
HETATM   12  C   UNL     1      -2.608   5.958 -33.669  1.00  0.00     0.184 C 
BRANCH  12  13
HETATM   13  C   UNL     1      -2.132   7.061 -32.726  1.00  0.00     0.231 C 
HETATM   14  N   UNL     1      -2.147   6.670 -31.393  1.00  0.00    -0.326 N 
HETATM   15  H   UNL     1      -2.627   5.805 -31.191  1.00  0.00     0.169 HD
HETATM   16  O   UNL     1      -1.793   8.161 -33.152  1.00  0.00    -0.272 OA
BRANCH  14  17
HETATM   17  C   UNL     1      -1.458   7.266 -30.311  1.00  0.00     0.041 A 
HETATM   18  C   UNL     1      -0.158   6.814 -29.988  1.00  0.00    -0.032 A 
HETATM   19  C   UNL     1       0.574   7.485 -28.990  1.00  0.00     0.009 A 
HETATM   20  C   UNL     1       0.031   8.572 -28.309  1.00  0.00     0.001 A 
HETATM   21  C   UNL     1      -1.255   9.000 -28.613  1.00  0.00     0.002 A 
HETATM   22  C   UNL     1      -1.993   8.350 -29.605  1.00  0.00     0.030 A 
BRANCH  18  23
HETATM   23  C   UNL     1       0.503   5.632 -30.663  1.00  0.00     0.036 C 
HETATM   24  C   UNL     1       1.075   4.638 -29.663  1.00  0.00     0.010 C 
ENDBRANCH  18  23
ENDBRANCH  14  17
ENDBRANCH  12  13
ENDBRANCH  11  12
ENDBRANCH   1  11
BRANCH   6  25
HETATM   25  C   UNL     1      -6.483   1.235 -32.982  1.00  0.00    -0.044 A 
HETATM   26  C   UNL     1      -6.808   1.623 -34.289  1.00  0.00     0.008 A 
HETATM   27  C   UNL     1      -7.281   0.683 -35.209  1.00  0.00     0.001 A 
HETATM   28  C   UNL     1      -7.434  -0.651 -34.837  1.00  0.00     0.000 A 
HETATM   29  C   UNL     1      -7.112  -1.051 -33.543  1.00  0.00     0.001 A 
HETATM   30  C   UNL     1      -6.641  -0.115 -32.622  1.00  0.00     0.008 A 
ENDBRANCH   6  25
BRANCH   5  31
HETATM   31  C   UNL     1      -7.918   3.117 -30.742  1.00  0.00     0.255 C 
HETATM   32  N   UNL     1      -9.205   2.892 -31.115  1.00  0.00    -0.321 N 
HETATM   33  H   UNL     1      -9.816   3.031 -30.318  1.00  0.00     0.169 HD
HETATM   34  O   UNL     1      -7.714   3.183 -29.523  1.00  0.00    -0.268 OA
BRANCH  32  35
HETATM   35  C   UNL     1      -9.849   2.533 -32.308  1.00  0.00     0.068 A 
HETATM   36  C   UNL     1     -10.259   3.415 -33.313  1.00  0.00     0.095 A 
HETATM   37  C   UNL     1     -10.965   2.926 -34.424  1.00  0.00     0.039 A 
HETATM   38  C   UNL     1     -11.197   1.559 -34.572  1.00  0.00     0.003 A 
HETATM   39  C   UNL     1     -10.717   0.669 -33.618  1.00  0.00     0.002 A 
HETATM   40  C   UNL     1     -10.038   1.154 -32.499  1.00  0.00     0.032 A 
BRANCH  36  41
HETATM   41  O   UNL     1      -9.924   4.739 -33.221  1.00  0.00    -0.354 OA
HETATM   42  C   UNL     1      -9.162   5.184 -34.346  1.00  0.00     0.210 C 
ENDBRANCH  36  41
ENDBRANCH  32  35
ENDBRANCH   5  31
TORSDOF 9
ENDMDL
MODEL 2
REMARK VINA RESULT:      -9.2      3.042      9.392
REMARK  9 active torsions:
REMARK  status: ('A' for Active; 'I' for Inactive)
REMARK    1  A    between atoms: C_2  and  C_3 
REMARK    2  A    between atoms: C_4  and  N_5 
REMARK       I    between atoms: N_5  and  C_6 
REMARK    3  A    between atoms: C_6  and  C_7 
REMARK    4  A    between atoms: C_7  and  S_8 
REMARK    5  A    between atoms: S_8  and  C_9 
REMARK    6  A    between atoms: C_13  and  C_14 
REMARK       I    between atoms: C_14  and  N_15 
REMARK    7  A    between atoms: N_15  and  C_16 
REMARK    8  A    between atoms: C_17  and  O_18 
REMARK    9  A    between atoms: C_25  and  C_26 
ROOT
HETATM    1  C   UNL     1      -5.267   4.996 -30.651  1.00  0.00     0.088 C 
HETATM    2  N   UNL     1      -5.280   5.188 -29.279  1.00  0.00    -0.353 N 
HETATM    3  C   UNL     1      -4.841   6.362 -28.669  1.00  0.00     0.019 C 
HETATM    4  C   UNL     1      -5.563   6.682 -27.383  1.00  0.00     0.069 C 
HETATM    5  C   UNL     1      -3.958   7.166 -29.313  1.00  0.00     0.046 C 
HETATM    6  C   UNL     1      -3.565   6.823 -30.768  1.00  0.00     0.106 C 
HETATM    7  C   UNL     1      -4.446   5.749 -31.418  1.00  0.00     0.069 C 
HETATM    8  C   UNL     1      -4.434   5.682 -32.844  1.00  0.00     0.099 C 
HETATM    9  N   UNL     1      -4.410   5.640 -34.004  1.00  0.00    -0.192 NA
HETATM   10  H   UNL     1      -6.086   4.747 -28.840  1.00  0.00     0.166 HD
ENDROOT
BRANCH   1  11
HETATM   11  S   UNL     1      -6.493   3.955 -31.342  1.00  0.00    -0.102 SA
BRANCH  11  12
HETATM   12  C   UNL     1      -5.990   2.302 -30.773  1.00  0.00     0.184 C 
BRANCH  12  13
HETATM   13  C   UNL     1      -5.456   1.537 -31.983  1.00  0.00     0.231 C 
HETATM   14  N   UNL     1      -5.719   0.175 -31.915  1.00  0.00    -0.326 N 
HETATM   15  H   UNL     1      -6.052  -0.168 -31.026  1.00  0.00     0.169 HD
HETATM   16  O   UNL     1      -4.857   2.112 -32.887  1.00  0.00    -0.272 OA
BRANCH  14  17
HETATM   17  C   UNL     1      -5.705  -0.761 -32.976  1.00  0.00     0.041 A 
HETATM   18  C   UNL     1      -4.634  -1.677 -33.074  1.00  0.00    -0.032 A 
HETATM   19  C   UNL     1      -4.679  -2.684 -34.058  1.00  0.00     0.009 A 
HETATM   20  C   UNL     1      -5.751  -2.777 -34.942  1.00  0.00     0.001 A 
HETATM   21  C   UNL     1      -6.791  -1.860 -34.859  1.00  0.00     0.002 A 
HETATM   22  C   UNL     1      -6.767  -0.859 -33.885  1.00  0.00     0.030 A 
BRANCH  18  23
HETATM   23  C   UNL     1      -3.421  -1.640 -32.169  1.00  0.00     0.036 C 
HETATM   24  C   UNL     1      -2.928  -3.032 -31.803  1.00  0.00     0.010 C 
ENDBRANCH  18  23
ENDBRANCH  14  17
ENDBRANCH  12  13
ENDBRANCH  11  12
ENDBRANCH   1  11
BRANCH   6  25
HETATM   25  C   UNL     1      -2.083   6.513 -30.966  1.00  0.00    -0.044 A 
HETATM   26  C   UNL     1      -1.274   7.276 -31.819  1.00  0.00     0.008 A 
HETATM   27  C   UNL     1       0.095   7.012 -31.919  1.00  0.00     0.001 A 
HETATM   28  C   UNL     1       0.671   5.987 -31.170  1.00  0.00     0.000 A 
HETATM   29  C   UNL     1      -0.120   5.224 -30.316  1.00  0.00     0.001 A 
HETATM   30  C   UNL     1      -1.488   5.484 -30.216  1.00  0.00     0.008 A 
ENDBRANCH   6  25
BRANCH   5  31
HETATM   31  C   UNL     1      -3.571   8.559 -28.912  1.00  0.00     0.255 C 
HETATM   32  N   UNL     1      -2.510   8.898 -28.134  1.00  0.00    -0.321 N 
HETATM   33  H   UNL     1      -2.658   9.824 -27.747  1.00  0.00     0.169 HD
HETATM   34  O   UNL     1      -4.343   9.482 -29.202  1.00  0.00    -0.268 OA
BRANCH  32  35
HETATM   35  C   UNL     1      -1.310   8.276 -27.757  1.00  0.00     0.068 A 
HETATM   36  C   UNL     1      -1.167   7.322 -26.745  1.00  0.00     0.095 A 
HETATM   37  C   UNL     1       0.109   6.837 -26.419  1.00  0.00     0.039 A 
HETATM   38  C   UNL     1       1.229   7.243 -27.145  1.00  0.00     0.003 A 
HETATM   39  C   UNL     1       1.081   8.127 -28.208  1.00  0.00     0.002 A 
HETATM   40  C   UNL     1      -0.183   8.631 -28.517  1.00  0.00     0.032 A 
BRANCH  36  41
HETATM   41  O   UNL     1      -2.283   6.838 -26.117  1.00  0.00    -0.354 OA
HETATM   42  C   UNL     1      -2.635   7.610 -24.966  1.00  0.00     0.210 C 
ENDBRANCH  36  41
ENDBRANCH  32  35
ENDBRANCH   5  31
TORSDOF 9
ENDMDL
MODEL 3
REMARK VINA RESULT:      -8.8      2.459      8.679
REMARK  9 active torsions:
REMARK  status: ('A' for Active; 'I' for Inactive)
REMARK    1  A    between atoms: C_2  and  C_3 
REMARK    2  A    between atoms: C_4  and  N_5 
REMARK       I    between atoms: N_5  and  C_6 
REMARK    3  A    between atoms: C_6  and  C_7 
REMARK    4  A    between atoms: C_7  and  S_8 
REMARK    5  A    between atoms: S_8  and  C_9 
REMARK    6  A    between atoms: C_13  and  C_14 
REMARK       I    between atoms: C_14  and  N_15 
REMARK    7  A    between atoms: N_15  and  C_16 
REMARK    8  A    between atoms: C_17  and  O_18 
REMARK    9  A    between atoms: C_25  and  C_26 
ROOT
HETATM    1  C   UNL     1      -4.875   5.232 -32.772  1.00  0.00     0.088 C 
HETATM    2  N   UNL     1      -5.491   5.554 -31.573  1.00  0.00    -0.353 N 
HETATM    3  C   UNL     1      -5.251   6.744 -30.887  1.00  0.00     0.019 C 
HETATM    4  C   UNL     1      -6.439   7.239 -30.100  1.00  0.00     0.069 C 
HETATM    5  C   UNL     1      -4.088   7.413 -31.088  1.00  0.00     0.046 C 
HETATM    6  C   UNL     1      -3.116   6.904 -32.176  1.00  0.00     0.106 C 
HETATM    7  C   UNL     1      -3.716   5.844 -33.107  1.00  0.00     0.069 C 
HETATM    8  C   UNL     1      -3.063   5.641 -34.360  1.00  0.00     0.099 C 
HETATM    9  N   UNL     1      -2.518   5.487 -35.373  1.00  0.00    -0.192 NA
HETATM   10  H   UNL     1      -6.452   5.219 -31.537  1.00  0.00     0.166 HD
ENDROOT
BRANCH   1  11
HETATM   11  S   UNL     1      -5.758   4.227 -33.900  1.00  0.00    -0.102 SA
BRANCH  11  12
HETATM   12  C   UNL     1      -7.151   3.619 -32.899  1.00  0.00     0.184 C 
BRANCH  12  13
HETATM   13  C   UNL     1      -6.804   2.207 -32.430  1.00  0.00     0.231 C 
HETATM   14  N   UNL     1      -5.683   1.690 -33.066  1.00  0.00    -0.326 N 
HETATM   15  H   UNL     1      -5.350   2.209 -33.866  1.00  0.00     0.169 HD
HETATM   16  O   UNL     1      -7.484   1.633 -31.584  1.00  0.00    -0.272 OA
BRANCH  14  17
HETATM   17  C   UNL     1      -4.877   0.606 -32.648  1.00  0.00     0.041 A 
HETATM   18  C   UNL     1      -4.979  -0.631 -33.324  1.00  0.00    -0.032 A 
HETATM   19  C   UNL     1      -4.095  -1.673 -32.987  1.00  0.00     0.009 A 
HETATM   20  C   UNL     1      -3.136  -1.508 -31.990  1.00  0.00     0.001 A 
HETATM   21  C   UNL     1      -3.054  -0.299 -31.311  1.00  0.00     0.002 A 
HETATM   22  C   UNL     1      -3.918   0.749 -31.637  1.00  0.00     0.030 A 
BRANCH  18  23
HETATM   23  C   UNL     1      -6.001  -0.905 -34.407  1.00  0.00     0.036 C 
HETATM   24  C   UNL     1      -7.299  -1.469 -33.851  1.00  0.00     0.010 C 
ENDBRANCH  18  23
ENDBRANCH  14  17
ENDBRANCH  12  13
ENDBRANCH  11  12
ENDBRANCH   1  11
BRANCH   6  25
HETATM   25  C   UNL     1      -1.751   6.465 -31.650  1.00  0.00    -0.044 A 
HETATM   26  C   UNL     1      -0.573   7.146 -31.983  1.00  0.00     0.008 A 
HETATM   27  C   UNL     1       0.650   6.763 -31.424  1.00  0.00     0.001 A 
HETATM   28  C   UNL     1       0.709   5.699 -30.525  1.00  0.00     0.000 A 
HETATM   29  C   UNL     1      -0.454   5.016 -30.182  1.00  0.00     0.001 A 
HETATM   30  C   UNL     1      -1.675   5.394 -30.741  1.00  0.00     0.008 A 
ENDBRANCH   6  25
BRANCH   5  31
HETATM   31  C   UNL     1      -3.773   8.804 -30.622  1.00  0.00     0.255 C 
HETATM   32  N   UNL     1      -3.085   9.131 -29.497  1.00  0.00    -0.321 N 
HETATM   33  H   UNL     1      -3.295  10.089 -29.240  1.00  0.00     0.169 HD
HETATM   34  O   UNL     1      -4.283   9.750 -31.235  1.00  0.00    -0.268 OA
BRANCH  32  35
HETATM   35  C   UNL     1      -2.194   8.464 -28.643  1.00  0.00     0.068 A 
HETATM   36  C   UNL     1      -2.533   7.457 -27.733  1.00  0.00     0.095 A 
HETATM   37  C   UNL     1      -1.550   6.928 -26.882  1.00  0.00     0.039 A 
HETATM   38  C   UNL     1      -0.222   7.343 -26.986  1.00  0.00     0.003 A 
HETATM   39  C   UNL     1       0.135   8.282 -27.947  1.00  0.00     0.002 A 
HETATM   40  C   UNL     1      -0.844   8.829 -28.777  1.00  0.00     0.032 A 
BRANCH  36  41
HETATM   41  O   UNL     1      -3.812   6.969 -27.718  1.00  0.00    -0.354 OA
HETATM   42  C   UNL     1      -4.515   7.328 -26.526  1.00  0.00     0.210 C 
ENDBRANCH  36  41
ENDBRANCH  32  35
ENDBRANCH   5  31
TORSDOF 9
ENDMDL
MODEL 4
REMARK VINA RESULT:      -8.7      2.671      9.582
REMARK  9 active torsions:
REMARK  status: ('A' for Active; 'I' for Inactive)
REMARK    1  A    between atoms: C_2  and  C_3 
REMARK    2  A    between atoms: C_4  and  N_5 
REMARK       I    between atoms: N_5  and  C_6 
REMARK    3  A    between atoms: C_6  and  C_7 
REMARK    4  A    between atoms: C_7  and  S_8 
REMARK    5  A    between atoms: S_8  and  C_9 
REMARK    6  A    between atoms: C_13  and  C_14 
REMARK       I    between atoms: C_14  and  N_15 
REMARK    7  A    between atoms: N_15  and  C_16 
REMARK    8  A    between atoms: C_17  and  O_18 
REMARK    9  A    between atoms: C_25  and  C_26 
ROOT
HETATM    1  C   UNL     1      -5.037   4.597 -30.683  1.00  0.00     0.088 C 
HETATM    2  N   UNL     1      -5.082   4.823 -29.317  1.00  0.00    -0.353 N 
HETATM    3  C   UNL     1      -4.735   6.041 -28.734  1.00  0.00     0.019 C 
HETATM    4  C   UNL     1      -5.495   6.343 -27.466  1.00  0.00     0.069 C 
HETATM    5  C   UNL     1      -3.901   6.887 -29.389  1.00  0.00     0.046 C 
HETATM    6  C   UNL     1      -3.465   6.534 -30.829  1.00  0.00     0.106 C 
HETATM    7  C   UNL     1      -4.260   5.384 -31.460  1.00  0.00     0.069 C 
HETATM    8  C   UNL     1      -4.224   5.282 -32.884  1.00  0.00     0.099 C 
HETATM    9  N   UNL     1      -4.182   5.210 -34.041  1.00  0.00    -0.192 NA
HETATM   10  H   UNL     1      -5.862   4.338 -28.876  1.00  0.00     0.166 HD
ENDROOT
BRANCH   1  11
HETATM   11  S   UNL     1      -6.178   3.455 -31.360  1.00  0.00    -0.102 SA
BRANCH  11  12
HETATM   12  C   UNL     1      -6.401   2.255 -30.011  1.00  0.00     0.184 C 
BRANCH  12  13
HETATM   13  C   UNL     1      -6.589   0.876 -30.642  1.00  0.00     0.231 C 
HETATM   14  N   UNL     1      -6.545   0.911 -32.029  1.00  0.00    -0.326 N 
HETATM   15  H   UNL     1      -6.580   1.828 -32.451  1.00  0.00     0.169 HD
HETATM   16  O   UNL     1      -6.766  -0.122 -29.949  1.00  0.00    -0.272 OA
BRANCH  14  17
HETATM   17  C   UNL     1      -6.321  -0.171 -32.913  1.00  0.00     0.041 A 
HETATM   18  C   UNL     1      -7.282  -0.459 -33.908  1.00  0.00    -0.032 A 
HETATM   19  C   UNL     1      -7.005  -1.459 -34.861  1.00  0.00     0.009 A 
HETATM   20  C   UNL     1      -5.810  -2.174 -34.825  1.00  0.00     0.001 A 
HETATM   21  C   UNL     1      -4.878  -1.905 -33.831  1.00  0.00     0.002 A 
HETATM   22  C   UNL     1      -5.133  -0.913 -32.882  1.00  0.00     0.030 A 
BRANCH  18  23
HETATM   23  C   UNL     1      -8.612   0.255 -34.013  1.00  0.00     0.036 C 
HETATM   24  C   UNL     1      -9.579  -0.156 -32.913  1.00  0.00     0.010 C 
ENDBRANCH  18  23
ENDBRANCH  14  17
ENDBRANCH  12  13
ENDBRANCH  11  12
ENDBRANCH   1  11
BRANCH   6  25
HETATM   25  C   UNL     1      -1.963   6.324 -31.002  1.00  0.00    -0.044 A 
HETATM   26  C   UNL     1      -1.188   7.150 -31.826  1.00  0.00     0.008 A 
HETATM   27  C   UNL     1       0.197   6.976 -31.902  1.00  0.00     0.001 A 
HETATM   28  C   UNL     1       0.823   5.979 -31.156  1.00  0.00     0.000 A 
HETATM   29  C   UNL     1       0.066   5.154 -30.330  1.00  0.00     0.001 A 
HETATM   30  C   UNL     1      -1.317   5.323 -30.254  1.00  0.00     0.008 A 
ENDBRANCH   6  25
BRANCH   5  31
HETATM   31  C   UNL     1      -3.617   8.314 -29.022  1.00  0.00     0.255 C 
HETATM   32  N   UNL     1      -2.603   8.745 -28.226  1.00  0.00    -0.321 N 
HETATM   33  H   UNL     1      -2.823   9.669 -27.872  1.00  0.00     0.169 HD
HETATM   34  O   UNL     1      -4.439   9.175 -29.360  1.00  0.00    -0.268 OA
BRANCH  32  35
HETATM   35  C   UNL     1      -1.377   8.215 -27.798  1.00  0.00     0.068 A 
HETATM   36  C   UNL     1      -1.195   7.342 -26.721  1.00  0.00     0.095 A 
HETATM   37  C   UNL     1       0.101   6.949 -26.353  1.00  0.00     0.039 A 
HETATM   38  C   UNL     1       1.206   7.362 -27.097  1.00  0.00     0.003 A 
HETATM   39  C   UNL     1       1.024   8.161 -28.220  1.00  0.00     0.002 A 
HETATM   40  C   UNL     1      -0.262   8.574 -28.573  1.00  0.00     0.032 A 
BRANCH  36  41
HETATM   41  O   UNL     1      -2.291   6.845 -26.068  1.00  0.00    -0.354 OA
HETATM   42  C   UNL     1      -2.683   7.665 -24.964  1.00  0.00     0.210 C 
ENDBRANCH  36  41
ENDBRANCH  32  35
ENDBRANCH   5  31
TORSDOF 9
ENDMDL
MODEL 5
REMARK VINA RESULT:      -8.7      2.966      9.886
REMARK  9 active torsions:
REMARK  status: ('A' for Active; 'I' for Inactive)
REMARK    1  A    between atoms: C_2  and  C_3 
REMARK    2  A    between atoms: C_4  and  N_5 
REMARK       I    between atoms: N_5  and  C_6 
REMARK    3  A    between atoms: C_6  and  C_7 
REMARK    4  A    between atoms: C_7  and  S_8 
REMARK    5  A    between atoms: S_8  and  C_9 
REMARK    6  A    between atoms: C_13  and  C_14 
REMARK       I    between atoms: C_14  and  N_15 
REMARK    7  A    between atoms: N_15  and  C_16 
REMARK    8  A    between atoms: C_17  and  O_18 
REMARK    9  A    between atoms: C_25  and  C_26 
ROOT
HETATM    1  C   UNL     1      -2.639   5.514 -30.750  1.00  0.00     0.088 C 
HETATM    2  N   UNL     1      -3.741   6.257 -30.355  1.00  0.00    -0.353 N 
HETATM    3  C   UNL     1      -3.717   7.644 -30.219  1.00  0.00     0.019 C 
HETATM    4  C   UNL     1      -5.044   8.302 -30.509  1.00  0.00     0.069 C 
HETATM    5  C   UNL     1      -2.538   8.278 -30.001  1.00  0.00     0.046 C 
HETATM    6  C   UNL     1      -1.232   7.455 -30.043  1.00  0.00     0.106 C 
HETATM    7  C   UNL     1      -1.401   6.039 -30.608  1.00  0.00     0.069 C 
HETATM    8  C   UNL     1      -0.220   5.385 -31.072  1.00  0.00     0.099 C 
HETATM    9  N   UNL     1       0.750   4.866 -31.442  1.00  0.00    -0.192 NA
HETATM   10  H   UNL     1      -4.610   5.871 -30.719  1.00  0.00     0.166 HD
ENDROOT
BRANCH   1  11
HETATM   11  S   UNL     1      -2.927   4.033 -31.637  1.00  0.00    -0.102 SA
BRANCH  11  12
HETATM   12  C   UNL     1      -4.733   3.841 -31.531  1.00  0.00     0.184 C 
BRANCH  12  13
HETATM   13  C   UNL     1      -5.036   2.348 -31.414  1.00  0.00     0.231 C 
HETATM   14  N   UNL     1      -4.509   1.610 -32.466  1.00  0.00    -0.326 N 
HETATM   15  H   UNL     1      -4.163   2.143 -33.251  1.00  0.00     0.169 HD
HETATM   16  O   UNL     1      -5.687   1.902 -30.474  1.00  0.00    -0.272 OA
BRANCH  14  17
HETATM   17  C   UNL     1      -4.277   0.216 -32.510  1.00  0.00     0.041 A 
HETATM   18  C   UNL     1      -5.011  -0.578 -33.421  1.00  0.00    -0.032 A 
HETATM   19  C   UNL     1      -4.697  -1.945 -33.549  1.00  0.00     0.009 A 
HETATM   20  C   UNL     1      -3.689  -2.525 -32.783  1.00  0.00     0.001 A 
HETATM   21  C   UNL     1      -2.986  -1.748 -31.872  1.00  0.00     0.002 A 
HETATM   22  C   UNL     1      -3.279  -0.389 -31.736  1.00  0.00     0.030 A 
BRANCH  18  23
HETATM   23  C   UNL     1      -6.132  -0.036 -34.281  1.00  0.00     0.036 C 
HETATM   24  C   UNL     1      -7.070  -1.130 -34.769  1.00  0.00     0.010 C 
ENDBRANCH  18  23
ENDBRANCH  14  17
ENDBRANCH  12  13
ENDBRANCH  11  12
ENDBRANCH   1  11
BRANCH   6  25
HETATM   25  C   UNL     1      -0.455   7.432 -28.728  1.00  0.00    -0.044 A 
HETATM   26  C   UNL     1       0.830   7.980 -28.616  1.00  0.00     0.008 A 
HETATM   27  C   UNL     1       1.481   8.010 -27.379  1.00  0.00     0.001 A 
HETATM   28  C   UNL     1       0.857   7.498 -26.243  1.00  0.00     0.000 A 
HETATM   29  C   UNL     1      -0.420   6.955 -26.339  1.00  0.00     0.001 A 
HETATM   30  C   UNL     1      -1.072   6.921 -27.572  1.00  0.00     0.008 A 
ENDBRANCH   6  25
BRANCH   5  31
HETATM   31  C   UNL     1      -2.303   9.759 -30.067  1.00  0.00     0.255 C 
HETATM   32  N   UNL     1      -2.267  10.608 -29.007  1.00  0.00    -0.321 N 
HETATM   33  H   UNL     1      -2.427  11.556 -29.329  1.00  0.00     0.169 HD
HETATM   34  O   UNL     1      -2.259  10.290 -31.184  1.00  0.00    -0.268 OA
BRANCH  32  35
HETATM   35  C   UNL     1      -2.073  10.470 -27.624  1.00  0.00     0.068 A 
HETATM   36  C   UNL     1      -2.998   9.941 -26.718  1.00  0.00     0.095 A 
HETATM   37  C   UNL     1      -2.703   9.933 -25.346  1.00  0.00     0.039 A 
HETATM   38  C   UNL     1      -1.465  10.380 -24.883  1.00  0.00     0.003 A 
HETATM   39  C   UNL     1      -0.510  10.827 -25.788  1.00  0.00     0.002 A 
HETATM   40  C   UNL     1      -0.810  10.860 -27.151  1.00  0.00     0.032 A 
BRANCH  36  41
HETATM   41  O   UNL     1      -4.161   9.395 -27.190  1.00  0.00    -0.354 OA
HETATM   42  C   UNL     1      -4.475   8.154 -26.553  1.00  0.00     0.210 C 
ENDBRANCH  36  41
ENDBRANCH  32  35
ENDBRANCH   5  31
TORSDOF 9
ENDMDL
MODEL 6
REMARK VINA RESULT:      -8.5      3.915      8.895
REMARK  9 active torsions:
REMARK  status: ('A' for Active; 'I' for Inactive)
REMARK    1  A    between atoms: C_2  and  C_3 
REMARK    2  A    between atoms: C_4  and  N_5 
REMARK       I    between atoms: N_5  and  C_6 
REMARK    3  A    between atoms: C_6  and  C_7 
REMARK    4  A    between atoms: C_7  and  S_8 
REMARK    5  A    between atoms: S_8  and  C_9 
REMARK    6  A    between atoms: C_13  and  C_14 
REMARK       I    between atoms: C_14  and  N_15 
REMARK    7  A    between atoms: N_15  and  C_16 
REMARK    8  A    between atoms: C_17  and  O_18 
REMARK    9  A    between atoms: C_25  and  C_26 
ROOT
HETATM    1  C   UNL     1      -9.479   6.290 -33.298  1.00  0.00     0.088 C 
HETATM    2  N   UNL     1      -8.408   6.540 -32.454  1.00  0.00    -0.353 N 
HETATM    3  C   UNL     1      -7.149   5.968 -32.628  1.00  0.00     0.019 C 
HETATM    4  C   UNL     1      -6.016   6.842 -32.150  1.00  0.00     0.069 C 
HETATM    5  C   UNL     1      -7.029   4.804 -33.315  1.00  0.00     0.046 C 
HETATM    6  C   UNL     1      -8.280   4.213 -34.002  1.00  0.00     0.106 C 
HETATM    7  C   UNL     1      -9.476   5.172 -34.058  1.00  0.00     0.069 C 
HETATM    8  C   UNL     1     -10.490   4.882 -35.021  1.00  0.00     0.099 C 
HETATM    9  N   UNL     1     -11.307   4.630 -35.806  1.00  0.00    -0.192 NA
HETATM   10  H   UNL     1      -8.405   7.501 -32.118  1.00  0.00     0.166 HD
ENDROOT
BRANCH   1  11
HETATM   11  S   UNL     1     -10.664   7.560 -33.513  1.00  0.00    -0.102 SA
BRANCH  11  12
HETATM   12  C   UNL     1     -11.924   7.155 -32.264  1.00  0.00     0.184 C 
BRANCH  12  13
HETATM   13  C   UNL     1     -12.956   6.243 -32.925  1.00  0.00     0.231 C 
HETATM   14  N   UNL     1     -13.057   5.007 -32.299  1.00  0.00    -0.326 N 
HETATM   15  H   UNL     1     -12.337   4.791 -31.625  1.00  0.00     0.169 HD
HETATM   16  O   UNL     1     -13.594   6.609 -33.907  1.00  0.00    -0.272 OA
BRANCH  14  17
HETATM   17  C   UNL     1     -14.119   4.077 -32.393  1.00  0.00     0.041 A 
HETATM   18  C   UNL     1     -13.847   2.763 -32.838  1.00  0.00    -0.032 A 
HETATM   19  C   UNL     1     -14.879   1.804 -32.819  1.00  0.00     0.009 A 
HETATM   20  C   UNL     1     -16.160   2.137 -32.386  1.00  0.00     0.001 A 
HETATM   21  C   UNL     1     -16.430   3.435 -31.972  1.00  0.00     0.002 A 
HETATM   22  C   UNL     1     -15.417   4.397 -31.978  1.00  0.00     0.030 A 
BRANCH  18  23
HETATM   23  C   UNL     1     -12.491   2.318 -33.341  1.00  0.00     0.036 C 
HETATM   24  C   UNL     1     -12.594   1.275 -34.443  1.00  0.00     0.010 C 
ENDBRANCH  18  23
ENDBRANCH  14  17
ENDBRANCH  12  13
ENDBRANCH  11  12
ENDBRANCH   1  11
BRANCH   6  25
HETATM   25  C   UNL     1      -8.700   2.841 -33.480  1.00  0.00    -0.044 A 
HETATM   26  C   UNL     1      -8.747   1.714 -34.311  1.00  0.00     0.008 A 
HETATM   27  C   UNL     1      -9.063   0.458 -33.783  1.00  0.00     0.001 A 
HETATM   28  C   UNL     1      -9.332   0.313 -32.423  1.00  0.00     0.000 A 
HETATM   29  C   UNL     1      -9.285   1.424 -31.586  1.00  0.00     0.001 A 
HETATM   30  C   UNL     1      -8.973   2.679 -32.110  1.00  0.00     0.008 A 
ENDBRANCH   6  25
BRANCH   5  31
HETATM   31  C   UNL     1      -5.748   4.185 -33.793  1.00  0.00     0.255 C 
HETATM   32  N   UNL     1      -5.061   3.193 -33.167  1.00  0.00    -0.321 N 
HETATM   33  H   UNL     1      -4.101   3.190 -33.494  1.00  0.00     0.169 HD
HETATM   34  O   UNL     1      -5.188   4.692 -34.772  1.00  0.00    -0.268 OA
BRANCH  32  35
HETATM   35  C   UNL     1      -5.369   2.219 -32.205  1.00  0.00     0.068 A 
HETATM   36  C   UNL     1      -5.536   2.447 -30.836  1.00  0.00     0.095 A 
HETATM   37  C   UNL     1      -5.767   1.365 -29.972  1.00  0.00     0.039 A 
HETATM   38  C   UNL     1      -5.905   0.072 -30.476  1.00  0.00     0.003 A 
HETATM   39  C   UNL     1      -5.825  -0.149 -31.846  1.00  0.00     0.002 A 
HETATM   40  C   UNL     1      -5.570   0.922 -32.705  1.00  0.00     0.032 A 
BRANCH  36  41
HETATM   41  O   UNL     1      -5.518   3.732 -30.363  1.00  0.00    -0.354 OA
HETATM   42  C   UNL     1      -6.670   4.034 -29.572  1.00  0.00     0.210 C 
ENDBRANCH  36  41
ENDBRANCH  32  35
ENDBRANCH   5  31
TORSDOF 9
ENDMDL
MODEL 7
REMARK VINA RESULT:      -8.4      2.445      9.032
REMARK  9 active torsions:
REMARK  status: ('A' for Active; 'I' for Inactive)
REMARK    1  A    between atoms: C_2  and  C_3 
REMARK    2  A    between atoms: C_4  and  N_5 
REMARK       I    between atoms: N_5  and  C_6 
REMARK    3  A    between atoms: C_6  and  C_7 
REMARK    4  A    between atoms: C_7  and  S_8 
REMARK    5  A    between atoms: S_8  and  C_9 
REMARK    6  A    between atoms: C_13  and  C_14 
REMARK       I    between atoms: C_14  and  N_15 
REMARK    7  A    between atoms: N_15  and  C_16 
REMARK    8  A    between atoms: C_17  and  O_18 
REMARK    9  A    between atoms: C_25  and  C_26 
ROOT
HETATM    1  C   UNL     1      -6.452   5.638 -30.434  1.00  0.00     0.088 C 
HETATM    2  N   UNL     1      -5.928   6.193 -29.277  1.00  0.00    -0.353 N 
HETATM    3  C   UNL     1      -5.178   7.368 -29.266  1.00  0.00     0.019 C 
HETATM    4  C   UNL     1      -5.328   8.169 -27.996  1.00  0.00     0.069 C 
HETATM    5  C   UNL     1      -4.528   7.761 -30.390  1.00  0.00     0.046 C 
HETATM    6  C   UNL     1      -4.747   6.962 -31.694  1.00  0.00     0.106 C 
HETATM    7  C   UNL     1      -5.910   5.963 -31.629  1.00  0.00     0.069 C 
HETATM    8  C   UNL     1      -6.442   5.512 -32.875  1.00  0.00     0.099 C 
HETATM    9  N   UNL     1      -6.861   5.153 -33.896  1.00  0.00    -0.192 NA
HETATM   10  H   UNL     1      -6.550   6.068 -28.480  1.00  0.00     0.166 HD
ENDROOT
BRANCH   1  11
HETATM   11  S   UNL     1      -7.945   4.733 -30.303  1.00  0.00    -0.102 SA
BRANCH  11  12
HETATM   12  C   UNL     1      -7.364   3.024 -30.072  1.00  0.00     0.184 C 
BRANCH  12  13
HETATM   13  C   UNL     1      -7.859   2.201 -31.260  1.00  0.00     0.231 C 
HETATM   14  N   UNL     1      -6.857   1.941 -32.187  1.00  0.00    -0.326 N 
HETATM   15  H   UNL     1      -5.999   2.461 -32.069  1.00  0.00     0.169 HD
HETATM   16  O   UNL     1      -9.029   1.841 -31.343  1.00  0.00    -0.272 OA
BRANCH  14  17
HETATM   17  C   UNL     1      -6.845   0.942 -33.188  1.00  0.00     0.041 A 
HETATM   18  C   UNL     1      -6.113  -0.247 -32.968  1.00  0.00    -0.032 A 
HETATM   19  C   UNL     1      -6.197  -1.290 -33.910  1.00  0.00     0.009 A 
HETATM   20  C   UNL     1      -6.975  -1.160 -35.058  1.00  0.00     0.001 A 
HETATM   21  C   UNL     1      -7.675   0.019 -35.283  1.00  0.00     0.002 A 
HETATM   22  C   UNL     1      -7.609   1.061 -34.356  1.00  0.00     0.030 A 
BRANCH  18  23
HETATM   23  C   UNL     1      -5.230  -0.469 -31.759  1.00  0.00     0.036 C 
HETATM   24  C   UNL     1      -4.068  -1.406 -32.053  1.00  0.00     0.010 C 
ENDBRANCH  18  23
ENDBRANCH  14  17
ENDBRANCH  12  13
ENDBRANCH  11  12
ENDBRANCH   1  11
BRANCH   6  25
HETATM   25  C   UNL     1      -3.488   6.303 -32.252  1.00  0.00    -0.044 A 
HETATM   26  C   UNL     1      -2.958   5.128 -31.702  1.00  0.00     0.008 A 
HETATM   27  C   UNL     1      -1.848   4.511 -32.284  1.00  0.00     0.001 A 
HETATM   28  C   UNL     1      -1.256   5.057 -33.422  1.00  0.00     0.000 A 
HETATM   29  C   UNL     1      -1.773   6.221 -33.982  1.00  0.00     0.001 A 
HETATM   30  C   UNL     1      -2.880   6.841 -33.401  1.00  0.00     0.008 A 
ENDBRANCH   6  25
BRANCH   5  31
HETATM   31  C   UNL     1      -3.882   9.096 -30.620  1.00  0.00     0.255 C 
HETATM   32  N   UNL     1      -2.717   9.523 -30.066  1.00  0.00    -0.321 N 
HETATM   33  H   UNL     1      -2.676  10.535 -30.107  1.00  0.00     0.169 HD
HETATM   34  O   UNL     1      -4.512   9.942 -31.267  1.00  0.00    -0.268 OA
BRANCH  32  35
HETATM   35  C   UNL     1      -1.609   8.902 -29.470  1.00  0.00     0.068 A 
HETATM   36  C   UNL     1      -1.114   9.169 -28.189  1.00  0.00     0.095 A 
HETATM   37  C   UNL     1       0.053   8.527 -27.746  1.00  0.00     0.039 A 
HETATM   38  C   UNL     1       0.683   7.571 -28.542  1.00  0.00     0.003 A 
HETATM   39  C   UNL     1       0.146   7.240 -29.781  1.00  0.00     0.002 A 
HETATM   40  C   UNL     1      -0.999   7.895 -30.235  1.00  0.00     0.032 A 
BRANCH  36  41
HETATM   41  O   UNL     1      -1.804  10.019 -27.367  1.00  0.00    -0.354 OA
HETATM   42  C   UNL     1      -1.766   9.600 -26.000  1.00  0.00     0.210 C 
ENDBRANCH  36  41
ENDBRANCH  32  35
ENDBRANCH   5  31
TORSDOF 9
ENDMDL
MODEL 8
REMARK VINA RESULT:      -8.3      2.527      4.777
REMARK  9 active torsions:
REMARK  status: ('A' for Active; 'I' for Inactive)
REMARK    1  A    between atoms: C_2  and  C_3 
REMARK    2  A    between atoms: C_4  and  N_5 
REMARK       I    between atoms: N_5  and  C_6 
REMARK    3  A    between atoms: C_6  and  C_7 
REMARK    4  A    between atoms: C_7  and  S_8 
REMARK    5  A    between atoms: S_8  and  C_9 
REMARK    6  A    between atoms: C_13  and  C_14 
REMARK       I    between atoms: C_14  and  N_15 
REMARK    7  A    between atoms: N_15  and  C_16 
REMARK    8  A    between atoms: C_17  and  O_18 
REMARK    9  A    between atoms: C_25  and  C_26 
ROOT
HETATM    1  C   UNL     1      -3.617   3.693 -32.679  1.00  0.00     0.088 C 
HETATM    2  N   UNL     1      -2.995   2.799 -31.821  1.00  0.00    -0.353 N 
HETATM    3  C   UNL     1      -3.673   1.772 -31.168  1.00  0.00     0.019 C 
HETATM    4  C   UNL     1      -2.823   0.550 -30.918  1.00  0.00     0.069 C 
HETATM    5  C   UNL     1      -5.009   1.876 -30.956  1.00  0.00     0.046 C 
HETATM    6  C   UNL     1      -5.767   3.076 -31.565  1.00  0.00     0.106 C 
HETATM    7  C   UNL     1      -4.953   3.877 -32.589  1.00  0.00     0.069 C 
HETATM    8  C   UNL     1      -5.688   4.707 -33.489  1.00  0.00     0.099 C 
HETATM    9  N   UNL     1      -6.300   5.378 -34.211  1.00  0.00    -0.192 NA
HETATM   10  H   UNL     1      -2.052   2.570 -32.130  1.00  0.00     0.166 HD
ENDROOT
BRANCH   1  11
HETATM   11  S   UNL     1      -2.671   4.356 -33.995  1.00  0.00    -0.102 SA
BRANCH  11  12
HETATM   12  C   UNL     1      -1.447   5.391 -33.134  1.00  0.00     0.184 C 
BRANCH  12  13
HETATM   13  C   UNL     1      -2.001   6.813 -33.073  1.00  0.00     0.231 C 
HETATM   14  N   UNL     1      -2.777   7.038 -31.944  1.00  0.00    -0.326 N 
HETATM   15  H   UNL     1      -3.031   6.219 -31.410  1.00  0.00     0.169 HD
HETATM   16  O   UNL     1      -1.763   7.628 -33.960  1.00  0.00    -0.272 OA
BRANCH  14  17
HETATM   17  C   UNL     1      -3.138   8.283 -31.379  1.00  0.00     0.041 A 
HETATM   18  C   UNL     1      -4.495   8.535 -31.074  1.00  0.00    -0.032 A 
HETATM   19  C   UNL     1      -4.839   9.725 -30.404  1.00  0.00     0.009 A 
HETATM   20  C   UNL     1      -3.868  10.660 -30.056  1.00  0.00     0.001 A 
HETATM   21  C   UNL     1      -2.538  10.421 -30.378  1.00  0.00     0.002 A 
HETATM   22  C   UNL     1      -2.177   9.243 -31.036  1.00  0.00     0.030 A 
BRANCH  18  23
HETATM   23  C   UNL     1      -5.619   7.585 -31.430  1.00  0.00     0.036 C 
HETATM   24  C   UNL     1      -6.985   8.250 -31.360  1.00  0.00     0.010 C 
ENDBRANCH  18  23
ENDBRANCH  14  17
ENDBRANCH  12  13
ENDBRANCH  11  12
ENDBRANCH   1  11
BRANCH   6  25
HETATM   25  C   UNL     1      -6.421   3.998 -30.539  1.00  0.00    -0.044 A 
HETATM   26  C   UNL     1      -7.792   4.285 -30.567  1.00  0.00     0.008 A 
HETATM   27  C   UNL     1      -8.371   5.073 -29.567  1.00  0.00     0.001 A 
HETATM   28  C   UNL     1      -7.590   5.580 -28.530  1.00  0.00     0.000 A 
HETATM   29  C   UNL     1      -6.228   5.300 -28.488  1.00  0.00     0.001 A 
HETATM   30  C   UNL     1      -5.646   4.516 -29.485  1.00  0.00     0.008 A 
ENDBRANCH   6  25
BRANCH   5  31
HETATM   31  C   UNL     1      -5.921   0.779 -30.490  1.00  0.00     0.255 C 
HETATM   32  N   UNL     1      -6.878   0.168 -31.235  1.00  0.00    -0.321 N 
HETATM   33  H   UNL     1      -7.552  -0.275 -30.620  1.00  0.00     0.169 HD
HETATM   34  O   UNL     1      -5.899   0.478 -29.290  1.00  0.00    -0.268 OA
BRANCH  32  35
HETATM   35  C   UNL     1      -7.135   0.026 -32.607  1.00  0.00     0.068 A 
HETATM   36  C   UNL     1      -6.410  -0.774 -33.496  1.00  0.00     0.095 A 
HETATM   37  C   UNL     1      -6.729  -0.762 -34.863  1.00  0.00     0.039 A 
HETATM   38  C   UNL     1      -7.811  -0.017 -35.333  1.00  0.00     0.003 A 
HETATM   39  C   UNL     1      -8.588   0.713 -34.441  1.00  0.00     0.002 A 
HETATM   40  C   UNL     1      -8.257   0.724 -33.085  1.00  0.00     0.032 A 
BRANCH  36  41
HETATM   41  O   UNL     1      -5.427  -1.594 -33.011  1.00  0.00    -0.354 OA
HETATM   42  C   UNL     1      -4.155  -1.325 -33.606  1.00  0.00     0.210 C 
ENDBRANCH  36  41
ENDBRANCH  32  35
ENDBRANCH   5  31
TORSDOF 9
ENDMDL
MODEL 9
REMARK VINA RESULT:      -8.2      2.607      9.762
REMARK  9 active torsions:
REMARK  status: ('A' for Active; 'I' for Inactive)
REMARK    1  A    between atoms: C_2  and  C_3 
REMARK    2  A    between atoms: C_4  and  N_5 
REMARK       I    between atoms: N_5  and  C_6 
REMARK    3  A    between atoms: C_6  and  C_7 
REMARK    4  A    between atoms: C_7  and  S_8 
REMARK    5  A    between atoms: S_8  and  C_9 
REMARK    6  A    between atoms: C_13  and  C_14 
REMARK       I    between atoms: C_14  and  N_15 
REMARK    7  A    between atoms: N_15  and  C_16 
REMARK    8  A    between atoms: C_17  and  O_18 
REMARK    9  A    between atoms: C_25  and  C_26 
ROOT
HETATM    1  C   UNL     1      -3.778   5.742 -30.579  1.00  0.00     0.088 C 
HETATM    2  N   UNL     1      -4.700   6.565 -29.951  1.00  0.00    -0.353 N 
HETATM    3  C   UNL     1      -4.506   7.935 -29.778  1.00  0.00     0.019 C 
HETATM    4  C   UNL     1      -5.787   8.732 -29.782  1.00  0.00     0.069 C 
HETATM    5  C   UNL     1      -3.247   8.441 -29.775  1.00  0.00     0.046 C 
HETATM    6  C   UNL     1      -2.066   7.499 -30.098  1.00  0.00     0.106 C 
HETATM    7  C   UNL     1      -2.487   6.138 -30.664  1.00  0.00     0.069 C 
HETATM    8  C   UNL     1      -1.491   5.398 -31.371  1.00  0.00     0.099 C 
HETATM    9  N   UNL     1      -0.669   4.808 -31.940  1.00  0.00    -0.192 NA
HETATM   10  H   UNL     1      -5.658   6.285 -30.151  1.00  0.00     0.166 HD
ENDROOT
BRANCH   1  11
HETATM   11  S   UNL     1      -4.383   4.344 -31.440  1.00  0.00    -0.102 SA
BRANCH  11  12
HETATM   12  C   UNL     1      -6.183   4.469 -31.203  1.00  0.00     0.184 C 
BRANCH  12  13
HETATM   13  C   UNL     1      -6.843   3.422 -32.099  1.00  0.00     0.231 C 
HETATM   14  N   UNL     1      -5.920   2.644 -32.786  1.00  0.00    -0.326 N 
HETATM   15  H   UNL     1      -4.963   2.967 -32.761  1.00  0.00     0.169 HD
HETATM   16  O   UNL     1      -8.064   3.328 -32.174  1.00  0.00    -0.272 OA
BRANCH  14  17
HETATM   17  C   UNL     1      -6.135   1.388 -33.398  1.00  0.00     0.041 A 
HETATM   18  C   UNL     1      -5.813   0.210 -32.687  1.00  0.00    -0.032 A 
HETATM   19  C   UNL     1      -6.138  -1.041 -33.247  1.00  0.00     0.009 A 
HETATM   20  C   UNL     1      -6.753  -1.132 -34.493  1.00  0.00     0.001 A 
HETATM   21  C   UNL     1      -7.047   0.027 -35.200  1.00  0.00     0.002 A 
HETATM   22  C   UNL     1      -6.739   1.276 -34.657  1.00  0.00     0.030 A 
BRANCH  18  23
HETATM   23  C   UNL     1      -5.130   0.213 -31.336  1.00  0.00     0.036 C 
HETATM   24  C   UNL     1      -6.120   0.291 -30.184  1.00  0.00     0.010 C 
ENDBRANCH  18  23
ENDBRANCH  14  17
ENDBRANCH  12  13
ENDBRANCH  11  12
ENDBRANCH   1  11
BRANCH   6  25
HETATM   25  C   UNL     1      -1.060   7.334 -28.961  1.00  0.00    -0.044 A 
HETATM   26  C   UNL     1       0.281   7.721 -29.095  1.00  0.00     0.008 A 
HETATM   27  C   UNL     1       1.157   7.626 -28.010  1.00  0.00     0.001 A 
HETATM   28  C   UNL     1       0.706   7.147 -26.782  1.00  0.00     0.000 A 
HETATM   29  C   UNL     1      -0.623   6.762 -26.633  1.00  0.00     0.001 A 
HETATM   30  C   UNL     1      -1.500   6.854 -27.715  1.00  0.00     0.008 A 
ENDBRANCH   6  25
BRANCH   5  31
HETATM   31  C   UNL     1      -2.876   9.893 -29.837  1.00  0.00     0.255 C 
HETATM   32  N   UNL     1      -2.559  10.682 -28.777  1.00  0.00    -0.321 N 
HETATM   33  H   UNL     1      -2.676  11.655 -29.033  1.00  0.00     0.169 HD
HETATM   34  O   UNL     1      -2.982  10.473 -30.925  1.00  0.00    -0.268 OA
BRANCH  32  35
HETATM   35  C   UNL     1      -2.131  10.457 -27.459  1.00  0.00     0.068 A 
HETATM   36  C   UNL     1      -2.929   9.988 -26.410  1.00  0.00     0.095 A 
HETATM   37  C   UNL     1      -2.389   9.882 -25.118  1.00  0.00     0.039 A 
HETATM   38  C   UNL     1      -1.044  10.169 -24.885  1.00  0.00     0.003 A 
HETATM   39  C   UNL     1      -0.226  10.553 -25.942  1.00  0.00     0.002 A 
HETATM   40  C   UNL     1      -0.766  10.684 -27.222  1.00  0.00     0.032 A 
BRANCH  36  41
HETATM   41  O   UNL     1      -4.214   9.595 -26.669  1.00  0.00    -0.354 OA
HETATM   42  C   UNL     1      -4.531   8.343 -26.055  1.00  0.00     0.210 C 
ENDBRANCH  36  41
ENDBRANCH  32  35
ENDBRANCH   5  31
TORSDOF 9
ENDMDL
MODEL 10
REMARK VINA RESULT:      -8.2      2.472      4.391
REMARK  9 active torsions:
REMARK  status: ('A' for Active; 'I' for Inactive)
REMARK    1  A    between atoms: C_2  and  C_3 
REMARK    2  A    between atoms: C_4  and  N_5 
REMARK       I    between atoms: N_5  and  C_6 
REMARK    3  A    between atoms: C_6  and  C_7 
REMARK    4  A    between atoms: C_7  and  S_8 
REMARK    5  A    between atoms: S_8  and  C_9 
REMARK    6  A    between atoms: C_13  and  C_14 
REMARK       I    between atoms: C_14  and  N_15 
REMARK    7  A    between atoms: N_15  and  C_16 
REMARK    8  A    between atoms: C_17  and  O_18 
REMARK    9  A    between atoms: C_25  and  C_26 
ROOT
HETATM    1  C   UNL     1      -6.418   7.132 -30.105  1.00  0.00     0.088 C 
HETATM    2  N   UNL     1      -7.019   7.246 -31.349  1.00  0.00    -0.353 N 
HETATM    3  C   UNL     1      -8.041   6.404 -31.782  1.00  0.00     0.019 C 
HETATM    4  C   UNL     1      -9.011   7.068 -32.729  1.00  0.00     0.069 C 
HETATM    5  C   UNL     1      -8.174   5.169 -31.235  1.00  0.00     0.046 C 
HETATM    6  C   UNL     1      -7.265   4.781 -30.047  1.00  0.00     0.106 C 
HETATM    7  C   UNL     1      -6.494   5.958 -29.437  1.00  0.00     0.069 C 
HETATM    8  C   UNL     1      -5.986   5.780 -28.115  1.00  0.00     0.099 C 
HETATM    9  N   UNL     1      -5.577   5.617 -27.041  1.00  0.00    -0.192 NA
HETATM   10  H   UNL     1      -7.102   8.216 -31.643  1.00  0.00     0.166 HD
ENDROOT
BRANCH   1  11
HETATM   11  S   UNL     1      -5.802   8.590 -29.358  1.00  0.00    -0.102 SA
BRANCH  11  12
HETATM   12  C   UNL     1      -4.007   8.296 -29.311  1.00  0.00     0.184 C 
BRANCH  12  13
HETATM   13  C   UNL     1      -3.512   8.216 -30.755  1.00  0.00     0.231 C 
HETATM   14  N   UNL     1      -3.050   6.951 -31.094  1.00  0.00    -0.326 N 
HETATM   15  H   UNL     1      -2.925   6.305 -30.328  1.00  0.00     0.169 HD
HETATM   16  O   UNL     1      -3.535   9.198 -31.491  1.00  0.00    -0.272 OA
BRANCH  14  17
HETATM   17  C   UNL     1      -2.866   6.419 -32.391  1.00  0.00     0.041 A 
HETATM   18  C   UNL     1      -1.554   6.168 -32.854  1.00  0.00    -0.032 A 
HETATM   19  C   UNL     1      -1.374   5.529 -34.096  1.00  0.00     0.009 A 
HETATM   20  C   UNL     1      -2.466   5.159 -34.878  1.00  0.00     0.001 A 
HETATM   21  C   UNL     1      -3.753   5.428 -34.432  1.00  0.00     0.002 A 
HETATM   22  C   UNL     1      -3.951   6.055 -33.199  1.00  0.00     0.030 A 
BRANCH  18  23
HETATM   23  C   UNL     1      -0.311   6.551 -32.080  1.00  0.00     0.036 C 
HETATM   24  C   UNL     1       0.207   5.413 -31.213  1.00  0.00     0.010 C 
ENDBRANCH  18  23
ENDBRANCH  14  17
ENDBRANCH  12  13
ENDBRANCH  11  12
ENDBRANCH   1  11
BRANCH   6  25
HETATM   25  C   UNL     1      -6.338   3.599 -30.320  1.00  0.00    -0.044 A 
HETATM   26  C   UNL     1      -5.155   3.738 -31.057  1.00  0.00     0.008 A 
HETATM   27  C   UNL     1      -4.291   2.651 -31.223  1.00  0.00     0.001 A 
HETATM   28  C   UNL     1      -4.598   1.416 -30.654  1.00  0.00     0.000 A 
HETATM   29  C   UNL     1      -5.768   1.264 -29.916  1.00  0.00     0.001 A 
HETATM   30  C   UNL     1      -6.633   2.347 -29.751  1.00  0.00     0.008 A 
ENDBRANCH   6  25
BRANCH   5  31
HETATM   31  C   UNL     1      -9.341   4.242 -31.410  1.00  0.00     0.255 C 
HETATM   32  N   UNL     1      -9.373   3.146 -32.212  1.00  0.00    -0.321 N 
HETATM   33  H   UNL     1     -10.337   2.900 -32.408  1.00  0.00     0.169 HD
HETATM   34  O   UNL     1     -10.416   4.556 -30.885  1.00  0.00    -0.268 OA
BRANCH  32  35
HETATM   35  C   UNL     1      -8.411   2.318 -32.810  1.00  0.00     0.068 A 
HETATM   36  C   UNL     1      -8.302   0.934 -32.638  1.00  0.00     0.095 A 
HETATM   37  C   UNL     1      -7.240   0.239 -33.237  1.00  0.00     0.039 A 
HETATM   38  C   UNL     1      -6.334   0.902 -34.064  1.00  0.00     0.003 A 
HETATM   39  C   UNL     1      -6.488   2.263 -34.307  1.00  0.00     0.002 A 
HETATM   40  C   UNL     1      -7.527   2.962 -33.692  1.00  0.00     0.032 A 
BRANCH  36  41
HETATM   41  O   UNL     1      -9.263   0.270 -31.923  1.00  0.00    -0.354 OA
HETATM   42  C   UNL     1     -10.280  -0.279 -32.764  1.00  0.00     0.210 C 
ENDBRANCH  36  41
ENDBRANCH  32  35
ENDBRANCH   5  31
TORSDOF 9
ENDMDL
