MODEL 1
REMARK VINA RESULT:      -8.6      0.000      0.000
REMARK  4 active torsions:
REMARK  status: ('A' for Active; 'I' for Inactive)
REMARK    1  A    between atoms: C_6  and  C_7 
REMARK    2  A    between atoms: C_7  and  N_8 
REMARK    3  A    between atoms: C_12  and  C_13 
REMARK    4  A    between atoms: C_15  and  C_16 
ROOT
HETATM    1  N   UNL     1      -4.689   2.534 -31.605  1.00  0.00    -0.067 N 
HETATM    2  H   UNL     1      -5.412   2.371 -32.314  1.00  0.00     0.280 HD
HETATM    3  C   UNL     1      -5.147   3.696 -30.751  1.00  0.00     0.236 C 
HETATM    4  C   UNL     1      -5.274   4.953 -31.606  1.00  0.00     0.040 C 
HETATM    5  C   UNL     1      -3.992   5.295 -32.372  1.00  0.00     0.058 C 
HETATM    6  C   UNL     1      -3.504   4.075 -33.160  1.00  0.00     0.040 C 
HETATM    7  C   UNL     1      -3.384   2.818 -32.306  1.00  0.00     0.236 C 
ENDROOT
BRANCH   1   8
HETATM    8  C   UNL     1      -4.587   1.246 -30.805  1.00  0.00     0.273 C 
BRANCH   8   9
HETATM    9  C   UNL     1      -4.514   0.015 -31.668  1.00  0.00    -0.032 A 
HETATM   10  C   UNL     1      -5.469  -0.196 -32.673  1.00  0.00     0.017 A 
HETATM   11  C   UNL     1      -5.335  -1.309 -33.489  1.00  0.00    -0.035 A 
HETATM   12  C   UNL     1      -4.280  -2.215 -33.349  1.00  0.00     0.016 A 
HETATM   13  C   UNL     1      -6.191  -1.724 -34.641  1.00  0.00     0.055 C 
HETATM   14  N   UNL     1      -4.310  -3.219 -34.327  1.00  0.00    -0.287 NA
HETATM   15  C   UNL     1      -3.336  -2.017 -32.356  1.00  0.00     0.025 A 
HETATM   16  C   UNL     1      -3.762  -4.526 -34.005  1.00  0.00     0.116 C 
HETATM   17  C   UNL     1      -5.684  -3.161 -34.860  1.00  0.00     0.100 C 
HETATM   18  C   UNL     1      -3.457  -0.909 -31.509  1.00  0.00     0.011 A 
ENDBRANCH   8   9
ENDBRANCH   1   8
BRANCH   5  19
HETATM   19  C   UNL     1      -2.932   5.795 -31.438  1.00  0.00     0.108 A 
HETATM   20  N   UNL     1      -1.637   5.785 -31.672  1.00  0.00    -0.229 NA
HETATM   21  C   UNL     1      -1.027   6.314 -30.538  1.00  0.00     0.157 A 
HETATM   22  C   UNL     1      -2.005   6.648 -29.619  1.00  0.00     0.126 A 
HETATM   23  N   UNL     1      -3.200   6.319 -30.198  1.00  0.00    -0.352 N 
HETATM   24  H   UNL     1      -4.116   6.434 -29.778  1.00  0.00     0.166 HD
BRANCH  21  25
HETATM   25  C   UNL     1       0.466   6.459 -30.410  1.00  0.00     0.436 C 
HETATM   26  F   UNL     1       1.015   7.079 -31.488  1.00  0.00    -0.165 F 
HETATM   27  F   UNL     1       0.808   7.189 -29.317  1.00  0.00    -0.165 F 
HETATM   28  F   UNL     1       1.081   5.253 -30.293  1.00  0.00    -0.165 F 
ENDBRANCH  21  25
ENDBRANCH   5  19
TORSDOF 4
ENDMDL
MODEL 2
REMARK VINA RESULT:      -8.4      6.334      7.863
REMARK  4 active torsions:
REMARK  status: ('A' for Active; 'I' for Inactive)
REMARK    1  A    between atoms: C_6  and  C_7 
REMARK    2  A    between atoms: C_7  and  N_8 
REMARK    3  A    between atoms: C_12  and  C_13 
REMARK    4  A    between atoms: C_15  and  C_16 
ROOT
HETATM    1  N   UNL     1      -7.540   1.393 -33.388  1.00  0.00    -0.067 N 
HETATM    2  H   UNL     1      -6.840   1.241 -32.653  1.00  0.00     0.280 HD
HETATM    3  C   UNL     1      -7.769   2.886 -33.490  1.00  0.00     0.236 C 
HETATM    4  C   UNL     1      -8.329   3.418 -32.175  1.00  0.00     0.040 C 
HETATM    5  C   UNL     1      -9.596   2.688 -31.718  1.00  0.00     0.058 C 
HETATM    6  C   UNL     1      -9.361   1.175 -31.706  1.00  0.00     0.040 C 
HETATM    7  C   UNL     1      -8.796   0.645 -33.018  1.00  0.00     0.236 C 
ENDROOT
BRANCH   1   8
HETATM    8  C   UNL     1      -6.942   0.821 -34.662  1.00  0.00     0.273 C 
BRANCH   8   9
HETATM    9  C   UNL     1      -6.214  -0.478 -34.446  1.00  0.00    -0.032 A 
HETATM   10  C   UNL     1      -6.727  -1.669 -34.982  1.00  0.00     0.017 A 
HETATM   11  C   UNL     1      -5.998  -2.837 -34.815  1.00  0.00    -0.035 A 
HETATM   12  C   UNL     1      -4.772  -2.862 -34.144  1.00  0.00     0.016 A 
HETATM   13  C   UNL     1      -6.311  -4.206 -35.322  1.00  0.00     0.055 C 
HETATM   14  N   UNL     1      -4.185  -4.135 -34.162  1.00  0.00    -0.287 NA
HETATM   15  C   UNL     1      -4.262  -1.693 -33.607  1.00  0.00     0.025 A 
HETATM   16  C   UNL     1      -3.323  -4.523 -33.058  1.00  0.00     0.116 C 
HETATM   17  C   UNL     1      -5.295  -5.038 -34.519  1.00  0.00     0.100 C 
HETATM   18  C   UNL     1      -4.986  -0.503 -33.749  1.00  0.00     0.011 A 
ENDBRANCH   8   9
ENDBRANCH   1   8
BRANCH   5  19
HETATM   19  C   UNL     1     -10.760   3.048 -32.590  1.00  0.00     0.108 A 
HETATM   20  N   UNL     1     -10.843   4.113 -33.358  1.00  0.00    -0.229 NA
HETATM   21  C   UNL     1     -12.094   4.066 -33.967  1.00  0.00     0.157 A 
HETATM   22  C   UNL     1     -12.755   2.928 -33.539  1.00  0.00     0.126 A 
HETATM   23  N   UNL     1     -11.905   2.295 -32.675  1.00  0.00    -0.352 N 
HETATM   24  H   UNL     1     -12.094   1.430 -32.182  1.00  0.00     0.166 HD
BRANCH  21  25
HETATM   25  C   UNL     1     -12.578   5.127 -34.919  1.00  0.00     0.436 C 
HETATM   26  F   UNL     1     -13.725   5.717 -34.489  1.00  0.00    -0.165 F 
HETATM   27  F   UNL     1     -11.660   6.115 -35.079  1.00  0.00    -0.165 F 
HETATM   28  F   UNL     1     -12.835   4.618 -36.152  1.00  0.00    -0.165 F 
ENDBRANCH  21  25
ENDBRANCH   5  19
TORSDOF 4
ENDMDL
MODEL 3
REMARK VINA RESULT:      -8.3      1.173      1.495
REMARK  4 active torsions:
REMARK  status: ('A' for Active; 'I' for Inactive)
REMARK    1  A    between atoms: C_6  and  C_7 
REMARK    2  A    between atoms: C_7  and  N_8 
REMARK    3  A    between atoms: C_12  and  C_13 
REMARK    4  A    between atoms: C_15  and  C_16 
ROOT
HETATM    1  N   UNL     1      -4.317   3.268 -31.728  1.00  0.00    -0.067 N 
HETATM    2  H   UNL     1      -5.075   3.349 -32.415  1.00  0.00     0.280 HD
HETATM    3  C   UNL     1      -4.343   4.519 -30.877  1.00  0.00     0.236 C 
HETATM    4  C   UNL     1      -4.077   5.745 -31.744  1.00  0.00     0.040 C 
HETATM    5  C   UNL     1      -2.778   5.646 -32.550  1.00  0.00     0.058 C 
HETATM    6  C   UNL     1      -2.741   4.331 -33.335  1.00  0.00     0.040 C 
HETATM    7  C   UNL     1      -3.013   3.107 -32.469  1.00  0.00     0.236 C 
ENDROOT
BRANCH   1   8
HETATM    8  C   UNL     1      -4.618   2.020 -30.915  1.00  0.00     0.273 C 
BRANCH   8   9
HETATM    9  C   UNL     1      -4.590   0.757 -31.733  1.00  0.00    -0.032 A 
HETATM   10  C   UNL     1      -5.562   0.538 -32.721  1.00  0.00     0.017 A 
HETATM   11  C   UNL     1      -5.469  -0.608 -33.496  1.00  0.00    -0.035 A 
HETATM   12  C   UNL     1      -4.438  -1.538 -33.333  1.00  0.00     0.016 A 
HETATM   13  C   UNL     1      -6.348  -1.039 -34.624  1.00  0.00     0.055 C 
HETATM   14  N   UNL     1      -4.509  -2.576 -34.273  1.00  0.00    -0.287 NA
HETATM   15  C   UNL     1      -3.479  -1.333 -32.357  1.00  0.00     0.025 A 
HETATM   16  C   UNL     1      -3.995  -3.886 -33.909  1.00  0.00     0.116 C 
HETATM   17  C   UNL     1      -5.886  -2.497 -34.795  1.00  0.00     0.100 C 
HETATM   18  C   UNL     1      -3.559  -0.191 -31.551  1.00  0.00     0.011 A 
ENDBRANCH   8   9
ENDBRANCH   1   8
BRANCH   5  19
HETATM   19  C   UNL     1      -1.585   5.774 -31.652  1.00  0.00     0.108 A 
HETATM   20  N   UNL     1      -1.519   6.511 -30.565  1.00  0.00    -0.229 NA
HETATM   21  C   UNL     1      -0.230   6.356 -30.060  1.00  0.00     0.157 A 
HETATM   22  C   UNL     1       0.470   5.493 -30.882  1.00  0.00     0.126 A 
HETATM   23  N   UNL     1      -0.393   5.131 -31.880  1.00  0.00    -0.352 N 
HETATM   24  H   UNL     1      -0.183   4.507 -32.650  1.00  0.00     0.166 HD
BRANCH  21  25
HETATM   25  C   UNL     1       0.247   7.058 -28.816  1.00  0.00     0.436 C 
HETATM   26  F   UNL     1       1.174   8.014 -29.092  1.00  0.00    -0.165 F 
HETATM   27  F   UNL     1      -0.772   7.673 -28.164  1.00  0.00    -0.165 F 
HETATM   28  F   UNL     1       0.820   6.195 -27.939  1.00  0.00    -0.165 F 
ENDBRANCH  21  25
ENDBRANCH   5  19
TORSDOF 4
ENDMDL
MODEL 4
REMARK VINA RESULT:      -7.9      3.684      5.219
REMARK  4 active torsions:
REMARK  status: ('A' for Active; 'I' for Inactive)
REMARK    1  A    between atoms: C_6  and  C_7 
REMARK    2  A    between atoms: C_7  and  N_8 
REMARK    3  A    between atoms: C_12  and  C_13 
REMARK    4  A    between atoms: C_15  and  C_16 
ROOT
HETATM    1  N   UNL     1      -8.433   0.325 -34.477  1.00  0.00    -0.067 N 
HETATM    2  H   UNL     1      -9.285  -0.081 -34.879  1.00  0.00     0.280 HD
HETATM    3  C   UNL     1      -8.280  -0.241 -33.081  1.00  0.00     0.236 C 
HETATM    4  C   UNL     1      -9.465   0.177 -32.217  1.00  0.00     0.040 C 
HETATM    5  C   UNL     1      -9.685   1.692 -32.184  1.00  0.00     0.058 C 
HETATM    6  C   UNL     1      -9.751   2.249 -33.610  1.00  0.00     0.040 C 
HETATM    7  C   UNL     1      -8.570   1.826 -34.475  1.00  0.00     0.236 C 
ENDROOT
BRANCH   1   8
HETATM    8  C   UNL     1      -7.295  -0.099 -35.390  1.00  0.00     0.273 C 
BRANCH   8   9
HETATM    9  C   UNL     1      -6.316  -1.030 -34.728  1.00  0.00    -0.032 A 
HETATM   10  C   UNL     1      -6.327  -2.398 -35.039  1.00  0.00     0.017 A 
HETATM   11  C   UNL     1      -5.372  -3.216 -34.456  1.00  0.00    -0.035 A 
HETATM   12  C   UNL     1      -4.399  -2.722 -33.582  1.00  0.00     0.016 A 
HETATM   13  C   UNL     1      -5.155  -4.680 -34.658  1.00  0.00     0.055 C 
HETATM   14  N   UNL     1      -3.499  -3.717 -33.174  1.00  0.00    -0.287 NA
HETATM   15  C   UNL     1      -4.384  -1.375 -33.265  1.00  0.00     0.025 A 
HETATM   16  C   UNL     1      -2.873  -3.602 -31.868  1.00  0.00     0.116 C 
HETATM   17  C   UNL     1      -4.188  -4.980 -33.499  1.00  0.00     0.100 C 
HETATM   18  C   UNL     1      -5.348  -0.531 -33.829  1.00  0.00     0.011 A 
ENDBRANCH   8   9
ENDBRANCH   1   8
BRANCH   5  19
HETATM   19  C   UNL     1      -8.611   2.369 -31.389  1.00  0.00     0.108 A 
HETATM   20  N   UNL     1      -7.377   2.585 -31.793  1.00  0.00    -0.229 NA
HETATM   21  C   UNL     1      -6.719   3.211 -30.738  1.00  0.00     0.157 A 
HETATM   22  C   UNL     1      -7.606   3.368 -29.689  1.00  0.00     0.126 A 
HETATM   23  N   UNL     1      -8.794   2.837 -30.111  1.00  0.00    -0.352 N 
HETATM   24  H   UNL     1      -9.650   2.791 -29.570  1.00  0.00     0.166 HD
BRANCH  21  25
HETATM   25  C   UNL     1      -5.270   3.613 -30.807  1.00  0.00     0.436 C 
HETATM   26  F   UNL     1      -4.956   4.555 -29.878  1.00  0.00    -0.165 F 
HETATM   27  F   UNL     1      -4.444   2.557 -30.594  1.00  0.00    -0.165 F 
HETATM   28  F   UNL     1      -4.948   4.133 -32.019  1.00  0.00    -0.165 F 
ENDBRANCH  21  25
ENDBRANCH   5  19
TORSDOF 4
ENDMDL
MODEL 5
REMARK VINA RESULT:      -7.9      7.667      9.359
REMARK  4 active torsions:
REMARK  status: ('A' for Active; 'I' for Inactive)
REMARK    1  A    between atoms: C_6  and  C_7 
REMARK    2  A    between atoms: C_7  and  N_8 
REMARK    3  A    between atoms: C_12  and  C_13 
REMARK    4  A    between atoms: C_15  and  C_16 
ROOT
HETATM    1  N   UNL     1     -10.227   1.627 -34.535  1.00  0.00    -0.067 N 
HETATM    2  H   UNL     1     -10.064   0.976 -35.311  1.00  0.00     0.280 HD
HETATM    3  C   UNL     1     -10.965   0.867 -33.454  1.00  0.00     0.236 C 
HETATM    4  C   UNL     1     -12.318   0.397 -33.980  1.00  0.00     0.040 C 
HETATM    5  C   UNL     1     -13.174   1.534 -34.547  1.00  0.00     0.058 C 
HETATM    6  C   UNL     1     -12.373   2.339 -35.575  1.00  0.00     0.040 C 
HETATM    7  C   UNL     1     -11.019   2.802 -35.052  1.00  0.00     0.236 C 
ENDROOT
BRANCH   1   8
HETATM    8  C   UNL     1      -8.852   2.082 -34.073  1.00  0.00     0.273 C 
BRANCH   8   9
HETATM    9  C   UNL     1      -7.839   0.970 -34.041  1.00  0.00    -0.032 A 
HETATM   10  C   UNL     1      -6.932   0.876 -32.975  1.00  0.00     0.017 A 
HETATM   11  C   UNL     1      -6.053  -0.196 -32.947  1.00  0.00    -0.035 A 
HETATM   12  C   UNL     1      -6.050  -1.184 -33.935  1.00  0.00     0.016 A 
HETATM   13  C   UNL     1      -5.033  -0.533 -31.909  1.00  0.00     0.055 C 
HETATM   14  N   UNL     1      -5.127  -2.204 -33.661  1.00  0.00    -0.287 NA
HETATM   15  C   UNL     1      -6.937  -1.097 -34.994  1.00  0.00     0.025 A 
HETATM   16  C   UNL     1      -4.523  -2.918 -34.773  1.00  0.00     0.116 C 
HETATM   17  C   UNL     1      -4.228  -1.614 -32.652  1.00  0.00     0.100 C 
HETATM   18  C   UNL     1      -7.825  -0.015 -35.052  1.00  0.00     0.011 A 
ENDBRANCH   8   9
ENDBRANCH   1   8
BRANCH   5  19
HETATM   19  C   UNL     1     -13.683   2.416 -33.447  1.00  0.00     0.108 A 
HETATM   20  N   UNL     1     -13.622   3.730 -33.428  1.00  0.00    -0.229 NA
HETATM   21  C   UNL     1     -14.182   4.134 -32.219  1.00  0.00     0.157 A 
HETATM   22  C   UNL     1     -14.587   3.013 -31.518  1.00  0.00     0.126 A 
HETATM   23  N   UNL     1     -14.270   1.938 -32.302  1.00  0.00    -0.352 N 
HETATM   24  H   UNL     1     -14.432   0.965 -32.070  1.00  0.00     0.166 HD
BRANCH  21  25
HETATM   25  C   UNL     1     -14.286   5.580 -31.812  1.00  0.00     0.436 C 
HETATM   26  F   UNL     1     -13.125   6.256 -32.026  1.00  0.00    -0.165 F 
HETATM   27  F   UNL     1     -15.255   6.230 -32.506  1.00  0.00    -0.165 F 
HETATM   28  F   UNL     1     -14.582   5.713 -30.494  1.00  0.00    -0.165 F 
ENDBRANCH  21  25
ENDBRANCH   5  19
TORSDOF 4
ENDMDL
MODEL 6
REMARK VINA RESULT:      -7.8      6.028      6.924
REMARK  4 active torsions:
REMARK  status: ('A' for Active; 'I' for Inactive)
REMARK    1  A    between atoms: C_6  and  C_7 
REMARK    2  A    between atoms: C_7  and  N_8 
REMARK    3  A    between atoms: C_12  and  C_13 
REMARK    4  A    between atoms: C_15  and  C_16 
ROOT
HETATM    1  N   UNL     1      -7.990   1.007 -33.452  1.00  0.00    -0.067 N 
HETATM    2  H   UNL     1      -8.119   0.101 -32.989  1.00  0.00     0.280 HD
HETATM    3  C   UNL     1      -7.601   2.008 -32.385  1.00  0.00     0.236 C 
HETATM    4  C   UNL     1      -8.726   2.144 -31.365  1.00  0.00     0.040 C 
HETATM    5  C   UNL     1     -10.076   2.499 -31.997  1.00  0.00     0.058 C 
HETATM    6  C   UNL     1     -10.404   1.522 -33.130  1.00  0.00     0.040 C 
HETATM    7  C   UNL     1      -9.277   1.380 -34.145  1.00  0.00     0.236 C 
ENDROOT
BRANCH   1   8
HETATM    8  C   UNL     1      -6.882   0.804 -34.472  1.00  0.00     0.273 C 
BRANCH   8   9
HETATM    9  C   UNL     1      -6.166  -0.510 -34.317  1.00  0.00    -0.032 A 
HETATM   10  C   UNL     1      -6.706  -1.676 -34.880  1.00  0.00     0.017 A 
HETATM   11  C   UNL     1      -5.988  -2.857 -34.770  1.00  0.00    -0.035 A 
HETATM   12  C   UNL     1      -4.747  -2.920 -34.129  1.00  0.00     0.016 A 
HETATM   13  C   UNL     1      -6.330  -4.205 -35.315  1.00  0.00     0.055 C 
HETATM   14  N   UNL     1      -4.177  -4.199 -34.204  1.00  0.00    -0.287 NA
HETATM   15  C   UNL     1      -4.210  -1.775 -33.566  1.00  0.00     0.025 A 
HETATM   16  C   UNL     1      -3.294  -4.634 -33.135  1.00  0.00     0.116 C 
HETATM   17  C   UNL     1      -5.306  -5.076 -34.565  1.00  0.00     0.100 C 
HETATM   18  C   UNL     1      -4.922  -0.573 -33.651  1.00  0.00     0.011 A 
ENDBRANCH   8   9
ENDBRANCH   1   8
BRANCH   5  19
HETATM   19  C   UNL     1     -10.078   3.915 -32.487  1.00  0.00     0.108 A 
HETATM   20  N   UNL     1     -10.513   4.320 -33.661  1.00  0.00    -0.229 NA
HETATM   21  C   UNL     1     -10.305   5.696 -33.707  1.00  0.00     0.157 A 
HETATM   22  C   UNL     1      -9.736   6.101 -32.513  1.00  0.00     0.126 A 
HETATM   23  N   UNL     1      -9.600   4.972 -31.753  1.00  0.00    -0.352 N 
HETATM   24  H   UNL     1      -9.207   4.928 -30.820  1.00  0.00     0.166 HD
BRANCH  21  25
HETATM   25  C   UNL     1     -10.664   6.535 -34.905  1.00  0.00     0.436 C 
HETATM   26  F   UNL     1     -10.370   7.849 -34.716  1.00  0.00    -0.165 F 
HETATM   27  F   UNL     1      -9.994   6.136 -36.016  1.00  0.00    -0.165 F 
HETATM   28  F   UNL     1     -11.990   6.464 -35.190  1.00  0.00    -0.165 F 
ENDBRANCH  21  25
ENDBRANCH   5  19
TORSDOF 4
ENDMDL
MODEL 7
REMARK VINA RESULT:      -7.6      4.140      8.886
REMARK  4 active torsions:
REMARK  status: ('A' for Active; 'I' for Inactive)
REMARK    1  A    between atoms: C_6  and  C_7 
REMARK    2  A    between atoms: C_7  and  N_8 
REMARK    3  A    between atoms: C_12  and  C_13 
REMARK    4  A    between atoms: C_15  and  C_16 
ROOT
HETATM    1  N   UNL     1      -4.714   2.921 -32.093  1.00  0.00    -0.067 N 
HETATM    2  H   UNL     1      -5.039   3.541 -31.343  1.00  0.00     0.280 HD
HETATM    3  C   UNL     1      -5.856   2.764 -33.074  1.00  0.00     0.236 C 
HETATM    4  C   UNL     1      -7.047   2.104 -32.386  1.00  0.00     0.040 C 
HETATM    5  C   UNL     1      -6.697   0.770 -31.720  1.00  0.00     0.058 C 
HETATM    6  C   UNL     1      -5.485   0.940 -30.798  1.00  0.00     0.040 C 
HETATM    7  C   UNL     1      -4.298   1.606 -31.484  1.00  0.00     0.236 C 
ENDROOT
BRANCH   1   8
HETATM    8  C   UNL     1      -3.516   3.613 -32.721  1.00  0.00     0.273 C 
BRANCH   8   9
HETATM    9  C   UNL     1      -2.889   4.646 -31.824  1.00  0.00    -0.032 A 
HETATM   10  C   UNL     1      -1.500   4.840 -31.839  1.00  0.00     0.017 A 
HETATM   11  C   UNL     1      -0.963   5.842 -31.045  1.00  0.00    -0.035 A 
HETATM   12  C   UNL     1      -1.759   6.665 -30.243  1.00  0.00     0.016 A 
HETATM   13  C   UNL     1       0.464   6.264 -30.922  1.00  0.00     0.055 C 
HETATM   14  N   UNL     1      -1.008   7.650 -29.585  1.00  0.00    -0.287 NA
HETATM   15  C   UNL     1      -3.130   6.476 -30.217  1.00  0.00     0.025 A 
HETATM   16  C   UNL     1      -1.473   8.143 -28.300  1.00  0.00     0.116 C 
HETATM   17  C   UNL     1       0.381   7.162 -29.674  1.00  0.00     0.100 C 
HETATM   18  C   UNL     1      -3.694   5.461 -30.998  1.00  0.00     0.011 A 
ENDBRANCH   8   9
ENDBRANCH   1   8
BRANCH   5  19
HETATM   19  C   UNL     1      -6.449  -0.290 -32.750  1.00  0.00     0.108 A 
HETATM   20  N   UNL     1      -5.478  -1.177 -32.719  1.00  0.00    -0.229 NA
HETATM   21  C   UNL     1      -5.606  -1.943 -33.874  1.00  0.00     0.157 A 
HETATM   22  C   UNL     1      -6.694  -1.486 -34.595  1.00  0.00     0.126 A 
HETATM   23  N   UNL     1      -7.218  -0.447 -33.876  1.00  0.00    -0.352 N 
HETATM   24  H   UNL     1      -8.024   0.109 -34.137  1.00  0.00     0.166 HD
BRANCH  21  25
HETATM   25  C   UNL     1      -4.663  -3.067 -34.215  1.00  0.00     0.436 C 
HETATM   26  F   UNL     1      -5.318  -4.242 -34.414  1.00  0.00    -0.165 F 
HETATM   27  F   UNL     1      -3.961  -2.808 -35.348  1.00  0.00    -0.165 F 
HETATM   28  F   UNL     1      -3.758  -3.282 -33.225  1.00  0.00    -0.165 F 
ENDBRANCH  21  25
ENDBRANCH   5  19
TORSDOF 4
ENDMDL
MODEL 8
REMARK VINA RESULT:      -7.5      1.409      2.362
REMARK  4 active torsions:
REMARK  status: ('A' for Active; 'I' for Inactive)
REMARK    1  A    between atoms: C_6  and  C_7 
REMARK    2  A    between atoms: C_7  and  N_8 
REMARK    3  A    between atoms: C_12  and  C_13 
REMARK    4  A    between atoms: C_15  and  C_16 
ROOT
HETATM    1  N   UNL     1      -4.144   3.831 -31.709  1.00  0.00    -0.067 N 
HETATM    2  H   UNL     1      -4.491   3.719 -32.668  1.00  0.00     0.280 HD
HETATM    3  C   UNL     1      -4.595   5.191 -31.222  1.00  0.00     0.236 C 
HETATM    4  C   UNL     1      -3.980   6.285 -32.088  1.00  0.00     0.040 C 
HETATM    5  C   UNL     1      -2.453   6.202 -32.173  1.00  0.00     0.058 C 
HETATM    6  C   UNL     1      -2.021   4.791 -32.585  1.00  0.00     0.040 C 
HETATM    7  C   UNL     1      -2.642   3.698 -31.724  1.00  0.00     0.236 C 
ENDROOT
BRANCH   1   8
HETATM    8  C   UNL     1      -4.765   2.703 -30.902  1.00  0.00     0.273 C 
BRANCH   8   9
HETATM    9  C   UNL     1      -5.006   1.457 -31.711  1.00  0.00    -0.032 A 
HETATM   10  C   UNL     1      -4.074   0.408 -31.679  1.00  0.00     0.017 A 
HETATM   11  C   UNL     1      -4.359  -0.750 -32.388  1.00  0.00    -0.035 A 
HETATM   12  C   UNL     1      -5.540  -0.906 -33.119  1.00  0.00     0.016 A 
HETATM   13  C   UNL     1      -3.554  -2.005 -32.476  1.00  0.00     0.055 C 
HETATM   14  N   UNL     1      -5.642  -2.182 -33.692  1.00  0.00    -0.287 NA
HETATM   15  C   UNL     1      -6.461   0.126 -33.160  1.00  0.00     0.025 A 
HETATM   16  C   UNL     1      -6.385  -2.334 -34.932  1.00  0.00     0.116 C 
HETATM   17  C   UNL     1      -4.266  -2.709 -33.645  1.00  0.00     0.100 C 
HETATM   18  C   UNL     1      -6.190   1.311 -32.465  1.00  0.00     0.011 A 
ENDBRANCH   8   9
ENDBRANCH   1   8
BRANCH   5  19
HETATM   19  C   UNL     1      -1.825   6.601 -30.872  1.00  0.00     0.108 A 
HETATM   20  N   UNL     1      -0.836   5.973 -30.273  1.00  0.00    -0.229 NA
HETATM   21  C   UNL     1      -0.588   6.664 -29.090  1.00  0.00     0.157 A 
HETATM   22  C   UNL     1      -1.462   7.733 -29.006  1.00  0.00     0.126 A 
HETATM   23  N   UNL     1      -2.234   7.684 -30.134  1.00  0.00    -0.352 N 
HETATM   24  H   UNL     1      -2.978   8.329 -30.374  1.00  0.00     0.166 HD
BRANCH  21  25
HETATM   25  C   UNL     1       0.474   6.244 -28.109  1.00  0.00     0.436 C 
HETATM   26  F   UNL     1      -0.056   5.832 -26.926  1.00  0.00    -0.165 F 
HETATM   27  F   UNL     1       1.222   5.217 -28.587  1.00  0.00    -0.165 F 
HETATM   28  F   UNL     1       1.327   7.261 -27.825  1.00  0.00    -0.165 F 
ENDBRANCH  21  25
ENDBRANCH   5  19
TORSDOF 4
ENDMDL
MODEL 9
REMARK VINA RESULT:      -7.5      4.780      9.222
REMARK  4 active torsions:
REMARK  status: ('A' for Active; 'I' for Inactive)
REMARK    1  A    between atoms: C_6  and  C_7 
REMARK    2  A    between atoms: C_7  and  N_8 
REMARK    3  A    between atoms: C_12  and  C_13 
REMARK    4  A    between atoms: C_15  and  C_16 
ROOT
HETATM    1  N   UNL     1      -4.141   2.774 -31.339  1.00  0.00    -0.067 N 
HETATM    2  H   UNL     1      -3.495   2.764 -30.542  1.00  0.00     0.280 HD
HETATM    3  C   UNL     1      -5.545   2.857 -30.779  1.00  0.00     0.236 C 
HETATM    4  C   UNL     1      -5.843   1.624 -29.934  1.00  0.00     0.040 C 
HETATM    5  C   UNL     1      -5.619   0.307 -30.685  1.00  0.00     0.058 C 
HETATM    6  C   UNL     1      -4.221   0.287 -31.312  1.00  0.00     0.040 C 
HETATM    7  C   UNL     1      -3.922   1.523 -32.151  1.00  0.00     0.236 C 
ENDROOT
BRANCH   1   8
HETATM    8  C   UNL     1      -3.781   4.003 -32.156  1.00  0.00     0.273 C 
BRANCH   8   9
HETATM    9  C   UNL     1      -3.034   5.044 -31.367  1.00  0.00    -0.032 A 
HETATM   10  C   UNL     1      -1.630   5.048 -31.362  1.00  0.00     0.017 A 
HETATM   11  C   UNL     1      -0.975   6.058 -30.674  1.00  0.00    -0.035 A 
HETATM   12  C   UNL     1      -1.664   7.070 -30.000  1.00  0.00     0.016 A 
HETATM   13  C   UNL     1       0.494   6.298 -30.556  1.00  0.00     0.055 C 
HETATM   14  N   UNL     1      -0.795   8.018 -29.439  1.00  0.00    -0.287 NA
HETATM   15  C   UNL     1      -3.048   7.071 -29.995  1.00  0.00     0.025 A 
HETATM   16  C   UNL     1      -1.210   8.720 -28.236  1.00  0.00     0.116 C 
HETATM   17  C   UNL     1       0.515   7.342 -29.426  1.00  0.00     0.100 C 
HETATM   18  C   UNL     1      -3.733   6.053 -30.670  1.00  0.00     0.011 A 
ENDBRANCH   8   9
ENDBRANCH   1   8
BRANCH   5  19
HETATM   19  C   UNL     1      -6.680   0.099 -31.722  1.00  0.00     0.108 A 
HETATM   20  N   UNL     1      -7.878   0.643 -31.713  1.00  0.00    -0.229 NA
HETATM   21  C   UNL     1      -8.539   0.162 -32.841  1.00  0.00     0.157 A 
HETATM   22  C   UNL     1      -7.688  -0.684 -33.529  1.00  0.00     0.126 A 
HETATM   23  N   UNL     1      -6.521  -0.714 -32.817  1.00  0.00    -0.352 N 
HETATM   24  H   UNL     1      -5.694  -1.249 -33.054  1.00  0.00     0.166 HD
BRANCH  21  25
HETATM   25  C   UNL     1      -9.955   0.546 -33.180  1.00  0.00     0.436 C 
HETATM   26  F   UNL     1     -10.357   1.660 -32.513  1.00  0.00    -0.165 F 
HETATM   27  F   UNL     1     -10.102   0.803 -34.505  1.00  0.00    -0.165 F 
HETATM   28  F   UNL     1     -10.833  -0.441 -32.866  1.00  0.00    -0.165 F 
ENDBRANCH  21  25
ENDBRANCH   5  19
TORSDOF 4
ENDMDL
MODEL 10
REMARK VINA RESULT:      -7.4     17.382     19.360
REMARK  4 active torsions:
REMARK  status: ('A' for Active; 'I' for Inactive)
REMARK    1  A    between atoms: C_6  and  C_7 
REMARK    2  A    between atoms: C_7  and  N_8 
REMARK    3  A    between atoms: C_12  and  C_13 
REMARK    4  A    between atoms: C_15  and  C_16 
ROOT
HETATM    1  N   UNL     1      -4.054 -13.326 -38.889  1.00  0.00    -0.067 N 
HETATM    2  H   UNL     1      -3.171 -12.961 -39.264  1.00  0.00     0.280 HD
HETATM    3  C   UNL     1      -4.480 -14.475 -39.779  1.00  0.00     0.236 C 
HETATM    4  C   UNL     1      -4.730 -13.971 -41.196  1.00  0.00     0.040 C 
HETATM    5  C   UNL     1      -5.733 -12.814 -41.258  1.00  0.00     0.058 C 
HETATM    6  C   UNL     1      -5.323 -11.704 -40.286  1.00  0.00     0.040 C 
HETATM    7  C   UNL     1      -5.066 -12.209 -38.872  1.00  0.00     0.236 C 
ENDROOT
BRANCH   1   8
HETATM    8  C   UNL     1      -3.751 -13.786 -37.473  1.00  0.00     0.273 C 
BRANCH   8   9
HETATM    9  C   UNL     1      -2.400 -14.433 -37.334  1.00  0.00    -0.032 A 
HETATM   10  C   UNL     1      -1.366 -14.097 -38.220  1.00  0.00     0.017 A 
HETATM   11  C   UNL     1      -0.116 -14.666 -38.024  1.00  0.00    -0.035 A 
HETATM   12  C   UNL     1       0.145 -15.549 -36.973  1.00  0.00     0.016 A 
HETATM   13  C   UNL     1       1.139 -14.438 -38.800  1.00  0.00     0.055 C 
HETATM   14  N   UNL     1       1.491 -15.940 -36.932  1.00  0.00    -0.287 NA
HETATM   15  C   UNL     1      -0.871 -15.891 -36.097  1.00  0.00     0.025 A 
HETATM   16  C   UNL     1       1.823 -17.249 -36.395  1.00  0.00     0.116 C 
HETATM   17  C   UNL     1       2.008 -15.592 -38.269  1.00  0.00     0.100 C 
HETATM   18  C   UNL     1      -2.146 -15.341 -36.283  1.00  0.00     0.011 A 
ENDBRANCH   8   9
ENDBRANCH   1   8
BRANCH   5  19
HETATM   19  C   UNL     1      -7.122 -13.299 -40.971  1.00  0.00     0.108 A 
HETATM   20  N   UNL     1      -8.133 -12.548 -40.590  1.00  0.00    -0.229 NA
HETATM   21  C   UNL     1      -9.217 -13.404 -40.413  1.00  0.00     0.157 A 
HETATM   22  C   UNL     1      -8.818 -14.695 -40.709  1.00  0.00     0.126 A 
HETATM   23  N   UNL     1      -7.499 -14.616 -41.061  1.00  0.00    -0.352 N 
HETATM   24  H   UNL     1      -6.908 -15.394 -41.331  1.00  0.00     0.166 HD
BRANCH  21  25
HETATM   25  C   UNL     1     -10.570 -12.923 -39.961  1.00  0.00     0.436 C 
HETATM   26  F   UNL     1     -10.728 -11.586 -40.155  1.00  0.00    -0.165 F 
HETATM   27  F   UNL     1     -11.574 -13.541 -40.634  1.00  0.00    -0.165 F 
HETATM   28  F   UNL     1     -10.772 -13.156 -38.639  1.00  0.00    -0.165 F 
ENDBRANCH  21  25
ENDBRANCH   5  19
TORSDOF 4
ENDMDL
