MODEL 1
REMARK VINA RESULT:      -9.0      0.000      0.000
REMARK  7 active torsions:
REMARK  status: ('A' for Active; 'I' for Inactive)
REMARK       I    between atoms: N_2  and  C_3 
REMARK    1  A    between atoms: N_2  and  C_24 
REMARK    2  A    between atoms: C_3  and  C_4 
REMARK    3  A    between atoms: C_7  and  N_8 
REMARK    4  A    between atoms: C_11  and  N_12 
REMARK       I    between atoms: N_12  and  C_13 
REMARK    5  A    between atoms: C_13  and  C_14 
REMARK    6  A    between atoms: C_24  and  C_25 
REMARK    7  A    between atoms: C_27  and  O_28 
ROOT
HETATM    1  C   UNL     1      -5.953   2.605 -32.079  1.00  0.00     0.032 A 
HETATM    2  C   UNL     1      -4.864   2.130 -31.338  1.00  0.00     0.019 A 
HETATM    3  C   UNL     1      -3.687   2.873 -31.252  1.00  0.00     0.032 A 
HETATM    4  C   UNL     1      -3.587   4.116 -31.893  1.00  0.00     0.058 A 
HETATM    5  C   UNL     1      -4.653   4.569 -32.684  1.00  0.00     0.032 A 
HETATM    6  C   UNL     1      -5.823   3.799 -32.797  1.00  0.00     0.019 A 
ENDROOT
BRANCH   4   7
HETATM    7  N   UNL     1      -2.415   4.899 -31.684  1.00  0.00    -0.243 N 
HETATM    8  N   UNL     1      -1.273   4.616 -32.358  1.00  0.00    -0.178 NA
HETATM    9  C   UNL     1      -0.353   5.419 -31.824  1.00  0.00     0.170 A 
HETATM   10  C   UNL     1      -0.879   6.235 -30.806  1.00  0.00     0.071 A 
HETATM   11  C   UNL     1      -2.222   5.929 -30.781  1.00  0.00     0.149 A 
BRANCH  10  12
HETATM   12  N   UNL     1      -0.262   7.134 -29.952  1.00  0.00    -0.324 N 
HETATM   13  C   UNL     1       0.427   6.749 -28.813  1.00  0.00     0.228 C 
HETATM   14  O   UNL     1       0.642   5.589 -28.477  1.00  0.00    -0.273 OA
HETATM   15  H   UNL     1      -0.416   8.117 -30.134  1.00  0.00     0.169 HD
BRANCH  13  16
HETATM   16  C   UNL     1       0.831   7.923 -27.943  1.00  0.00     0.104 C 
HETATM   17  C   UNL     1      -0.362   8.699 -27.409  1.00  0.00     0.181 C 
HETATM   18  O   UNL     1       0.065   9.326 -26.189  1.00  0.00    -0.390 OA
HETATM   19  C   UNL     1       1.315   8.755 -25.794  1.00  0.00     0.168 C 
HETATM   20  C   UNL     1       1.538   7.537 -26.664  1.00  0.00     0.042 C 
ENDBRANCH  13  16
ENDBRANCH  10  12
ENDBRANCH   4   7
BRANCH   1  21
HETATM   21  C   UNL     1      -7.169   1.754 -32.074  1.00  0.00     0.253 C 
HETATM   22  N   UNL     1      -7.532   1.008 -33.197  1.00  0.00    -0.348 N 
HETATM   23  C   UNL     1      -8.873   0.434 -33.232  1.00  0.00     0.153 C 
HETATM   24  O   UNL     1      -7.881   1.825 -31.072  1.00  0.00    -0.267 OA
BRANCH  22  25
HETATM   25  C   UNL     1      -6.664   0.672 -34.328  1.00  0.00     0.164 C 
BRANCH  25  26
HETATM   26  C   UNL     1      -5.894  -0.627 -34.158  1.00  0.00    -0.038 A 
HETATM   27  C   UNL     1      -4.814  -0.766 -33.263  1.00  0.00     0.045 A 
HETATM   28  C   UNL     1      -4.152  -1.986 -33.109  1.00  0.00     0.068 A 
HETATM   29  C   UNL     1      -4.544  -3.075 -33.885  1.00  0.00     0.037 A 
HETATM   30  C   UNL     1      -5.597  -2.956 -34.790  1.00  0.00     0.003 A 
HETATM   31  C   UNL     1      -6.271  -1.741 -34.923  1.00  0.00     0.009 A 
BRANCH  28  32
HETATM   32  O   UNL     1      -3.118  -2.229 -32.247  1.00  0.00    -0.356 OA
HETATM   33  C   UNL     1      -2.953  -3.574 -31.810  1.00  0.00     0.210 C 
ENDBRANCH  28  32
ENDBRANCH  25  26
ENDBRANCH  22  25
ENDBRANCH   1  21
TORSDOF 7
ENDMDL
MODEL 2
REMARK VINA RESULT:      -8.8      1.209      1.989
REMARK  7 active torsions:
REMARK  status: ('A' for Active; 'I' for Inactive)
REMARK       I    between atoms: N_2  and  C_3 
REMARK    1  A    between atoms: N_2  and  C_24 
REMARK    2  A    between atoms: C_3  and  C_4 
REMARK    3  A    between atoms: C_7  and  N_8 
REMARK    4  A    between atoms: C_11  and  N_12 
REMARK       I    between atoms: N_12  and  C_13 
REMARK    5  A    between atoms: C_13  and  C_14 
REMARK    6  A    between atoms: C_24  and  C_25 
REMARK    7  A    between atoms: C_27  and  O_28 
ROOT
HETATM    1  C   UNL     1      -6.411   3.214 -32.078  1.00  0.00     0.032 A 
HETATM    2  C   UNL     1      -5.432   3.167 -33.079  1.00  0.00     0.019 A 
HETATM    3  C   UNL     1      -4.215   3.825 -32.912  1.00  0.00     0.032 A 
HETATM    4  C   UNL     1      -3.949   4.529 -31.728  1.00  0.00     0.058 A 
HETATM    5  C   UNL     1      -4.947   4.628 -30.748  1.00  0.00     0.032 A 
HETATM    6  C   UNL     1      -6.186   3.993 -30.939  1.00  0.00     0.019 A 
ENDROOT
BRANCH   4   7
HETATM    7  N   UNL     1      -2.651   5.087 -31.543  1.00  0.00    -0.243 N 
HETATM    8  N   UNL     1      -1.562   4.478 -32.075  1.00  0.00    -0.178 NA
HETATM    9  C   UNL     1      -0.521   5.158 -31.594  1.00  0.00     0.170 A 
HETATM   10  C   UNL     1      -0.913   6.214 -30.751  1.00  0.00     0.071 A 
HETATM   11  C   UNL     1      -2.290   6.188 -30.789  1.00  0.00     0.149 A 
BRANCH  10  12
HETATM   12  N   UNL     1      -0.164   7.097 -29.992  1.00  0.00    -0.324 N 
HETATM   13  C   UNL     1       0.415   6.755 -28.780  1.00  0.00     0.228 C 
HETATM   14  O   UNL     1       0.408   5.631 -28.287  1.00  0.00    -0.273 OA
HETATM   15  H   UNL     1      -0.132   8.057 -30.307  1.00  0.00     0.169 HD
BRANCH  13  16
HETATM   16  C   UNL     1       1.005   7.946 -28.051  1.00  0.00     0.104 C 
HETATM   17  C   UNL     1      -0.035   8.999 -27.707  1.00  0.00     0.181 C 
HETATM   18  O   UNL     1       0.457   9.706 -26.557  1.00  0.00    -0.390 OA
HETATM   19  C   UNL     1       1.557   8.974 -26.006  1.00  0.00     0.168 C 
HETATM   20  C   UNL     1       1.573   7.623 -26.687  1.00  0.00     0.042 C 
ENDBRANCH  13  16
ENDBRANCH  10  12
ENDBRANCH   4   7
BRANCH   1  21
HETATM   21  C   UNL     1      -7.655   2.448 -32.343  1.00  0.00     0.253 C 
HETATM   22  N   UNL     1      -7.793   1.126 -31.916  1.00  0.00    -0.348 N 
HETATM   23  C   UNL     1      -8.901   0.345 -32.455  1.00  0.00     0.153 C 
HETATM   24  O   UNL     1      -8.502   3.007 -33.039  1.00  0.00    -0.267 OA
BRANCH  22  25
HETATM   25  C   UNL     1      -6.971   0.455 -30.906  1.00  0.00     0.164 C 
BRANCH  25  26
HETATM   26  C   UNL     1      -5.639  -0.059 -31.428  1.00  0.00    -0.038 A 
HETATM   27  C   UNL     1      -5.530  -0.904 -32.550  1.00  0.00     0.045 A 
HETATM   28  C   UNL     1      -4.285  -1.328 -33.021  1.00  0.00     0.068 A 
HETATM   29  C   UNL     1      -3.132  -0.937 -32.342  1.00  0.00     0.037 A 
HETATM   30  C   UNL     1      -3.217  -0.117 -31.218  1.00  0.00     0.003 A 
HETATM   31  C   UNL     1      -4.462   0.324 -30.766  1.00  0.00     0.009 A 
BRANCH  28  32
HETATM   32  O   UNL     1      -4.074  -2.119 -34.116  1.00  0.00    -0.356 OA
HETATM   33  C   UNL     1      -5.209  -2.799 -34.643  1.00  0.00     0.210 C 
ENDBRANCH  28  32
ENDBRANCH  25  26
ENDBRANCH  22  25
ENDBRANCH   1  21
TORSDOF 7
ENDMDL
MODEL 3
REMARK VINA RESULT:      -8.6      1.620      1.934
REMARK  7 active torsions:
REMARK  status: ('A' for Active; 'I' for Inactive)
REMARK       I    between atoms: N_2  and  C_3 
REMARK    1  A    between atoms: N_2  and  C_24 
REMARK    2  A    between atoms: C_3  and  C_4 
REMARK    3  A    between atoms: C_7  and  N_8 
REMARK    4  A    between atoms: C_11  and  N_12 
REMARK       I    between atoms: N_12  and  C_13 
REMARK    5  A    between atoms: C_13  and  C_14 
REMARK    6  A    between atoms: C_24  and  C_25 
REMARK    7  A    between atoms: C_27  and  O_28 
ROOT
HETATM    1  C   UNL     1      -7.340   3.082 -33.039  1.00  0.00     0.032 A 
HETATM    2  C   UNL     1      -7.010   3.628 -31.793  1.00  0.00     0.019 A 
HETATM    3  C   UNL     1      -5.724   4.107 -31.547  1.00  0.00     0.032 A 
HETATM    4  C   UNL     1      -4.749   4.065 -32.554  1.00  0.00     0.058 A 
HETATM    5  C   UNL     1      -5.058   3.465 -33.784  1.00  0.00     0.032 A 
HETATM    6  C   UNL     1      -6.345   2.951 -34.014  1.00  0.00     0.019 A 
ENDROOT
BRANCH   4   7
HETATM    7  N   UNL     1      -3.484   4.672 -32.306  1.00  0.00    -0.243 N 
HETATM    8  N   UNL     1      -2.462   4.509 -33.183  1.00  0.00    -0.178 NA
HETATM    9  C   UNL     1      -1.407   5.062 -32.584  1.00  0.00     0.170 A 
HETATM   10  C   UNL     1      -1.724   5.593 -31.321  1.00  0.00     0.071 A 
HETATM   11  C   UNL     1      -3.080   5.389 -31.194  1.00  0.00     0.149 A 
BRANCH  10  12
HETATM   12  N   UNL     1      -0.923   6.169 -30.350  1.00  0.00    -0.324 N 
HETATM   13  C   UNL     1       0.082   5.481 -29.687  1.00  0.00     0.228 C 
HETATM   14  O   UNL     1       0.430   4.330 -29.936  1.00  0.00    -0.273 OA
HETATM   15  H   UNL     1      -1.161   7.107 -30.058  1.00  0.00     0.169 HD
BRANCH  13  16
HETATM   16  C   UNL     1       0.674   6.266 -28.534  1.00  0.00     0.104 C 
HETATM   17  C   UNL     1       0.666   7.766 -28.778  1.00  0.00     0.181 C 
HETATM   18  O   UNL     1       0.643   8.395 -27.486  1.00  0.00    -0.390 OA
HETATM   19  C   UNL     1       0.338   7.404 -26.501  1.00  0.00     0.168 C 
HETATM   20  C   UNL     1      -0.108   6.164 -27.244  1.00  0.00     0.042 C 
ENDBRANCH  13  16
ENDBRANCH  10  12
ENDBRANCH   4   7
BRANCH   1  21
HETATM   21  C   UNL     1      -8.746   2.635 -33.207  1.00  0.00     0.253 C 
HETATM   22  N   UNL     1      -9.144   1.349 -32.836  1.00  0.00    -0.348 N 
HETATM   23  C   UNL     1     -10.447   0.879 -33.292  1.00  0.00     0.153 C 
HETATM   24  O   UNL     1      -9.504   3.420 -33.777  1.00  0.00    -0.267 OA
BRANCH  22  25
HETATM   25  C   UNL     1      -8.407   0.437 -31.959  1.00  0.00     0.164 C 
BRANCH  25  26
HETATM   26  C   UNL     1      -7.218  -0.240 -32.620  1.00  0.00    -0.038 A 
HETATM   27  C   UNL     1      -5.934  -0.272 -32.041  1.00  0.00     0.045 A 
HETATM   28  C   UNL     1      -4.874  -0.935 -32.663  1.00  0.00     0.068 A 
HETATM   29  C   UNL     1      -5.083  -1.543 -33.899  1.00  0.00     0.037 A 
HETATM   30  C   UNL     1      -6.341  -1.509 -34.500  1.00  0.00     0.003 A 
HETATM   31  C   UNL     1      -7.403  -0.866 -33.863  1.00  0.00     0.009 A 
BRANCH  28  32
HETATM   32  O   UNL     1      -3.604  -1.049 -32.168  1.00  0.00    -0.356 OA
HETATM   33  C   UNL     1      -3.214  -0.097 -31.183  1.00  0.00     0.210 C 
ENDBRANCH  28  32
ENDBRANCH  25  26
ENDBRANCH  22  25
ENDBRANCH   1  21
TORSDOF 7
ENDMDL
MODEL 4
REMARK VINA RESULT:      -8.2      3.055      6.401
REMARK  7 active torsions:
REMARK  status: ('A' for Active; 'I' for Inactive)
REMARK       I    between atoms: N_2  and  C_3 
REMARK    1  A    between atoms: N_2  and  C_24 
REMARK    2  A    between atoms: C_3  and  C_4 
REMARK    3  A    between atoms: C_7  and  N_8 
REMARK    4  A    between atoms: C_11  and  N_12 
REMARK       I    between atoms: N_12  and  C_13 
REMARK    5  A    between atoms: C_13  and  C_14 
REMARK    6  A    between atoms: C_24  and  C_25 
REMARK    7  A    between atoms: C_27  and  O_28 
ROOT
HETATM    1  C   UNL     1      -1.095   7.289 -31.664  1.00  0.00     0.032 A 
HETATM    2  C   UNL     1       0.151   6.874 -31.179  1.00  0.00     0.019 A 
HETATM    3  C   UNL     1       0.543   7.182 -29.877  1.00  0.00     0.032 A 
HETATM    4  C   UNL     1      -0.316   7.899 -29.030  1.00  0.00     0.058 A 
HETATM    5  C   UNL     1      -1.539   8.367 -29.530  1.00  0.00     0.032 A 
HETATM    6  C   UNL     1      -1.914   8.084 -30.855  1.00  0.00     0.019 A 
ENDROOT
BRANCH   4   7
HETATM    7  N   UNL     1       0.069   8.091 -27.672  1.00  0.00    -0.243 N 
HETATM    8  N   UNL     1      -0.673   8.878 -26.855  1.00  0.00    -0.178 NA
HETATM    9  C   UNL     1       0.035   8.966 -25.729  1.00  0.00     0.170 A 
HETATM   10  C   UNL     1       1.237   8.239 -25.793  1.00  0.00     0.071 A 
HETATM   11  C   UNL     1       1.204   7.631 -27.029  1.00  0.00     0.149 A 
BRANCH  10  12
HETATM   12  N   UNL     1       2.284   8.132 -24.893  1.00  0.00    -0.324 N 
HETATM   13  C   UNL     1       2.961   9.228 -24.382  1.00  0.00     0.228 C 
HETATM   14  O   UNL     1       2.667  10.401 -24.593  1.00  0.00    -0.273 OA
HETATM   15  H   UNL     1       2.616   7.200 -24.687  1.00  0.00     0.169 HD
BRANCH  13  16
HETATM   16  C   UNL     1       4.190   8.842 -23.582  1.00  0.00     0.104 C 
HETATM   17  C   UNL     1       5.044  10.039 -23.199  1.00  0.00     0.181 C 
HETATM   18  O   UNL     1       5.756   9.674 -22.006  1.00  0.00    -0.390 OA
HETATM   19  C   UNL     1       5.180   8.477 -21.477  1.00  0.00     0.168 C 
HETATM   20  C   UNL     1       3.888   8.240 -22.228  1.00  0.00     0.042 C 
ENDBRANCH  13  16
ENDBRANCH  10  12
ENDBRANCH   4   7
BRANCH   1  21
HETATM   21  C   UNL     1      -1.429   6.875 -33.050  1.00  0.00     0.253 C 
HETATM   22  N   UNL     1      -1.623   5.531 -33.375  1.00  0.00    -0.348 N 
HETATM   23  C   UNL     1      -1.655   5.166 -34.787  1.00  0.00     0.153 C 
HETATM   24  O   UNL     1      -1.422   7.764 -33.902  1.00  0.00    -0.267 OA
BRANCH  22  25
HETATM   25  C   UNL     1      -1.880   4.443 -32.429  1.00  0.00     0.164 C 
BRANCH  25  26
HETATM   26  C   UNL     1      -3.324   3.971 -32.397  1.00  0.00    -0.038 A 
HETATM   27  C   UNL     1      -3.686   2.610 -32.427  1.00  0.00     0.045 A 
HETATM   28  C   UNL     1      -5.024   2.213 -32.361  1.00  0.00     0.068 A 
HETATM   29  C   UNL     1      -6.020   3.187 -32.304  1.00  0.00     0.037 A 
HETATM   30  C   UNL     1      -5.686   4.540 -32.292  1.00  0.00     0.003 A 
HETATM   31  C   UNL     1      -4.346   4.930 -32.334  1.00  0.00     0.009 A 
BRANCH  28  32
HETATM   32  O   UNL     1      -5.474   0.922 -32.351  1.00  0.00    -0.356 OA
HETATM   33  C   UNL     1      -5.741   0.328 -33.618  1.00  0.00     0.210 C 
ENDBRANCH  28  32
ENDBRANCH  25  26
ENDBRANCH  22  25
ENDBRANCH   1  21
TORSDOF 7
ENDMDL
MODEL 5
REMARK VINA RESULT:      -7.9      5.598      9.849
REMARK  7 active torsions:
REMARK  status: ('A' for Active; 'I' for Inactive)
REMARK       I    between atoms: N_2  and  C_3 
REMARK    1  A    between atoms: N_2  and  C_24 
REMARK    2  A    between atoms: C_3  and  C_4 
REMARK    3  A    between atoms: C_7  and  N_8 
REMARK    4  A    between atoms: C_11  and  N_12 
REMARK       I    between atoms: N_12  and  C_13 
REMARK    5  A    between atoms: C_13  and  C_14 
REMARK    6  A    between atoms: C_24  and  C_25 
REMARK    7  A    between atoms: C_27  and  O_28 
ROOT
HETATM    1  C   UNL     1      -7.532   1.440 -31.774  1.00  0.00     0.032 A 
HETATM    2  C   UNL     1      -7.629   2.668 -32.440  1.00  0.00     0.019 A 
HETATM    3  C   UNL     1      -8.780   2.998 -33.154  1.00  0.00     0.032 A 
HETATM    4  C   UNL     1      -9.864   2.110 -33.198  1.00  0.00     0.058 A 
HETATM    5  C   UNL     1      -9.749   0.855 -32.582  1.00  0.00     0.032 A 
HETATM    6  C   UNL     1      -8.572   0.513 -31.894  1.00  0.00     0.019 A 
ENDROOT
BRANCH   4   7
HETATM    7  N   UNL     1     -11.066   2.531 -33.836  1.00  0.00    -0.243 N 
HETATM    8  N   UNL     1     -11.630   1.769 -34.805  1.00  0.00    -0.178 NA
HETATM    9  C   UNL     1     -12.628   2.511 -35.286  1.00  0.00     0.170 A 
HETATM   10  C   UNL     1     -12.731   3.756 -34.638  1.00  0.00     0.071 A 
HETATM   11  C   UNL     1     -11.758   3.717 -33.665  1.00  0.00     0.149 A 
BRANCH  10  12
HETATM   12  N   UNL     1     -13.558   4.840 -34.879  1.00  0.00    -0.324 N 
HETATM   13  C   UNL     1     -13.095   6.058 -35.354  1.00  0.00     0.228 C 
HETATM   14  O   UNL     1     -11.938   6.289 -35.692  1.00  0.00    -0.273 OA
HETATM   15  H   UNL     1     -14.525   4.749 -34.597  1.00  0.00     0.169 HD
BRANCH  13  16
HETATM   16  C   UNL     1     -14.157   7.139 -35.339  1.00  0.00     0.104 C 
HETATM   17  C   UNL     1     -13.571   8.540 -35.318  1.00  0.00     0.181 C 
HETATM   18  O   UNL     1     -14.551   9.408 -35.910  1.00  0.00    -0.390 OA
HETATM   19  C   UNL     1     -15.546   8.604 -36.551  1.00  0.00     0.168 C 
HETATM   20  C   UNL     1     -15.015   7.188 -36.583  1.00  0.00     0.042 C 
ENDBRANCH  13  16
ENDBRANCH  10  12
ENDBRANCH   4   7
BRANCH   1  21
HETATM   21  C   UNL     1      -6.279   1.205 -31.014  1.00  0.00     0.253 C 
HETATM   22  N   UNL     1      -5.154   0.649 -31.629  1.00  0.00    -0.348 N 
HETATM   23  C   UNL     1      -4.071   0.177 -30.774  1.00  0.00     0.153 C 
HETATM   24  O   UNL     1      -6.323   1.430 -29.804  1.00  0.00    -0.267 OA
BRANCH  22  25
HETATM   25  C   UNL     1      -4.915   0.561 -33.071  1.00  0.00     0.164 C 
BRANCH  25  26
HETATM   26  C   UNL     1      -5.184  -0.811 -33.665  1.00  0.00    -0.038 A 
HETATM   27  C   UNL     1      -4.210  -1.827 -33.719  1.00  0.00     0.045 A 
HETATM   28  C   UNL     1      -4.506  -3.089 -34.241  1.00  0.00     0.068 A 
HETATM   29  C   UNL     1      -5.778  -3.331 -34.755  1.00  0.00     0.037 A 
HETATM   30  C   UNL     1      -6.753  -2.334 -34.730  1.00  0.00     0.003 A 
HETATM   31  C   UNL     1      -6.460  -1.083 -34.185  1.00  0.00     0.009 A 
BRANCH  28  32
HETATM   32  O   UNL     1      -3.642  -4.147 -34.308  1.00  0.00    -0.356 OA
HETATM   33  C   UNL     1      -3.924  -5.257 -33.462  1.00  0.00     0.210 C 
ENDBRANCH  28  32
ENDBRANCH  25  26
ENDBRANCH  22  25
ENDBRANCH   1  21
TORSDOF 7
ENDMDL
MODEL 6
REMARK VINA RESULT:      -7.8      4.325     10.526
REMARK  7 active torsions:
REMARK  status: ('A' for Active; 'I' for Inactive)
REMARK       I    between atoms: N_2  and  C_3 
REMARK    1  A    between atoms: N_2  and  C_24 
REMARK    2  A    between atoms: C_3  and  C_4 
REMARK    3  A    between atoms: C_7  and  N_8 
REMARK    4  A    between atoms: C_11  and  N_12 
REMARK       I    between atoms: N_12  and  C_13 
REMARK    5  A    between atoms: C_13  and  C_14 
REMARK    6  A    between atoms: C_24  and  C_25 
REMARK    7  A    between atoms: C_27  and  O_28 
ROOT
HETATM    1  C   UNL     1      -6.070  -0.055 -33.170  1.00  0.00     0.032 A 
HETATM    2  C   UNL     1      -7.118  -0.356 -32.292  1.00  0.00     0.019 A 
HETATM    3  C   UNL     1      -8.332   0.326 -32.378  1.00  0.00     0.032 A 
HETATM    4  C   UNL     1      -8.522   1.309 -33.359  1.00  0.00     0.058 A 
HETATM    5  C   UNL     1      -7.455   1.655 -34.202  1.00  0.00     0.032 A 
HETATM    6  C   UNL     1      -6.223   0.989 -34.087  1.00  0.00     0.019 A 
ENDROOT
BRANCH   4   7
HETATM    7  N   UNL     1      -9.812   1.898 -33.493  1.00  0.00    -0.243 N 
HETATM    8  N   UNL     1     -10.067   2.767 -34.504  1.00  0.00    -0.178 NA
HETATM    9  C   UNL     1     -11.288   3.238 -34.250  1.00  0.00     0.170 A 
HETATM   10  C   UNL     1     -11.845   2.684 -33.083  1.00  0.00     0.071 A 
HETATM   11  C   UNL     1     -10.903   1.776 -32.652  1.00  0.00     0.149 A 
BRANCH  10  12
HETATM   12  N   UNL     1     -13.033   2.955 -32.426  1.00  0.00    -0.324 N 
HETATM   13  C   UNL     1     -14.192   2.218 -32.618  1.00  0.00     0.228 C 
HETATM   14  O   UNL     1     -14.280   1.210 -33.312  1.00  0.00    -0.273 OA
HETATM   15  H   UNL     1     -13.062   3.790 -31.857  1.00  0.00     0.169 HD
BRANCH  13  16
HETATM   16  C   UNL     1     -15.401   2.835 -31.944  1.00  0.00     0.104 C 
HETATM   17  C   UNL     1     -15.482   4.340 -32.142  1.00  0.00     0.181 C 
HETATM   18  O   UNL     1     -16.870   4.697 -32.036  1.00  0.00    -0.390 OA
HETATM   19  C   UNL     1     -17.655   3.502 -32.088  1.00  0.00     0.168 C 
HETATM   20  C   UNL     1     -16.729   2.384 -32.511  1.00  0.00     0.042 C 
ENDBRANCH  13  16
ENDBRANCH  10  12
ENDBRANCH   4   7
BRANCH   1  21
HETATM   21  C   UNL     1      -4.835  -0.866 -33.016  1.00  0.00     0.253 C 
HETATM   22  N   UNL     1      -3.906  -0.582 -32.013  1.00  0.00    -0.348 N 
HETATM   23  C   UNL     1      -2.594  -1.215 -32.097  1.00  0.00     0.153 C 
HETATM   24  O   UNL     1      -4.634  -1.724 -33.875  1.00  0.00    -0.267 OA
BRANCH  22  25
HETATM   25  C   UNL     1      -4.143   0.240 -30.824  1.00  0.00     0.164 C 
BRANCH  25  26
HETATM   26  C   UNL     1      -4.190   1.734 -31.097  1.00  0.00    -0.038 A 
HETATM   27  C   UNL     1      -3.231   2.399 -31.885  1.00  0.00     0.045 A 
HETATM   28  C   UNL     1      -3.327   3.769 -32.144  1.00  0.00     0.068 A 
HETATM   29  C   UNL     1      -4.373   4.495 -31.577  1.00  0.00     0.037 A 
HETATM   30  C   UNL     1      -5.324   3.861 -30.779  1.00  0.00     0.003 A 
HETATM   31  C   UNL     1      -5.236   2.489 -30.544  1.00  0.00     0.009 A 
BRANCH  28  32
HETATM   32  O   UNL     1      -2.468   4.497 -32.919  1.00  0.00    -0.356 OA
HETATM   33  C   UNL     1      -1.295   4.992 -32.282  1.00  0.00     0.210 C 
ENDBRANCH  28  32
ENDBRANCH  25  26
ENDBRANCH  22  25
ENDBRANCH   1  21
TORSDOF 7
ENDMDL
MODEL 7
REMARK VINA RESULT:      -7.6      5.022     10.734
REMARK  7 active torsions:
REMARK  status: ('A' for Active; 'I' for Inactive)
REMARK       I    between atoms: N_2  and  C_3 
REMARK    1  A    between atoms: N_2  and  C_24 
REMARK    2  A    between atoms: C_3  and  C_4 
REMARK    3  A    between atoms: C_7  and  N_8 
REMARK    4  A    between atoms: C_11  and  N_12 
REMARK       I    between atoms: N_12  and  C_13 
REMARK    5  A    between atoms: C_13  and  C_14 
REMARK    6  A    between atoms: C_24  and  C_25 
REMARK    7  A    between atoms: C_27  and  O_28 
ROOT
HETATM    1  C   UNL     1      -7.277  -0.530 -33.838  1.00  0.00     0.032 A 
HETATM    2  C   UNL     1      -7.258   0.609 -34.653  1.00  0.00     0.019 A 
HETATM    3  C   UNL     1      -8.331   1.499 -34.652  1.00  0.00     0.032 A 
HETATM    4  C   UNL     1      -9.437   1.272 -33.820  1.00  0.00     0.058 A 
HETATM    5  C   UNL     1      -9.486   0.103 -33.046  1.00  0.00     0.032 A 
HETATM    6  C   UNL     1      -8.417  -0.809 -33.078  1.00  0.00     0.019 A 
ENDROOT
BRANCH   4   7
HETATM    7  N   UNL     1     -10.459   2.263 -33.758  1.00  0.00    -0.243 N 
HETATM    8  N   UNL     1     -10.156   3.537 -33.407  1.00  0.00    -0.178 NA
HETATM    9  C   UNL     1     -11.334   4.151 -33.298  1.00  0.00     0.170 A 
HETATM   10  C   UNL     1     -12.414   3.293 -33.578  1.00  0.00     0.071 A 
HETATM   11  C   UNL     1     -11.821   2.103 -33.936  1.00  0.00     0.149 A 
BRANCH  10  12
HETATM   12  N   UNL     1     -13.781   3.498 -33.502  1.00  0.00    -0.324 N 
HETATM   13  C   UNL     1     -14.480   3.524 -32.305  1.00  0.00     0.228 C 
HETATM   14  O   UNL     1     -13.972   3.456 -31.190  1.00  0.00    -0.273 OA
HETATM   15  H   UNL     1     -14.287   3.532 -34.376  1.00  0.00     0.169 HD
BRANCH  13  16
HETATM   16  C   UNL     1     -15.982   3.558 -32.500  1.00  0.00     0.104 C 
HETATM   17  C   UNL     1     -16.659   2.260 -32.094  1.00  0.00     0.181 C 
HETATM   18  O   UNL     1     -18.009   2.592 -31.732  1.00  0.00    -0.390 OA
HETATM   19  C   UNL     1     -18.111   4.013 -31.604  1.00  0.00     0.168 C 
HETATM   20  C   UNL     1     -16.701   4.561 -31.626  1.00  0.00     0.042 C 
ENDBRANCH  13  16
ENDBRANCH  10  12
ENDBRANCH   4   7
BRANCH   1  21
HETATM   21  C   UNL     1      -6.067  -1.390 -33.888  1.00  0.00     0.253 C 
HETATM   22  N   UNL     1      -5.048  -1.257 -32.942  1.00  0.00    -0.348 N 
HETATM   23  C   UNL     1      -3.774  -1.915 -33.213  1.00  0.00     0.153 C 
HETATM   24  O   UNL     1      -5.972  -2.144 -34.856  1.00  0.00    -0.267 OA
BRANCH  22  25
HETATM   25  C   UNL     1      -5.154  -0.578 -31.649  1.00  0.00     0.164 C 
BRANCH  25  26
HETATM   26  C   UNL     1      -4.992   0.931 -31.721  1.00  0.00    -0.038 A 
HETATM   27  C   UNL     1      -5.955   1.830 -31.223  1.00  0.00     0.045 A 
HETATM   28  C   UNL     1      -5.755   3.211 -31.276  1.00  0.00     0.068 A 
HETATM   29  C   UNL     1      -4.596   3.708 -31.870  1.00  0.00     0.037 A 
HETATM   30  C   UNL     1      -3.637   2.838 -32.386  1.00  0.00     0.003 A 
HETATM   31  C   UNL     1      -3.831   1.458 -32.309  1.00  0.00     0.009 A 
BRANCH  28  32
HETATM   32  O   UNL     1      -6.612   4.161 -30.793  1.00  0.00    -0.356 OA
HETATM   33  C   UNL     1      -7.134   5.092 -31.736  1.00  0.00     0.210 C 
ENDBRANCH  28  32
ENDBRANCH  25  26
ENDBRANCH  22  25
ENDBRANCH   1  21
TORSDOF 7
ENDMDL
MODEL 8
REMARK VINA RESULT:      -7.4      2.934      5.252
REMARK  7 active torsions:
REMARK  status: ('A' for Active; 'I' for Inactive)
REMARK       I    between atoms: N_2  and  C_3 
REMARK    1  A    between atoms: N_2  and  C_24 
REMARK    2  A    between atoms: C_3  and  C_4 
REMARK    3  A    between atoms: C_7  and  N_8 
REMARK    4  A    between atoms: C_11  and  N_12 
REMARK       I    between atoms: N_12  and  C_13 
REMARK    5  A    between atoms: C_13  and  C_14 
REMARK    6  A    between atoms: C_24  and  C_25 
REMARK    7  A    between atoms: C_27  and  O_28 
ROOT
HETATM    1  C   UNL     1      -6.734   1.819 -33.015  1.00  0.00     0.032 A 
HETATM    2  C   UNL     1      -6.386   2.847 -33.899  1.00  0.00     0.019 A 
HETATM    3  C   UNL     1      -5.300   3.680 -33.626  1.00  0.00     0.032 A 
HETATM    4  C   UNL     1      -4.533   3.483 -32.469  1.00  0.00     0.058 A 
HETATM    5  C   UNL     1      -4.914   2.493 -31.552  1.00  0.00     0.032 A 
HETATM    6  C   UNL     1      -6.030   1.681 -31.815  1.00  0.00     0.019 A 
ENDROOT
BRANCH   4   7
HETATM    7  N   UNL     1      -3.363   4.274 -32.284  1.00  0.00    -0.243 N 
HETATM    8  N   UNL     1      -2.418   4.336 -33.256  1.00  0.00    -0.178 NA
HETATM    9  C   UNL     1      -1.411   5.018 -32.710  1.00  0.00     0.170 A 
HETATM   10  C   UNL     1      -1.684   5.412 -31.387  1.00  0.00     0.071 A 
HETATM   11  C   UNL     1      -2.972   4.979 -31.160  1.00  0.00     0.149 A 
BRANCH  10  12
HETATM   12  N   UNL     1      -0.894   6.052 -30.447  1.00  0.00    -0.324 N 
HETATM   13  C   UNL     1       0.136   5.422 -29.765  1.00  0.00     0.228 C 
HETATM   14  O   UNL     1       0.517   4.273 -29.968  1.00  0.00    -0.273 OA
HETATM   15  H   UNL     1      -1.158   6.994 -30.192  1.00  0.00     0.169 HD
BRANCH  13  16
HETATM   16  C   UNL     1       0.712   6.273 -28.650  1.00  0.00     0.104 C 
HETATM   17  C   UNL     1       0.604   7.762 -28.931  1.00  0.00     0.181 C 
HETATM   18  O   UNL     1       0.580   8.423 -27.655  1.00  0.00    -0.390 OA
HETATM   19  C   UNL     1       0.366   7.441 -26.636  1.00  0.00     0.168 C 
HETATM   20  C   UNL     1      -0.025   6.158 -27.335  1.00  0.00     0.042 C 
ENDBRANCH  13  16
ENDBRANCH  10  12
ENDBRANCH   4   7
BRANCH   1  21
HETATM   21  C   UNL     1      -7.883   0.970 -33.420  1.00  0.00     0.253 C 
HETATM   22  N   UNL     1      -9.160   1.185 -32.897  1.00  0.00    -0.348 N 
HETATM   23  C   UNL     1     -10.166   0.150 -33.103  1.00  0.00     0.153 C 
HETATM   24  O   UNL     1      -7.624   0.015 -34.154  1.00  0.00    -0.267 OA
BRANCH  22  25
HETATM   25  C   UNL     1      -9.621   2.398 -32.219  1.00  0.00     0.164 C 
BRANCH  25  26
HETATM   26  C   UNL     1     -10.360   3.374 -33.120  1.00  0.00    -0.038 A 
HETATM   27  C   UNL     1      -9.702   4.245 -34.010  1.00  0.00     0.045 A 
HETATM   28  C   UNL     1     -10.418   5.103 -34.848  1.00  0.00     0.068 A 
HETATM   29  C   UNL     1     -11.809   5.124 -34.772  1.00  0.00     0.037 A 
HETATM   30  C   UNL     1     -12.482   4.284 -33.885  1.00  0.00     0.003 A 
HETATM   31  C   UNL     1     -11.763   3.411 -33.067  1.00  0.00     0.009 A 
BRANCH  28  32
HETATM   32  O   UNL     1      -9.874   5.960 -35.765  1.00  0.00    -0.356 OA
HETATM   33  C   UNL     1     -10.529   7.211 -35.938  1.00  0.00     0.210 C 
ENDBRANCH  28  32
ENDBRANCH  25  26
ENDBRANCH  22  25
ENDBRANCH   1  21
TORSDOF 7
ENDMDL
MODEL 9
REMARK VINA RESULT:      -7.3      2.925      4.485
REMARK  7 active torsions:
REMARK  status: ('A' for Active; 'I' for Inactive)
REMARK       I    between atoms: N_2  and  C_3 
REMARK    1  A    between atoms: N_2  and  C_24 
REMARK    2  A    between atoms: C_3  and  C_4 
REMARK    3  A    between atoms: C_7  and  N_8 
REMARK    4  A    between atoms: C_11  and  N_12 
REMARK       I    between atoms: N_12  and  C_13 
REMARK    5  A    between atoms: C_13  and  C_14 
REMARK    6  A    between atoms: C_24  and  C_25 
REMARK    7  A    between atoms: C_27  and  O_28 
ROOT
HETATM    1  C   UNL     1     -10.187   3.525 -32.673  1.00  0.00     0.032 A 
HETATM    2  C   UNL     1      -9.067   4.049 -33.329  1.00  0.00     0.019 A 
HETATM    3  C   UNL     1      -7.961   4.490 -32.603  1.00  0.00     0.032 A 
HETATM    4  C   UNL     1      -7.952   4.397 -31.204  1.00  0.00     0.058 A 
HETATM    5  C   UNL     1      -9.094   3.928 -30.539  1.00  0.00     0.032 A 
HETATM    6  C   UNL     1     -10.219   3.519 -31.275  1.00  0.00     0.019 A 
ENDROOT
BRANCH   4   7
HETATM    7  N   UNL     1      -6.760   4.745 -30.505  1.00  0.00    -0.243 N 
HETATM    8  N   UNL     1      -6.793   4.974 -29.168  1.00  0.00    -0.178 NA
HETATM    9  C   UNL     1      -5.572   5.419 -28.868  1.00  0.00     0.170 A 
HETATM   10  C   UNL     1      -4.732   5.482 -29.995  1.00  0.00     0.071 A 
HETATM   11  C   UNL     1      -5.499   4.980 -31.023  1.00  0.00     0.149 A 
BRANCH  10  12
HETATM   12  N   UNL     1      -3.439   5.956 -30.139  1.00  0.00    -0.324 N 
HETATM   13  C   UNL     1      -3.125   7.306 -30.175  1.00  0.00     0.228 C 
HETATM   14  O   UNL     1      -3.924   8.221 -30.002  1.00  0.00    -0.273 OA
HETATM   15  H   UNL     1      -2.719   5.271 -30.322  1.00  0.00     0.169 HD
BRANCH  13  16
HETATM   16  C   UNL     1      -1.678   7.565 -30.545  1.00  0.00     0.104 C 
HETATM   17  C   UNL     1      -0.775   7.702 -29.331  1.00  0.00     0.181 C 
HETATM   18  O   UNL     1       0.546   7.326 -29.753  1.00  0.00    -0.390 OA
HETATM   19  C   UNL     1       0.454   6.694 -31.033  1.00  0.00     0.168 C 
HETATM   20  C   UNL     1      -1.013   6.430 -31.291  1.00  0.00     0.042 C 
ENDBRANCH  13  16
ENDBRANCH  10  12
ENDBRANCH   4   7
BRANCH   1  21
HETATM   21  C   UNL     1     -11.293   3.050 -33.543  1.00  0.00     0.253 C 
HETATM   22  N   UNL     1     -11.398   1.706 -33.906  1.00  0.00    -0.348 N 
HETATM   23  C   UNL     1     -12.318   1.360 -34.984  1.00  0.00     0.153 C 
HETATM   24  O   UNL     1     -12.039   3.917 -33.999  1.00  0.00    -0.267 OA
BRANCH  22  25
HETATM   25  C   UNL     1     -10.726   0.580 -33.254  1.00  0.00     0.164 C 
BRANCH  25  26
HETATM   26  C   UNL     1      -9.222   0.545 -33.464  1.00  0.00    -0.038 A 
HETATM   27  C   UNL     1      -8.301   0.462 -32.401  1.00  0.00     0.045 A 
HETATM   28  C   UNL     1      -6.926   0.396 -32.636  1.00  0.00     0.068 A 
HETATM   29  C   UNL     1      -6.456   0.454 -33.947  1.00  0.00     0.037 A 
HETATM   30  C   UNL     1      -7.347   0.556 -35.014  1.00  0.00     0.003 A 
HETATM   31  C   UNL     1      -8.722   0.597 -34.775  1.00  0.00     0.009 A 
BRANCH  28  32
HETATM   32  O   UNL     1      -5.957   0.282 -31.677  1.00  0.00    -0.356 OA
HETATM   33  C   UNL     1      -6.048   1.169 -30.567  1.00  0.00     0.210 C 
ENDBRANCH  28  32
ENDBRANCH  25  26
ENDBRANCH  22  25
ENDBRANCH   1  21
TORSDOF 7
ENDMDL
MODEL 10
REMARK VINA RESULT:      -7.3      4.819      8.713
REMARK  7 active torsions:
REMARK  status: ('A' for Active; 'I' for Inactive)
REMARK       I    between atoms: N_2  and  C_3 
REMARK    1  A    between atoms: N_2  and  C_24 
REMARK    2  A    between atoms: C_3  and  C_4 
REMARK    3  A    between atoms: C_7  and  N_8 
REMARK    4  A    between atoms: C_11  and  N_12 
REMARK       I    between atoms: N_12  and  C_13 
REMARK    5  A    between atoms: C_13  and  C_14 
REMARK    6  A    between atoms: C_24  and  C_25 
REMARK    7  A    between atoms: C_27  and  O_28 
ROOT
HETATM    1  C   UNL     1      -2.397   8.757 -27.696  1.00  0.00     0.032 A 
HETATM    2  C   UNL     1      -1.971  10.055 -27.388  1.00  0.00     0.019 A 
HETATM    3  C   UNL     1      -0.882  10.261 -26.542  1.00  0.00     0.032 A 
HETATM    4  C   UNL     1      -0.188   9.167 -26.003  1.00  0.00     0.058 A 
HETATM    5  C   UNL     1      -0.648   7.868 -26.261  1.00  0.00     0.032 A 
HETATM    6  C   UNL     1      -1.768   7.667 -27.086  1.00  0.00     0.019 A 
ENDROOT
BRANCH   4   7
HETATM    7  N   UNL     1       0.990   9.415 -25.241  1.00  0.00    -0.243 N 
HETATM    8  N   UNL     1       1.344  10.685 -24.921  1.00  0.00    -0.178 NA
HETATM    9  C   UNL     1       2.546  10.572 -24.356  1.00  0.00     0.170 A 
HETATM   10  C   UNL     1       2.987   9.238 -24.295  1.00  0.00     0.071 A 
HETATM   11  C   UNL     1       1.939   8.507 -24.810  1.00  0.00     0.149 A 
BRANCH  10  12
HETATM   12  N   UNL     1       4.189   8.696 -23.870  1.00  0.00    -0.324 N 
HETATM   13  C   UNL     1       4.405   8.251 -22.575  1.00  0.00     0.228 C 
HETATM   14  O   UNL     1       3.554   8.205 -21.693  1.00  0.00    -0.273 OA
HETATM   15  H   UNL     1       4.959   8.725 -24.524  1.00  0.00     0.169 HD
BRANCH  13  16
HETATM   16  C   UNL     1       5.855   7.895 -22.309  1.00  0.00     0.104 C 
HETATM   17  C   UNL     1       6.156   6.427 -22.562  1.00  0.00     0.181 C 
HETATM   18  O   UNL     1       7.554   6.341 -22.884  1.00  0.00    -0.390 OA
HETATM   19  C   UNL     1       8.047   7.660 -23.136  1.00  0.00     0.168 C 
HETATM   20  C   UNL     1       6.842   8.570 -23.234  1.00  0.00     0.042 C 
ENDBRANCH  13  16
ENDBRANCH  10  12
ENDBRANCH   4   7
BRANCH   1  21
HETATM   21  C   UNL     1      -3.542   8.650 -28.636  1.00  0.00     0.253 C 
HETATM   22  N   UNL     1      -3.369   8.846 -30.008  1.00  0.00    -0.348 N 
HETATM   23  C   UNL     1      -4.563   9.017 -30.829  1.00  0.00     0.153 C 
HETATM   24  O   UNL     1      -4.651   8.483 -28.129  1.00  0.00    -0.267 OA
BRANCH  22  25
HETATM   25  C   UNL     1      -2.096   8.819 -30.731  1.00  0.00     0.164 C 
BRANCH  25  26
HETATM   26  C   UNL     1      -1.409   7.463 -30.734  1.00  0.00    -0.038 A 
HETATM   27  C   UNL     1      -2.053   6.278 -31.143  1.00  0.00     0.045 A 
HETATM   28  C   UNL     1      -1.378   5.056 -31.165  1.00  0.00     0.068 A 
HETATM   29  C   UNL     1      -0.053   5.003 -30.737  1.00  0.00     0.037 A 
HETATM   30  C   UNL     1       0.599   6.159 -30.310  1.00  0.00     0.003 A 
HETATM   31  C   UNL     1      -0.073   7.382 -30.313  1.00  0.00     0.009 A 
BRANCH  28  32
HETATM   32  O   UNL     1      -1.904   3.861 -31.574  1.00  0.00    -0.356 OA
HETATM   33  C   UNL     1      -2.857   3.911 -32.631  1.00  0.00     0.210 C 
ENDBRANCH  28  32
ENDBRANCH  25  26
ENDBRANCH  22  25
ENDBRANCH   1  21
TORSDOF 7
ENDMDL
