MODEL 1
REMARK VINA RESULT:      -9.0      0.000      0.000
REMARK  7 active torsions:
REMARK  status: ('A' for Active; 'I' for Inactive)
REMARK    1  A    between atoms: C_2  and  O_3 
REMARK    2  A    between atoms: O_3  and  C_4 
REMARK       I    between atoms: C_4  and  N_5 
REMARK       I    between atoms: N_8  and  C_9 
REMARK    3  A    between atoms: C_9  and  C_10 
REMARK    4  A    between atoms: C_11  and  N_12 
REMARK       I    between atoms: N_12  and  C_13 
REMARK    5  A    between atoms: C_13  and  C_14 
REMARK    6  A    between atoms: N_16  and  C_17 
REMARK    7  A    between atoms: C_18  and  O_19 
ROOT
HETATM    1  C   UNL     1      -8.644   5.031 -31.948  1.00  0.00     0.059 A 
HETATM    2  C   UNL     1      -9.666   4.119 -32.298  1.00  0.00     0.050 A 
HETATM    3  C   UNL     1     -10.650   4.550 -33.192  1.00  0.00     0.030 A 
HETATM    4  C   UNL     1     -10.626   5.848 -33.718  1.00  0.00     0.002 A 
HETATM    5  C   UNL     1      -9.635   6.748 -33.337  1.00  0.00     0.001 A 
HETATM    6  C   UNL     1      -8.651   6.345 -32.440  1.00  0.00     0.019 A 
ENDROOT
BRANCH   2   7
HETATM    7  N   UNL     1      -9.707   2.863 -31.656  1.00  0.00    -0.326 N 
HETATM    8  C   UNL     1      -9.137   1.648 -31.894  1.00  0.00     0.228 C 
HETATM    9  O   UNL     1      -9.585   0.674 -31.282  1.00  0.00    -0.273 OA
HETATM   10  H   UNL     1     -10.353   2.819 -30.862  1.00  0.00     0.169 HD
BRANCH   8  11
HETATM   11  C   UNL     1      -7.934   1.503 -32.798  1.00  0.00     0.105 C 
HETATM   12  C   UNL     1      -7.265   0.153 -32.548  1.00  0.00     0.147 C 
HETATM   13  N   UNL     1      -6.709  -0.223 -33.825  1.00  0.00    -0.315 N 
HETATM   14  C   UNL     1      -7.273   0.517 -34.866  1.00  0.00     0.225 C 
HETATM   15  O   UNL     1      -6.983   0.527 -36.053  1.00  0.00    -0.273 OA
HETATM   16  C   UNL     1      -8.319   1.427 -34.270  1.00  0.00     0.119 C 
BRANCH  13  17
HETATM   17  C   UNL     1      -5.919  -1.397 -33.971  1.00  0.00     0.071 A 
HETATM   18  C   UNL     1      -4.602  -1.497 -33.475  1.00  0.00     0.095 A 
HETATM   19  C   UNL     1      -3.892  -2.696 -33.624  1.00  0.00     0.039 A 
HETATM   20  C   UNL     1      -4.466  -3.788 -34.277  1.00  0.00     0.009 A 
HETATM   21  C   UNL     1      -5.747  -3.691 -34.819  1.00  0.00    -0.060 A 
HETATM   22  C   UNL     1      -6.372  -4.852 -35.533  1.00  0.00     0.048 C 
HETATM   23  C   UNL     1      -6.464  -2.497 -34.657  1.00  0.00     0.039 A 
BRANCH  18  24
HETATM   24  O   UNL     1      -4.005  -0.350 -33.015  1.00  0.00    -0.354 OA
HETATM   25  C   UNL     1      -3.433  -0.410 -31.714  1.00  0.00     0.210 C 
ENDBRANCH  18  24
ENDBRANCH  13  17
ENDBRANCH   8  11
ENDBRANCH   2   7
BRANCH   1  26
HETATM   26  C   UNL     1      -7.564   4.622 -31.014  1.00  0.00     0.256 C 
HETATM   27  N   UNL     1      -6.288   4.357 -31.507  1.00  0.00    -0.345 N 
HETATM   28  C   UNL     1      -5.965   4.008 -32.896  1.00  0.00     0.146 C 
HETATM   29  C   UNL     1      -5.236   3.995 -30.555  1.00  0.00     0.146 C 
HETATM   30  C   UNL     1      -4.641   4.647 -33.328  1.00  0.00     0.148 C 
HETATM   31  N   UNL     1      -3.559   4.394 -32.376  1.00  0.00    -0.325 N 
HETATM   32  C   UNL     1      -2.258   4.506 -32.841  1.00  0.00     0.362 C 
HETATM   33  C   UNL     1      -3.880   4.592 -30.956  1.00  0.00     0.148 C 
HETATM   34  O   UNL     1      -1.968   4.631 -34.025  1.00  0.00    -0.238 OA
HETATM   35  O   UNL     1      -7.854   4.530 -29.823  1.00  0.00    -0.267 OA
BRANCH  32  36
HETATM   36  O   UNL     1      -1.343   4.468 -31.836  1.00  0.00    -0.304 OA
BRANCH  36  37
HETATM   37  C   UNL     1      -0.392   5.541 -31.801  1.00  0.00     0.176 C 
HETATM   38  C   UNL     1       0.688   5.236 -30.780  1.00  0.00     0.034 C 
ENDBRANCH  36  37
ENDBRANCH  32  36
ENDBRANCH   1  26
TORSDOF 7
ENDMDL
MODEL 2
REMARK VINA RESULT:      -8.9      3.002      4.886
REMARK  7 active torsions:
REMARK  status: ('A' for Active; 'I' for Inactive)
REMARK    1  A    between atoms: C_2  and  O_3 
REMARK    2  A    between atoms: O_3  and  C_4 
REMARK       I    between atoms: C_4  and  N_5 
REMARK       I    between atoms: N_8  and  C_9 
REMARK    3  A    between atoms: C_9  and  C_10 
REMARK    4  A    between atoms: C_11  and  N_12 
REMARK       I    between atoms: N_12  and  C_13 
REMARK    5  A    between atoms: C_13  and  C_14 
REMARK    6  A    between atoms: N_16  and  C_17 
REMARK    7  A    between atoms: C_18  and  O_19 
ROOT
HETATM    1  C   UNL     1     -13.102   3.151 -33.345  1.00  0.00     0.059 A 
HETATM    2  C   UNL     1     -12.157   2.320 -33.990  1.00  0.00     0.050 A 
HETATM    3  C   UNL     1     -12.489   0.976 -34.181  1.00  0.00     0.030 A 
HETATM    4  C   UNL     1     -13.717   0.469 -33.739  1.00  0.00     0.002 A 
HETATM    5  C   UNL     1     -14.624   1.288 -33.073  1.00  0.00     0.001 A 
HETATM    6  C   UNL     1     -14.311   2.627 -32.862  1.00  0.00     0.019 A 
ENDROOT
BRANCH   2   7
HETATM    7  N   UNL     1     -10.892   2.855 -34.316  1.00  0.00    -0.326 N 
HETATM    8  C   UNL     1      -9.614   2.601 -33.915  1.00  0.00     0.228 C 
HETATM    9  O   UNL     1      -8.747   3.430 -34.202  1.00  0.00    -0.273 OA
HETATM   10  H   UNL     1     -10.927   3.657 -34.952  1.00  0.00     0.169 HD
BRANCH   8  11
HETATM   11  C   UNL     1      -9.244   1.306 -33.228  1.00  0.00     0.105 C 
HETATM   12  C   UNL     1      -8.295   0.507 -34.118  1.00  0.00     0.147 C 
HETATM   13  N   UNL     1      -7.449  -0.215 -33.198  1.00  0.00    -0.315 N 
HETATM   14  C   UNL     1      -7.511   0.329 -31.914  1.00  0.00     0.225 C 
HETATM   15  O   UNL     1      -7.002  -0.073 -30.878  1.00  0.00    -0.273 OA
HETATM   16  C   UNL     1      -8.423   1.531 -31.965  1.00  0.00     0.119 C 
BRANCH  13  17
HETATM   17  C   UNL     1      -6.483  -1.151 -33.660  1.00  0.00     0.071 A 
HETATM   18  C   UNL     1      -5.094  -0.927 -33.560  1.00  0.00     0.095 A 
HETATM   19  C   UNL     1      -4.197  -1.908 -34.005  1.00  0.00     0.039 A 
HETATM   20  C   UNL     1      -4.663  -3.098 -34.567  1.00  0.00     0.009 A 
HETATM   21  C   UNL     1      -6.032  -3.314 -34.721  1.00  0.00    -0.060 A 
HETATM   22  C   UNL     1      -6.547  -4.583 -35.334  1.00  0.00     0.048 C 
HETATM   23  C   UNL     1      -6.931  -2.340 -34.262  1.00  0.00     0.039 A 
BRANCH  18  24
HETATM   24  O   UNL     1      -4.676   0.325 -33.183  1.00  0.00    -0.354 OA
HETATM   25  C   UNL     1      -3.668   0.383 -32.182  1.00  0.00     0.210 C 
ENDBRANCH  18  24
ENDBRANCH  13  17
ENDBRANCH   8  11
ENDBRANCH   2   7
BRANCH   1  26
HETATM   26  C   UNL     1     -12.809   4.591 -33.130  1.00  0.00     0.256 C 
HETATM   27  N   UNL     1     -11.952   4.976 -32.102  1.00  0.00    -0.345 N 
HETATM   28  C   UNL     1     -11.628   4.175 -30.914  1.00  0.00     0.146 C 
HETATM   29  C   UNL     1     -11.653   6.402 -31.942  1.00  0.00     0.146 C 
HETATM   30  C   UNL     1     -10.158   4.349 -30.521  1.00  0.00     0.148 C 
HETATM   31  N   UNL     1      -9.766   5.755 -30.423  1.00  0.00    -0.325 N 
HETATM   32  C   UNL     1      -8.650   6.058 -29.658  1.00  0.00     0.362 C 
HETATM   33  C   UNL     1     -10.194   6.630 -31.523  1.00  0.00     0.148 C 
HETATM   34  O   UNL     1      -8.086   5.249 -28.930  1.00  0.00    -0.238 OA
HETATM   35  O   UNL     1     -13.353   5.394 -33.886  1.00  0.00    -0.267 OA
BRANCH  32  36
HETATM   36  O   UNL     1      -8.249   7.348 -29.813  1.00  0.00    -0.304 OA
BRANCH  36  37
HETATM   37  C   UNL     1      -6.844   7.558 -30.007  1.00  0.00     0.176 C 
HETATM   38  C   UNL     1      -6.465   7.206 -31.434  1.00  0.00     0.034 C 
ENDBRANCH  36  37
ENDBRANCH  32  36
ENDBRANCH   1  26
TORSDOF 7
ENDMDL
MODEL 3
REMARK VINA RESULT:      -8.8      1.657      2.361
REMARK  7 active torsions:
REMARK  status: ('A' for Active; 'I' for Inactive)
REMARK    1  A    between atoms: C_2  and  O_3 
REMARK    2  A    between atoms: O_3  and  C_4 
REMARK       I    between atoms: C_4  and  N_5 
REMARK       I    between atoms: N_8  and  C_9 
REMARK    3  A    between atoms: C_9  and  C_10 
REMARK    4  A    between atoms: C_11  and  N_12 
REMARK       I    between atoms: N_12  and  C_13 
REMARK    5  A    between atoms: C_13  and  C_14 
REMARK    6  A    between atoms: N_16  and  C_17 
REMARK    7  A    between atoms: C_18  and  O_19 
ROOT
HETATM    1  C   UNL     1      -8.501   6.073 -31.669  1.00  0.00     0.059 A 
HETATM    2  C   UNL     1      -8.720   5.046 -32.616  1.00  0.00     0.050 A 
HETATM    3  C   UNL     1      -9.884   4.281 -32.496  1.00  0.00     0.030 A 
HETATM    4  C   UNL     1     -10.800   4.523 -31.464  1.00  0.00     0.002 A 
HETATM    5  C   UNL     1     -10.556   5.513 -30.517  1.00  0.00     0.001 A 
HETATM    6  C   UNL     1      -9.398   6.279 -30.609  1.00  0.00     0.019 A 
ENDROOT
BRANCH   2   7
HETATM    7  N   UNL     1      -7.714   4.772 -33.567  1.00  0.00    -0.326 N 
HETATM    8  C   UNL     1      -6.973   3.675 -33.887  1.00  0.00     0.228 C 
HETATM    9  O   UNL     1      -5.983   3.839 -34.605  1.00  0.00    -0.273 OA
HETATM   10  H   UNL     1      -7.419   5.589 -34.111  1.00  0.00     0.169 HD
BRANCH   8  11
HETATM   11  C   UNL     1      -7.394   2.286 -33.463  1.00  0.00     0.105 C 
HETATM   12  C   UNL     1      -6.544   1.248 -34.192  1.00  0.00     0.147 C 
HETATM   13  N   UNL     1      -6.438   0.145 -33.267  1.00  0.00    -0.315 N 
HETATM   14  C   UNL     1      -6.778   0.532 -31.970  1.00  0.00     0.225 C 
HETATM   15  O   UNL     1      -6.885  -0.151 -30.962  1.00  0.00    -0.273 OA
HETATM   16  C   UNL     1      -7.091   2.008 -31.996  1.00  0.00     0.119 C 
BRANCH  13  17
HETATM   17  C   UNL     1      -5.787  -1.066 -33.631  1.00  0.00     0.071 A 
HETATM   18  C   UNL     1      -4.419  -1.301 -33.381  1.00  0.00     0.095 A 
HETATM   19  C   UNL     1      -3.848  -2.532 -33.736  1.00  0.00     0.039 A 
HETATM   20  C   UNL     1      -4.614  -3.521 -34.355  1.00  0.00     0.009 A 
HETATM   21  C   UNL     1      -5.955  -3.286 -34.657  1.00  0.00    -0.060 A 
HETATM   22  C   UNL     1      -6.788  -4.335 -35.333  1.00  0.00     0.048 C 
HETATM   23  C   UNL     1      -6.531  -2.062 -34.288  1.00  0.00     0.039 A 
BRANCH  18  24
HETATM   24  O   UNL     1      -3.658  -0.243 -32.950  1.00  0.00    -0.354 OA
HETATM   25  C   UNL     1      -3.156  -0.321 -31.622  1.00  0.00     0.210 C 
ENDBRANCH  18  24
ENDBRANCH  13  17
ENDBRANCH   8  11
ENDBRANCH   2   7
BRANCH   1  26
HETATM   26  C   UNL     1      -7.289   6.927 -31.758  1.00  0.00     0.256 C 
HETATM   27  N   UNL     1      -6.040   6.388 -31.460  1.00  0.00    -0.345 N 
HETATM   28  C   UNL     1      -5.799   5.189 -30.646  1.00  0.00     0.146 C 
HETATM   29  C   UNL     1      -4.861   7.246 -31.596  1.00  0.00     0.146 C 
HETATM   30  C   UNL     1      -4.632   4.372 -31.207  1.00  0.00     0.148 C 
HETATM   31  N   UNL     1      -3.441   5.186 -31.447  1.00  0.00    -0.325 N 
HETATM   32  C   UNL     1      -2.219   4.531 -31.508  1.00  0.00     0.362 C 
HETATM   33  C   UNL     1      -3.653   6.467 -32.133  1.00  0.00     0.148 C 
HETATM   34  O   UNL     1      -2.064   3.355 -31.205  1.00  0.00    -0.238 OA
HETATM   35  O   UNL     1      -7.451   8.098 -32.095  1.00  0.00    -0.267 OA
BRANCH  32  36
HETATM   36  O   UNL     1      -1.220   5.341 -31.949  1.00  0.00    -0.304 OA
BRANCH  36  37
HETATM   37  C   UNL     1      -0.041   5.398 -31.134  1.00  0.00     0.176 C 
HETATM   38  C   UNL     1       0.567   6.786 -31.207  1.00  0.00     0.034 C 
ENDBRANCH  36  37
ENDBRANCH  32  36
ENDBRANCH   1  26
TORSDOF 7
ENDMDL
MODEL 4
REMARK VINA RESULT:      -8.8      2.120      6.917
REMARK  7 active torsions:
REMARK  status: ('A' for Active; 'I' for Inactive)
REMARK    1  A    between atoms: C_2  and  O_3 
REMARK    2  A    between atoms: O_3  and  C_4 
REMARK       I    between atoms: C_4  and  N_5 
REMARK       I    between atoms: N_8  and  C_9 
REMARK    3  A    between atoms: C_9  and  C_10 
REMARK    4  A    between atoms: C_11  and  N_12 
REMARK       I    between atoms: N_12  and  C_13 
REMARK    5  A    between atoms: C_13  and  C_14 
REMARK    6  A    between atoms: N_16  and  C_17 
REMARK    7  A    between atoms: C_18  and  O_19 
ROOT
HETATM    1  C   UNL     1      -3.303   3.849 -32.328  1.00  0.00     0.059 A 
HETATM    2  C   UNL     1      -3.832   4.940 -31.602  1.00  0.00     0.050 A 
HETATM    3  C   UNL     1      -3.678   6.221 -32.139  1.00  0.00     0.030 A 
HETATM    4  C   UNL     1      -3.014   6.416 -33.357  1.00  0.00     0.002 A 
HETATM    5  C   UNL     1      -2.465   5.337 -34.044  1.00  0.00     0.001 A 
HETATM    6  C   UNL     1      -2.596   4.054 -33.524  1.00  0.00     0.019 A 
ENDROOT
BRANCH   2   7
HETATM    7  N   UNL     1      -4.394   4.702 -30.329  1.00  0.00    -0.326 N 
HETATM    8  C   UNL     1      -5.582   5.006 -29.736  1.00  0.00     0.228 C 
HETATM    9  O   UNL     1      -5.663   4.877 -28.511  1.00  0.00    -0.273 OA
HETATM   10  H   UNL     1      -3.755   4.250 -29.668  1.00  0.00     0.169 HD
BRANCH   8  11
HETATM   11  C   UNL     1      -6.796   5.394 -30.550  1.00  0.00     0.105 C 
HETATM   12  C   UNL     1      -7.158   4.257 -31.503  1.00  0.00     0.147 C 
HETATM   13  N   UNL     1      -8.593   4.333 -31.637  1.00  0.00    -0.315 N 
HETATM   14  C   UNL     1      -9.160   5.098 -30.617  1.00  0.00     0.225 C 
HETATM   15  O   UNL     1     -10.323   5.444 -30.465  1.00  0.00    -0.273 OA
HETATM   16  C   UNL     1      -8.048   5.537 -29.696  1.00  0.00     0.119 C 
BRANCH  13  17
HETATM   17  C   UNL     1      -9.298   3.480 -32.530  1.00  0.00     0.071 A 
HETATM   18  C   UNL     1      -9.917   3.952 -33.707  1.00  0.00     0.095 A 
HETATM   19  C   UNL     1     -10.568   3.050 -34.560  1.00  0.00     0.039 A 
HETATM   20  C   UNL     1     -10.629   1.690 -34.248  1.00  0.00     0.009 A 
HETATM   21  C   UNL     1     -10.069   1.214 -33.063  1.00  0.00    -0.060 A 
HETATM   22  C   UNL     1     -10.137  -0.242 -32.709  1.00  0.00     0.048 C 
HETATM   23  C   UNL     1      -9.403   2.113 -32.217  1.00  0.00     0.039 A 
BRANCH  18  24
HETATM   24  O   UNL     1     -10.003   5.310 -33.882  1.00  0.00    -0.354 OA
HETATM   25  C   UNL     1     -10.102   5.772 -35.223  1.00  0.00     0.210 C 
ENDBRANCH  18  24
ENDBRANCH  13  17
ENDBRANCH   8  11
ENDBRANCH   2   7
BRANCH   1  26
HETATM   26  C   UNL     1      -3.451   2.464 -31.813  1.00  0.00     0.256 C 
HETATM   27  N   UNL     1      -4.478   1.654 -32.292  1.00  0.00    -0.345 N 
HETATM   28  C   UNL     1      -5.712   2.129 -32.932  1.00  0.00     0.146 C 
HETATM   29  C   UNL     1      -4.572   0.281 -31.792  1.00  0.00     0.146 C 
HETATM   30  C   UNL     1      -6.130   1.197 -34.073  1.00  0.00     0.148 C 
HETATM   31  N   UNL     1      -6.166  -0.208 -33.665  1.00  0.00    -0.325 N 
HETATM   32  C   UNL     1      -6.941  -1.075 -34.421  1.00  0.00     0.362 C 
HETATM   33  C   UNL     1      -5.014  -0.693 -32.894  1.00  0.00     0.148 C 
HETATM   34  O   UNL     1      -7.722  -0.705 -35.290  1.00  0.00    -0.238 OA
HETATM   35  O   UNL     1      -2.643   2.090 -30.965  1.00  0.00    -0.267 OA
BRANCH  32  36
HETATM   36  O   UNL     1      -6.731  -2.377 -34.093  1.00  0.00    -0.304 OA
BRANCH  36  37
HETATM   37  C   UNL     1      -5.925  -3.140 -35.003  1.00  0.00     0.176 C 
HETATM   38  C   UNL     1      -6.599  -4.468 -35.295  1.00  0.00     0.034 C 
ENDBRANCH  36  37
ENDBRANCH  32  36
ENDBRANCH   1  26
TORSDOF 7
ENDMDL
MODEL 5
REMARK VINA RESULT:      -8.7      2.847      8.976
REMARK  7 active torsions:
REMARK  status: ('A' for Active; 'I' for Inactive)
REMARK    1  A    between atoms: C_2  and  O_3 
REMARK    2  A    between atoms: O_3  and  C_4 
REMARK       I    between atoms: C_4  and  N_5 
REMARK       I    between atoms: N_8  and  C_9 
REMARK    3  A    between atoms: C_9  and  C_10 
REMARK    4  A    between atoms: C_11  and  N_12 
REMARK       I    between atoms: N_12  and  C_13 
REMARK    5  A    between atoms: C_13  and  C_14 
REMARK    6  A    between atoms: N_16  and  C_17 
REMARK    7  A    between atoms: C_18  and  O_19 
ROOT
HETATM    1  C   UNL     1      -6.981   1.056 -33.732  1.00  0.00     0.059 A 
HETATM    2  C   UNL     1      -6.382   0.768 -32.485  1.00  0.00     0.050 A 
HETATM    3  C   UNL     1      -5.650  -0.417 -32.368  1.00  0.00     0.030 A 
HETATM    4  C   UNL     1      -5.521  -1.293 -33.453  1.00  0.00     0.002 A 
HETATM    5  C   UNL     1      -6.146  -1.016 -34.665  1.00  0.00     0.001 A 
HETATM    6  C   UNL     1      -6.889   0.152 -34.802  1.00  0.00     0.019 A 
ENDROOT
BRANCH   2   7
HETATM    7  N   UNL     1      -6.634   1.627 -31.394  1.00  0.00    -0.326 N 
HETATM    8  C   UNL     1      -5.980   2.686 -30.839  1.00  0.00     0.228 C 
HETATM    9  O   UNL     1      -6.341   3.062 -29.720  1.00  0.00    -0.273 OA
HETATM   10  H   UNL     1      -7.463   1.377 -30.847  1.00  0.00     0.169 HD
BRANCH   8  11
HETATM   11  C   UNL     1      -4.915   3.443 -31.599  1.00  0.00     0.105 C 
HETATM   12  C   UNL     1      -4.840   4.878 -31.083  1.00  0.00     0.147 C 
HETATM   13  N   UNL     1      -3.455   5.254 -31.241  1.00  0.00    -0.315 N 
HETATM   14  C   UNL     1      -2.640   4.134 -31.418  1.00  0.00     0.225 C 
HETATM   15  O   UNL     1      -1.445   4.079 -31.666  1.00  0.00    -0.273 OA
HETATM   16  C   UNL     1      -3.515   2.908 -31.327  1.00  0.00     0.119 C 
BRANCH  13  17
HETATM   17  C   UNL     1      -3.008   6.572 -30.950  1.00  0.00     0.071 A 
HETATM   18  C   UNL     1      -2.720   7.519 -31.954  1.00  0.00     0.095 A 
HETATM   19  C   UNL     1      -2.315   8.813 -31.595  1.00  0.00     0.039 A 
HETATM   20  C   UNL     1      -2.174   9.168 -30.252  1.00  0.00     0.009 A 
HETATM   21  C   UNL     1      -2.404   8.229 -29.247  1.00  0.00    -0.060 A 
HETATM   22  C   UNL     1      -2.245   8.594 -27.801  1.00  0.00     0.048 C 
HETATM   23  C   UNL     1      -2.825   6.940 -29.605  1.00  0.00     0.039 A 
BRANCH  18  24
HETATM   24  O   UNL     1      -2.683   7.081 -33.254  1.00  0.00    -0.354 OA
HETATM   25  C   UNL     1      -1.394   6.891 -33.824  1.00  0.00     0.210 C 
ENDBRANCH  18  24
ENDBRANCH  13  17
ENDBRANCH   8  11
ENDBRANCH   2   7
BRANCH   1  26
HETATM   26  C   UNL     1      -7.757   2.308 -33.918  1.00  0.00     0.256 C 
HETATM   27  N   UNL     1      -9.147   2.257 -33.985  1.00  0.00    -0.345 N 
HETATM   28  C   UNL     1      -9.942   1.071 -34.332  1.00  0.00     0.146 C 
HETATM   29  C   UNL     1      -9.885   3.515 -34.129  1.00  0.00     0.146 C 
HETATM   30  C   UNL     1     -11.226   1.011 -33.498  1.00  0.00     0.148 C 
HETATM   31  N   UNL     1     -11.975   2.267 -33.529  1.00  0.00    -0.325 N 
HETATM   32  C   UNL     1     -13.326   2.215 -33.221  1.00  0.00     0.362 C 
HETATM   33  C   UNL     1     -11.196   3.496 -33.331  1.00  0.00     0.148 C 
HETATM   34  O   UNL     1     -13.955   1.171 -33.097  1.00  0.00    -0.238 OA
HETATM   35  O   UNL     1      -7.120   3.357 -34.008  1.00  0.00    -0.267 OA
BRANCH  32  36
HETATM   36  O   UNL     1     -13.870   3.452 -33.065  1.00  0.00    -0.304 OA
BRANCH  36  37
HETATM   37  C   UNL     1     -14.454   3.733 -31.786  1.00  0.00     0.176 C 
HETATM   38  C   UNL     1     -15.822   4.363 -31.973  1.00  0.00     0.034 C 
ENDBRANCH  36  37
ENDBRANCH  32  36
ENDBRANCH   1  26
TORSDOF 7
ENDMDL
MODEL 6
REMARK VINA RESULT:      -8.5      2.095      7.502
REMARK  7 active torsions:
REMARK  status: ('A' for Active; 'I' for Inactive)
REMARK    1  A    between atoms: C_2  and  O_3 
REMARK    2  A    between atoms: O_3  and  C_4 
REMARK       I    between atoms: C_4  and  N_5 
REMARK       I    between atoms: N_8  and  C_9 
REMARK    3  A    between atoms: C_9  and  C_10 
REMARK    4  A    between atoms: C_11  and  N_12 
REMARK       I    between atoms: N_12  and  C_13 
REMARK    5  A    between atoms: C_13  and  C_14 
REMARK    6  A    between atoms: N_16  and  C_17 
REMARK    7  A    between atoms: C_18  and  O_19 
ROOT
HETATM    1  C   UNL     1      -8.324   2.993 -31.316  1.00  0.00     0.059 A 
HETATM    2  C   UNL     1      -8.345   3.875 -32.421  1.00  0.00     0.050 A 
HETATM    3  C   UNL     1      -9.483   4.664 -32.610  1.00  0.00     0.030 A 
HETATM    4  C   UNL     1     -10.572   4.576 -31.733  1.00  0.00     0.002 A 
HETATM    5  C   UNL     1     -10.555   3.678 -30.669  1.00  0.00     0.001 A 
HETATM    6  C   UNL     1      -9.437   2.875 -30.468  1.00  0.00     0.019 A 
ENDROOT
BRANCH   2   7
HETATM    7  N   UNL     1      -7.270   3.844 -33.336  1.00  0.00    -0.326 N 
HETATM    8  C   UNL     1      -6.090   4.516 -33.449  1.00  0.00     0.228 C 
HETATM    9  O   UNL     1      -5.484   4.437 -34.520  1.00  0.00    -0.273 OA
HETATM   10  H   UNL     1      -7.419   3.222 -34.137  1.00  0.00     0.169 HD
BRANCH   8  11
HETATM   11  C   UNL     1      -5.488   5.257 -32.276  1.00  0.00     0.105 C 
HETATM   12  C   UNL     1      -3.973   5.063 -32.272  1.00  0.00     0.147 C 
HETATM   13  N   UNL     1      -3.447   6.284 -31.710  1.00  0.00    -0.315 N 
HETATM   14  C   UNL     1      -4.397   7.307 -31.736  1.00  0.00     0.225 C 
HETATM   15  O   UNL     1      -4.330   8.435 -31.271  1.00  0.00    -0.273 OA
HETATM   16  C   UNL     1      -5.638   6.767 -32.402  1.00  0.00     0.119 C 
BRANCH  13  17
HETATM   17  C   UNL     1      -2.057   6.444 -31.457  1.00  0.00     0.071 A 
HETATM   18  C   UNL     1      -1.142   6.846 -32.453  1.00  0.00     0.095 A 
HETATM   19  C   UNL     1       0.211   7.017 -32.126  1.00  0.00     0.039 A 
HETATM   20  C   UNL     1       0.668   6.772 -30.830  1.00  0.00     0.009 A 
HETATM   21  C   UNL     1      -0.213   6.324 -29.846  1.00  0.00    -0.060 A 
HETATM   22  C   UNL     1       0.266   6.046 -28.452  1.00  0.00     0.048 C 
HETATM   23  C   UNL     1      -1.569   6.168 -30.167  1.00  0.00     0.039 A 
BRANCH  18  24
HETATM   24  O   UNL     1      -1.589   6.889 -33.750  1.00  0.00    -0.354 OA
HETATM   25  C   UNL     1      -1.227   5.795 -34.583  1.00  0.00     0.210 C 
ENDBRANCH  18  24
ENDBRANCH  13  17
ENDBRANCH   8  11
ENDBRANCH   2   7
BRANCH   1  26
HETATM   26  C   UNL     1      -7.134   2.143 -31.059  1.00  0.00     0.256 C 
HETATM   27  N   UNL     1      -7.009   0.915 -31.704  1.00  0.00    -0.345 N 
HETATM   28  C   UNL     1      -8.112   0.140 -32.286  1.00  0.00     0.146 C 
HETATM   29  C   UNL     1      -5.804   0.119 -31.458  1.00  0.00     0.146 C 
HETATM   30  C   UNL     1      -7.675  -0.543 -33.585  1.00  0.00     0.148 C 
HETATM   31  N   UNL     1      -6.427  -1.292 -33.434  1.00  0.00    -0.325 N 
HETATM   32  C   UNL     1      -6.168  -2.297 -34.353  1.00  0.00     0.362 C 
HETATM   33  C   UNL     1      -5.337  -0.607 -32.727  1.00  0.00     0.148 C 
HETATM   34  O   UNL     1      -6.990  -2.703 -35.166  1.00  0.00    -0.238 OA
HETATM   35  O   UNL     1      -6.297   2.573 -30.266  1.00  0.00    -0.267 OA
BRANCH  32  36
HETATM   36  O   UNL     1      -4.898  -2.774 -34.255  1.00  0.00    -0.304 OA
BRANCH  36  37
HETATM   37  C   UNL     1      -4.753  -4.201 -34.255  1.00  0.00     0.176 C 
HETATM   38  C   UNL     1      -3.417  -4.581 -33.645  1.00  0.00     0.034 C 
ENDBRANCH  36  37
ENDBRANCH  32  36
ENDBRANCH   1  26
TORSDOF 7
ENDMDL
MODEL 7
REMARK VINA RESULT:      -8.4      3.292      7.126
REMARK  7 active torsions:
REMARK  status: ('A' for Active; 'I' for Inactive)
REMARK    1  A    between atoms: C_2  and  O_3 
REMARK    2  A    between atoms: O_3  and  C_4 
REMARK       I    between atoms: C_4  and  N_5 
REMARK       I    between atoms: N_8  and  C_9 
REMARK    3  A    between atoms: C_9  and  C_10 
REMARK    4  A    between atoms: C_11  and  N_12 
REMARK       I    between atoms: N_12  and  C_13 
REMARK    5  A    between atoms: C_13  and  C_14 
REMARK    6  A    between atoms: N_16  and  C_17 
REMARK    7  A    between atoms: C_18  and  O_19 
ROOT
HETATM    1  C   UNL     1      -1.233   7.184 -31.076  1.00  0.00     0.059 A 
HETATM    2  C   UNL     1      -1.001   6.064 -31.907  1.00  0.00     0.050 A 
HETATM    3  C   UNL     1      -0.012   5.155 -31.520  1.00  0.00     0.030 A 
HETATM    4  C   UNL     1       0.728   5.353 -30.348  1.00  0.00     0.002 A 
HETATM    5  C   UNL     1       0.515   6.479 -29.557  1.00  0.00     0.001 A 
HETATM    6  C   UNL     1      -0.456   7.403 -29.928  1.00  0.00     0.019 A 
ENDROOT
BRANCH   2   7
HETATM    7  N   UNL     1      -1.696   5.970 -33.132  1.00  0.00    -0.326 N 
HETATM    8  C   UNL     1      -2.747   5.228 -33.581  1.00  0.00     0.228 C 
HETATM    9  O   UNL     1      -2.950   5.196 -34.798  1.00  0.00    -0.273 OA
HETATM   10  H   UNL     1      -1.298   6.540 -33.885  1.00  0.00     0.169 HD
BRANCH   8  11
HETATM   11  C   UNL     1      -3.695   4.541 -32.624  1.00  0.00     0.105 C 
HETATM   12  C   UNL     1      -4.852   3.923 -33.406  1.00  0.00     0.147 C 
HETATM   13  N   UNL     1      -5.222   2.751 -32.649  1.00  0.00    -0.315 N 
HETATM   14  C   UNL     1      -4.217   2.384 -31.754  1.00  0.00     0.225 C 
HETATM   15  O   UNL     1      -4.221   1.506 -30.903  1.00  0.00    -0.273 OA
HETATM   16  C   UNL     1      -3.061   3.336 -31.941  1.00  0.00     0.119 C 
BRANCH  13  17
HETATM   17  C   UNL     1      -6.340   1.953 -33.020  1.00  0.00     0.071 A 
HETATM   18  C   UNL     1      -7.666   2.293 -32.682  1.00  0.00     0.095 A 
HETATM   19  C   UNL     1      -8.724   1.478 -33.109  1.00  0.00     0.039 A 
HETATM   20  C   UNL     1      -8.478   0.321 -33.850  1.00  0.00     0.009 A 
HETATM   21  C   UNL     1      -7.170  -0.058 -34.149  1.00  0.00    -0.060 A 
HETATM   22  C   UNL     1      -6.889  -1.306 -34.935  1.00  0.00     0.048 C 
HETATM   23  C   UNL     1      -6.112   0.765 -33.736  1.00  0.00     0.039 A 
BRANCH  18  24
HETATM   24  O   UNL     1      -7.854   3.324 -31.796  1.00  0.00    -0.354 OA
HETATM   25  C   UNL     1      -8.002   2.967 -30.427  1.00  0.00     0.210 C 
ENDBRANCH  18  24
ENDBRANCH  13  17
ENDBRANCH   8  11
ENDBRANCH   2   7
BRANCH   1  26
HETATM   26  C   UNL     1      -2.282   8.174 -31.430  1.00  0.00     0.256 C 
HETATM   27  N   UNL     1      -3.495   8.171 -30.746  1.00  0.00    -0.345 N 
HETATM   28  C   UNL     1      -4.053   7.033 -30.002  1.00  0.00     0.146 C 
HETATM   29  C   UNL     1      -4.493   9.186 -31.092  1.00  0.00     0.146 C 
HETATM   30  C   UNL     1      -4.764   7.506 -28.731  1.00  0.00     0.148 C 
HETATM   31  N   UNL     1      -5.721   8.583 -28.991  1.00  0.00    -0.325 N 
HETATM   32  C   UNL     1      -6.730   8.781 -28.060  1.00  0.00     0.362 C 
HETATM   33  C   UNL     1      -5.254   9.676 -29.852  1.00  0.00     0.148 C 
HETATM   34  O   UNL     1      -6.966   8.009 -27.139  1.00  0.00    -0.238 OA
HETATM   35  O   UNL     1      -2.025   8.967 -32.334  1.00  0.00    -0.267 OA
BRANCH  32  36
HETATM   36  O   UNL     1      -7.421   9.931 -28.283  1.00  0.00    -0.304 OA
BRANCH  36  37
HETATM   37  C   UNL     1      -8.002  10.557 -27.131  1.00  0.00     0.176 C 
HETATM   38  C   UNL     1      -7.037  11.580 -26.562  1.00  0.00     0.034 C 
ENDBRANCH  36  37
ENDBRANCH  32  36
ENDBRANCH   1  26
TORSDOF 7
ENDMDL
MODEL 8
REMARK VINA RESULT:      -8.4      3.127      6.790
REMARK  7 active torsions:
REMARK  status: ('A' for Active; 'I' for Inactive)
REMARK    1  A    between atoms: C_2  and  O_3 
REMARK    2  A    between atoms: O_3  and  C_4 
REMARK       I    between atoms: C_4  and  N_5 
REMARK       I    between atoms: N_8  and  C_9 
REMARK    3  A    between atoms: C_9  and  C_10 
REMARK    4  A    between atoms: C_11  and  N_12 
REMARK       I    between atoms: N_12  and  C_13 
REMARK    5  A    between atoms: C_13  and  C_14 
REMARK    6  A    between atoms: N_16  and  C_17 
REMARK    7  A    between atoms: C_18  and  O_19 
ROOT
HETATM    1  C   UNL     1      -6.809   0.914 -32.757  1.00  0.00     0.059 A 
HETATM    2  C   UNL     1      -7.519   1.568 -33.790  1.00  0.00     0.050 A 
HETATM    3  C   UNL     1      -7.885   0.817 -34.911  1.00  0.00     0.030 A 
HETATM    4  C   UNL     1      -7.551  -0.540 -35.008  1.00  0.00     0.002 A 
HETATM    5  C   UNL     1      -6.820  -1.163 -34.001  1.00  0.00     0.001 A 
HETATM    6  C   UNL     1      -6.435  -0.433 -32.881  1.00  0.00     0.019 A 
ENDROOT
BRANCH   2   7
HETATM    7  N   UNL     1      -7.733   2.960 -33.693  1.00  0.00    -0.326 N 
HETATM    8  C   UNL     1      -8.655   3.824 -34.203  1.00  0.00     0.228 C 
HETATM    9  O   UNL     1      -8.409   5.031 -34.137  1.00  0.00    -0.273 OA
HETATM   10  H   UNL     1      -7.007   3.460 -33.171  1.00  0.00     0.169 HD
BRANCH   8  11
HETATM   11  C   UNL     1      -9.979   3.337 -34.747  1.00  0.00     0.105 C 
HETATM   12  C   UNL     1     -10.955   3.115 -33.594  1.00  0.00     0.147 C 
HETATM   13  N   UNL     1     -12.254   3.408 -34.150  1.00  0.00    -0.315 N 
HETATM   14  C   UNL     1     -12.148   4.129 -35.341  1.00  0.00     0.225 C 
HETATM   15  O   UNL     1     -13.026   4.468 -36.121  1.00  0.00    -0.273 OA
HETATM   16  C   UNL     1     -10.683   4.389 -35.594  1.00  0.00     0.119 C 
BRANCH  13  17
HETATM   17  C   UNL     1     -13.443   3.223 -33.392  1.00  0.00     0.071 A 
HETATM   18  C   UNL     1     -14.145   2.000 -33.360  1.00  0.00     0.095 A 
HETATM   19  C   UNL     1     -15.292   1.876 -32.564  1.00  0.00     0.039 A 
HETATM   20  C   UNL     1     -15.761   2.958 -31.817  1.00  0.00     0.009 A 
HETATM   21  C   UNL     1     -15.110   4.190 -31.877  1.00  0.00    -0.060 A 
HETATM   22  C   UNL     1     -15.609   5.365 -31.089  1.00  0.00     0.048 C 
HETATM   23  C   UNL     1     -13.953   4.310 -32.661  1.00  0.00     0.039 A 
BRANCH  18  24
HETATM   24  O   UNL     1     -13.768   1.025 -34.250  1.00  0.00    -0.354 OA
HETATM   25  C   UNL     1     -13.231  -0.169 -33.694  1.00  0.00     0.210 C 
ENDBRANCH  18  24
ENDBRANCH  13  17
ENDBRANCH   8  11
ENDBRANCH   2   7
BRANCH   1  26
HETATM   26  C   UNL     1      -6.409   1.659 -31.536  1.00  0.00     0.256 C 
HETATM   27  N   UNL     1      -5.169   2.289 -31.486  1.00  0.00    -0.345 N 
HETATM   28  C   UNL     1      -4.007   1.957 -32.322  1.00  0.00     0.146 C 
HETATM   29  C   UNL     1      -4.822   3.048 -30.282  1.00  0.00     0.146 C 
HETATM   30  C   UNL     1      -3.238   3.221 -32.718  1.00  0.00     0.148 C 
HETATM   31  N   UNL     1      -2.929   4.072 -31.569  1.00  0.00    -0.325 N 
HETATM   32  C   UNL     1      -1.881   4.971 -31.701  1.00  0.00     0.362 C 
HETATM   33  C   UNL     1      -4.026   4.316 -30.623  1.00  0.00     0.148 C 
HETATM   34  O   UNL     1      -1.102   4.972 -32.647  1.00  0.00    -0.238 OA
HETATM   35  O   UNL     1      -7.211   1.682 -30.604  1.00  0.00    -0.267 OA
BRANCH  32  36
HETATM   36  O   UNL     1      -1.822   5.854 -30.669  1.00  0.00    -0.304 OA
BRANCH  36  37
HETATM   37  C   UNL     1      -1.049   7.041 -30.890  1.00  0.00     0.176 C 
HETATM   38  C   UNL     1       0.122   7.079 -29.925  1.00  0.00     0.034 C 
ENDBRANCH  36  37
ENDBRANCH  32  36
ENDBRANCH   1  26
TORSDOF 7
ENDMDL
MODEL 9
REMARK VINA RESULT:      -8.3      2.376      5.985
REMARK  7 active torsions:
REMARK  status: ('A' for Active; 'I' for Inactive)
REMARK    1  A    between atoms: C_2  and  O_3 
REMARK    2  A    between atoms: O_3  and  C_4 
REMARK       I    between atoms: C_4  and  N_5 
REMARK       I    between atoms: N_8  and  C_9 
REMARK    3  A    between atoms: C_9  and  C_10 
REMARK    4  A    between atoms: C_11  and  N_12 
REMARK       I    between atoms: N_12  and  C_13 
REMARK    5  A    between atoms: C_13  and  C_14 
REMARK    6  A    between atoms: N_16  and  C_17 
REMARK    7  A    between atoms: C_18  and  O_19 
ROOT
HETATM    1  C   UNL     1      -6.423   6.081 -30.487  1.00  0.00     0.059 A 
HETATM    2  C   UNL     1      -5.344   5.470 -29.807  1.00  0.00     0.050 A 
HETATM    3  C   UNL     1      -5.259   5.643 -28.423  1.00  0.00     0.030 A 
HETATM    4  C   UNL     1      -6.212   6.403 -27.733  1.00  0.00     0.002 A 
HETATM    5  C   UNL     1      -7.250   7.029 -28.418  1.00  0.00     0.001 A 
HETATM    6  C   UNL     1      -7.348   6.881 -29.798  1.00  0.00     0.019 A 
ENDROOT
BRANCH   2   7
HETATM    7  N   UNL     1      -4.352   4.809 -30.563  1.00  0.00    -0.326 N 
HETATM    8  C   UNL     1      -4.203   3.544 -31.048  1.00  0.00     0.228 C 
HETATM    9  O   UNL     1      -3.086   3.212 -31.454  1.00  0.00    -0.273 OA
HETATM   10  H   UNL     1      -3.519   5.376 -30.748  1.00  0.00     0.169 HD
BRANCH   8  11
HETATM   11  C   UNL     1      -5.381   2.605 -31.180  1.00  0.00     0.105 C 
HETATM   12  C   UNL     1      -5.182   1.702 -32.395  1.00  0.00     0.147 C 
HETATM   13  N   UNL     1      -5.829   0.462 -32.041  1.00  0.00    -0.315 N 
HETATM   14  C   UNL     1      -6.045   0.375 -30.665  1.00  0.00     0.225 C 
HETATM   15  O   UNL     1      -6.640  -0.483 -30.028  1.00  0.00    -0.273 OA
HETATM   16  C   UNL     1      -5.468   1.614 -30.027  1.00  0.00     0.119 C 
BRANCH  13  17
HETATM   17  C   UNL     1      -5.933  -0.610 -32.970  1.00  0.00     0.071 A 
HETATM   18  C   UNL     1      -7.066  -0.803 -33.787  1.00  0.00     0.095 A 
HETATM   19  C   UNL     1      -7.089  -1.861 -34.707  1.00  0.00     0.039 A 
HETATM   20  C   UNL     1      -6.010  -2.741 -34.808  1.00  0.00     0.009 A 
HETATM   21  C   UNL     1      -4.903  -2.597 -33.971  1.00  0.00    -0.060 A 
HETATM   22  C   UNL     1      -3.741  -3.541 -34.061  1.00  0.00     0.048 C 
HETATM   23  C   UNL     1      -4.873  -1.528 -33.063  1.00  0.00     0.039 A 
BRANCH  18  24
HETATM   24  O   UNL     1      -8.178  -0.042 -33.527  1.00  0.00    -0.354 OA
HETATM   25  C   UNL     1      -8.466   0.999 -34.452  1.00  0.00     0.210 C 
ENDBRANCH  18  24
ENDBRANCH  13  17
ENDBRANCH   8  11
ENDBRANCH   2   7
BRANCH   1  26
HETATM   26  C   UNL     1      -6.572   5.917 -31.955  1.00  0.00     0.256 C 
HETATM   27  N   UNL     1      -7.605   5.132 -32.462  1.00  0.00    -0.345 N 
HETATM   28  C   UNL     1      -8.321   4.082 -31.725  1.00  0.00     0.146 C 
HETATM   29  C   UNL     1      -7.748   5.024 -33.916  1.00  0.00     0.146 C 
HETATM   30  C   UNL     1      -9.807   4.071 -32.094  1.00  0.00     0.148 C 
HETATM   31  N   UNL     1     -10.026   4.047 -33.541  1.00  0.00    -0.325 N 
HETATM   32  C   UNL     1     -11.252   3.583 -33.996  1.00  0.00     0.362 C 
HETATM   33  C   UNL     1      -9.224   4.983 -34.338  1.00  0.00     0.148 C 
HETATM   34  O   UNL     1     -12.081   3.039 -33.277  1.00  0.00    -0.238 OA
HETATM   35  O   UNL     1      -5.755   6.494 -32.671  1.00  0.00    -0.267 OA
BRANCH  32  36
HETATM   36  O   UNL     1     -11.430   3.808 -35.325  1.00  0.00    -0.304 OA
BRANCH  36  37
HETATM   37  C   UNL     1     -12.677   4.404 -35.708  1.00  0.00     0.176 C 
HETATM   38  C   UNL     1     -12.768   5.809 -35.142  1.00  0.00     0.034 C 
ENDBRANCH  36  37
ENDBRANCH  32  36
ENDBRANCH   1  26
TORSDOF 7
ENDMDL
MODEL 10
REMARK VINA RESULT:      -8.3      2.594      7.227
REMARK  7 active torsions:
REMARK  status: ('A' for Active; 'I' for Inactive)
REMARK    1  A    between atoms: C_2  and  O_3 
REMARK    2  A    between atoms: O_3  and  C_4 
REMARK       I    between atoms: C_4  and  N_5 
REMARK       I    between atoms: N_8  and  C_9 
REMARK    3  A    between atoms: C_9  and  C_10 
REMARK    4  A    between atoms: C_11  and  N_12 
REMARK       I    between atoms: N_12  and  C_13 
REMARK    5  A    between atoms: C_13  and  C_14 
REMARK    6  A    between atoms: N_16  and  C_17 
REMARK    7  A    between atoms: C_18  and  O_19 
ROOT
HETATM    1  C   UNL     1      -8.594   1.324 -33.173  1.00  0.00     0.059 A 
HETATM    2  C   UNL     1      -7.687   1.910 -34.085  1.00  0.00     0.050 A 
HETATM    3  C   UNL     1      -6.808   1.066 -34.770  1.00  0.00     0.030 A 
HETATM    4  C   UNL     1      -6.824  -0.318 -34.552  1.00  0.00     0.002 A 
HETATM    5  C   UNL     1      -7.697  -0.879 -33.624  1.00  0.00     0.001 A 
HETATM    6  C   UNL     1      -8.573  -0.057 -32.922  1.00  0.00     0.019 A 
ENDROOT
BRANCH   2   7
HETATM    7  N   UNL     1      -7.637   3.317 -34.186  1.00  0.00    -0.326 N 
HETATM    8  C   UNL     1      -6.713   4.267 -33.868  1.00  0.00     0.228 C 
HETATM    9  O   UNL     1      -7.084   5.444 -33.841  1.00  0.00    -0.273 OA
HETATM   10  H   UNL     1      -8.508   3.745 -34.515  1.00  0.00     0.169 HD
BRANCH   8  11
HETATM   11  C   UNL     1      -5.259   3.913 -33.651  1.00  0.00     0.105 C 
HETATM   12  C   UNL     1      -4.487   5.160 -33.225  1.00  0.00     0.147 C 
HETATM   13  N   UNL     1      -3.443   4.668 -32.359  1.00  0.00    -0.315 N 
HETATM   14  C   UNL     1      -3.718   3.374 -31.914  1.00  0.00     0.225 C 
HETATM   15  O   UNL     1      -3.024   2.621 -31.246  1.00  0.00    -0.273 OA
HETATM   16  C   UNL     1      -5.060   2.968 -32.473  1.00  0.00     0.119 C 
BRANCH  13  17
HETATM   17  C   UNL     1      -2.450   5.537 -31.830  1.00  0.00     0.071 A 
HETATM   18  C   UNL     1      -1.229   5.791 -32.490  1.00  0.00     0.095 A 
HETATM   19  C   UNL     1      -0.308   6.686 -31.928  1.00  0.00     0.039 A 
HETATM   20  C   UNL     1      -0.575   7.314 -30.710  1.00  0.00     0.009 A 
HETATM   21  C   UNL     1      -1.753   7.034 -30.018  1.00  0.00    -0.060 A 
HETATM   22  C   UNL     1      -2.049   7.692 -28.703  1.00  0.00     0.048 C 
HETATM   23  C   UNL     1      -2.683   6.152 -30.587  1.00  0.00     0.039 A 
BRANCH  18  24
HETATM   24  O   UNL     1      -0.919   5.016 -33.579  1.00  0.00    -0.354 OA
HETATM   25  C   UNL     1      -1.112   5.609 -34.856  1.00  0.00     0.210 C 
ENDBRANCH  18  24
ENDBRANCH  13  17
ENDBRANCH   8  11
ENDBRANCH   2   7
BRANCH   1  26
HETATM   26  C   UNL     1      -9.561   2.172 -32.429  1.00  0.00     0.256 C 
HETATM   27  N   UNL     1      -9.145   2.862 -31.294  1.00  0.00    -0.345 N 
HETATM   28  C   UNL     1      -7.975   2.526 -30.471  1.00  0.00     0.146 C 
HETATM   29  C   UNL     1     -10.113   3.720 -30.607  1.00  0.00     0.146 C 
HETATM   30  C   UNL     1      -7.274   3.794 -29.974  1.00  0.00     0.148 C 
HETATM   31  N   UNL     1      -8.199   4.738 -29.347  1.00  0.00    -0.325 N 
HETATM   32  C   UNL     1      -7.665   5.674 -28.474  1.00  0.00     0.362 C 
HETATM   33  C   UNL     1      -9.453   4.996 -30.066  1.00  0.00     0.148 C 
HETATM   34  O   UNL     1      -6.509   5.644 -28.070  1.00  0.00    -0.238 OA
HETATM   35  O   UNL     1     -10.711   2.223 -32.861  1.00  0.00    -0.267 OA
BRANCH  32  36
HETATM   36  O   UNL     1      -8.567   6.630 -28.124  1.00  0.00    -0.304 OA
BRANCH  36  37
HETATM   37  C   UNL     1      -8.133   7.991 -28.251  1.00  0.00     0.176 C 
HETATM   38  C   UNL     1      -8.976   8.704 -29.291  1.00  0.00     0.034 C 
ENDBRANCH  36  37
ENDBRANCH  32  36
ENDBRANCH   1  26
TORSDOF 7
ENDMDL
