MODEL 1
REMARK VINA RESULT:      -9.2      0.000      0.000
REMARK  4 active torsions:
REMARK  status: ('A' for Active; 'I' for Inactive)
REMARK    1  A    between atoms: C_6  and  C_7 
REMARK       I    between atoms: C_7  and  N_8 
REMARK    2  A    between atoms: N_8  and  C_9 
REMARK    3  A    between atoms: C_10  and  C_11 
REMARK    4  A    between atoms: C_11  and  C_12 
ROOT
HETATM    1  C   UNL     1      -6.094   2.989 -32.357  1.00  0.00     0.259 C 
HETATM    2  N   UNL     1      -6.634   2.261 -33.399  1.00  0.00    -0.322 N 
HETATM    3  O   UNL     1      -6.723   3.449 -31.410  1.00  0.00    -0.267 OA
HETATM    4  H   UNL     1      -6.031   2.076 -34.189  1.00  0.00     0.169 HD
ENDROOT
BRANCH   2   5
HETATM    5  C   UNL     1      -7.949   1.749 -33.483  1.00  0.00     0.041 A 
HETATM    6  C   UNL     1      -8.276   0.548 -32.817  1.00  0.00    -0.027 A 
HETATM    7  C   UNL     1      -9.616   0.111 -32.811  1.00  0.00     0.010 A 
HETATM    8  C   UNL     1     -10.608   0.831 -33.473  1.00  0.00     0.001 A 
HETATM    9  C   UNL     1     -10.276   1.994 -34.155  1.00  0.00     0.002 A 
HETATM   10  C   UNL     1      -8.955   2.449 -34.162  1.00  0.00     0.030 A 
BRANCH   6  11
HETATM   11  C   UNL     1      -7.240  -0.357 -32.178  1.00  0.00     0.079 C 
BRANCH  11  12
HETATM   12  C   UNL     1      -6.413  -1.205 -33.118  1.00  0.00    -0.054 A 
HETATM   13  C   UNL     1      -5.020  -1.260 -32.942  1.00  0.00     0.007 A 
HETATM   14  C   UNL     1      -4.228  -2.073 -33.755  1.00  0.00     0.001 A 
HETATM   15  C   UNL     1      -4.819  -2.848 -34.748  1.00  0.00     0.000 A 
HETATM   16  C   UNL     1      -6.199  -2.814 -34.927  1.00  0.00     0.001 A 
HETATM   17  C   UNL     1      -6.993  -2.001 -34.114  1.00  0.00     0.007 A 
ENDBRANCH  11  12
ENDBRANCH   6  11
ENDBRANCH   2   5
BRANCH   1  18
HETATM   18  C   UNL     1      -4.675   3.278 -32.510  1.00  0.00     0.081 A 
HETATM   19  C   UNL     1      -3.660   2.582 -31.872  1.00  0.00     0.068 A 
HETATM   20  C   UNL     1      -3.655   1.474 -30.892  1.00  0.00     0.078 C 
HETATM   21  O   UNL     1      -2.438   3.053 -32.249  1.00  0.00    -0.295 OA
HETATM   22  C   UNL     1      -2.642   4.048 -33.152  1.00  0.00     0.187 A 
HETATM   23  C   UNL     1      -4.000   4.226 -33.327  1.00  0.00     0.103 A 
HETATM   24  N   UNL     1      -1.639   4.718 -33.771  1.00  0.00    -0.219 NA
HETATM   25  C   UNL     1      -4.426   5.226 -34.266  1.00  0.00     0.262 A 
HETATM   26  N   UNL     1      -3.381   5.856 -34.907  1.00  0.00    -0.317 N 
HETATM   27  O   UNL     1      -5.596   5.520 -34.472  1.00  0.00    -0.267 OA
HETATM   28  C   UNL     1      -2.058   5.589 -34.630  1.00  0.00     0.212 A 
HETATM   29  H   UNL     1      -3.634   6.565 -35.579  1.00  0.00     0.170 HD
ENDBRANCH   1  18
TORSDOF 4
ENDMDL
MODEL 2
REMARK VINA RESULT:      -8.8      2.426      5.706
REMARK  4 active torsions:
REMARK  status: ('A' for Active; 'I' for Inactive)
REMARK    1  A    between atoms: C_6  and  C_7 
REMARK       I    between atoms: C_7  and  N_8 
REMARK    2  A    between atoms: N_8  and  C_9 
REMARK    3  A    between atoms: C_10  and  C_11 
REMARK    4  A    between atoms: C_11  and  C_12 
ROOT
HETATM    1  C   UNL     1      -8.372   2.373 -32.688  1.00  0.00     0.259 C 
HETATM    2  N   UNL     1      -7.229   2.163 -33.433  1.00  0.00    -0.322 N 
HETATM    3  O   UNL     1      -8.401   2.668 -31.498  1.00  0.00    -0.267 OA
HETATM    4  H   UNL     1      -7.351   1.777 -34.359  1.00  0.00     0.169 HD
ENDROOT
BRANCH   2   5
HETATM    5  C   UNL     1      -5.898   2.424 -33.035  1.00  0.00     0.041 A 
HETATM    6  C   UNL     1      -5.119   1.388 -32.476  1.00  0.00    -0.027 A 
HETATM    7  C   UNL     1      -3.759   1.630 -32.192  1.00  0.00     0.010 A 
HETATM    8  C   UNL     1      -3.187   2.878 -32.432  1.00  0.00     0.001 A 
HETATM    9  C   UNL     1      -3.966   3.904 -32.951  1.00  0.00     0.002 A 
HETATM   10  C   UNL     1      -5.312   3.679 -33.248  1.00  0.00     0.030 A 
BRANCH   6  11
HETATM   11  C   UNL     1      -5.691   0.043 -32.072  1.00  0.00     0.079 C 
BRANCH  11  12
HETATM   12  C   UNL     1      -5.677  -1.040 -33.127  1.00  0.00    -0.054 A 
HETATM   13  C   UNL     1      -4.478  -1.723 -33.390  1.00  0.00     0.007 A 
HETATM   14  C   UNL     1      -4.436  -2.764 -34.319  1.00  0.00     0.001 A 
HETATM   15  C   UNL     1      -5.595  -3.145 -34.989  1.00  0.00     0.000 A 
HETATM   16  C   UNL     1      -6.794  -2.486 -34.730  1.00  0.00     0.001 A 
HETATM   17  C   UNL     1      -6.838  -1.444 -33.802  1.00  0.00     0.007 A 
ENDBRANCH  11  12
ENDBRANCH   6  11
ENDBRANCH   2   5
BRANCH   1  18
HETATM   18  C   UNL     1      -9.607   2.114 -33.413  1.00  0.00     0.081 A 
HETATM   19  C   UNL     1     -10.324   0.929 -33.342  1.00  0.00     0.068 A 
HETATM   20  C   UNL     1     -10.093  -0.352 -32.640  1.00  0.00     0.078 C 
HETATM   21  O   UNL     1     -11.459   1.003 -34.095  1.00  0.00    -0.295 OA
HETATM   22  C   UNL     1     -11.504   2.244 -34.648  1.00  0.00     0.187 A 
HETATM   23  C   UNL     1     -10.380   2.949 -34.266  1.00  0.00     0.103 A 
HETATM   24  N   UNL     1     -12.522   2.680 -35.428  1.00  0.00    -0.219 NA
HETATM   25  C   UNL     1     -10.251   4.301 -34.733  1.00  0.00     0.262 A 
HETATM   26  N   UNL     1     -11.324   4.724 -35.487  1.00  0.00    -0.317 N 
HETATM   27  O   UNL     1      -9.280   5.013 -34.513  1.00  0.00    -0.267 OA
HETATM   28  C   UNL     1     -12.388   3.910 -35.807  1.00  0.00     0.212 A 
HETATM   29  H   UNL     1     -11.277   5.671 -35.834  1.00  0.00     0.170 HD
ENDBRANCH   1  18
TORSDOF 4
ENDMDL
MODEL 3
REMARK VINA RESULT:      -8.6      3.324      6.031
REMARK  4 active torsions:
REMARK  status: ('A' for Active; 'I' for Inactive)
REMARK    1  A    between atoms: C_6  and  C_7 
REMARK       I    between atoms: C_7  and  N_8 
REMARK    2  A    between atoms: N_8  and  C_9 
REMARK    3  A    between atoms: C_10  and  C_11 
REMARK    4  A    between atoms: C_11  and  C_12 
ROOT
HETATM    1  C   UNL     1      -5.778   0.507 -32.766  1.00  0.00     0.259 C 
HETATM    2  N   UNL     1      -6.741   0.448 -31.779  1.00  0.00    -0.322 N 
HETATM    3  O   UNL     1      -5.657   1.408 -33.589  1.00  0.00    -0.267 OA
HETATM    4  H   UNL     1      -6.821  -0.422 -31.270  1.00  0.00     0.169 HD
ENDROOT
BRANCH   2   5
HETATM    5  C   UNL     1      -7.636   1.476 -31.406  1.00  0.00     0.041 A 
HETATM    6  C   UNL     1      -8.969   1.444 -31.869  1.00  0.00    -0.027 A 
HETATM    7  C   UNL     1      -9.882   2.409 -31.397  1.00  0.00     0.010 A 
HETATM    8  C   UNL     1      -9.480   3.402 -30.506  1.00  0.00     0.001 A 
HETATM    9  C   UNL     1      -8.159   3.449 -30.079  1.00  0.00     0.002 A 
HETATM   10  C   UNL     1      -7.243   2.494 -30.528  1.00  0.00     0.030 A 
BRANCH   6  11
HETATM   11  C   UNL     1      -9.459   0.476 -32.929  1.00  0.00     0.079 C 
BRANCH  11  12
HETATM   12  C   UNL     1     -10.754   0.833 -33.623  1.00  0.00    -0.054 A 
HETATM   13  C   UNL     1     -11.912   0.095 -33.330  1.00  0.00     0.007 A 
HETATM   14  C   UNL     1     -13.138   0.427 -33.910  1.00  0.00     0.001 A 
HETATM   15  C   UNL     1     -13.225   1.509 -34.781  1.00  0.00     0.000 A 
HETATM   16  C   UNL     1     -12.087   2.259 -35.071  1.00  0.00     0.001 A 
HETATM   17  C   UNL     1     -10.860   1.927 -34.493  1.00  0.00     0.007 A 
ENDBRANCH  11  12
ENDBRANCH   6  11
ENDBRANCH   2   5
BRANCH   1  18
HETATM   18  C   UNL     1      -4.931  -0.675 -32.839  1.00  0.00     0.081 A 
HETATM   19  C   UNL     1      -3.767  -0.852 -32.107  1.00  0.00     0.068 A 
HETATM   20  C   UNL     1      -3.031   0.008 -31.153  1.00  0.00     0.078 C 
HETATM   21  O   UNL     1      -3.220  -2.076 -32.353  1.00  0.00    -0.295 OA
HETATM   22  C   UNL     1      -4.032  -2.719 -33.233  1.00  0.00     0.187 A 
HETATM   23  C   UNL     1      -5.083  -1.888 -33.566  1.00  0.00     0.103 A 
HETATM   24  N   UNL     1      -3.814  -3.983 -33.671  1.00  0.00    -0.219 NA
HETATM   25  C   UNL     1      -6.072  -2.395 -34.475  1.00  0.00     0.262 A 
HETATM   26  N   UNL     1      -5.841  -3.697 -34.865  1.00  0.00    -0.317 N 
HETATM   27  O   UNL     1      -7.020  -1.743 -34.893  1.00  0.00    -0.267 OA
HETATM   28  C   UNL     1      -4.738  -4.418 -34.464  1.00  0.00     0.212 A 
HETATM   29  H   UNL     1      -6.514  -4.096 -35.503  1.00  0.00     0.170 HD
ENDBRANCH   1  18
TORSDOF 4
ENDMDL
MODEL 4
REMARK VINA RESULT:      -8.6      1.912      4.470
REMARK  4 active torsions:
REMARK  status: ('A' for Active; 'I' for Inactive)
REMARK    1  A    between atoms: C_6  and  C_7 
REMARK       I    between atoms: C_7  and  N_8 
REMARK    2  A    between atoms: N_8  and  C_9 
REMARK    3  A    between atoms: C_10  and  C_11 
REMARK    4  A    between atoms: C_11  and  C_12 
ROOT
HETATM    1  C   UNL     1      -5.987   1.744 -31.856  1.00  0.00     0.259 C 
HETATM    2  N   UNL     1      -5.382   1.245 -32.992  1.00  0.00    -0.322 N 
HETATM    3  O   UNL     1      -6.698   1.104 -31.089  1.00  0.00    -0.267 OA
HETATM    4  H   UNL     1      -4.951   1.916 -33.613  1.00  0.00     0.169 HD
ENDROOT
BRANCH   2   5
HETATM    5  C   UNL     1      -5.304  -0.111 -33.384  1.00  0.00     0.041 A 
HETATM    6  C   UNL     1      -6.068  -0.565 -34.481  1.00  0.00    -0.027 A 
HETATM    7  C   UNL     1      -5.894  -1.888 -34.936  1.00  0.00     0.010 A 
HETATM    8  C   UNL     1      -5.003  -2.753 -34.303  1.00  0.00     0.001 A 
HETATM    9  C   UNL     1      -4.279  -2.312 -33.203  1.00  0.00     0.002 A 
HETATM   10  C   UNL     1      -4.430  -1.000 -32.746  1.00  0.00     0.030 A 
BRANCH   6  11
HETATM   11  C   UNL     1      -7.145   0.269 -35.148  1.00  0.00     0.079 C 
BRANCH  11  12
HETATM   12  C   UNL     1      -8.408   0.502 -34.351  1.00  0.00    -0.054 A 
HETATM   13  C   UNL     1      -9.207   1.619 -34.648  1.00  0.00     0.007 A 
HETATM   14  C   UNL     1     -10.408   1.840 -33.971  1.00  0.00     0.001 A 
HETATM   15  C   UNL     1     -10.832   0.942 -32.996  1.00  0.00     0.000 A 
HETATM   16  C   UNL     1     -10.057  -0.178 -32.700  1.00  0.00     0.001 A 
HETATM   17  C   UNL     1      -8.856  -0.400 -33.376  1.00  0.00     0.007 A 
ENDBRANCH  11  12
ENDBRANCH   6  11
ENDBRANCH   2   5
BRANCH   1  18
HETATM   18  C   UNL     1      -5.802   3.176 -31.667  1.00  0.00     0.081 A 
HETATM   19  C   UNL     1      -6.835   4.098 -31.603  1.00  0.00     0.068 A 
HETATM   20  C   UNL     1      -8.303   3.984 -31.740  1.00  0.00     0.078 C 
HETATM   21  O   UNL     1      -6.351   5.353 -31.373  1.00  0.00    -0.295 OA
HETATM   22  C   UNL     1      -4.999   5.257 -31.266  1.00  0.00     0.187 A 
HETATM   23  C   UNL     1      -4.623   3.943 -31.455  1.00  0.00     0.103 A 
HETATM   24  N   UNL     1      -4.193   6.312 -30.995  1.00  0.00    -0.219 NA
HETATM   25  C   UNL     1      -3.226   3.629 -31.357  1.00  0.00     0.262 A 
HETATM   26  N   UNL     1      -2.441   4.716 -31.040  1.00  0.00    -0.317 N 
HETATM   27  O   UNL     1      -2.756   2.516 -31.558  1.00  0.00    -0.267 OA
HETATM   28  C   UNL     1      -2.945   5.989 -30.886  1.00  0.00     0.212 A 
HETATM   29  H   UNL     1      -1.450   4.541 -30.957  1.00  0.00     0.170 HD
ENDBRANCH   1  18
TORSDOF 4
ENDMDL
MODEL 5
REMARK VINA RESULT:      -8.4      3.453      7.533
REMARK  4 active torsions:
REMARK  status: ('A' for Active; 'I' for Inactive)
REMARK    1  A    between atoms: C_6  and  C_7 
REMARK       I    between atoms: C_7  and  N_8 
REMARK    2  A    between atoms: N_8  and  C_9 
REMARK    3  A    between atoms: C_10  and  C_11 
REMARK    4  A    between atoms: C_11  and  C_12 
ROOT
HETATM    1  C   UNL     1      -9.511   0.612 -33.284  1.00  0.00     0.259 C 
HETATM    2  N   UNL     1      -8.628   0.344 -34.311  1.00  0.00    -0.322 N 
HETATM    3  O   UNL     1      -9.404   0.209 -32.131  1.00  0.00    -0.267 OA
HETATM    4  H   UNL     1      -8.916   0.609 -35.243  1.00  0.00     0.169 HD
ENDROOT
BRANCH   2   5
HETATM    5  C   UNL     1      -7.361  -0.272 -34.200  1.00  0.00     0.041 A 
HETATM    6  C   UNL     1      -6.242   0.496 -33.813  1.00  0.00    -0.027 A 
HETATM    7  C   UNL     1      -5.009  -0.152 -33.593  1.00  0.00     0.010 A 
HETATM    8  C   UNL     1      -4.878  -1.527 -33.777  1.00  0.00     0.001 A 
HETATM    9  C   UNL     1      -5.974  -2.274 -34.190  1.00  0.00     0.002 A 
HETATM   10  C   UNL     1      -7.206  -1.650 -34.402  1.00  0.00     0.030 A 
BRANCH   6  11
HETATM   11  C   UNL     1      -6.267   2.009 -33.709  1.00  0.00     0.079 C 
BRANCH  11  12
HETATM   12  C   UNL     1      -6.044   2.594 -32.333  1.00  0.00    -0.054 A 
HETATM   13  C   UNL     1      -4.826   3.235 -32.052  1.00  0.00     0.007 A 
HETATM   14  C   UNL     1      -4.603   3.834 -30.811  1.00  0.00     0.001 A 
HETATM   15  C   UNL     1      -5.598   3.810 -29.838  1.00  0.00     0.000 A 
HETATM   16  C   UNL     1      -6.816   3.191 -30.107  1.00  0.00     0.001 A 
HETATM   17  C   UNL     1      -7.041   2.590 -31.348  1.00  0.00     0.007 A 
ENDBRANCH  11  12
ENDBRANCH   6  11
ENDBRANCH   2   5
BRANCH   1  18
HETATM   18  C   UNL     1     -10.690   1.360 -33.697  1.00  0.00     0.081 A 
HETATM   19  C   UNL     1     -10.671   2.678 -34.128  1.00  0.00     0.068 A 
HETATM   20  C   UNL     1      -9.595   3.685 -34.256  1.00  0.00     0.078 C 
HETATM   21  O   UNL     1     -11.920   3.088 -34.490  1.00  0.00    -0.295 OA
HETATM   22  C   UNL     1     -12.763   2.036 -34.317  1.00  0.00     0.187 A 
HETATM   23  C   UNL     1     -12.050   0.964 -33.818  1.00  0.00     0.103 A 
HETATM   24  N   UNL     1     -14.083   2.075 -34.620  1.00  0.00    -0.219 NA
HETATM   25  C   UNL     1     -12.763  -0.261 -33.586  1.00  0.00     0.262 A 
HETATM   26  N   UNL     1     -14.092  -0.197 -33.944  1.00  0.00    -0.317 N 
HETATM   27  O   UNL     1     -12.262  -1.265 -33.096  1.00  0.00    -0.267 OA
HETATM   28  C   UNL     1     -14.688   0.948 -34.426  1.00  0.00     0.212 A 
HETATM   29  H   UNL     1     -14.632  -1.038 -33.802  1.00  0.00     0.170 HD
ENDBRANCH   1  18
TORSDOF 4
ENDMDL
MODEL 6
REMARK VINA RESULT:      -8.4      2.779      6.631
REMARK  4 active torsions:
REMARK  status: ('A' for Active; 'I' for Inactive)
REMARK    1  A    between atoms: C_6  and  C_7 
REMARK       I    between atoms: C_7  and  N_8 
REMARK    2  A    between atoms: N_8  and  C_9 
REMARK    3  A    between atoms: C_10  and  C_11 
REMARK    4  A    between atoms: C_11  and  C_12 
ROOT
HETATM    1  C   UNL     1      -5.777   1.365 -32.991  1.00  0.00     0.259 C 
HETATM    2  N   UNL     1      -5.750   1.499 -31.617  1.00  0.00    -0.322 N 
HETATM    3  O   UNL     1      -5.977   2.273 -33.790  1.00  0.00    -0.267 OA
HETATM    4  H   UNL     1      -5.727   0.646 -31.074  1.00  0.00     0.169 HD
ENDROOT
BRANCH   2   5
HETATM    5  C   UNL     1      -5.758   2.707 -30.883  1.00  0.00     0.041 A 
HETATM    6  C   UNL     1      -4.635   3.561 -30.929  1.00  0.00    -0.027 A 
HETATM    7  C   UNL     1      -4.701   4.815 -30.289  1.00  0.00     0.010 A 
HETATM    8  C   UNL     1      -5.843   5.207 -29.595  1.00  0.00     0.001 A 
HETATM    9  C   UNL     1      -6.934   4.350 -29.523  1.00  0.00     0.002 A 
HETATM   10  C   UNL     1      -6.890   3.108 -30.162  1.00  0.00     0.030 A 
BRANCH   6  11
HETATM   11  C   UNL     1      -3.313   3.162 -31.557  1.00  0.00     0.079 C 
BRANCH  11  12
HETATM   12  C   UNL     1      -2.673   4.174 -32.482  1.00  0.00    -0.054 A 
HETATM   13  C   UNL     1      -3.284   4.455 -33.715  1.00  0.00     0.007 A 
HETATM   14  C   UNL     1      -2.755   5.420 -34.573  1.00  0.00     0.001 A 
HETATM   15  C   UNL     1      -1.613   6.126 -34.204  1.00  0.00     0.000 A 
HETATM   16  C   UNL     1      -1.003   5.868 -32.979  1.00  0.00     0.001 A 
HETATM   17  C   UNL     1      -1.532   4.902 -32.120  1.00  0.00     0.007 A 
ENDBRANCH  11  12
ENDBRANCH   6  11
ENDBRANCH   2   5
BRANCH   1  18
HETATM   18  C   UNL     1      -5.643  -0.009 -33.454  1.00  0.00     0.081 A 
HETATM   19  C   UNL     1      -6.349  -0.550 -34.517  1.00  0.00     0.068 A 
HETATM   20  C   UNL     1      -7.396  -0.013 -35.414  1.00  0.00     0.078 C 
HETATM   21  O   UNL     1      -5.975  -1.842 -34.741  1.00  0.00    -0.295 OA
HETATM   22  C   UNL     1      -5.007  -2.151 -33.837  1.00  0.00     0.187 A 
HETATM   23  C   UNL     1      -4.787  -1.059 -33.022  1.00  0.00     0.103 A 
HETATM   24  N   UNL     1      -4.374  -3.349 -33.796  1.00  0.00    -0.219 NA
HETATM   25  C   UNL     1      -3.777  -1.178 -32.008  1.00  0.00     0.262 A 
HETATM   26  N   UNL     1      -3.126  -2.392 -32.022  1.00  0.00    -0.317 N 
HETATM   27  O   UNL     1      -3.523  -0.306 -31.186  1.00  0.00    -0.267 OA
HETATM   28  C   UNL     1      -3.452  -3.410 -32.891  1.00  0.00     0.212 A 
HETATM   29  H   UNL     1      -2.404  -2.518 -31.328  1.00  0.00     0.170 HD
ENDBRANCH   1  18
TORSDOF 4
ENDMDL
MODEL 7
REMARK VINA RESULT:      -8.4      3.097      6.630
REMARK  4 active torsions:
REMARK  status: ('A' for Active; 'I' for Inactive)
REMARK    1  A    between atoms: C_6  and  C_7 
REMARK       I    between atoms: C_7  and  N_8 
REMARK    2  A    between atoms: N_8  and  C_9 
REMARK    3  A    between atoms: C_10  and  C_11 
REMARK    4  A    between atoms: C_11  and  C_12 
ROOT
HETATM    1  C   UNL     1      -5.330   0.398 -32.850  1.00  0.00     0.259 C 
HETATM    2  N   UNL     1      -5.371   0.708 -31.506  1.00  0.00    -0.322 N 
HETATM    3  O   UNL     1      -5.740   1.113 -33.758  1.00  0.00    -0.267 OA
HETATM    4  H   UNL     1      -5.141  -0.033 -30.858  1.00  0.00     0.169 HD
ENDROOT
BRANCH   2   5
HETATM    5  C   UNL     1      -5.709   1.956 -30.934  1.00  0.00     0.041 A 
HETATM    6  C   UNL     1      -4.752   2.993 -30.904  1.00  0.00    -0.027 A 
HETATM    7  C   UNL     1      -5.138   4.267 -30.438  1.00  0.00     0.010 A 
HETATM    8  C   UNL     1      -6.434   4.504 -29.987  1.00  0.00     0.001 A 
HETATM    9  C   UNL     1      -7.363   3.471 -29.987  1.00  0.00     0.002 A 
HETATM   10  C   UNL     1      -7.002   2.206 -30.455  1.00  0.00     0.030 A 
BRANCH   6  11
HETATM   11  C   UNL     1      -3.292   2.789 -31.261  1.00  0.00     0.079 C 
BRANCH  11  12
HETATM   12  C   UNL     1      -2.652   3.856 -32.120  1.00  0.00    -0.054 A 
HETATM   13  C   UNL     1      -1.630   4.651 -31.574  1.00  0.00     0.007 A 
HETATM   14  C   UNL     1      -0.978   5.611 -32.350  1.00  0.00     0.001 A 
HETATM   15  C   UNL     1      -1.332   5.782 -33.685  1.00  0.00     0.000 A 
HETATM   16  C   UNL     1      -2.334   4.993 -34.244  1.00  0.00     0.001 A 
HETATM   17  C   UNL     1      -2.988   4.033 -33.469  1.00  0.00     0.007 A 
ENDBRANCH  11  12
ENDBRANCH   6  11
ENDBRANCH   2   5
BRANCH   1  18
HETATM   18  C   UNL     1      -4.834  -0.941 -33.134  1.00  0.00     0.081 A 
HETATM   19  C   UNL     1      -3.642  -1.455 -32.647  1.00  0.00     0.068 A 
HETATM   20  C   UNL     1      -2.558  -0.885 -31.817  1.00  0.00     0.078 C 
HETATM   21  O   UNL     1      -3.472  -2.748 -33.045  1.00  0.00    -0.295 OA
HETATM   22  C   UNL     1      -4.562  -3.097 -33.780  1.00  0.00     0.187 A 
HETATM   23  C   UNL     1      -5.411  -2.012 -33.870  1.00  0.00     0.103 A 
HETATM   24  N   UNL     1      -4.748  -4.333 -34.304  1.00  0.00    -0.219 NA
HETATM   25  C   UNL     1      -6.639  -2.186 -34.592  1.00  0.00     0.262 A 
HETATM   26  N   UNL     1      -6.815  -3.465 -35.075  1.00  0.00    -0.317 N 
HETATM   27  O   UNL     1      -7.451  -1.291 -34.793  1.00  0.00    -0.267 OA
HETATM   28  C   UNL     1      -5.877  -4.462 -34.923  1.00  0.00     0.212 A 
HETATM   29  H   UNL     1      -7.668  -3.634 -35.587  1.00  0.00     0.170 HD
ENDBRANCH   1  18
TORSDOF 4
ENDMDL
MODEL 8
REMARK VINA RESULT:      -8.2      2.592      6.172
REMARK  4 active torsions:
REMARK  status: ('A' for Active; 'I' for Inactive)
REMARK    1  A    between atoms: C_6  and  C_7 
REMARK       I    between atoms: C_7  and  N_8 
REMARK    2  A    between atoms: N_8  and  C_9 
REMARK    3  A    between atoms: C_10  and  C_11 
REMARK    4  A    between atoms: C_11  and  C_12 
ROOT
HETATM    1  C   UNL     1      -5.924   0.754 -32.324  1.00  0.00     0.259 C 
HETATM    2  N   UNL     1      -5.848   1.777 -33.249  1.00  0.00    -0.322 N 
HETATM    3  O   UNL     1      -6.534   0.801 -31.261  1.00  0.00    -0.267 OA
HETATM    4  H   UNL     1      -5.188   1.660 -34.006  1.00  0.00     0.169 HD
ENDROOT
BRANCH   2   5
HETATM    5  C   UNL     1      -6.591   2.979 -33.246  1.00  0.00     0.041 A 
HETATM    6  C   UNL     1      -6.002   4.164 -32.753  1.00  0.00    -0.027 A 
HETATM    7  C   UNL     1      -6.710   5.378 -32.864  1.00  0.00     0.010 A 
HETATM    8  C   UNL     1      -7.984   5.417 -33.427  1.00  0.00     0.001 A 
HETATM    9  C   UNL     1      -8.573   4.243 -33.880  1.00  0.00     0.002 A 
HETATM   10  C   UNL     1      -7.881   3.033 -33.789  1.00  0.00     0.030 A 
BRANCH   6  11
HETATM   11  C   UNL     1      -4.675   4.190 -32.019  1.00  0.00     0.079 C 
BRANCH  11  12
HETATM   12  C   UNL     1      -3.467   4.612 -32.824  1.00  0.00    -0.054 A 
HETATM   13  C   UNL     1      -3.615   4.862 -34.198  1.00  0.00     0.007 A 
HETATM   14  C   UNL     1      -2.535   5.304 -34.965  1.00  0.00     0.001 A 
HETATM   15  C   UNL     1      -1.296   5.512 -34.366  1.00  0.00     0.000 A 
HETATM   16  C   UNL     1      -1.137   5.281 -33.002  1.00  0.00     0.001 A 
HETATM   17  C   UNL     1      -2.216   4.838 -32.234  1.00  0.00     0.007 A 
ENDBRANCH  11  12
ENDBRANCH   6  11
ENDBRANCH   2   5
BRANCH   1  18
HETATM   18  C   UNL     1      -5.115  -0.409 -32.658  1.00  0.00     0.081 A 
HETATM   19  C   UNL     1      -3.869  -0.680 -32.113  1.00  0.00     0.068 A 
HETATM   20  C   UNL     1      -3.002   0.047 -31.160  1.00  0.00     0.078 C 
HETATM   21  O   UNL     1      -3.380  -1.861 -32.585  1.00  0.00    -0.295 OA
HETATM   22  C   UNL     1      -4.310  -2.383 -33.428  1.00  0.00     0.187 A 
HETATM   23  C   UNL     1      -5.380  -1.515 -33.511  1.00  0.00     0.103 A 
HETATM   24  N   UNL     1      -4.172  -3.579 -34.051  1.00  0.00    -0.219 NA
HETATM   25  C   UNL     1      -6.487  -1.899 -34.342  1.00  0.00     0.262 A 
HETATM   26  N   UNL     1      -6.331  -3.138 -34.924  1.00  0.00    -0.317 N 
HETATM   27  O   UNL     1      -7.470  -1.197 -34.544  1.00  0.00    -0.267 OA
HETATM   28  C   UNL     1      -5.198  -3.906 -34.767  1.00  0.00     0.212 A 
HETATM   29  H   UNL     1      -7.088  -3.450 -35.515  1.00  0.00     0.170 HD
ENDBRANCH   1  18
TORSDOF 4
ENDMDL
MODEL 9
REMARK VINA RESULT:      -8.2      2.660      6.387
REMARK  4 active torsions:
REMARK  status: ('A' for Active; 'I' for Inactive)
REMARK    1  A    between atoms: C_6  and  C_7 
REMARK       I    between atoms: C_7  and  N_8 
REMARK    2  A    between atoms: N_8  and  C_9 
REMARK    3  A    between atoms: C_10  and  C_11 
REMARK    4  A    between atoms: C_11  and  C_12 
ROOT
HETATM    1  C   UNL     1      -8.634   3.988 -33.309  1.00  0.00     0.259 C 
HETATM    2  N   UNL     1      -7.512   3.643 -34.035  1.00  0.00    -0.322 N 
HETATM    3  O   UNL     1      -8.635   4.393 -32.152  1.00  0.00    -0.267 OA
HETATM    4  H   UNL     1      -7.665   3.180 -34.921  1.00  0.00     0.169 HD
ENDROOT
BRANCH   2   5
HETATM    5  C   UNL     1      -6.165   3.864 -33.669  1.00  0.00     0.041 A 
HETATM    6  C   UNL     1      -5.458   2.863 -32.968  1.00  0.00    -0.027 A 
HETATM    7  C   UNL     1      -4.084   3.047 -32.712  1.00  0.00     0.010 A 
HETATM    8  C   UNL     1      -3.427   4.207 -33.117  1.00  0.00     0.001 A 
HETATM    9  C   UNL     1      -4.135   5.204 -33.776  1.00  0.00     0.002 A 
HETATM   10  C   UNL     1      -5.494   5.034 -34.049  1.00  0.00     0.030 A 
BRANCH   6  11
HETATM   11  C   UNL     1      -6.121   1.629 -32.387  1.00  0.00     0.079 C 
BRANCH  11  12
HETATM   12  C   UNL     1      -6.090   0.381 -33.242  1.00  0.00    -0.054 A 
HETATM   13  C   UNL     1      -5.087  -0.576 -33.018  1.00  0.00     0.007 A 
HETATM   14  C   UNL     1      -5.056  -1.765 -33.749  1.00  0.00     0.001 A 
HETATM   15  C   UNL     1      -6.034  -2.017 -34.707  1.00  0.00     0.000 A 
HETATM   16  C   UNL     1      -7.043  -1.083 -34.931  1.00  0.00     0.001 A 
HETATM   17  C   UNL     1      -7.075   0.106 -34.200  1.00  0.00     0.007 A 
ENDBRANCH  11  12
ENDBRANCH   6  11
ENDBRANCH   2   5
BRANCH   1  18
HETATM   18  C   UNL     1      -9.889   3.733 -34.002  1.00  0.00     0.081 A 
HETATM   19  C   UNL     1     -10.448   4.578 -34.948  1.00  0.00     0.068 A 
HETATM   20  C   UNL     1     -10.051   5.898 -35.485  1.00  0.00     0.078 C 
HETATM   21  O   UNL     1     -11.599   4.049 -35.452  1.00  0.00    -0.295 OA
HETATM   22  C   UNL     1     -11.792   2.844 -34.854  1.00  0.00     0.187 A 
HETATM   23  C   UNL     1     -10.774   2.621 -33.948  1.00  0.00     0.103 A 
HETATM   24  N   UNL     1     -12.825   2.017 -35.149  1.00  0.00    -0.219 NA
HETATM   25  C   UNL     1     -10.786   1.382 -33.224  1.00  0.00     0.262 A 
HETATM   26  N   UNL     1     -11.826   0.549 -33.579  1.00  0.00    -0.317 N 
HETATM   27  O   UNL     1      -9.976   1.087 -32.355  1.00  0.00    -0.267 OA
HETATM   28  C   UNL     1     -12.789   0.899 -34.500  1.00  0.00     0.212 A 
HETATM   29  H   UNL     1     -11.871  -0.336 -33.096  1.00  0.00     0.170 HD
ENDBRANCH   1  18
TORSDOF 4
ENDMDL
MODEL 10
REMARK VINA RESULT:      -8.1     15.842     17.578
REMARK  4 active torsions:
REMARK  status: ('A' for Active; 'I' for Inactive)
REMARK    1  A    between atoms: C_6  and  C_7 
REMARK       I    between atoms: C_7  and  N_8 
REMARK    2  A    between atoms: N_8  and  C_9 
REMARK    3  A    between atoms: C_10  and  C_11 
REMARK    4  A    between atoms: C_11  and  C_12 
ROOT
HETATM    1  C   UNL     1      -3.956 -13.431 -38.928  1.00  0.00     0.259 C 
HETATM    2  N   UNL     1      -4.953 -14.243 -38.426  1.00  0.00    -0.322 N 
HETATM    3  O   UNL     1      -3.610 -12.354 -38.454  1.00  0.00    -0.267 OA
HETATM    4  H   UNL     1      -5.239 -15.025 -39.000  1.00  0.00     0.169 HD
ENDROOT
BRANCH   2   5
HETATM    5  C   UNL     1      -5.627 -14.095 -37.192  1.00  0.00     0.041 A 
HETATM    6  C   UNL     1      -6.825 -13.351 -37.135  1.00  0.00    -0.027 A 
HETATM    7  C   UNL     1      -7.548 -13.309 -35.925  1.00  0.00     0.010 A 
HETATM    8  C   UNL     1      -7.082 -13.965 -34.788  1.00  0.00     0.001 A 
HETATM    9  C   UNL     1      -5.885 -14.667 -34.840  1.00  0.00     0.002 A 
HETATM   10  C   UNL     1      -5.162 -14.730 -36.033  1.00  0.00     0.030 A 
BRANCH   6  11
HETATM   11  C   UNL     1      -7.339 -12.511 -38.289  1.00  0.00     0.079 C 
BRANCH  11  12
HETATM   12  C   UNL     1      -8.577 -13.017 -38.994  1.00  0.00    -0.054 A 
HETATM   13  C   UNL     1      -9.416 -12.097 -39.644  1.00  0.00     0.007 A 
HETATM   14  C   UNL     1     -10.540 -12.530 -40.351  1.00  0.00     0.001 A 
HETATM   15  C   UNL     1     -10.833 -13.889 -40.426  1.00  0.00     0.000 A 
HETATM   16  C   UNL     1     -10.003 -14.813 -39.797  1.00  0.00     0.001 A 
HETATM   17  C   UNL     1      -8.879 -14.382 -39.089  1.00  0.00     0.007 A 
ENDBRANCH  11  12
ENDBRANCH   6  11
ENDBRANCH   2   5
BRANCH   1  18
HETATM   18  C   UNL     1      -3.376 -13.907 -40.175  1.00  0.00     0.081 A 
HETATM   19  C   UNL     1      -2.066 -14.337 -40.317  1.00  0.00     0.068 A 
HETATM   20  C   UNL     1      -0.918 -14.408 -39.386  1.00  0.00     0.078 C 
HETATM   21  O   UNL     1      -1.831 -14.766 -41.590  1.00  0.00    -0.295 OA
HETATM   22  C   UNL     1      -2.991 -14.639 -42.286  1.00  0.00     0.187 A 
HETATM   23  C   UNL     1      -3.957 -14.102 -41.459  1.00  0.00     0.103 A 
HETATM   24  N   UNL     1      -3.134 -15.012 -43.581  1.00  0.00    -0.219 NA
HETATM   25  C   UNL     1      -5.270 -13.908 -42.006  1.00  0.00     0.262 A 
HETATM   26  N   UNL     1      -5.390 -14.337 -43.310  1.00  0.00    -0.317 N 
HETATM   27  O   UNL     1      -6.198 -13.390 -41.397  1.00  0.00    -0.267 OA
HETATM   28  C   UNL     1      -4.335 -14.851 -44.032  1.00  0.00     0.212 A 
HETATM   29  H   UNL     1      -6.299 -14.223 -43.734  1.00  0.00     0.170 HD
ENDBRANCH   1  18
TORSDOF 4
ENDMDL
