MODEL 1
REMARK VINA RESULT:      -8.6      0.000      0.000
REMARK  7 active torsions:
REMARK  status: ('A' for Active; 'I' for Inactive)
REMARK    1  A    between atoms: O_2  and  C_3 
REMARK    2  A    between atoms: C_5  and  N_6 
REMARK    3  A    between atoms: C_7  and  O_8 
REMARK    4  A    between atoms: C_7  and  C_9 
REMARK       I    between atoms: C_9  and  N_10 
REMARK    5  A    between atoms: N_10  and  C_11 
REMARK    6  A    between atoms: C_11  and  C_12 
REMARK    7  A    between atoms: C_12  and  C_13 
ROOT
HETATM    1  N   UNL     1      -4.523   4.953 -33.391  1.00  0.00    -0.254 N 
HETATM    2  C   UNL     1      -3.832   4.750 -32.108  1.00  0.00     0.256 C 
HETATM    3  C   UNL     1      -2.629   5.658 -31.932  1.00  0.00     0.034 A 
HETATM    4  C   UNL     1      -1.992   6.133 -33.071  1.00  0.00     0.048 A 
HETATM    5  N   UNL     1      -2.548   5.845 -34.310  1.00  0.00    -0.308 N 
HETATM    6  C   UNL     1      -3.798   5.333 -34.512  1.00  0.00     0.330 C 
HETATM    7  O   UNL     1      -4.185   5.251 -35.678  1.00  0.00    -0.246 OA
HETATM    8  C   UNL     1      -2.068   5.951 -30.678  1.00  0.00     0.015 A 
HETATM    9  C   UNL     1      -0.899   6.708 -30.584  1.00  0.00     0.001 A 
HETATM   10  C   UNL     1      -0.270   7.166 -31.740  1.00  0.00     0.002 A 
HETATM   11  C   UNL     1      -0.814   6.875 -32.990  1.00  0.00     0.030 A 
HETATM   12  H   UNL     1      -2.102   6.185 -35.153  1.00  0.00     0.170 HD
ENDROOT
BRANCH   2  13
HETATM   13  O   UNL     1      -4.727   5.098 -31.046  1.00  0.00    -0.359 OA
HETATM   14  H   UNL     1      -4.442   5.982 -30.747  1.00  0.00     0.213 HD
ENDBRANCH   2  13
BRANCH   2  15
HETATM   15  C   UNL     1      -3.355   3.246 -31.962  1.00  0.00     0.279 C 
HETATM   16  N   UNL     1      -3.911   2.499 -30.941  1.00  0.00    -0.356 N 
HETATM   17  H   UNL     1      -4.753   2.855 -30.498  1.00  0.00     0.162 HD
HETATM   18  O   UNL     1      -2.522   2.772 -32.743  1.00  0.00    -0.268 OA
BRANCH  16  19
HETATM   19  C   UNL     1      -3.634   1.079 -30.838  1.00  0.00     0.127 C 
BRANCH  19  20
HETATM   20  C   UNL     1      -4.902   0.226 -30.754  1.00  0.00     0.058 C 
BRANCH  20  21
HETATM   21  C   UNL     1      -5.107  -0.681 -31.948  1.00  0.00    -0.057 A 
HETATM   22  C   UNL     1      -6.329  -0.697 -32.637  1.00  0.00     0.009 A 
HETATM   23  C   UNL     1      -6.509  -1.528 -33.745  1.00  0.00     0.024 A 
HETATM   24  C   UNL     1      -5.466  -2.340 -34.178  1.00  0.00     0.034 A 
HETATM   25 CL   UNL     1      -5.684  -3.359 -35.546  1.00  0.00    -0.084 Cl
HETATM   26  C   UNL     1      -4.242  -2.327 -33.514  1.00  0.00     0.024 A 
HETATM   27  C   UNL     1      -4.062  -1.499 -32.402  1.00  0.00     0.009 A 
ENDBRANCH  20  21
ENDBRANCH  19  20
ENDBRANCH  16  19
ENDBRANCH   2  15
BRANCH   1  28
HETATM   28  C   UNL     1      -5.916   4.616 -33.540  1.00  0.00     0.045 A 
HETATM   29  C   UNL     1      -6.361   3.303 -33.774  1.00  0.00     0.066 A 
HETATM   30  C   UNL     1      -7.726   3.010 -33.887  1.00  0.00     0.070 A 
HETATM   31  C   UNL     1      -8.665   4.028 -33.727  1.00  0.00     0.037 A 
HETATM   32  C   UNL     1      -8.248   5.334 -33.498  1.00  0.00     0.005 A 
HETATM   33  C   UNL     1      -6.885   5.625 -33.417  1.00  0.00     0.030 A 
BRANCH  30  34
HETATM   34  O   UNL     1      -8.260   1.774 -34.139  1.00  0.00    -0.356 OA
HETATM   35  C   UNL     1      -9.680   1.681 -34.148  1.00  0.00     0.210 C 
ENDBRANCH  30  34
ENDBRANCH   1  28
TORSDOF 7
ENDMDL
MODEL 2
REMARK VINA RESULT:      -8.6      3.107      4.914
REMARK  7 active torsions:
REMARK  status: ('A' for Active; 'I' for Inactive)
REMARK    1  A    between atoms: O_2  and  C_3 
REMARK    2  A    between atoms: C_5  and  N_6 
REMARK    3  A    between atoms: C_7  and  O_8 
REMARK    4  A    between atoms: C_7  and  C_9 
REMARK       I    between atoms: C_9  and  N_10 
REMARK    5  A    between atoms: N_10  and  C_11 
REMARK    6  A    between atoms: C_11  and  C_12 
REMARK    7  A    between atoms: C_12  and  C_13 
ROOT
HETATM    1  N   UNL     1      -6.839   3.671 -31.244  1.00  0.00    -0.254 N 
HETATM    2  C   UNL     1      -6.831   2.238 -30.913  1.00  0.00     0.256 C 
HETATM    3  C   UNL     1      -5.470   1.592 -31.099  1.00  0.00     0.034 A 
HETATM    4  C   UNL     1      -4.589   2.166 -32.007  1.00  0.00     0.048 A 
HETATM    5  N   UNL     1      -4.952   3.360 -32.617  1.00  0.00    -0.308 N 
HETATM    6  C   UNL     1      -5.996   4.153 -32.237  1.00  0.00     0.330 C 
HETATM    7  O   UNL     1      -6.107   5.240 -32.804  1.00  0.00    -0.246 OA
HETATM    8  C   UNL     1      -5.104   0.385 -30.480  1.00  0.00     0.015 A 
HETATM    9  C   UNL     1      -3.877  -0.215 -30.770  1.00  0.00     0.001 A 
HETATM   10  C   UNL     1      -3.013   0.373 -31.691  1.00  0.00     0.002 A 
HETATM   11  C   UNL     1      -3.370   1.566 -32.317  1.00  0.00     0.030 A 
HETATM   12  H   UNL     1      -4.322   3.798 -33.278  1.00  0.00     0.170 HD
ENDROOT
BRANCH   2  13
HETATM   13  O   UNL     1      -7.132   2.088 -29.521  1.00  0.00    -0.359 OA
HETATM   14  H   UNL     1      -6.361   2.453 -29.049  1.00  0.00     0.213 HD
ENDBRANCH   2  13
BRANCH   2  15
HETATM   15  C   UNL     1      -7.886   1.454 -31.797  1.00  0.00     0.279 C 
HETATM   16  N   UNL     1      -7.457   0.964 -33.016  1.00  0.00    -0.356 N 
HETATM   17  H   UNL     1      -6.456   0.913 -33.180  1.00  0.00     0.162 HD
HETATM   18  O   UNL     1      -9.043   1.287 -31.394  1.00  0.00    -0.268 OA
BRANCH  16  19
HETATM   19  C   UNL     1      -8.322   0.113 -33.809  1.00  0.00     0.127 C 
BRANCH  19  20
HETATM   20  C   UNL     1      -7.628  -0.462 -35.047  1.00  0.00     0.058 C 
BRANCH  20  21
HETATM   21  C   UNL     1      -6.608  -1.534 -34.731  1.00  0.00    -0.057 A 
HETATM   22  C   UNL     1      -6.872  -2.883 -35.012  1.00  0.00     0.009 A 
HETATM   23  C   UNL     1      -5.922  -3.868 -34.729  1.00  0.00     0.024 A 
HETATM   24  C   UNL     1      -4.698  -3.509 -34.172  1.00  0.00     0.034 A 
HETATM   25 CL   UNL     1      -3.527  -4.720 -33.827  1.00  0.00    -0.084 Cl
HETATM   26  C   UNL     1      -4.415  -2.173 -33.898  1.00  0.00     0.024 A 
HETATM   27  C   UNL     1      -5.366  -1.188 -34.177  1.00  0.00     0.009 A 
ENDBRANCH  20  21
ENDBRANCH  19  20
ENDBRANCH  16  19
ENDBRANCH   2  15
BRANCH   1  28
HETATM   28  C   UNL     1      -7.814   4.557 -30.662  1.00  0.00     0.045 A 
HETATM   29  C   UNL     1      -7.588   5.256 -29.463  1.00  0.00     0.066 A 
HETATM   30  C   UNL     1      -8.549   6.130 -28.941  1.00  0.00     0.070 A 
HETATM   31  C   UNL     1      -9.737   6.344 -29.639  1.00  0.00     0.037 A 
HETATM   32  C   UNL     1      -9.983   5.662 -30.825  1.00  0.00     0.005 A 
HETATM   33  C   UNL     1      -9.033   4.769 -31.324  1.00  0.00     0.030 A 
BRANCH  30  34
HETATM   34  O   UNL     1      -8.438   6.835 -27.772  1.00  0.00    -0.356 OA
HETATM   35  C   UNL     1      -9.441   7.812 -27.517  1.00  0.00     0.210 C 
ENDBRANCH  30  34
ENDBRANCH   1  28
TORSDOF 7
ENDMDL
MODEL 3
REMARK VINA RESULT:      -8.6      3.623      5.377
REMARK  7 active torsions:
REMARK  status: ('A' for Active; 'I' for Inactive)
REMARK    1  A    between atoms: O_2  and  C_3 
REMARK    2  A    between atoms: C_5  and  N_6 
REMARK    3  A    between atoms: C_7  and  O_8 
REMARK    4  A    between atoms: C_7  and  C_9 
REMARK       I    between atoms: C_9  and  N_10 
REMARK    5  A    between atoms: N_10  and  C_11 
REMARK    6  A    between atoms: C_11  and  C_12 
REMARK    7  A    between atoms: C_12  and  C_13 
ROOT
HETATM    1  N   UNL     1     -10.015   3.629 -32.131  1.00  0.00    -0.254 N 
HETATM    2  C   UNL     1      -9.169   2.593 -31.519  1.00  0.00     0.256 C 
HETATM    3  C   UNL     1      -7.764   3.078 -31.213  1.00  0.00     0.034 A 
HETATM    4  C   UNL     1      -7.254   4.130 -31.963  1.00  0.00     0.048 A 
HETATM    5  N   UNL     1      -8.088   4.755 -32.879  1.00  0.00    -0.308 N 
HETATM    6  C   UNL     1      -9.442   4.590 -32.952  1.00  0.00     0.330 C 
HETATM    7  O   UNL     1     -10.050   5.313 -33.742  1.00  0.00    -0.246 OA
HETATM    8  C   UNL     1      -6.921   2.446 -30.283  1.00  0.00     0.015 A 
HETATM    9  C   UNL     1      -5.603   2.873 -30.118  1.00  0.00     0.001 A 
HETATM   10  C   UNL     1      -5.108   3.923 -30.888  1.00  0.00     0.002 A 
HETATM   11  C   UNL     1      -5.934   4.553 -31.819  1.00  0.00     0.030 A 
HETATM   12  H   UNL     1      -7.738   5.528 -33.433  1.00  0.00     0.170 HD
ENDROOT
BRANCH   2  13
HETATM   13  O   UNL     1      -9.729   2.234 -30.252  1.00  0.00    -0.359 OA
HETATM   14  H   UNL     1     -10.042   3.071 -29.860  1.00  0.00     0.213 HD
ENDBRANCH   2  13
BRANCH   2  15
HETATM   15  C   UNL     1      -9.069   1.323 -32.462  1.00  0.00     0.279 C 
HETATM   16  N   UNL     1      -8.885   1.547 -33.813  1.00  0.00    -0.356 N 
HETATM   17  H   UNL     1      -8.584   2.472 -34.103  1.00  0.00     0.162 HD
HETATM   18  O   UNL     1      -9.147   0.183 -31.990  1.00  0.00    -0.268 OA
BRANCH  16  19
HETATM   19  C   UNL     1      -8.638   0.436 -34.712  1.00  0.00     0.127 C 
BRANCH  19  20
HETATM   20  C   UNL     1      -7.225   0.446 -35.302  1.00  0.00     0.058 C 
BRANCH  20  21
HETATM   21  C   UNL     1      -6.205  -0.283 -34.455  1.00  0.00    -0.057 A 
HETATM   22  C   UNL     1      -5.557   0.366 -33.393  1.00  0.00     0.009 A 
HETATM   23  C   UNL     1      -4.624  -0.315 -32.607  1.00  0.00     0.024 A 
HETATM   24  C   UNL     1      -4.342  -1.652 -32.870  1.00  0.00     0.034 A 
HETATM   25 CL   UNL     1      -3.198  -2.493 -31.900  1.00  0.00    -0.084 Cl
HETATM   26  C   UNL     1      -4.986  -2.315 -33.911  1.00  0.00     0.024 A 
HETATM   27  C   UNL     1      -5.916  -1.633 -34.702  1.00  0.00     0.009 A 
ENDBRANCH  20  21
ENDBRANCH  19  20
ENDBRANCH  16  19
ENDBRANCH   2  15
BRANCH   1  28
HETATM   28  C   UNL     1     -11.450   3.573 -32.016  1.00  0.00     0.045 A 
HETATM   29  C   UNL     1     -12.253   2.801 -32.873  1.00  0.00     0.066 A 
HETATM   30  C   UNL     1     -13.643   2.750 -32.714  1.00  0.00     0.070 A 
HETATM   31  C   UNL     1     -14.242   3.445 -31.664  1.00  0.00     0.037 A 
HETATM   32  C   UNL     1     -13.468   4.218 -30.805  1.00  0.00     0.005 A 
HETATM   33  C   UNL     1     -12.086   4.288 -30.989  1.00  0.00     0.030 A 
BRANCH  30  34
HETATM   34  O   UNL     1     -14.515   2.052 -33.507  1.00  0.00    -0.356 OA
HETATM   35  C   UNL     1     -14.119   0.740 -33.893  1.00  0.00     0.210 C 
ENDBRANCH  30  34
ENDBRANCH   1  28
TORSDOF 7
ENDMDL
MODEL 4
REMARK VINA RESULT:      -8.5      4.369      5.782
REMARK  7 active torsions:
REMARK  status: ('A' for Active; 'I' for Inactive)
REMARK    1  A    between atoms: O_2  and  C_3 
REMARK    2  A    between atoms: C_5  and  N_6 
REMARK    3  A    between atoms: C_7  and  O_8 
REMARK    4  A    between atoms: C_7  and  C_9 
REMARK       I    between atoms: C_9  and  N_10 
REMARK    5  A    between atoms: N_10  and  C_11 
REMARK    6  A    between atoms: C_11  and  C_12 
REMARK    7  A    between atoms: C_12  and  C_13 
ROOT
HETATM    1  N   UNL     1     -10.621   3.596 -32.753  1.00  0.00    -0.254 N 
HETATM    2  C   UNL     1      -9.431   3.012 -32.114  1.00  0.00     0.256 C 
HETATM    3  C   UNL     1      -8.827   3.910 -31.051  1.00  0.00     0.034 A 
HETATM    4  C   UNL     1      -9.042   5.279 -31.145  1.00  0.00     0.048 A 
HETATM    5  N   UNL     1      -9.886   5.748 -32.143  1.00  0.00    -0.308 N 
HETATM    6  C   UNL     1     -10.717   4.974 -32.901  1.00  0.00     0.330 C 
HETATM    7  O   UNL     1     -11.491   5.560 -33.657  1.00  0.00    -0.246 OA
HETATM    8  C   UNL     1      -7.974   3.433 -30.041  1.00  0.00     0.015 A 
HETATM    9  C   UNL     1      -7.364   4.320 -29.152  1.00  0.00     0.001 A 
HETATM   10  C   UNL     1      -7.586   5.691 -29.271  1.00  0.00     0.002 A 
HETATM   11  C   UNL     1      -8.425   6.175 -30.274  1.00  0.00     0.030 A 
HETATM   12  H   UNL     1     -10.061   6.742 -32.227  1.00  0.00     0.170 HD
ENDROOT
BRANCH   2  13
HETATM   13  O   UNL     1      -9.820   1.819 -31.425  1.00  0.00    -0.359 OA
HETATM   14  H   UNL     1     -10.778   1.914 -31.264  1.00  0.00     0.213 HD
ENDBRANCH   2  13
BRANCH   2  15
HETATM   15  C   UNL     1      -8.318   2.691 -33.195  1.00  0.00     0.279 C 
HETATM   16  N   UNL     1      -7.818   1.403 -33.229  1.00  0.00    -0.356 N 
HETATM   17  H   UNL     1      -8.341   0.679 -32.746  1.00  0.00     0.162 HD
HETATM   18  O   UNL     1      -7.927   3.567 -33.975  1.00  0.00    -0.268 OA
BRANCH  16  19
HETATM   19  C   UNL     1      -6.908   0.999 -34.284  1.00  0.00     0.127 C 
BRANCH  19  20
HETATM   20  C   UNL     1      -7.287  -0.342 -34.921  1.00  0.00     0.058 C 
BRANCH  20  21
HETATM   21  C   UNL     1      -6.318  -1.461 -34.607  1.00  0.00    -0.057 A 
HETATM   22  C   UNL     1      -6.571  -2.773 -35.035  1.00  0.00     0.009 A 
HETATM   23  C   UNL     1      -5.669  -3.800 -34.751  1.00  0.00     0.024 A 
HETATM   24  C   UNL     1      -4.501  -3.521 -34.048  1.00  0.00     0.034 A 
HETATM   25 CL   UNL     1      -3.385  -4.784 -33.703  1.00  0.00    -0.084 Cl
HETATM   26  C   UNL     1      -4.227  -2.222 -33.627  1.00  0.00     0.024 A 
HETATM   27  C   UNL     1      -5.132  -1.194 -33.906  1.00  0.00     0.009 A 
ENDBRANCH  20  21
ENDBRANCH  19  20
ENDBRANCH  16  19
ENDBRANCH   2  15
BRANCH   1  28
HETATM   28  C   UNL     1     -11.618   2.755 -33.363  1.00  0.00     0.045 A 
HETATM   29  C   UNL     1     -12.870   2.509 -32.774  1.00  0.00     0.066 A 
HETATM   30  C   UNL     1     -13.826   1.707 -33.410  1.00  0.00     0.070 A 
HETATM   31  C   UNL     1     -13.550   1.173 -34.668  1.00  0.00     0.037 A 
HETATM   32  C   UNL     1     -12.316   1.400 -35.269  1.00  0.00     0.005 A 
HETATM   33  C   UNL     1     -11.357   2.176 -34.615  1.00  0.00     0.030 A 
BRANCH  30  34
HETATM   34  O   UNL     1     -15.060   1.385 -32.912  1.00  0.00    -0.356 OA
HETATM   35  C   UNL     1     -15.671   2.339 -32.049  1.00  0.00     0.210 C 
ENDBRANCH  30  34
ENDBRANCH   1  28
TORSDOF 7
ENDMDL
MODEL 5
REMARK VINA RESULT:      -8.3      2.096      5.644
REMARK  7 active torsions:
REMARK  status: ('A' for Active; 'I' for Inactive)
REMARK    1  A    between atoms: O_2  and  C_3 
REMARK    2  A    between atoms: C_5  and  N_6 
REMARK    3  A    between atoms: C_7  and  O_8 
REMARK    4  A    between atoms: C_7  and  C_9 
REMARK       I    between atoms: C_9  and  N_10 
REMARK    5  A    between atoms: N_10  and  C_11 
REMARK    6  A    between atoms: C_11  and  C_12 
REMARK    7  A    between atoms: C_12  and  C_13 
ROOT
HETATM    1  N   UNL     1      -4.325   5.325 -31.624  1.00  0.00    -0.254 N 
HETATM    2  C   UNL     1      -4.820   4.202 -32.435  1.00  0.00     0.256 C 
HETATM    3  C   UNL     1      -6.323   4.229 -32.633  1.00  0.00     0.034 A 
HETATM    4  C   UNL     1      -7.101   4.878 -31.682  1.00  0.00     0.048 A 
HETATM    5  N   UNL     1      -6.459   5.561 -30.658  1.00  0.00    -0.308 N 
HETATM    6  C   UNL     1      -5.126   5.856 -30.622  1.00  0.00     0.330 C 
HETATM    7  O   UNL     1      -4.739   6.576 -29.701  1.00  0.00    -0.246 OA
HETATM    8  C   UNL     1      -6.972   3.538 -33.671  1.00  0.00     0.015 A 
HETATM    9  C   UNL     1      -8.365   3.514 -33.743  1.00  0.00     0.001 A 
HETATM   10  C   UNL     1      -9.126   4.164 -32.773  1.00  0.00     0.002 A 
HETATM   11  C   UNL     1      -8.493   4.846 -31.734  1.00  0.00     0.030 A 
HETATM   12  H   UNL     1      -7.006   6.046 -29.956  1.00  0.00     0.170 HD
ENDROOT
BRANCH   2  13
HETATM   13  O   UNL     1      -4.263   4.306 -33.749  1.00  0.00    -0.359 OA
HETATM   14  H   UNL     1      -4.343   5.248 -33.990  1.00  0.00     0.213 HD
ENDBRANCH   2  13
BRANCH   2  15
HETATM   15  C   UNL     1      -4.423   2.817 -31.773  1.00  0.00     0.279 C 
HETATM   16  N   UNL     1      -4.025   1.799 -32.618  1.00  0.00    -0.356 N 
HETATM   17  H   UNL     1      -3.773   2.046 -33.571  1.00  0.00     0.162 HD
HETATM   18  O   UNL     1      -4.466   2.672 -30.546  1.00  0.00    -0.268 OA
BRANCH  16  19
HETATM   19  C   UNL     1      -3.508   0.558 -32.075  1.00  0.00     0.127 C 
BRANCH  19  20
HETATM   20  C   UNL     1      -4.308  -0.670 -32.519  1.00  0.00     0.058 C 
BRANCH  20  21
HETATM   21  C   UNL     1      -5.785  -0.399 -32.710  1.00  0.00    -0.057 A 
HETATM   22  C   UNL     1      -6.382  -0.525 -33.973  1.00  0.00     0.009 A 
HETATM   23  C   UNL     1      -7.748  -0.285 -34.141  1.00  0.00     0.024 A 
HETATM   24  C   UNL     1      -8.528   0.073 -33.045  1.00  0.00     0.034 A 
HETATM   25 CL   UNL     1     -10.210   0.364 -33.250  1.00  0.00    -0.084 Cl
HETATM   26  C   UNL     1      -7.953   0.190 -31.782  1.00  0.00     0.024 A 
HETATM   27  C   UNL     1      -6.586  -0.046 -31.613  1.00  0.00     0.009 A 
ENDBRANCH  20  21
ENDBRANCH  19  20
ENDBRANCH  16  19
ENDBRANCH   2  15
BRANCH   1  28
HETATM   28  C   UNL     1      -2.966   5.784 -31.750  1.00  0.00     0.045 A 
HETATM   29  C   UNL     1      -1.863   5.030 -31.313  1.00  0.00     0.066 A 
HETATM   30  C   UNL     1      -0.554   5.497 -31.476  1.00  0.00     0.070 A 
HETATM   31  C   UNL     1      -0.332   6.715 -32.118  1.00  0.00     0.037 A 
HETATM   32  C   UNL     1      -1.407   7.480 -32.557  1.00  0.00     0.005 A 
HETATM   33  C   UNL     1      -2.712   7.022 -32.363  1.00  0.00     0.030 A 
BRANCH  30  34
HETATM   34  O   UNL     1       0.583   4.854 -31.064  1.00  0.00    -0.356 OA
HETATM   35  C   UNL     1       0.818   4.806 -29.661  1.00  0.00     0.210 C 
ENDBRANCH  30  34
ENDBRANCH   1  28
TORSDOF 7
ENDMDL
MODEL 6
REMARK VINA RESULT:      -8.3      3.241      6.038
REMARK  7 active torsions:
REMARK  status: ('A' for Active; 'I' for Inactive)
REMARK    1  A    between atoms: O_2  and  C_3 
REMARK    2  A    between atoms: C_5  and  N_6 
REMARK    3  A    between atoms: C_7  and  O_8 
REMARK    4  A    between atoms: C_7  and  C_9 
REMARK       I    between atoms: C_9  and  N_10 
REMARK    5  A    between atoms: N_10  and  C_11 
REMARK    6  A    between atoms: C_11  and  C_12 
REMARK    7  A    between atoms: C_12  and  C_13 
ROOT
HETATM    1  N   UNL     1      -5.897   4.028 -32.277  1.00  0.00    -0.254 N 
HETATM    2  C   UNL     1      -4.821   4.429 -31.358  1.00  0.00     0.256 C 
HETATM    3  C   UNL     1      -4.938   5.871 -30.900  1.00  0.00     0.034 A 
HETATM    4  C   UNL     1      -5.611   6.769 -31.719  1.00  0.00     0.048 A 
HETATM    5  N   UNL     1      -6.235   6.283 -32.861  1.00  0.00    -0.308 N 
HETATM    6  C   UNL     1      -6.452   4.964 -33.139  1.00  0.00     0.330 C 
HETATM    7  O   UNL     1      -7.129   4.708 -34.135  1.00  0.00    -0.246 OA
HETATM    8  C   UNL     1      -4.308   6.361 -29.743  1.00  0.00     0.015 A 
HETATM    9  C   UNL     1      -4.365   7.719 -29.428  1.00  0.00     0.001 A 
HETATM   10  C   UNL     1      -5.037   8.604 -30.269  1.00  0.00     0.002 A 
HETATM   11  C   UNL     1      -5.659   8.130 -31.423  1.00  0.00     0.030 A 
HETATM   12  H   UNL     1      -6.735   6.919 -33.470  1.00  0.00     0.170 HD
ENDROOT
BRANCH   2  13
HETATM   13  O   UNL     1      -4.921   3.644 -30.165  1.00  0.00    -0.359 OA
HETATM   14  H   UNL     1      -4.593   2.759 -30.409  1.00  0.00     0.213 HD
ENDBRANCH   2  13
BRANCH   2  15
HETATM   15  C   UNL     1      -3.403   4.229 -32.036  1.00  0.00     0.279 C 
HETATM   16  N   UNL     1      -3.047   5.112 -33.038  1.00  0.00    -0.356 N 
HETATM   17  H   UNL     1      -3.582   5.970 -33.125  1.00  0.00     0.162 HD
HETATM   18  O   UNL     1      -2.652   3.320 -31.666  1.00  0.00    -0.268 OA
BRANCH  16  19
HETATM   19  C   UNL     1      -1.710   5.081 -33.599  1.00  0.00     0.127 C 
BRANCH  19  20
HETATM   20  C   UNL     1      -0.876   6.311 -33.228  1.00  0.00     0.058 C 
BRANCH  20  21
HETATM   21  C   UNL     1      -0.513   6.381 -31.761  1.00  0.00    -0.057 A 
HETATM   22  C   UNL     1      -0.924   7.464 -30.969  1.00  0.00     0.009 A 
HETATM   23  C   UNL     1      -0.595   7.518 -29.613  1.00  0.00     0.024 A 
HETATM   24  C   UNL     1       0.137   6.485 -29.036  1.00  0.00     0.034 A 
HETATM   25 CL   UNL     1       0.538   6.548 -27.365  1.00  0.00    -0.084 Cl
HETATM   26  C   UNL     1       0.542   5.396 -29.805  1.00  0.00     0.024 A 
HETATM   27  C   UNL     1       0.218   5.343 -31.163  1.00  0.00     0.009 A 
ENDBRANCH  20  21
ENDBRANCH  19  20
ENDBRANCH  16  19
ENDBRANCH   2  15
BRANCH   1  28
HETATM   28  C   UNL     1      -6.281   2.645 -32.405  1.00  0.00     0.045 A 
HETATM   29  C   UNL     1      -5.534   1.713 -33.146  1.00  0.00     0.066 A 
HETATM   30  C   UNL     1      -5.923   0.371 -33.227  1.00  0.00     0.070 A 
HETATM   31  C   UNL     1      -7.050  -0.063 -32.528  1.00  0.00     0.037 A 
HETATM   32  C   UNL     1      -7.806   0.842 -31.791  1.00  0.00     0.005 A 
HETATM   33  C   UNL     1      -7.429   2.185 -31.740  1.00  0.00     0.030 A 
BRANCH  30  34
HETATM   34  O   UNL     1      -5.283  -0.607 -33.940  1.00  0.00    -0.356 OA
HETATM   35  C   UNL     1      -6.048  -1.759 -34.277  1.00  0.00     0.210 C 
ENDBRANCH  30  34
ENDBRANCH   1  28
TORSDOF 7
ENDMDL
MODEL 7
REMARK VINA RESULT:      -8.3      2.216      3.040
REMARK  7 active torsions:
REMARK  status: ('A' for Active; 'I' for Inactive)
REMARK    1  A    between atoms: O_2  and  C_3 
REMARK    2  A    between atoms: C_5  and  N_6 
REMARK    3  A    between atoms: C_7  and  O_8 
REMARK    4  A    between atoms: C_7  and  C_9 
REMARK       I    between atoms: C_9  and  N_10 
REMARK    5  A    between atoms: N_10  and  C_11 
REMARK    6  A    between atoms: C_11  and  C_12 
REMARK    7  A    between atoms: C_12  and  C_13 
ROOT
HETATM    1  N   UNL     1      -6.062   4.478 -32.396  1.00  0.00    -0.254 N 
HETATM    2  C   UNL     1      -4.787   3.889 -31.958  1.00  0.00     0.256 C 
HETATM    3  C   UNL     1      -3.585   4.480 -32.669  1.00  0.00     0.034 A 
HETATM    4  C   UNL     1      -3.772   5.033 -33.930  1.00  0.00     0.048 A 
HETATM    5  N   UNL     1      -5.065   5.115 -34.431  1.00  0.00    -0.308 N 
HETATM    6  C   UNL     1      -6.204   4.918 -33.705  1.00  0.00     0.330 C 
HETATM    7  O   UNL     1      -7.273   5.150 -34.270  1.00  0.00    -0.246 OA
HETATM    8  C   UNL     1      -2.277   4.398 -32.161  1.00  0.00     0.015 A 
HETATM    9  C   UNL     1      -1.196   4.868 -32.908  1.00  0.00     0.001 A 
HETATM   10  C   UNL     1      -1.406   5.410 -34.175  1.00  0.00     0.002 A 
HETATM   11  C   UNL     1      -2.698   5.490 -34.692  1.00  0.00     0.030 A 
HETATM   12  H   UNL     1      -5.225   5.519 -35.346  1.00  0.00     0.170 HD
ENDROOT
BRANCH   2  13
HETATM   13  O   UNL     1      -4.594   4.193 -30.573  1.00  0.00    -0.359 OA
HETATM   14  H   UNL     1      -4.286   5.118 -30.551  1.00  0.00     0.213 HD
ENDBRANCH   2  13
BRANCH   2  15
HETATM   15  C   UNL     1      -4.788   2.321 -32.188  1.00  0.00     0.279 C 
HETATM   16  N   UNL     1      -4.115   1.543 -31.265  1.00  0.00    -0.356 N 
HETATM   17  H   UNL     1      -3.867   1.969 -30.377  1.00  0.00     0.162 HD
HETATM   18  O   UNL     1      -5.379   1.827 -33.155  1.00  0.00    -0.268 OA
BRANCH  16  19
HETATM   19  C   UNL     1      -4.197   0.097 -31.328  1.00  0.00     0.127 C 
BRANCH  19  20
HETATM   20  C   UNL     1      -3.432  -0.497 -32.514  1.00  0.00     0.058 C 
BRANCH  20  21
HETATM   21  C   UNL     1      -4.209  -1.549 -33.276  1.00  0.00    -0.057 A 
HETATM   22  C   UNL     1      -5.415  -1.229 -33.917  1.00  0.00     0.009 A 
HETATM   23  C   UNL     1      -6.122  -2.202 -34.627  1.00  0.00     0.024 A 
HETATM   24  C   UNL     1      -5.622  -3.498 -34.711  1.00  0.00     0.034 A 
HETATM   25 CL   UNL     1      -6.489  -4.695 -35.591  1.00  0.00    -0.084 Cl
HETATM   26  C   UNL     1      -4.419  -3.829 -34.092  1.00  0.00     0.024 A 
HETATM   27  C   UNL     1      -3.714  -2.858 -33.377  1.00  0.00     0.009 A 
ENDBRANCH  20  21
ENDBRANCH  19  20
ENDBRANCH  16  19
ENDBRANCH   2  15
BRANCH   1  28
HETATM   28  C   UNL     1      -7.215   4.467 -31.532  1.00  0.00     0.045 A 
HETATM   29  C   UNL     1      -7.583   5.569 -30.740  1.00  0.00     0.066 A 
HETATM   30  C   UNL     1      -8.726   5.531 -29.932  1.00  0.00     0.070 A 
HETATM   31  C   UNL     1      -9.538   4.398 -29.939  1.00  0.00     0.037 A 
HETATM   32  C   UNL     1      -9.191   3.295 -30.712  1.00  0.00     0.005 A 
HETATM   33  C   UNL     1      -8.034   3.327 -31.492  1.00  0.00     0.030 A 
BRANCH  30  34
HETATM   34  O   UNL     1      -9.157   6.537 -29.108  1.00  0.00    -0.356 OA
HETATM   35  C   UNL     1      -9.838   7.623 -29.725  1.00  0.00     0.210 C 
ENDBRANCH  30  34
ENDBRANCH   1  28
TORSDOF 7
ENDMDL
MODEL 8
REMARK VINA RESULT:      -8.2      2.685      6.578
REMARK  7 active torsions:
REMARK  status: ('A' for Active; 'I' for Inactive)
REMARK    1  A    between atoms: O_2  and  C_3 
REMARK    2  A    between atoms: C_5  and  N_6 
REMARK    3  A    between atoms: C_7  and  O_8 
REMARK    4  A    between atoms: C_7  and  C_9 
REMARK       I    between atoms: C_9  and  N_10 
REMARK    5  A    between atoms: N_10  and  C_11 
REMARK    6  A    between atoms: C_11  and  C_12 
REMARK    7  A    between atoms: C_12  and  C_13 
ROOT
HETATM    1  N   UNL     1      -4.844   3.344 -32.933  1.00  0.00    -0.254 N 
HETATM    2  C   UNL     1      -5.238   2.126 -32.208  1.00  0.00     0.256 C 
HETATM    3  C   UNL     1      -5.889   1.087 -33.101  1.00  0.00     0.034 A 
HETATM    4  C   UNL     1      -6.523   1.519 -34.259  1.00  0.00     0.048 A 
HETATM    5  N   UNL     1      -6.438   2.863 -34.598  1.00  0.00    -0.308 N 
HETATM    6  C   UNL     1      -5.591   3.767 -34.025  1.00  0.00     0.330 C 
HETATM    7  O   UNL     1      -5.554   4.892 -34.525  1.00  0.00    -0.246 OA
HETATM    8  C   UNL     1      -5.973  -0.273 -32.758  1.00  0.00     0.015 A 
HETATM    9  C   UNL     1      -6.674  -1.166 -33.570  1.00  0.00     0.001 A 
HETATM   10  C   UNL     1      -7.312  -0.709 -34.722  1.00  0.00     0.002 A 
HETATM   11  C   UNL     1      -7.241   0.640 -35.068  1.00  0.00     0.030 A 
HETATM   12  H   UNL     1      -6.889   3.199 -35.440  1.00  0.00     0.170 HD
ENDROOT
BRANCH   2  13
HETATM   13  O   UNL     1      -4.059   1.498 -31.694  1.00  0.00    -0.359 OA
HETATM   14  H   UNL     1      -3.910   0.721 -32.265  1.00  0.00     0.213 HD
ENDBRANCH   2  13
BRANCH   2  15
HETATM   15  C   UNL     1      -6.239   2.476 -31.030  1.00  0.00     0.279 C 
HETATM   16  N   UNL     1      -7.194   3.445 -31.273  1.00  0.00    -0.356 N 
HETATM   17  H   UNL     1      -7.369   3.705 -32.239  1.00  0.00     0.162 HD
HETATM   18  O   UNL     1      -6.161   1.891 -29.944  1.00  0.00    -0.268 OA
BRANCH  16  19
HETATM   19  C   UNL     1      -8.233   3.710 -30.297  1.00  0.00     0.127 C 
BRANCH  19  20
HETATM   20  C   UNL     1      -9.481   2.846 -30.499  1.00  0.00     0.058 C 
BRANCH  20  21
HETATM   21  C   UNL     1     -10.091   2.970 -31.878  1.00  0.00    -0.057 A 
HETATM   22  C   UNL     1      -9.987   1.923 -32.807  1.00  0.00     0.009 A 
HETATM   23  C   UNL     1     -10.561   2.038 -34.075  1.00  0.00     0.024 A 
HETATM   24  C   UNL     1     -11.253   3.196 -34.419  1.00  0.00     0.034 A 
HETATM   25 CL   UNL     1     -11.966   3.336 -35.978  1.00  0.00    -0.084 Cl
HETATM   26  C   UNL     1     -11.378   4.238 -33.505  1.00  0.00     0.024 A 
HETATM   27  C   UNL     1     -10.799   4.126 -32.237  1.00  0.00     0.009 A 
ENDBRANCH  20  21
ENDBRANCH  19  20
ENDBRANCH  16  19
ENDBRANCH   2  15
BRANCH   1  28
HETATM   28  C   UNL     1      -3.787   4.188 -32.439  1.00  0.00     0.045 A 
HETATM   29  C   UNL     1      -3.960   5.072 -31.360  1.00  0.00     0.066 A 
HETATM   30  C   UNL     1      -2.901   5.858 -30.890  1.00  0.00     0.070 A 
HETATM   31  C   UNL     1      -1.641   5.737 -31.474  1.00  0.00     0.037 A 
HETATM   32  C   UNL     1      -1.447   4.870 -32.544  1.00  0.00     0.005 A 
HETATM   33  C   UNL     1      -2.514   4.112 -33.028  1.00  0.00     0.030 A 
BRANCH  30  34
HETATM   34  O   UNL     1      -2.971   6.766 -29.867  1.00  0.00    -0.356 OA
HETATM   35  C   UNL     1      -1.751   7.079 -29.204  1.00  0.00     0.210 C 
ENDBRANCH  30  34
ENDBRANCH   1  28
TORSDOF 7
ENDMDL
MODEL 9
REMARK VINA RESULT:      -8.1      2.634      3.542
REMARK  7 active torsions:
REMARK  status: ('A' for Active; 'I' for Inactive)
REMARK    1  A    between atoms: O_2  and  C_3 
REMARK    2  A    between atoms: C_5  and  N_6 
REMARK    3  A    between atoms: C_7  and  O_8 
REMARK    4  A    between atoms: C_7  and  C_9 
REMARK       I    between atoms: C_9  and  N_10 
REMARK    5  A    between atoms: N_10  and  C_11 
REMARK    6  A    between atoms: C_11  and  C_12 
REMARK    7  A    between atoms: C_12  and  C_13 
ROOT
HETATM    1  N   UNL     1      -5.949   4.487 -32.209  1.00  0.00    -0.254 N 
HETATM    2  C   UNL     1      -4.698   4.087 -31.548  1.00  0.00     0.256 C 
HETATM    3  C   UNL     1      -3.459   4.608 -32.253  1.00  0.00     0.034 A 
HETATM    4  C   UNL     1      -3.544   4.886 -33.611  1.00  0.00     0.048 A 
HETATM    5  N   UNL     1      -4.781   4.778 -34.233  1.00  0.00    -0.308 N 
HETATM    6  C   UNL     1      -5.978   4.650 -33.588  1.00  0.00     0.330 C 
HETATM    7  O   UNL     1      -6.993   4.691 -34.283  1.00  0.00    -0.246 OA
HETATM    8  C   UNL     1      -2.209   4.718 -31.622  1.00  0.00     0.015 A 
HETATM    9  C   UNL     1      -1.081   5.106 -32.349  1.00  0.00     0.001 A 
HETATM   10  C   UNL     1      -1.187   5.371 -33.712  1.00  0.00     0.002 A 
HETATM   11  C   UNL     1      -2.422   5.257 -34.350  1.00  0.00     0.030 A 
HETATM   12  H   UNL     1      -4.867   4.982 -35.221  1.00  0.00     0.170 HD
ENDROOT
BRANCH   2  13
HETATM   13  O   UNL     1      -4.663   4.670 -30.241  1.00  0.00    -0.359 OA
HETATM   14  H   UNL     1      -4.032   4.128 -29.733  1.00  0.00     0.213 HD
ENDBRANCH   2  13
BRANCH   2  15
HETATM   15  C   UNL     1      -4.597   2.508 -31.453  1.00  0.00     0.279 C 
HETATM   16  N   UNL     1      -4.113   1.833 -32.558  1.00  0.00    -0.356 N 
HETATM   17  H   UNL     1      -3.627   2.374 -33.267  1.00  0.00     0.162 HD
HETATM   18  O   UNL     1      -4.934   1.918 -30.420  1.00  0.00    -0.268 OA
BRANCH  16  19
HETATM   19  C   UNL     1      -3.854   0.408 -32.490  1.00  0.00     0.127 C 
BRANCH  19  20
HETATM   20  C   UNL     1      -4.627  -0.392 -33.543  1.00  0.00     0.058 C 
BRANCH  20  21
HETATM   21  C   UNL     1      -6.105  -0.071 -33.589  1.00  0.00    -0.057 A 
HETATM   22  C   UNL     1      -6.923  -0.289 -32.470  1.00  0.00     0.009 A 
HETATM   23  C   UNL     1      -8.284   0.019 -32.514  1.00  0.00     0.024 A 
HETATM   24  C   UNL     1      -8.835   0.558 -33.674  1.00  0.00     0.034 A 
HETATM   25 CL   UNL     1     -10.510   0.943 -33.727  1.00  0.00    -0.084 Cl
HETATM   26  C   UNL     1      -8.034   0.793 -34.788  1.00  0.00     0.024 A 
HETATM   27  C   UNL     1      -6.673   0.480 -34.747  1.00  0.00     0.009 A 
ENDBRANCH  20  21
ENDBRANCH  19  20
ENDBRANCH  16  19
ENDBRANCH   2  15
BRANCH   1  28
HETATM   28  C   UNL     1      -7.182   4.568 -31.469  1.00  0.00     0.045 A 
HETATM   29  C   UNL     1      -7.628   5.753 -30.859  1.00  0.00     0.066 A 
HETATM   30  C   UNL     1      -8.845   5.800 -30.169  1.00  0.00     0.070 A 
HETATM   31  C   UNL     1      -9.652   4.663 -30.118  1.00  0.00     0.037 A 
HETATM   32  C   UNL     1      -9.230   3.479 -30.712  1.00  0.00     0.005 A 
HETATM   33  C   UNL     1      -8.001   3.431 -31.372  1.00  0.00     0.030 A 
BRANCH  30  34
HETATM   34  O   UNL     1      -9.356   6.892 -29.520  1.00  0.00    -0.356 OA
HETATM   35  C   UNL     1      -8.849   7.157 -28.217  1.00  0.00     0.210 C 
ENDBRANCH  30  34
ENDBRANCH   1  28
TORSDOF 7
ENDMDL
MODEL 10
REMARK VINA RESULT:      -8.1      2.925      4.500
REMARK  7 active torsions:
REMARK  status: ('A' for Active; 'I' for Inactive)
REMARK    1  A    between atoms: O_2  and  C_3 
REMARK    2  A    between atoms: C_5  and  N_6 
REMARK    3  A    between atoms: C_7  and  O_8 
REMARK    4  A    between atoms: C_7  and  C_9 
REMARK       I    between atoms: C_9  and  N_10 
REMARK    5  A    between atoms: N_10  and  C_11 
REMARK    6  A    between atoms: C_11  and  C_12 
REMARK    7  A    between atoms: C_12  and  C_13 
ROOT
HETATM    1  N   UNL     1      -7.137   3.650 -31.975  1.00  0.00    -0.254 N 
HETATM    2  C   UNL     1      -7.135   2.187 -31.826  1.00  0.00     0.256 C 
HETATM    3  C   UNL     1      -5.760   1.622 -31.521  1.00  0.00     0.034 A 
HETATM    4  C   UNL     1      -4.647   2.345 -31.931  1.00  0.00     0.048 A 
HETATM    5  N   UNL     1      -4.843   3.595 -32.501  1.00  0.00    -0.308 N 
HETATM    6  C   UNL     1      -6.018   4.292 -32.487  1.00  0.00     0.330 C 
HETATM    7  O   UNL     1      -5.990   5.441 -32.929  1.00  0.00    -0.246 OA
HETATM    8  C   UNL     1      -5.563   0.357 -30.943  1.00  0.00     0.015 A 
HETATM    9  C   UNL     1      -4.274  -0.154 -30.781  1.00  0.00     0.001 A 
HETATM   10  C   UNL     1      -3.172   0.584 -31.208  1.00  0.00     0.002 A 
HETATM   11  C   UNL     1      -3.357   1.837 -31.790  1.00  0.00     0.030 A 
HETATM   12  H   UNL     1      -4.045   4.142 -32.803  1.00  0.00     0.170 HD
ENDROOT
BRANCH   2  13
HETATM   13  O   UNL     1      -7.945   1.839 -30.698  1.00  0.00    -0.359 OA
HETATM   14  H   UNL     1      -7.806   0.883 -30.565  1.00  0.00     0.213 HD
ENDBRANCH   2  13
BRANCH   2  15
HETATM   15  C   UNL     1      -7.686   1.491 -33.140  1.00  0.00     0.279 C 
HETATM   16  N   UNL     1      -6.771   1.191 -34.132  1.00  0.00    -0.356 N 
HETATM   17  H   UNL     1      -5.786   1.201 -33.886  1.00  0.00     0.162 HD
HETATM   18  O   UNL     1      -8.888   1.226 -33.253  1.00  0.00    -0.268 OA
BRANCH  16  19
HETATM   19  C   UNL     1      -7.177   0.423 -35.293  1.00  0.00     0.127 C 
BRANCH  19  20
HETATM   20  C   UNL     1      -7.673  -0.982 -34.939  1.00  0.00     0.058 C 
BRANCH  20  21
HETATM   21  C   UNL     1      -6.561  -1.966 -34.649  1.00  0.00    -0.057 A 
HETATM   22  C   UNL     1      -6.712  -3.329 -34.943  1.00  0.00     0.009 A 
HETATM   23  C   UNL     1      -5.678  -4.231 -34.683  1.00  0.00     0.024 A 
HETATM   24  C   UNL     1      -4.482  -3.775 -34.136  1.00  0.00     0.034 A 
HETATM   25 CL   UNL     1      -3.206  -4.883 -33.820  1.00  0.00    -0.084 Cl
HETATM   26  C   UNL     1      -4.310  -2.422 -33.851  1.00  0.00     0.024 A 
HETATM   27  C   UNL     1      -5.347  -1.520 -34.106  1.00  0.00     0.009 A 
ENDBRANCH  20  21
ENDBRANCH  19  20
ENDBRANCH  16  19
ENDBRANCH   2  15
BRANCH   1  28
HETATM   28  C   UNL     1      -8.335   4.414 -31.739  1.00  0.00     0.045 A 
HETATM   29  C   UNL     1      -9.360   4.536 -32.694  1.00  0.00     0.066 A 
HETATM   30  C   UNL     1     -10.523   5.266 -32.420  1.00  0.00     0.070 A 
HETATM   31  C   UNL     1     -10.689   5.851 -31.165  1.00  0.00     0.037 A 
HETATM   32  C   UNL     1      -9.688   5.746 -30.206  1.00  0.00     0.005 A 
HETATM   33  C   UNL     1      -8.518   5.042 -30.497  1.00  0.00     0.030 A 
BRANCH  30  34
HETATM   34  O   UNL     1     -11.564   5.467 -33.286  1.00  0.00    -0.356 OA
HETATM   35  C   UNL     1     -12.726   6.094 -32.755  1.00  0.00     0.210 C 
ENDBRANCH  30  34
ENDBRANCH   1  28
TORSDOF 7
ENDMDL
