MODEL 1
REMARK VINA RESULT:      -8.9      0.000      0.000
REMARK  8 active torsions:
REMARK  status: ('A' for Active; 'I' for Inactive)
REMARK    1  A    between atoms: N_4  and  C_6 
REMARK    2  A    between atoms: C_6  and  C_7 
REMARK       I    between atoms: C_7  and  N_8 
REMARK    3  A    between atoms: N_8  and  C_9 
REMARK    4  A    between atoms: C_15  and  C_16 
REMARK    5  A    between atoms: C_21  and  C_22 
REMARK       I    between atoms: C_22  and  N_23 
REMARK    6  A    between atoms: N_23  and  C_24 
REMARK    7  A    between atoms: C_25  and  O_26 
REMARK    8  A    between atoms: C_29  and  O_30 
ROOT
HETATM    1  C   UNL     1      -8.511   4.670 -32.937  1.00  0.00     0.093 C 
HETATM    2  S   UNL     1      -9.674   5.637 -33.702  1.00  0.00    -0.075 SA
HETATM    3  C   UNL     1     -10.813   4.384 -33.685  1.00  0.00    -0.008 C 
HETATM    4  C   UNL     1     -10.292   3.192 -33.212  1.00  0.00    -0.026 C 
HETATM    5  C   UNL     1     -11.117   1.937 -33.257  1.00  0.00     0.041 C 
HETATM    6  C   UNL     1     -12.411   2.104 -34.061  1.00  0.00     0.010 C 
HETATM    7  C   UNL     1     -13.160   3.435 -33.812  1.00  0.00    -0.002 C 
HETATM    8  C   UNL     1     -12.214   4.610 -34.180  1.00  0.00     0.052 C 
HETATM    9  C   UNL     1      -8.966   3.386 -32.643  1.00  0.00     0.073 C 
ENDROOT
BRANCH   9  10
HETATM   10  C   UNL     1      -8.139   2.485 -31.815  1.00  0.00     0.259 C 
HETATM   11  N   UNL     1      -8.347   1.142 -31.972  1.00  0.00    -0.320 N 
HETATM   12  H   UNL     1      -8.564   0.652 -31.108  1.00  0.00     0.169 HD
HETATM   13  O   UNL     1      -7.478   2.921 -30.868  1.00  0.00    -0.267 OA
BRANCH  11  14
HETATM   14  C   UNL     1      -7.597   0.293 -32.824  1.00  0.00     0.068 A 
HETATM   15  C   UNL     1      -6.507  -0.387 -32.241  1.00  0.00     0.097 A 
HETATM   16  C   UNL     1      -5.772  -1.305 -32.997  1.00  0.00     0.075 A 
HETATM   17  C   UNL     1      -6.122  -1.554 -34.325  1.00  0.00     0.070 A 
HETATM   18  C   UNL     1      -7.181  -0.848 -34.905  1.00  0.00     0.039 A 
HETATM   19  C   UNL     1      -7.919   0.078 -34.163  1.00  0.00     0.035 A 
BRANCH  15  20
HETATM   20  O   UNL     1      -6.256  -0.071 -30.925  1.00  0.00    -0.354 OA
HETATM   21  C   UNL     1      -4.956   0.418 -30.616  1.00  0.00     0.210 C 
ENDBRANCH  15  20
BRANCH  17  22
HETATM   22  O   UNL     1      -5.509  -2.448 -35.159  1.00  0.00    -0.356 OA
HETATM   23  C   UNL     1      -5.878  -3.816 -35.025  1.00  0.00     0.210 C 
ENDBRANCH  17  22
ENDBRANCH  11  14
ENDBRANCH   9  10
BRANCH   1  24
HETATM   24  N   UNL     1      -7.307   5.237 -32.538  1.00  0.00    -0.319 N 
HETATM   25  C   UNL     1      -6.206   5.404 -33.349  1.00  0.00     0.248 C 
HETATM   26  O   UNL     1      -5.984   4.867 -34.434  1.00  0.00    -0.271 OA
HETATM   27  H   UNL     1      -7.202   5.307 -31.523  1.00  0.00     0.169 HD
BRANCH  25  28
HETATM   28  C   UNL     1      -5.158   6.364 -32.777  1.00  0.00     0.337 C 
BRANCH  28  29
HETATM   29  N   UNL     1      -3.746   5.765 -32.878  1.00  0.00    -0.062 N 
HETATM   30  C   UNL     1      -2.737   6.740 -33.448  1.00  0.00     0.239 C 
HETATM   31  C   UNL     1      -1.412   6.022 -33.724  1.00  0.00     0.007 C 
HETATM   32  C   UNL     1      -1.516   5.050 -34.905  1.00  0.00     0.011 C 
HETATM   33  C   UNL     1      -0.905   5.321 -32.457  1.00  0.00     0.007 C 
HETATM   34  C   UNL     1      -1.961   4.423 -31.818  1.00  0.00     0.028 C 
HETATM   35  C   UNL     1      -3.278   5.151 -31.591  1.00  0.00     0.235 C 
HETATM   36  H   UNL     1      -3.856   5.026 -33.591  1.00  0.00     0.280 HD
ENDBRANCH  28  29
ENDBRANCH  25  28
ENDBRANCH   1  24
BRANCH   7  37
HETATM   37  C   UNL     1     -13.910   3.565 -32.427  1.00  0.00    -0.047 C 
HETATM   38  C   UNL     1     -12.999   3.805 -31.210  1.00  0.00     0.015 C 
HETATM   39  C   UNL     1     -14.899   4.753 -32.495  1.00  0.00     0.015 C 
HETATM   40  C   UNL     1     -14.749   2.296 -32.152  1.00  0.00     0.015 C 
ENDBRANCH   7  37
TORSDOF 8
ENDMDL
MODEL 2
REMARK VINA RESULT:      -8.8      2.863      6.210
REMARK  8 active torsions:
REMARK  status: ('A' for Active; 'I' for Inactive)
REMARK    1  A    between atoms: N_4  and  C_6 
REMARK    2  A    between atoms: C_6  and  C_7 
REMARK       I    between atoms: C_7  and  N_8 
REMARK    3  A    between atoms: N_8  and  C_9 
REMARK    4  A    between atoms: C_15  and  C_16 
REMARK    5  A    between atoms: C_21  and  C_22 
REMARK       I    between atoms: C_22  and  N_23 
REMARK    6  A    between atoms: N_23  and  C_24 
REMARK    7  A    between atoms: C_25  and  O_26 
REMARK    8  A    between atoms: C_29  and  O_30 
ROOT
HETATM    1  C   UNL     1      -4.098   3.654 -31.169  1.00  0.00     0.093 C 
HETATM    2  S   UNL     1      -3.307   2.465 -32.081  1.00  0.00    -0.075 SA
HETATM    3  C   UNL     1      -4.614   1.399 -31.933  1.00  0.00    -0.008 C 
HETATM    4  C   UNL     1      -5.607   1.880 -31.099  1.00  0.00    -0.026 C 
HETATM    5  C   UNL     1      -6.778   1.009 -30.738  1.00  0.00     0.041 C 
HETATM    6  C   UNL     1      -6.599  -0.444 -31.188  1.00  0.00     0.010 C 
HETATM    7  C   UNL     1      -6.001  -0.613 -32.606  1.00  0.00    -0.002 C 
HETATM    8  C   UNL     1      -4.608   0.071 -32.638  1.00  0.00     0.052 C 
HETATM    9  C   UNL     1      -5.370   3.273 -30.746  1.00  0.00     0.073 C 
ENDROOT
BRANCH   9  10
HETATM   10  C   UNL     1      -6.258   4.261 -30.101  1.00  0.00     0.259 C 
HETATM   11  N   UNL     1      -7.146   4.912 -30.913  1.00  0.00    -0.320 N 
HETATM   12  H   UNL     1      -7.084   5.926 -30.865  1.00  0.00     0.169 HD
HETATM   13  O   UNL     1      -6.046   4.648 -28.949  1.00  0.00    -0.267 OA
BRANCH  11  14
HETATM   14  C   UNL     1      -8.494   4.528 -31.126  1.00  0.00     0.068 A 
HETATM   15  C   UNL     1      -9.473   5.203 -30.368  1.00  0.00     0.097 A 
HETATM   16  C   UNL     1     -10.829   4.938 -30.583  1.00  0.00     0.075 A 
HETATM   17  C   UNL     1     -11.212   4.010 -31.553  1.00  0.00     0.070 A 
HETATM   18  C   UNL     1     -10.233   3.317 -32.273  1.00  0.00     0.039 A 
HETATM   19  C   UNL     1      -8.875   3.568 -32.063  1.00  0.00     0.035 A 
BRANCH  15  20
HETATM   20  O   UNL     1      -8.983   6.101 -29.447  1.00  0.00    -0.354 OA
HETATM   21  C   UNL     1      -9.612   7.377 -29.394  1.00  0.00     0.210 C 
ENDBRANCH  15  20
BRANCH  17  22
HETATM   22  O   UNL     1     -12.499   3.685 -31.883  1.00  0.00    -0.356 OA
HETATM   23  C   UNL     1     -12.695   2.981 -33.105  1.00  0.00     0.210 C 
ENDBRANCH  17  22
ENDBRANCH  11  14
ENDBRANCH   9  10
BRANCH   1  24
HETATM   24  N   UNL     1      -3.523   4.914 -31.042  1.00  0.00    -0.319 N 
HETATM   25  C   UNL     1      -3.921   6.036 -31.733  1.00  0.00     0.248 C 
HETATM   26  O   UNL     1      -4.629   6.088 -32.739  1.00  0.00    -0.271 OA
HETATM   27  H   UNL     1      -2.614   4.905 -30.572  1.00  0.00     0.169 HD
BRANCH  25  28
HETATM   28  C   UNL     1      -3.375   7.345 -31.153  1.00  0.00     0.337 C 
BRANCH  28  29
HETATM   29  N   UNL     1      -2.053   7.109 -30.405  1.00  0.00    -0.062 N 
HETATM   30  C   UNL     1      -0.839   7.316 -31.287  1.00  0.00     0.239 C 
HETATM   31  C   UNL     1       0.426   6.859 -30.552  1.00  0.00     0.007 C 
HETATM   32  C   UNL     1       0.486   5.335 -30.396  1.00  0.00     0.011 C 
HETATM   33  C   UNL     1       0.550   7.571 -29.199  1.00  0.00     0.007 C 
HETATM   34  C   UNL     1      -0.716   7.458 -28.355  1.00  0.00     0.028 C 
HETATM   35  C   UNL     1      -1.962   7.881 -29.122  1.00  0.00     0.235 C 
HETATM   36  H   UNL     1      -2.079   6.098 -30.196  1.00  0.00     0.280 HD
ENDBRANCH  28  29
ENDBRANCH  25  28
ENDBRANCH   1  24
BRANCH   7  37
HETATM   37  C   UNL     1      -6.962  -0.274 -33.813  1.00  0.00    -0.047 C 
HETATM   38  C   UNL     1      -6.674   1.061 -34.523  1.00  0.00     0.015 C 
HETATM   39  C   UNL     1      -6.848  -1.389 -34.882  1.00  0.00     0.015 C 
HETATM   40  C   UNL     1      -8.432  -0.255 -33.338  1.00  0.00     0.015 C 
ENDBRANCH   7  37
TORSDOF 8
ENDMDL
MODEL 3
REMARK VINA RESULT:      -8.7      1.680      2.455
REMARK  8 active torsions:
REMARK  status: ('A' for Active; 'I' for Inactive)
REMARK    1  A    between atoms: N_4  and  C_6 
REMARK    2  A    between atoms: C_6  and  C_7 
REMARK       I    between atoms: C_7  and  N_8 
REMARK    3  A    between atoms: N_8  and  C_9 
REMARK    4  A    between atoms: C_15  and  C_16 
REMARK    5  A    between atoms: C_21  and  C_22 
REMARK       I    between atoms: C_22  and  N_23 
REMARK    6  A    between atoms: N_23  and  C_24 
REMARK    7  A    between atoms: C_25  and  O_26 
REMARK    8  A    between atoms: C_29  and  O_30 
ROOT
HETATM    1  C   UNL     1      -7.453   3.988 -32.661  1.00  0.00     0.093 C 
HETATM    2  S   UNL     1      -7.728   5.255 -33.753  1.00  0.00    -0.075 SA
HETATM    3  C   UNL     1      -9.230   4.619 -34.206  1.00  0.00    -0.008 C 
HETATM    4  C   UNL     1      -9.487   3.387 -33.628  1.00  0.00    -0.026 C 
HETATM    5  C   UNL     1     -10.709   2.608 -34.025  1.00  0.00     0.041 C 
HETATM    6  C   UNL     1     -11.431   3.209 -35.236  1.00  0.00     0.010 C 
HETATM    7  C   UNL     1     -11.550   4.752 -35.216  1.00  0.00    -0.002 C 
HETATM    8  C   UNL     1     -10.122   5.357 -35.165  1.00  0.00     0.052 C 
HETATM    9  C   UNL     1      -8.497   3.068 -32.609  1.00  0.00     0.073 C 
ENDROOT
BRANCH   9  10
HETATM   10  C   UNL     1      -8.495   2.010 -31.578  1.00  0.00     0.259 C 
HETATM   11  N   UNL     1      -8.271   0.731 -32.008  1.00  0.00    -0.320 N 
HETATM   12  H   UNL     1      -8.994   0.070 -31.737  1.00  0.00     0.169 HD
HETATM   13  O   UNL     1      -8.909   2.235 -30.437  1.00  0.00    -0.267 OA
BRANCH  11  14
HETATM   14  C   UNL     1      -7.012   0.080 -32.020  1.00  0.00     0.068 A 
HETATM   15  C   UNL     1      -6.625  -0.532 -33.230  1.00  0.00     0.097 A 
HETATM   16  C   UNL     1      -5.362  -1.120 -33.344  1.00  0.00     0.075 A 
HETATM   17  C   UNL     1      -4.482  -1.095 -32.260  1.00  0.00     0.070 A 
HETATM   18  C   UNL     1      -4.888  -0.520 -31.052  1.00  0.00     0.039 A 
HETATM   19  C   UNL     1      -6.150   0.065 -30.924  1.00  0.00     0.035 A 
BRANCH  15  20
HETATM   20  O   UNL     1      -7.567  -0.491 -34.233  1.00  0.00    -0.354 OA
HETATM   21  C   UNL     1      -7.317   0.400 -35.315  1.00  0.00     0.210 C 
ENDBRANCH  15  20
BRANCH  17  22
HETATM   22  O   UNL     1      -3.212  -1.603 -32.251  1.00  0.00    -0.356 OA
HETATM   23  C   UNL     1      -3.067  -2.976 -31.904  1.00  0.00     0.210 C 
ENDBRANCH  17  22
ENDBRANCH  11  14
ENDBRANCH   9  10
BRANCH   1  24
HETATM   24  N   UNL     1      -6.342   4.033 -31.828  1.00  0.00    -0.319 N 
HETATM   25  C   UNL     1      -5.116   3.475 -32.116  1.00  0.00     0.248 C 
HETATM   26  O   UNL     1      -4.856   2.641 -32.982  1.00  0.00    -0.271 OA
HETATM   27  H   UNL     1      -6.561   4.303 -30.866  1.00  0.00     0.169 HD
BRANCH  25  28
HETATM   28  C   UNL     1      -3.984   3.971 -31.211  1.00  0.00     0.337 C 
BRANCH  28  29
HETATM   29  N   UNL     1      -2.868   4.632 -32.034  1.00  0.00    -0.062 N 
HETATM   30  C   UNL     1      -3.385   5.715 -32.958  1.00  0.00     0.239 C 
HETATM   31  C   UNL     1      -2.268   6.180 -33.899  1.00  0.00     0.007 C 
HETATM   32  C   UNL     1      -1.908   5.113 -34.940  1.00  0.00     0.011 C 
HETATM   33  C   UNL     1      -1.039   6.626 -33.097  1.00  0.00     0.007 C 
HETATM   34  C   UNL     1      -0.584   5.578 -32.085  1.00  0.00     0.028 C 
HETATM   35  C   UNL     1      -1.721   5.106 -31.190  1.00  0.00     0.235 C 
HETATM   36  H   UNL     1      -2.546   3.868 -32.650  1.00  0.00     0.280 HD
ENDBRANCH  28  29
ENDBRANCH  25  28
ENDBRANCH   1  24
BRANCH   7  37
HETATM   37  C   UNL     1     -12.592   5.358 -34.194  1.00  0.00    -0.047 C 
HETATM   38  C   UNL     1     -11.976   6.152 -33.028  1.00  0.00     0.015 C 
HETATM   39  C   UNL     1     -13.541   6.321 -34.948  1.00  0.00     0.015 C 
HETATM   40  C   UNL     1     -13.470   4.236 -33.596  1.00  0.00     0.015 C 
ENDBRANCH   7  37
TORSDOF 8
ENDMDL
MODEL 4
REMARK VINA RESULT:      -8.6      3.834      7.385
REMARK  8 active torsions:
REMARK  status: ('A' for Active; 'I' for Inactive)
REMARK    1  A    between atoms: N_4  and  C_6 
REMARK    2  A    between atoms: C_6  and  C_7 
REMARK       I    between atoms: C_7  and  N_8 
REMARK    3  A    between atoms: N_8  and  C_9 
REMARK    4  A    between atoms: C_15  and  C_16 
REMARK    5  A    between atoms: C_21  and  C_22 
REMARK       I    between atoms: C_22  and  N_23 
REMARK    6  A    between atoms: N_23  and  C_24 
REMARK    7  A    between atoms: C_25  and  O_26 
REMARK    8  A    between atoms: C_29  and  O_30 
ROOT
HETATM    1  C   UNL     1      -3.646   3.408 -31.584  1.00  0.00     0.093 C 
HETATM    2  S   UNL     1      -3.347   1.750 -31.770  1.00  0.00    -0.075 SA
HETATM    3  C   UNL     1      -5.002   1.393 -31.791  1.00  0.00    -0.008 C 
HETATM    4  C   UNL     1      -5.793   2.501 -31.539  1.00  0.00    -0.026 C 
HETATM    5  C   UNL     1      -7.279   2.347 -31.379  1.00  0.00     0.041 C 
HETATM    6  C   UNL     1      -7.720   0.882 -31.294  1.00  0.00     0.010 C 
HETATM    7  C   UNL     1      -7.013  -0.064 -32.295  1.00  0.00    -0.002 C 
HETATM    8  C   UNL     1      -5.485  -0.010 -32.030  1.00  0.00     0.052 C 
HETATM    9  C   UNL     1      -5.003   3.724 -31.546  1.00  0.00     0.073 C 
ENDROOT
BRANCH   9  10
HETATM   10  C   UNL     1      -5.429   5.138 -31.572  1.00  0.00     0.259 C 
HETATM   11  N   UNL     1      -6.258   5.549 -30.565  1.00  0.00    -0.320 N 
HETATM   12  H   UNL     1      -7.124   5.974 -30.888  1.00  0.00     0.169 HD
HETATM   13  O   UNL     1      -5.246   5.838 -32.572  1.00  0.00    -0.267 OA
BRANCH  11  14
HETATM   14  C   UNL     1      -5.839   6.180 -29.366  1.00  0.00     0.068 A 
HETATM   15  C   UNL     1      -5.970   7.583 -29.309  1.00  0.00     0.097 A 
HETATM   16  C   UNL     1      -5.657   8.266 -28.130  1.00  0.00     0.075 A 
HETATM   17  C   UNL     1      -5.220   7.557 -27.009  1.00  0.00     0.070 A 
HETATM   18  C   UNL     1      -5.056   6.170 -27.088  1.00  0.00     0.039 A 
HETATM   19  C   UNL     1      -5.360   5.477 -28.261  1.00  0.00     0.035 A 
BRANCH  15  20
HETATM   20  O   UNL     1      -6.416   8.177 -30.467  1.00  0.00    -0.354 OA
HETATM   21  C   UNL     1      -5.561   9.145 -31.065  1.00  0.00     0.210 C 
ENDBRANCH  15  20
BRANCH  17  22
HETATM   22  O   UNL     1      -4.913   8.099 -25.791  1.00  0.00    -0.356 OA
HETATM   23  C   UNL     1      -3.551   8.042 -25.382  1.00  0.00     0.210 C 
ENDBRANCH  17  22
ENDBRANCH  11  14
ENDBRANCH   9  10
BRANCH   1  24
HETATM   24  N   UNL     1      -2.585   4.304 -31.633  1.00  0.00    -0.319 N 
HETATM   25  C   UNL     1      -1.988   4.757 -32.788  1.00  0.00     0.248 C 
HETATM   26  O   UNL     1      -2.080   4.279 -33.919  1.00  0.00    -0.271 OA
HETATM   27  H   UNL     1      -2.108   4.426 -30.736  1.00  0.00     0.169 HD
BRANCH  25  28
HETATM   28  C   UNL     1      -1.102   5.990 -32.583  1.00  0.00     0.337 C 
BRANCH  28  29
HETATM   29  N   UNL     1      -1.041   6.386 -31.100  1.00  0.00    -0.062 N 
HETATM   30  C   UNL     1       0.308   6.949 -30.700  1.00  0.00     0.239 C 
HETATM   31  C   UNL     1       0.375   7.119 -29.178  1.00  0.00     0.007 C 
HETATM   32  C   UNL     1       0.439   5.773 -28.448  1.00  0.00     0.011 C 
HETATM   33  C   UNL     1      -0.795   7.978 -28.681  1.00  0.00     0.007 C 
HETATM   34  C   UNL     1      -2.148   7.475 -29.176  1.00  0.00     0.028 C 
HETATM   35  C   UNL     1      -2.174   7.278 -30.685  1.00  0.00     0.235 C 
HETATM   36  H   UNL     1      -1.122   5.480 -30.612  1.00  0.00     0.280 HD
ENDBRANCH  28  29
ENDBRANCH  25  28
ENDBRANCH   1  24
BRANCH   7  37
HETATM   37  C   UNL     1      -7.455   0.064 -33.806  1.00  0.00    -0.047 C 
HETATM   38  C   UNL     1      -6.709   1.139 -34.616  1.00  0.00     0.015 C 
HETATM   39  C   UNL     1      -7.217  -1.289 -34.521  1.00  0.00     0.015 C 
HETATM   40  C   UNL     1      -8.969   0.361 -33.898  1.00  0.00     0.015 C 
ENDBRANCH   7  37
TORSDOF 8
ENDMDL
MODEL 5
REMARK VINA RESULT:      -8.4      2.157      7.369
REMARK  8 active torsions:
REMARK  status: ('A' for Active; 'I' for Inactive)
REMARK    1  A    between atoms: N_4  and  C_6 
REMARK    2  A    between atoms: C_6  and  C_7 
REMARK       I    between atoms: C_7  and  N_8 
REMARK    3  A    between atoms: N_8  and  C_9 
REMARK    4  A    between atoms: C_15  and  C_16 
REMARK    5  A    between atoms: C_21  and  C_22 
REMARK       I    between atoms: C_22  and  N_23 
REMARK    6  A    between atoms: N_23  and  C_24 
REMARK    7  A    between atoms: C_25  and  O_26 
REMARK    8  A    between atoms: C_29  and  O_30 
ROOT
HETATM    1  C   UNL     1      -7.996   5.744 -32.092  1.00  0.00     0.093 C 
HETATM    2  S   UNL     1      -7.072   7.115 -32.466  1.00  0.00    -0.075 SA
HETATM    3  C   UNL     1      -5.635   6.344 -32.010  1.00  0.00    -0.008 C 
HETATM    4  C   UNL     1      -5.849   5.092 -31.462  1.00  0.00    -0.026 C 
HETATM    5  C   UNL     1      -4.702   4.320 -30.873  1.00  0.00     0.041 C 
HETATM    6  C   UNL     1      -3.422   5.154 -30.753  1.00  0.00     0.010 C 
HETATM    7  C   UNL     1      -3.118   6.049 -31.979  1.00  0.00    -0.002 C 
HETATM    8  C   UNL     1      -4.307   7.026 -32.183  1.00  0.00     0.052 C 
HETATM    9  C   UNL     1      -7.234   4.674 -31.628  1.00  0.00     0.073 C 
ENDROOT
BRANCH   9  10
HETATM   10  C   UNL     1      -7.864   3.352 -31.434  1.00  0.00     0.259 C 
HETATM   11  N   UNL     1      -7.523   2.371 -32.325  1.00  0.00    -0.320 N 
HETATM   12  H   UNL     1      -8.317   1.941 -32.792  1.00  0.00     0.169 HD
HETATM   13  O   UNL     1      -8.820   3.211 -30.667  1.00  0.00    -0.267 OA
BRANCH  11  14
HETATM   14  C   UNL     1      -6.507   1.402 -32.125  1.00  0.00     0.068 A 
HETATM   15  C   UNL     1      -5.936   0.834 -33.283  1.00  0.00     0.097 A 
HETATM   16  C   UNL     1      -4.873  -0.065 -33.168  1.00  0.00     0.075 A 
HETATM   17  C   UNL     1      -4.372  -0.396 -31.907  1.00  0.00     0.070 A 
HETATM   18  C   UNL     1      -4.970   0.143 -30.763  1.00  0.00     0.039 A 
HETATM   19  C   UNL     1      -6.037   1.038 -30.864  1.00  0.00     0.035 A 
BRANCH  15  20
HETATM   20  O   UNL     1      -6.502   1.236 -34.471  1.00  0.00    -0.354 OA
HETATM   21  C   UNL     1      -7.084   0.223 -35.283  1.00  0.00     0.210 C 
ENDBRANCH  15  20
BRANCH  17  22
HETATM   22  O   UNL     1      -3.319  -1.233 -31.659  1.00  0.00    -0.356 OA
HETATM   23  C   UNL     1      -3.405  -2.552 -32.187  1.00  0.00     0.210 C 
ENDBRANCH  17  22
ENDBRANCH  11  14
ENDBRANCH   9  10
BRANCH   1  24
HETATM   24  N   UNL     1      -9.351   5.728 -32.401  1.00  0.00    -0.319 N 
HETATM   25  C   UNL     1      -9.870   5.565 -33.665  1.00  0.00     0.248 C 
HETATM   26  O   UNL     1      -9.280   5.676 -34.740  1.00  0.00    -0.271 OA
HETATM   27  H   UNL     1      -9.947   6.089 -31.652  1.00  0.00     0.169 HD
BRANCH  25  28
HETATM   28  C   UNL     1     -11.364   5.227 -33.681  1.00  0.00     0.337 C 
BRANCH  28  29
HETATM   29  N   UNL     1     -11.598   3.776 -34.129  1.00  0.00    -0.062 N 
HETATM   30  C   UNL     1     -12.097   2.890 -33.006  1.00  0.00     0.239 C 
HETATM   31  C   UNL     1     -12.102   1.425 -33.457  1.00  0.00     0.007 C 
HETATM   32  C   UNL     1     -10.684   0.862 -33.609  1.00  0.00     0.011 C 
HETATM   33  C   UNL     1     -12.918   1.260 -34.745  1.00  0.00     0.007 C 
HETATM   34  C   UNL     1     -12.489   2.231 -35.842  1.00  0.00     0.028 C 
HETATM   35  C   UNL     1     -12.455   3.674 -35.357  1.00  0.00     0.235 C 
HETATM   36  H   UNL     1     -10.646   3.442 -34.348  1.00  0.00     0.280 HD
ENDBRANCH  28  29
ENDBRANCH  25  28
ENDBRANCH   1  24
BRANCH   7  37
HETATM   37  C   UNL     1      -2.608   5.306 -33.276  1.00  0.00    -0.047 C 
HETATM   38  C   UNL     1      -3.468   5.522 -34.534  1.00  0.00     0.015 C 
HETATM   39  C   UNL     1      -1.179   5.798 -33.614  1.00  0.00     0.015 C 
HETATM   40  C   UNL     1      -2.511   3.785 -33.019  1.00  0.00     0.015 C 
ENDBRANCH   7  37
TORSDOF 8
ENDMDL
MODEL 6
REMARK VINA RESULT:      -8.3      3.067      6.417
REMARK  8 active torsions:
REMARK  status: ('A' for Active; 'I' for Inactive)
REMARK    1  A    between atoms: N_4  and  C_6 
REMARK    2  A    between atoms: C_6  and  C_7 
REMARK       I    between atoms: C_7  and  N_8 
REMARK    3  A    between atoms: N_8  and  C_9 
REMARK    4  A    between atoms: C_15  and  C_16 
REMARK    5  A    between atoms: C_21  and  C_22 
REMARK       I    between atoms: C_22  and  N_23 
REMARK    6  A    between atoms: N_23  and  C_24 
REMARK    7  A    between atoms: C_25  and  O_26 
REMARK    8  A    between atoms: C_29  and  O_30 
ROOT
HETATM    1  C   UNL     1      -3.620   2.905 -31.292  1.00  0.00     0.093 C 
HETATM    2  S   UNL     1      -3.378   1.275 -31.688  1.00  0.00    -0.075 SA
HETATM    3  C   UNL     1      -5.044   0.988 -31.776  1.00  0.00    -0.008 C 
HETATM    4  C   UNL     1      -5.798   2.084 -31.393  1.00  0.00    -0.026 C 
HETATM    5  C   UNL     1      -7.292   1.968 -31.273  1.00  0.00     0.041 C 
HETATM    6  C   UNL     1      -7.787   0.522 -31.385  1.00  0.00     0.010 C 
HETATM    7  C   UNL     1      -7.098  -0.314 -32.490  1.00  0.00    -0.002 C 
HETATM    8  C   UNL     1      -5.573  -0.353 -32.201  1.00  0.00     0.052 C 
HETATM    9  C   UNL     1      -4.964   3.266 -31.231  1.00  0.00     0.073 C 
ENDROOT
BRANCH   9  10
HETATM   10  C   UNL     1      -5.338   4.687 -31.080  1.00  0.00     0.259 C 
HETATM   11  N   UNL     1      -5.679   5.359 -32.222  1.00  0.00    -0.320 N 
HETATM   12  H   UNL     1      -5.139   6.206 -32.381  1.00  0.00     0.169 HD
HETATM   13  O   UNL     1      -5.122   5.291 -30.026  1.00  0.00    -0.267 OA
BRANCH  11  14
HETATM   14  C   UNL     1      -7.001   5.540 -32.700  1.00  0.00     0.068 A 
HETATM   15  C   UNL     1      -7.640   6.749 -32.354  1.00  0.00     0.097 A 
HETATM   16  C   UNL     1      -8.911   7.036 -32.859  1.00  0.00     0.075 A 
HETATM   17  C   UNL     1      -9.545   6.129 -33.710  1.00  0.00     0.070 A 
HETATM   18  C   UNL     1      -8.920   4.916 -34.016  1.00  0.00     0.039 A 
HETATM   19  C   UNL     1      -7.652   4.614 -33.514  1.00  0.00     0.035 A 
BRANCH  15  20
HETATM   20  O   UNL     1      -6.921   7.572 -31.517  1.00  0.00    -0.354 OA
HETATM   21  C   UNL     1      -7.507   7.879 -30.257  1.00  0.00     0.210 C 
ENDBRANCH  15  20
BRANCH  17  22
HETATM   22  O   UNL     1     -10.769   6.303 -34.295  1.00  0.00    -0.356 OA
HETATM   23  C   UNL     1     -11.661   5.194 -34.270  1.00  0.00     0.210 C 
ENDBRANCH  17  22
ENDBRANCH  11  14
ENDBRANCH   9  10
BRANCH   1  24
HETATM   24  N   UNL     1      -2.526   3.758 -31.211  1.00  0.00    -0.319 N 
HETATM   25  C   UNL     1      -1.980   4.445 -32.272  1.00  0.00     0.248 C 
HETATM   26  O   UNL     1      -2.161   4.240 -33.473  1.00  0.00    -0.271 OA
HETATM   27  H   UNL     1      -1.990   3.659 -30.344  1.00  0.00     0.169 HD
BRANCH  25  28
HETATM   28  C   UNL     1      -1.031   5.573 -31.856  1.00  0.00     0.337 C 
BRANCH  28  29
HETATM   29  N   UNL     1      -1.785   6.683 -31.107  1.00  0.00    -0.062 N 
HETATM   30  C   UNL     1      -0.892   7.463 -30.164  1.00  0.00     0.239 C 
HETATM   31  C   UNL     1      -1.738   8.400 -29.295  1.00  0.00     0.007 C 
HETATM   32  C   UNL     1      -2.578   7.633 -28.267  1.00  0.00     0.011 C 
HETATM   33  C   UNL     1      -2.608   9.309 -30.172  1.00  0.00     0.007 C 
HETATM   34  C   UNL     1      -3.426   8.530 -31.199  1.00  0.00     0.028 C 
HETATM   35  C   UNL     1      -2.567   7.579 -32.021  1.00  0.00     0.235 C 
HETATM   36  H   UNL     1      -2.437   6.156 -30.503  1.00  0.00     0.280 HD
ENDBRANCH  28  29
ENDBRANCH  25  28
ENDBRANCH   1  24
BRANCH   7  37
HETATM   37  C   UNL     1      -7.508   0.025 -33.978  1.00  0.00    -0.047 C 
HETATM   38  C   UNL     1      -6.681   1.138 -34.646  1.00  0.00     0.015 C 
HETATM   39  C   UNL     1      -7.348  -1.244 -34.851  1.00  0.00     0.015 C 
HETATM   40  C   UNL     1      -8.997   0.432 -34.044  1.00  0.00     0.015 C 
ENDBRANCH   7  37
TORSDOF 8
ENDMDL
MODEL 7
REMARK VINA RESULT:      -8.2      2.396      7.809
REMARK  8 active torsions:
REMARK  status: ('A' for Active; 'I' for Inactive)
REMARK    1  A    between atoms: N_4  and  C_6 
REMARK    2  A    between atoms: C_6  and  C_7 
REMARK       I    between atoms: C_7  and  N_8 
REMARK    3  A    between atoms: N_8  and  C_9 
REMARK    4  A    between atoms: C_15  and  C_16 
REMARK    5  A    between atoms: C_21  and  C_22 
REMARK       I    between atoms: C_22  and  N_23 
REMARK    6  A    between atoms: N_23  and  C_24 
REMARK    7  A    between atoms: C_25  and  O_26 
REMARK    8  A    between atoms: C_29  and  O_30 
ROOT
HETATM    1  C   UNL     1      -9.611   1.997 -32.580  1.00  0.00     0.093 C 
HETATM    2  S   UNL     1      -9.691   0.326 -32.307  1.00  0.00    -0.075 SA
HETATM    3  C   UNL     1      -8.342   0.041 -33.288  1.00  0.00    -0.008 C 
HETATM    4  C   UNL     1      -7.890   1.185 -33.924  1.00  0.00    -0.026 C 
HETATM    5  C   UNL     1      -6.789   1.096 -34.943  1.00  0.00     0.041 C 
HETATM    6  C   UNL     1      -6.443  -0.348 -35.323  1.00  0.00     0.010 C 
HETATM    7  C   UNL     1      -6.386  -1.333 -34.131  1.00  0.00    -0.002 C 
HETATM    8  C   UNL     1      -7.771  -1.342 -33.431  1.00  0.00     0.052 C 
HETATM    9  C   UNL     1      -8.554   2.373 -33.407  1.00  0.00     0.073 C 
ENDROOT
BRANCH   9  10
HETATM   10  C   UNL     1      -8.237   3.803 -33.592  1.00  0.00     0.259 C 
HETATM   11  N   UNL     1      -7.324   4.347 -32.732  1.00  0.00    -0.320 N 
HETATM   12  H   UNL     1      -7.660   5.169 -32.237  1.00  0.00     0.169 HD
HETATM   13  O   UNL     1      -8.932   4.518 -34.320  1.00  0.00    -0.267 OA
BRANCH  11  14
HETATM   14  C   UNL     1      -5.936   4.482 -32.989  1.00  0.00     0.068 A 
HETATM   15  C   UNL     1      -5.060   4.117 -31.946  1.00  0.00     0.097 A 
HETATM   16  C   UNL     1      -3.678   4.142 -32.153  1.00  0.00     0.075 A 
HETATM   17  C   UNL     1      -3.166   4.522 -33.396  1.00  0.00     0.070 A 
HETATM   18  C   UNL     1      -4.041   4.919 -34.412  1.00  0.00     0.039 A 
HETATM   19  C   UNL     1      -5.424   4.905 -34.215  1.00  0.00     0.035 A 
BRANCH  15  20
HETATM   20  O   UNL     1      -5.672   3.752 -30.768  1.00  0.00    -0.354 OA
HETATM   21  C   UNL     1      -5.370   2.458 -30.259  1.00  0.00     0.210 C 
ENDBRANCH  15  20
BRANCH  17  22
HETATM   22  O   UNL     1      -1.842   4.558 -33.738  1.00  0.00    -0.356 OA
HETATM   23  C   UNL     1      -1.437   5.576 -34.646  1.00  0.00     0.210 C 
ENDBRANCH  17  22
ENDBRANCH  11  14
ENDBRANCH   9  10
BRANCH   1  24
HETATM   24  N   UNL     1     -10.458   2.846 -31.877  1.00  0.00    -0.319 N 
HETATM   25  C   UNL     1     -10.085   3.622 -30.803  1.00  0.00     0.248 C 
HETATM   26  O   UNL     1      -9.068   3.517 -30.117  1.00  0.00    -0.271 OA
HETATM   27  H   UNL     1     -11.451   2.678 -32.059  1.00  0.00     0.169 HD
BRANCH  25  28
HETATM   28  C   UNL     1     -11.098   4.716 -30.449  1.00  0.00     0.337 C 
BRANCH  28  29
HETATM   29  N   UNL     1     -12.343   4.628 -31.346  1.00  0.00    -0.062 N 
HETATM   30  C   UNL     1     -13.612   4.367 -30.561  1.00  0.00     0.239 C 
HETATM   31  C   UNL     1     -14.771   4.075 -31.520  1.00  0.00     0.007 C 
HETATM   32  C   UNL     1     -14.621   2.715 -32.213  1.00  0.00     0.011 C 
HETATM   33  C   UNL     1     -14.929   5.214 -32.536  1.00  0.00     0.007 C 
HETATM   34  C   UNL     1     -13.622   5.553 -33.249  1.00  0.00     0.028 C 
HETATM   35  C   UNL     1     -12.479   5.799 -32.274  1.00  0.00     0.235 C 
HETATM   36  H   UNL     1     -12.173   3.771 -31.898  1.00  0.00     0.280 HD
ENDBRANCH  28  29
ENDBRANCH  25  28
ENDBRANCH   1  24
BRANCH   7  37
HETATM   37  C   UNL     1      -5.133  -1.201 -33.176  1.00  0.00    -0.047 C 
HETATM   38  C   UNL     1      -4.187  -0.030 -33.498  1.00  0.00     0.015 C 
HETATM   39  C   UNL     1      -5.623  -1.001 -31.721  1.00  0.00     0.015 C 
HETATM   40  C   UNL     1      -4.305  -2.505 -33.197  1.00  0.00     0.015 C 
ENDBRANCH   7  37
TORSDOF 8
ENDMDL
MODEL 8
REMARK VINA RESULT:      -8.2      3.728      9.848
REMARK  8 active torsions:
REMARK  status: ('A' for Active; 'I' for Inactive)
REMARK    1  A    between atoms: N_4  and  C_6 
REMARK    2  A    between atoms: C_6  and  C_7 
REMARK       I    between atoms: C_7  and  N_8 
REMARK    3  A    between atoms: N_8  and  C_9 
REMARK    4  A    between atoms: C_15  and  C_16 
REMARK    5  A    between atoms: C_21  and  C_22 
REMARK       I    between atoms: C_22  and  N_23 
REMARK    6  A    between atoms: N_23  and  C_24 
REMARK    7  A    between atoms: C_25  and  O_26 
REMARK    8  A    between atoms: C_29  and  O_30 
ROOT
HETATM    1  C   UNL     1      -4.194   4.376 -32.510  1.00  0.00     0.093 C 
HETATM    2  S   UNL     1      -2.604   3.788 -32.507  1.00  0.00    -0.075 SA
HETATM    3  C   UNL     1      -1.984   5.299 -32.059  1.00  0.00    -0.008 C 
HETATM    4  C   UNL     1      -2.953   6.287 -32.023  1.00  0.00    -0.026 C 
HETATM    5  C   UNL     1      -2.563   7.718 -31.782  1.00  0.00     0.041 C 
HETATM    6  C   UNL     1      -1.047   7.937 -31.828  1.00  0.00     0.010 C 
HETATM    7  C   UNL     1      -0.214   6.846 -31.113  1.00  0.00    -0.002 C 
HETATM    8  C   UNL     1      -0.519   5.477 -31.779  1.00  0.00     0.052 C 
HETATM    9  C   UNL     1      -4.288   5.721 -32.160  1.00  0.00     0.073 C 
ENDROOT
BRANCH   9  10
HETATM   10  C   UNL     1      -5.613   6.333 -31.937  1.00  0.00     0.259 C 
HETATM   11  N   UNL     1      -5.999   6.509 -30.637  1.00  0.00    -0.320 N 
HETATM   12  H   UNL     1      -6.895   6.084 -30.409  1.00  0.00     0.169 HD
HETATM   13  O   UNL     1      -6.420   6.454 -32.863  1.00  0.00    -0.267 OA
BRANCH  11  14
HETATM   14  C   UNL     1      -5.836   7.702 -29.889  1.00  0.00     0.068 A 
HETATM   15  C   UNL     1      -5.848   7.577 -28.484  1.00  0.00     0.097 A 
HETATM   16  C   UNL     1      -5.609   8.695 -27.681  1.00  0.00     0.075 A 
HETATM   17  C   UNL     1      -5.352   9.935 -28.270  1.00  0.00     0.070 A 
HETATM   18  C   UNL     1      -5.380  10.057 -29.663  1.00  0.00     0.039 A 
HETATM   19  C   UNL     1      -5.624   8.949 -30.476  1.00  0.00     0.035 A 
BRANCH  15  20
HETATM   20  O   UNL     1      -6.104   6.309 -28.012  1.00  0.00    -0.354 OA
HETATM   21  C   UNL     1      -5.128   5.734 -27.150  1.00  0.00     0.210 C 
ENDBRANCH  15  20
BRANCH  17  22
HETATM   22  O   UNL     1      -5.071  11.094 -27.601  1.00  0.00    -0.356 OA
HETATM   23  C   UNL     1      -3.842  11.148 -26.887  1.00  0.00     0.210 C 
ENDBRANCH  17  22
ENDBRANCH  11  14
ENDBRANCH   9  10
BRANCH   1  24
HETATM   24  N   UNL     1      -5.249   3.491 -32.699  1.00  0.00    -0.319 N 
HETATM   25  C   UNL     1      -6.120   3.079 -31.715  1.00  0.00     0.248 C 
HETATM   26  O   UNL     1      -5.980   3.183 -30.497  1.00  0.00    -0.271 OA
HETATM   27  H   UNL     1      -5.195   2.969 -33.577  1.00  0.00     0.169 HD
BRANCH  25  28
HETATM   28  C   UNL     1      -7.385   2.403 -32.253  1.00  0.00     0.337 C 
BRANCH  28  29
HETATM   29  N   UNL     1      -7.033   1.228 -33.179  1.00  0.00    -0.062 N 
HETATM   30  C   UNL     1      -6.913  -0.087 -32.435  1.00  0.00     0.239 C 
HETATM   31  C   UNL     1      -6.352  -1.167 -33.367  1.00  0.00     0.007 C 
HETATM   32  C   UNL     1      -4.874  -0.932 -33.700  1.00  0.00     0.011 C 
HETATM   33  C   UNL     1      -7.208  -1.282 -34.635  1.00  0.00     0.007 C 
HETATM   34  C   UNL     1      -7.422   0.063 -35.325  1.00  0.00     0.028 C 
HETATM   35  C   UNL     1      -7.942   1.127 -34.368  1.00  0.00     0.235 C 
HETATM   36  H   UNL     1      -6.078   1.458 -33.496  1.00  0.00     0.280 HD
ENDBRANCH  28  29
ENDBRANCH  25  28
ENDBRANCH   1  24
BRANCH   7  37
HETATM   37  C   UNL     1      -0.249   6.865 -29.533  1.00  0.00    -0.047 C 
HETATM   38  C   UNL     1      -1.641   7.081 -28.913  1.00  0.00     0.015 C 
HETATM   39  C   UNL     1       0.282   5.513 -28.997  1.00  0.00     0.015 C 
HETATM   40  C   UNL     1       0.692   7.965 -28.991  1.00  0.00     0.015 C 
ENDBRANCH   7  37
TORSDOF 8
ENDMDL
MODEL 9
REMARK VINA RESULT:      -8.2      3.376      7.337
REMARK  8 active torsions:
REMARK  status: ('A' for Active; 'I' for Inactive)
REMARK    1  A    between atoms: N_4  and  C_6 
REMARK    2  A    between atoms: C_6  and  C_7 
REMARK       I    between atoms: C_7  and  N_8 
REMARK    3  A    between atoms: N_8  and  C_9 
REMARK    4  A    between atoms: C_15  and  C_16 
REMARK    5  A    between atoms: C_21  and  C_22 
REMARK       I    between atoms: C_22  and  N_23 
REMARK    6  A    between atoms: N_23  and  C_24 
REMARK    7  A    between atoms: C_25  and  O_26 
REMARK    8  A    between atoms: C_29  and  O_30 
ROOT
HETATM    1  C   UNL     1      -4.076   3.560 -31.481  1.00  0.00     0.093 C 
HETATM    2  S   UNL     1      -3.354   2.046 -31.235  1.00  0.00    -0.075 SA
HETATM    3  C   UNL     1      -4.800   1.235 -31.578  1.00  0.00    -0.008 C 
HETATM    4  C   UNL     1      -5.867   2.097 -31.764  1.00  0.00    -0.026 C 
HETATM    5  C   UNL     1      -7.257   1.551 -31.938  1.00  0.00     0.041 C 
HETATM    6  C   UNL     1      -7.346   0.047 -31.655  1.00  0.00     0.010 C 
HETATM    7  C   UNL     1      -6.178  -0.789 -32.233  1.00  0.00    -0.002 C 
HETATM    8  C   UNL     1      -4.849  -0.267 -31.625  1.00  0.00     0.052 C 
HETATM    9  C   UNL     1      -5.420   3.480 -31.839  1.00  0.00     0.073 C 
ENDROOT
BRANCH   9  10
HETATM   10  C   UNL     1      -6.141   4.697 -32.265  1.00  0.00     0.259 C 
HETATM   11  N   UNL     1      -7.278   5.013 -31.572  1.00  0.00    -0.320 N 
HETATM   12  H   UNL     1      -8.102   5.123 -32.157  1.00  0.00     0.169 HD
HETATM   13  O   UNL     1      -5.870   5.254 -33.332  1.00  0.00    -0.267 OA
BRANCH  11  14
HETATM   14  C   UNL     1      -7.346   5.915 -30.480  1.00  0.00     0.068 A 
HETATM   15  C   UNL     1      -8.548   5.929 -29.744  1.00  0.00     0.097 A 
HETATM   16  C   UNL     1      -8.660   6.730 -28.604  1.00  0.00     0.075 A 
HETATM   17  C   UNL     1      -7.578   7.511 -28.192  1.00  0.00     0.070 A 
HETATM   18  C   UNL     1      -6.403   7.520 -28.950  1.00  0.00     0.039 A 
HETATM   19  C   UNL     1      -6.281   6.729 -30.095  1.00  0.00     0.035 A 
BRANCH  15  20
HETATM   20  O   UNL     1      -9.545   5.116 -30.235  1.00  0.00    -0.354 OA
HETATM   21  C   UNL     1     -10.752   5.751 -30.642  1.00  0.00     0.210 C 
ENDBRANCH  15  20
BRANCH  17  22
HETATM   22  O   UNL     1      -7.546   8.309 -27.082  1.00  0.00    -0.356 OA
HETATM   23  C   UNL     1      -7.011   9.618 -27.242  1.00  0.00     0.210 C 
ENDBRANCH  17  22
ENDBRANCH  11  14
ENDBRANCH   9  10
BRANCH   1  24
HETATM   24  N   UNL     1      -3.288   4.704 -31.461  1.00  0.00    -0.319 N 
HETATM   25  C   UNL     1      -2.464   5.113 -32.485  1.00  0.00     0.248 C 
HETATM   26  O   UNL     1      -2.070   4.448 -33.444  1.00  0.00    -0.271 OA
HETATM   27  H   UNL     1      -3.172   5.107 -30.527  1.00  0.00     0.169 HD
BRANCH  25  28
HETATM   28  C   UNL     1      -1.995   6.566 -32.360  1.00  0.00     0.337 C 
BRANCH  28  29
HETATM   29  N   UNL     1      -1.442   6.849 -30.955  1.00  0.00    -0.062 N 
HETATM   30  C   UNL     1       0.068   6.972 -30.935  1.00  0.00     0.239 C 
HETATM   31  C   UNL     1       0.570   7.036 -29.488  1.00  0.00     0.007 C 
HETATM   32  C   UNL     1       0.418   5.693 -28.764  1.00  0.00     0.011 C 
HETATM   33  C   UNL     1      -0.125   8.171 -28.726  1.00  0.00     0.007 C 
HETATM   34  C   UNL     1      -1.647   8.112 -28.839  1.00  0.00     0.028 C 
HETATM   35  C   UNL     1      -2.116   8.010 -30.283  1.00  0.00     0.235 C 
HETATM   36  H   UNL     1      -1.659   5.982 -30.438  1.00  0.00     0.280 HD
ENDBRANCH  28  29
ENDBRANCH  25  28
ENDBRANCH   1  24
BRANCH   7  37
HETATM   37  C   UNL     1      -6.182  -1.003 -33.798  1.00  0.00    -0.047 C 
HETATM   38  C   UNL     1      -6.591   0.229 -34.626  1.00  0.00     0.015 C 
HETATM   39  C   UNL     1      -4.760  -1.407 -34.259  1.00  0.00     0.015 C 
HETATM   40  C   UNL     1      -7.125  -2.167 -34.177  1.00  0.00     0.015 C 
ENDBRANCH   7  37
TORSDOF 8
ENDMDL
MODEL 10
REMARK VINA RESULT:      -8.1      3.211      6.729
REMARK  8 active torsions:
REMARK  status: ('A' for Active; 'I' for Inactive)
REMARK    1  A    between atoms: N_4  and  C_6 
REMARK    2  A    between atoms: C_6  and  C_7 
REMARK       I    between atoms: C_7  and  N_8 
REMARK    3  A    between atoms: N_8  and  C_9 
REMARK    4  A    between atoms: C_15  and  C_16 
REMARK    5  A    between atoms: C_21  and  C_22 
REMARK       I    between atoms: C_22  and  N_23 
REMARK    6  A    between atoms: N_23  and  C_24 
REMARK    7  A    between atoms: C_25  and  O_26 
REMARK    8  A    between atoms: C_29  and  O_30 
ROOT
HETATM    1  C   UNL     1      -5.497   3.558 -31.553  1.00  0.00     0.093 C 
HETATM    2  S   UNL     1      -5.049   2.082 -30.849  1.00  0.00    -0.075 SA
HETATM    3  C   UNL     1      -6.197   1.232 -31.757  1.00  0.00    -0.008 C 
HETATM    4  C   UNL     1      -7.007   2.064 -32.511  1.00  0.00    -0.026 C 
HETATM    5  C   UNL     1      -8.173   1.496 -33.271  1.00  0.00     0.041 C 
HETATM    6  C   UNL     1      -8.456   0.032 -32.920  1.00  0.00     0.010 C 
HETATM    7  C   UNL     1      -7.196  -0.857 -32.789  1.00  0.00    -0.002 C 
HETATM    8  C   UNL     1      -6.289  -0.266 -31.676  1.00  0.00     0.052 C 
HETATM    9  C   UNL     1      -6.513   3.434 -32.498  1.00  0.00     0.073 C 
ENDROOT
BRANCH   9  10
HETATM   10  C   UNL     1      -6.889   4.594 -33.332  1.00  0.00     0.259 C 
HETATM   11  N   UNL     1      -8.189   5.012 -33.255  1.00  0.00    -0.320 N 
HETATM   12  H   UNL     1      -8.664   5.056 -34.152  1.00  0.00     0.169 HD
HETATM   13  O   UNL     1      -6.139   5.005 -34.221  1.00  0.00    -0.267 OA
BRANCH  11  14
HETATM   14  C   UNL     1      -8.666   6.049 -32.413  1.00  0.00     0.068 A 
HETATM   15  C   UNL     1      -9.659   5.698 -31.475  1.00  0.00     0.097 A 
HETATM   16  C   UNL     1     -10.117   6.646 -30.556  1.00  0.00     0.075 A 
HETATM   17  C   UNL     1      -9.588   7.938 -30.563  1.00  0.00     0.070 A 
HETATM   18  C   UNL     1      -8.632   8.287 -31.522  1.00  0.00     0.039 A 
HETATM   19  C   UNL     1      -8.169   7.352 -32.450  1.00  0.00     0.035 A 
BRANCH  15  20
HETATM   20  O   UNL     1     -10.103   4.397 -31.553  1.00  0.00    -0.354 OA
HETATM   21  C   UNL     1      -9.814   3.551 -30.446  1.00  0.00     0.210 C 
ENDBRANCH  15  20
BRANCH  17  22
HETATM   22  O   UNL     1      -9.925   8.944 -29.701  1.00  0.00    -0.356 OA
HETATM   23  C   UNL     1      -8.872   9.787 -29.249  1.00  0.00     0.210 C 
ENDBRANCH  17  22
ENDBRANCH  11  14
ENDBRANCH   9  10
BRANCH   1  24
HETATM   24  N   UNL     1      -4.759   4.701 -31.272  1.00  0.00    -0.319 N 
HETATM   25  C   UNL     1      -5.114   5.665 -30.356  1.00  0.00     0.248 C 
HETATM   26  O   UNL     1      -6.218   5.841 -29.841  1.00  0.00    -0.271 OA
HETATM   27  H   UNL     1      -4.040   4.908 -31.971  1.00  0.00     0.169 HD
BRANCH  25  28
HETATM   28  C   UNL     1      -3.972   6.616 -29.984  1.00  0.00     0.337 C 
BRANCH  28  29
HETATM   29  N   UNL     1      -2.842   6.556 -31.024  1.00  0.00    -0.062 N 
HETATM   30  C   UNL     1      -2.787   7.792 -31.899  1.00  0.00     0.239 C 
HETATM   31  C   UNL     1      -1.791   7.579 -33.044  1.00  0.00     0.007 C 
HETATM   32  C   UNL     1      -2.303   6.565 -34.075  1.00  0.00     0.011 C 
HETATM   33  C   UNL     1      -0.415   7.183 -32.495  1.00  0.00     0.007 C 
HETATM   34  C   UNL     1      -0.484   6.006 -31.525  1.00  0.00     0.028 C 
HETATM   35  C   UNL     1      -1.508   6.227 -30.420  1.00  0.00     0.235 C 
HETATM   36  H   UNL     1      -3.136   5.786 -31.645  1.00  0.00     0.280 HD
ENDBRANCH  28  29
ENDBRANCH  25  28
ENDBRANCH   1  24
BRANCH   7  37
HETATM   37  C   UNL     1      -6.468  -1.238 -34.138  1.00  0.00    -0.047 C 
HETATM   38  C   UNL     1      -4.931  -1.188 -34.089  1.00  0.00     0.015 C 
HETATM   39  C   UNL     1      -6.861  -2.682 -34.537  1.00  0.00     0.015 C 
HETATM   40  C   UNL     1      -6.940  -0.312 -35.281  1.00  0.00     0.015 C 
ENDBRANCH   7  37
TORSDOF 8
ENDMDL
