MODEL 1
REMARK VINA RESULT:     -10.4      0.000      0.000
REMARK  5 active torsions:
REMARK  status: ('A' for Active; 'I' for Inactive)
REMARK    1  A    between atoms: N_4  and  C_5 
REMARK    2  A    between atoms: C_15  and  N_16 
REMARK       I    between atoms: N_16  and  C_17 
REMARK    3  A    between atoms: C_17  and  C_18 
REMARK    4  A    between atoms: C_20  and  C_21 
REMARK    5  A    between atoms: C_26  and  C_27 
ROOT
HETATM    1  N   UNL     1      -7.583   1.185 -33.522  1.00  0.00    -0.307 N 
HETATM    2  C   UNL     1      -6.977   0.543 -34.592  1.00  0.00     0.257 C 
HETATM    3  O   UNL     1      -7.040   0.899 -35.764  1.00  0.00    -0.267 OA
HETATM    4  H   UNL     1      -7.270   0.995 -32.580  1.00  0.00     0.170 HD
ENDROOT
BRANCH   1   5
HETATM    5  C   UNL     1      -8.348   2.324 -33.720  1.00  0.00     0.152 C 
HETATM    6  N   UNL     1      -7.973   3.644 -33.477  1.00  0.00    -0.045 N 
HETATM    7  N   UNL     1      -9.075   4.472 -33.478  1.00  0.00    -0.156 NA
HETATM    8  C   UNL     1     -10.046   3.720 -34.008  1.00  0.00     0.055 C 
HETATM    9  C   UNL     1     -11.387   4.303 -34.264  1.00  0.00     0.072 C 
HETATM   10  C   UNL     1      -9.630   2.388 -34.218  1.00  0.00     0.079 C 
BRANCH   6  11
HETATM   11  C   UNL     1      -6.694   4.242 -33.448  1.00  0.00     0.732 A 
HETATM   12  N   UNL     1      -5.896   4.330 -34.473  1.00  0.00    -0.067 NA
HETATM   13  C   UNL     1      -4.729   4.993 -34.220  1.00  0.00     0.065 A 
HETATM   14  C   UNL     1      -4.372   5.544 -33.059  1.00  0.00     0.036 A 
HETATM   15  C   UNL     1      -3.693   5.225 -35.268  1.00  0.00     0.061 C 
HETATM   16  C   UNL     1      -3.061   6.228 -33.100  1.00  0.00     0.047 C 
HETATM   17  C   UNL     1      -5.286   5.460 -31.923  1.00  0.00     0.268 A 
HETATM   18  C   UNL     1      -2.508   5.772 -34.457  1.00  0.00     0.011 C 
HETATM   19  O   UNL     1      -5.038   5.969 -30.838  1.00  0.00    -0.267 OA
HETATM   20  N   UNL     1      -6.438   4.783 -32.204  1.00  0.00    -0.152 N 
HETATM   21  H   UNL     1      -7.150   4.705 -31.487  1.00  0.00     0.188 HD
ENDBRANCH   6  11
ENDBRANCH   1   5
BRANCH   2  22
HETATM   22  C   UNL     1      -6.131  -0.636 -34.258  1.00  0.00     0.034 A 
HETATM   23  C   UNL     1      -5.065  -0.448 -33.368  1.00  0.00     0.033 A 
HETATM   24  C   UNL     1      -4.252  -1.524 -32.984  1.00  0.00     0.049 A 
HETATM   25  C   UNL     1      -4.528  -2.801 -33.501  1.00  0.00     0.032 A 
HETATM   26  C   UNL     1      -5.599  -3.010 -34.387  1.00  0.00     0.049 A 
HETATM   27  C   UNL     1      -6.404  -1.918 -34.753  1.00  0.00     0.033 A 
BRANCH  24  28
HETATM   28  C   UNL     1      -3.106  -1.333 -32.018  1.00  0.00     0.417 C 
HETATM   29  F   UNL     1      -2.056  -0.642 -32.540  1.00  0.00    -0.166 F 
HETATM   30  F   UNL     1      -3.485  -0.656 -30.899  1.00  0.00    -0.166 F 
HETATM   31  F   UNL     1      -2.596  -2.518 -31.584  1.00  0.00    -0.166 F 
ENDBRANCH  24  28
BRANCH  26  32
HETATM   32  C   UNL     1      -5.920  -4.392 -34.912  1.00  0.00     0.417 C 
HETATM   33  F   UNL     1      -4.989  -5.327 -34.583  1.00  0.00    -0.166 F 
HETATM   34  F   UNL     1      -7.109  -4.855 -34.444  1.00  0.00    -0.166 F 
HETATM   35  F   UNL     1      -6.016  -4.417 -36.270  1.00  0.00    -0.166 F 
ENDBRANCH  26  32
ENDBRANCH   2  22
TORSDOF 5
ENDMDL
MODEL 2
REMARK VINA RESULT:     -10.3      0.190      3.051
REMARK  5 active torsions:
REMARK  status: ('A' for Active; 'I' for Inactive)
REMARK    1  A    between atoms: N_4  and  C_5 
REMARK    2  A    between atoms: C_15  and  N_16 
REMARK       I    between atoms: N_16  and  C_17 
REMARK    3  A    between atoms: C_17  and  C_18 
REMARK    4  A    between atoms: C_20  and  C_21 
REMARK    5  A    between atoms: C_26  and  C_27 
ROOT
HETATM    1  N   UNL     1      -7.626   1.324 -33.540  1.00  0.00    -0.307 N 
HETATM    2  C   UNL     1      -7.015   0.613 -34.561  1.00  0.00     0.257 C 
HETATM    3  O   UNL     1      -7.069   0.890 -35.755  1.00  0.00    -0.267 OA
HETATM    4  H   UNL     1      -7.320   1.197 -32.586  1.00  0.00     0.170 HD
ENDROOT
BRANCH   1   5
HETATM    5  C   UNL     1      -8.389   2.448 -33.818  1.00  0.00     0.152 C 
HETATM    6  N   UNL     1      -8.034   3.780 -33.612  1.00  0.00    -0.045 N 
HETATM    7  N   UNL     1      -9.140   4.598 -33.696  1.00  0.00    -0.156 NA
HETATM    8  C   UNL     1     -10.081   3.818 -34.239  1.00  0.00     0.055 C 
HETATM    9  C   UNL     1     -11.413   4.379 -34.578  1.00  0.00     0.072 C 
HETATM   10  C   UNL     1      -9.647   2.482 -34.376  1.00  0.00     0.079 C 
BRANCH   6  11
HETATM   11  C   UNL     1      -6.761   4.390 -33.549  1.00  0.00     0.732 A 
HETATM   12  N   UNL     1      -5.897   4.398 -34.523  1.00  0.00    -0.067 NA
HETATM   13  C   UNL     1      -4.752   5.090 -34.251  1.00  0.00     0.065 A 
HETATM   14  C   UNL     1      -4.474   5.738 -33.119  1.00  0.00     0.036 A 
HETATM   15  C   UNL     1      -3.649   5.242 -35.243  1.00  0.00     0.061 C 
HETATM   16  C   UNL     1      -3.166   6.428 -33.131  1.00  0.00     0.047 C 
HETATM   17  C   UNL     1      -5.462   5.742 -32.042  1.00  0.00     0.268 A 
HETATM   18  C   UNL     1      -2.522   5.865 -34.405  1.00  0.00     0.011 C 
HETATM   19  O   UNL     1      -5.287   6.342 -30.990  1.00  0.00    -0.267 OA
HETATM   20  N   UNL     1      -6.590   5.034 -32.341  1.00  0.00    -0.152 N 
HETATM   21  H   UNL     1      -7.348   5.010 -31.668  1.00  0.00     0.188 HD
ENDBRANCH   6  11
ENDBRANCH   1   5
BRANCH   2  22
HETATM   22  C   UNL     1      -6.172  -0.542 -34.144  1.00  0.00     0.034 A 
HETATM   23  C   UNL     1      -6.458  -1.797 -34.700  1.00  0.00     0.033 A 
HETATM   24  C   UNL     1      -5.680  -2.919 -34.377  1.00  0.00     0.049 A 
HETATM   25  C   UNL     1      -4.601  -2.764 -33.491  1.00  0.00     0.032 A 
HETATM   26  C   UNL     1      -4.294  -1.512 -32.931  1.00  0.00     0.049 A 
HETATM   27  C   UNL     1      -5.084  -0.400 -33.274  1.00  0.00     0.033 A 
BRANCH  24  28
HETATM   28  C   UNL     1      -5.974  -4.273 -34.979  1.00  0.00     0.417 C 
HETATM   29  F   UNL     1      -5.052  -5.225 -34.670  1.00  0.00    -0.166 F 
HETATM   30  F   UNL     1      -7.176  -4.766 -34.573  1.00  0.00    -0.166 F 
HETATM   31  F   UNL     1      -6.028  -4.230 -36.339  1.00  0.00    -0.166 F 
ENDBRANCH  24  28
BRANCH  26  32
HETATM   32  C   UNL     1      -3.108  -1.338 -32.009  1.00  0.00     0.417 C 
HETATM   33  F   UNL     1      -2.078  -0.654 -32.574  1.00  0.00    -0.166 F 
HETATM   34  F   UNL     1      -3.435  -0.668 -30.873  1.00  0.00    -0.166 F 
HETATM   35  F   UNL     1      -2.591  -2.532 -31.606  1.00  0.00    -0.166 F 
ENDBRANCH  26  32
ENDBRANCH   2  22
TORSDOF 5
ENDMDL
MODEL 3
REMARK VINA RESULT:     -10.2      1.755      2.595
REMARK  5 active torsions:
REMARK  status: ('A' for Active; 'I' for Inactive)
REMARK    1  A    between atoms: N_4  and  C_5 
REMARK    2  A    between atoms: C_15  and  N_16 
REMARK       I    between atoms: N_16  and  C_17 
REMARK    3  A    between atoms: C_17  and  C_18 
REMARK    4  A    between atoms: C_20  and  C_21 
REMARK    5  A    between atoms: C_26  and  C_27 
ROOT
HETATM    1  N   UNL     1      -8.821   0.200 -33.294  1.00  0.00    -0.307 N 
HETATM    2  C   UNL     1      -7.752   0.295 -34.171  1.00  0.00     0.257 C 
HETATM    3  O   UNL     1      -7.576   1.193 -34.988  1.00  0.00    -0.267 OA
HETATM    4  H   UNL     1      -8.757  -0.405 -32.487  1.00  0.00     0.170 HD
ENDROOT
BRANCH   1   5
HETATM    5  C   UNL     1      -9.821   1.161 -33.291  1.00  0.00     0.152 C 
HETATM    6  N   UNL     1      -9.804   2.394 -32.642  1.00  0.00    -0.045 N 
HETATM    7  N   UNL     1     -11.070   2.934 -32.589  1.00  0.00    -0.156 NA
HETATM    8  C   UNL     1     -11.777   2.193 -33.448  1.00  0.00     0.055 C 
HETATM    9  C   UNL     1     -13.192   2.533 -33.741  1.00  0.00     0.072 C 
HETATM   10  C   UNL     1     -11.031   1.103 -33.946  1.00  0.00     0.079 C 
BRANCH   6  11
HETATM   11  C   UNL     1      -8.717   3.208 -32.251  1.00  0.00     0.732 A 
HETATM   12  N   UNL     1      -8.303   3.349 -31.025  1.00  0.00    -0.067 NA
HETATM   13  C   UNL     1      -7.205   4.150 -30.893  1.00  0.00     0.065 A 
HETATM   14  C   UNL     1      -6.550   4.757 -31.883  1.00  0.00     0.036 A 
HETATM   15  C   UNL     1      -6.559   4.418 -29.575  1.00  0.00     0.061 C 
HETATM   16  C   UNL     1      -5.373   5.533 -31.434  1.00  0.00     0.047 C 
HETATM   17  C   UNL     1      -7.010   4.572 -33.257  1.00  0.00     0.268 A 
HETATM   18  C   UNL     1      -5.556   5.532 -29.910  1.00  0.00     0.011 C 
HETATM   19  O   UNL     1      -6.439   5.073 -34.217  1.00  0.00    -0.267 OA
HETATM   20  N   UNL     1      -8.114   3.775 -33.355  1.00  0.00    -0.152 N 
HETATM   21  H   UNL     1      -8.485   3.560 -34.274  1.00  0.00     0.188 HD
ENDBRANCH   6  11
ENDBRANCH   1   5
BRANCH   2  22
HETATM   22  C   UNL     1      -6.706  -0.759 -34.049  1.00  0.00     0.034 A 
HETATM   23  C   UNL     1      -5.578  -0.475 -33.266  1.00  0.00     0.033 A 
HETATM   24  C   UNL     1      -4.573  -1.437 -33.080  1.00  0.00     0.049 A 
HETATM   25  C   UNL     1      -4.719  -2.696 -33.687  1.00  0.00     0.032 A 
HETATM   26  C   UNL     1      -5.847  -3.000 -34.468  1.00  0.00     0.049 A 
HETATM   27  C   UNL     1      -6.845  -2.023 -34.635  1.00  0.00     0.033 A 
BRANCH  24  28
HETATM   28  C   UNL     1      -3.359  -1.144 -32.230  1.00  0.00     0.417 C 
HETATM   29  F   UNL     1      -3.653  -0.586 -31.025  1.00  0.00    -0.166 F 
HETATM   30  F   UNL     1      -2.637  -2.266 -31.962  1.00  0.00    -0.166 F 
HETATM   31  F   UNL     1      -2.500  -0.284 -32.842  1.00  0.00    -0.166 F 
ENDBRANCH  24  28
BRANCH  26  32
HETATM   32  C   UNL     1      -6.022  -4.369 -35.087  1.00  0.00     0.417 C 
HETATM   33  F   UNL     1      -5.935  -4.365 -36.444  1.00  0.00    -0.166 F 
HETATM   34  F   UNL     1      -5.090  -5.255 -34.646  1.00  0.00    -0.166 F 
HETATM   35  F   UNL     1      -7.233  -4.918 -34.788  1.00  0.00    -0.166 F 
ENDBRANCH  26  32
ENDBRANCH   2  22
TORSDOF 5
ENDMDL
MODEL 4
REMARK VINA RESULT:     -10.0      1.804      3.944
REMARK  5 active torsions:
REMARK  status: ('A' for Active; 'I' for Inactive)
REMARK    1  A    between atoms: N_4  and  C_5 
REMARK    2  A    between atoms: C_15  and  N_16 
REMARK       I    between atoms: N_16  and  C_17 
REMARK    3  A    between atoms: C_17  and  C_18 
REMARK    4  A    between atoms: C_20  and  C_21 
REMARK    5  A    between atoms: C_26  and  C_27 
ROOT
HETATM    1  N   UNL     1      -8.851   0.188 -33.218  1.00  0.00    -0.307 N 
HETATM    2  C   UNL     1      -7.776   0.252 -34.091  1.00  0.00     0.257 C 
HETATM    3  O   UNL     1      -7.614   1.101 -34.962  1.00  0.00    -0.267 OA
HETATM    4  H   UNL     1      -8.780  -0.363 -32.374  1.00  0.00     0.170 HD
ENDROOT
BRANCH   1   5
HETATM    5  C   UNL     1      -9.873   1.124 -33.283  1.00  0.00     0.152 C 
HETATM    6  N   UNL     1      -9.906   2.378 -32.676  1.00  0.00    -0.045 N 
HETATM    7  N   UNL     1     -11.186   2.890 -32.686  1.00  0.00    -0.156 NA
HETATM    8  C   UNL     1     -11.845   2.103 -33.544  1.00  0.00     0.055 C 
HETATM    9  C   UNL     1     -13.255   2.398 -33.898  1.00  0.00     0.072 C 
HETATM   10  C   UNL     1     -11.056   1.015 -33.977  1.00  0.00     0.079 C 
BRANCH   6  11
HETATM   11  C   UNL     1      -8.854   3.231 -32.277  1.00  0.00     0.732 A 
HETATM   12  N   UNL     1      -8.504   3.443 -31.041  1.00  0.00    -0.067 NA
HETATM   13  C   UNL     1      -7.426   4.270 -30.897  1.00  0.00     0.065 A 
HETATM   14  C   UNL     1      -6.731   4.836 -31.884  1.00  0.00     0.036 A 
HETATM   15  C   UNL     1      -6.851   4.618 -29.565  1.00  0.00     0.061 C 
HETATM   16  C   UNL     1      -5.591   5.655 -31.420  1.00  0.00     0.047 C 
HETATM   17  C   UNL     1      -7.118   4.571 -33.268  1.00  0.00     0.268 A 
HETATM   18  C   UNL     1      -5.850   5.731 -29.909  1.00  0.00     0.011 C 
HETATM   19  O   UNL     1      -6.508   5.031 -34.223  1.00  0.00    -0.267 OA
HETATM   20  N   UNL     1      -8.204   3.750 -33.378  1.00  0.00    -0.152 N 
HETATM   21  H   UNL     1      -8.525   3.480 -34.301  1.00  0.00     0.188 HD
ENDBRANCH   6  11
ENDBRANCH   1   5
BRANCH   2  22
HETATM   22  C   UNL     1      -6.708  -0.768 -33.895  1.00  0.00     0.034 A 
HETATM   23  C   UNL     1      -6.847  -1.998 -34.551  1.00  0.00     0.033 A 
HETATM   24  C   UNL     1      -5.860  -2.988 -34.438  1.00  0.00     0.049 A 
HETATM   25  C   UNL     1      -4.721  -2.723 -33.658  1.00  0.00     0.032 A 
HETATM   26  C   UNL     1      -4.560  -1.492 -33.001  1.00  0.00     0.049 A 
HETATM   27  C   UNL     1      -5.560  -0.512 -33.134  1.00  0.00     0.033 A 
BRANCH  24  28
HETATM   28  C   UNL     1      -5.996  -4.314 -35.150  1.00  0.00     0.417 C 
HETATM   29  F   UNL     1      -7.206  -4.911 -34.973  1.00  0.00    -0.166 F 
HETATM   30  F   UNL     1      -5.826  -4.195 -36.495  1.00  0.00    -0.166 F 
HETATM   31  F   UNL     1      -5.068  -5.218 -34.733  1.00  0.00    -0.166 F 
ENDBRANCH  24  28
BRANCH  26  32
HETATM   32  C   UNL     1      -3.316  -1.193 -32.196  1.00  0.00     0.417 C 
HETATM   33  F   UNL     1      -3.573  -0.600 -30.999  1.00  0.00    -0.166 F 
HETATM   34  F   UNL     1      -2.600  -2.316 -31.920  1.00  0.00    -0.166 F 
HETATM   35  F   UNL     1      -2.465  -0.358 -32.855  1.00  0.00    -0.166 F 
ENDBRANCH  26  32
ENDBRANCH   2  22
TORSDOF 5
ENDMDL
MODEL 5
REMARK VINA RESULT:      -9.8      1.416      1.969
REMARK  5 active torsions:
REMARK  status: ('A' for Active; 'I' for Inactive)
REMARK    1  A    between atoms: N_4  and  C_5 
REMARK    2  A    between atoms: C_15  and  N_16 
REMARK       I    between atoms: N_16  and  C_17 
REMARK    3  A    between atoms: C_17  and  C_18 
REMARK    4  A    between atoms: C_20  and  C_21 
REMARK    5  A    between atoms: C_26  and  C_27 
ROOT
HETATM    1  N   UNL     1      -8.727   0.353 -33.160  1.00  0.00    -0.307 N 
HETATM    2  C   UNL     1      -7.950   0.109 -34.282  1.00  0.00     0.257 C 
HETATM    3  O   UNL     1      -8.085   0.650 -35.375  1.00  0.00    -0.267 OA
HETATM    4  H   UNL     1      -8.392   0.078 -32.247  1.00  0.00     0.170 HD
ENDROOT
BRANCH   1   5
HETATM    5  C   UNL     1      -9.770   1.266 -33.206  1.00  0.00     0.152 C 
HETATM    6  N   UNL     1      -9.730   2.611 -32.842  1.00  0.00    -0.045 N 
HETATM    7  N   UNL     1     -11.005   3.118 -32.710  1.00  0.00    -0.156 NA
HETATM    8  C   UNL     1     -11.785   2.190 -33.277  1.00  0.00     0.055 C 
HETATM    9  C   UNL     1     -13.244   2.423 -33.415  1.00  0.00     0.072 C 
HETATM   10  C   UNL     1     -11.056   1.038 -33.642  1.00  0.00     0.079 C 
BRANCH   6  11
HETATM   11  C   UNL     1      -8.648   3.517 -32.802  1.00  0.00     0.732 A 
HETATM   12  N   UNL     1      -7.602   3.453 -33.575  1.00  0.00    -0.067 NA
HETATM   13  C   UNL     1      -6.704   4.466 -33.389  1.00  0.00     0.065 A 
HETATM   14  C   UNL     1      -6.824   5.475 -32.526  1.00  0.00     0.036 A 
HETATM   15  C   UNL     1      -5.454   4.588 -34.193  1.00  0.00     0.061 C 
HETATM   16  C   UNL     1      -5.706   6.441 -32.578  1.00  0.00     0.047 C 
HETATM   17  C   UNL     1      -8.014   5.550 -31.682  1.00  0.00     0.268 A 
HETATM   18  C   UNL     1      -4.691   5.704 -33.463  1.00  0.00     0.011 C 
HETATM   19  O   UNL     1      -8.204   6.464 -30.891  1.00  0.00    -0.267 OA
HETATM   20  N   UNL     1      -8.886   4.519 -31.884  1.00  0.00    -0.152 N 
HETATM   21  H   UNL     1      -9.759   4.505 -31.368  1.00  0.00     0.188 HD
ENDBRANCH   6  11
ENDBRANCH   1   5
BRANCH   2  22
HETATM   22  C   UNL     1      -6.821  -0.847 -34.104  1.00  0.00     0.034 A 
HETATM   23  C   UNL     1      -5.731  -0.436 -33.326  1.00  0.00     0.033 A 
HETATM   24  C   UNL     1      -4.652  -1.300 -33.089  1.00  0.00     0.049 A 
HETATM   25  C   UNL     1      -4.684  -2.592 -33.641  1.00  0.00     0.032 A 
HETATM   26  C   UNL     1      -5.773  -3.024 -34.417  1.00  0.00     0.049 A 
HETATM   27  C   UNL     1      -6.847  -2.143 -34.635  1.00  0.00     0.033 A 
BRANCH  24  28
HETATM   28  C   UNL     1      -3.476  -0.869 -32.243  1.00  0.00     0.417 C 
HETATM   29  F   UNL     1      -2.569  -1.858 -32.017  1.00  0.00    -0.166 F 
HETATM   30  F   UNL     1      -2.784   0.157 -32.808  1.00  0.00    -0.166 F 
HETATM   31  F   UNL     1      -3.863  -0.428 -31.014  1.00  0.00    -0.166 F 
ENDBRANCH  24  28
BRANCH  26  32
HETATM   32  C   UNL     1      -5.825  -4.428 -34.976  1.00  0.00     0.417 C 
HETATM   33  F   UNL     1      -6.926  -5.125 -34.590  1.00  0.00    -0.166 F 
HETATM   34  F   UNL     1      -5.822  -4.439 -36.335  1.00  0.00    -0.166 F 
HETATM   35  F   UNL     1      -4.752  -5.174 -34.592  1.00  0.00    -0.166 F 
ENDBRANCH  26  32
ENDBRANCH   2  22
TORSDOF 5
ENDMDL
MODEL 6
REMARK VINA RESULT:      -9.5      4.817      7.139
REMARK  5 active torsions:
REMARK  status: ('A' for Active; 'I' for Inactive)
REMARK    1  A    between atoms: N_4  and  C_5 
REMARK    2  A    between atoms: C_15  and  N_16 
REMARK       I    between atoms: N_16  and  C_17 
REMARK    3  A    between atoms: C_17  and  C_18 
REMARK    4  A    between atoms: C_20  and  C_21 
REMARK    5  A    between atoms: C_26  and  C_27 
ROOT
HETATM    1  N   UNL     1      -8.345   0.154 -34.360  1.00  0.00    -0.307 N 
HETATM    2  C   UNL     1      -9.241   0.333 -33.317  1.00  0.00     0.257 C 
HETATM    3  O   UNL     1      -9.058  -0.007 -32.152  1.00  0.00    -0.267 OA
HETATM    4  H   UNL     1      -8.450   0.690 -35.210  1.00  0.00     0.170 HD
ENDROOT
BRANCH   1   5
HETATM    5  C   UNL     1      -7.123  -0.465 -34.145  1.00  0.00     0.152 C 
HETATM    6  N   UNL     1      -5.927   0.141 -33.766  1.00  0.00    -0.045 N 
HETATM    7  N   UNL     1      -4.864  -0.715 -33.961  1.00  0.00    -0.156 NA
HETATM    8  C   UNL     1      -5.438  -1.906 -34.162  1.00  0.00     0.055 C 
HETATM    9  C   UNL     1      -4.602  -3.122 -34.320  1.00  0.00     0.072 C 
HETATM   10  C   UNL     1      -6.844  -1.810 -34.241  1.00  0.00     0.079 C 
BRANCH   6  11
HETATM   11  C   UNL     1      -5.691   1.341 -33.059  1.00  0.00     0.732 A 
HETATM   12  N   UNL     1      -6.568   2.291 -32.904  1.00  0.00    -0.067 NA
HETATM   13  C   UNL     1      -6.132   3.338 -32.143  1.00  0.00     0.065 A 
HETATM   14  C   UNL     1      -4.937   3.444 -31.562  1.00  0.00     0.036 A 
HETATM   15  C   UNL     1      -6.993   4.513 -31.824  1.00  0.00     0.061 C 
HETATM   16  C   UNL     1      -4.766   4.680 -30.768  1.00  0.00     0.047 C 
HETATM   17  C   UNL     1      -3.970   2.361 -31.723  1.00  0.00     0.268 A 
HETATM   18  C   UNL     1      -6.003   5.492 -31.176  1.00  0.00     0.011 C 
HETATM   19  O   UNL     1      -2.867   2.377 -31.193  1.00  0.00    -0.267 OA
HETATM   20  N   UNL     1      -4.431   1.335 -32.497  1.00  0.00    -0.152 N 
HETATM   21  H   UNL     1      -3.843   0.521 -32.636  1.00  0.00     0.188 HD
ENDBRANCH   6  11
ENDBRANCH   1   5
BRANCH   2  22
HETATM   22  C   UNL     1     -10.498   1.061 -33.648  1.00  0.00     0.034 A 
HETATM   23  C   UNL     1     -10.386   2.341 -34.207  1.00  0.00     0.033 A 
HETATM   24  C   UNL     1     -11.530   3.066 -34.575  1.00  0.00     0.049 A 
HETATM   25  C   UNL     1     -12.793   2.483 -34.380  1.00  0.00     0.032 A 
HETATM   26  C   UNL     1     -12.924   1.197 -33.829  1.00  0.00     0.049 A 
HETATM   27  C   UNL     1     -11.764   0.487 -33.474  1.00  0.00     0.033 A 
BRANCH  24  28
HETATM   28  C   UNL     1     -11.419   4.443 -35.188  1.00  0.00     0.417 C 
HETATM   29  F   UNL     1     -10.251   4.656 -35.854  1.00  0.00    -0.166 F 
HETATM   30  F   UNL     1     -12.414   4.688 -36.083  1.00  0.00    -0.166 F 
HETATM   31  F   UNL     1     -11.503   5.429 -34.254  1.00  0.00    -0.166 F 
ENDBRANCH  24  28
BRANCH  26  32
HETATM   32  C   UNL     1     -14.282   0.556 -33.657  1.00  0.00     0.417 C 
HETATM   33  F   UNL     1     -15.038   0.574 -34.788  1.00  0.00    -0.166 F 
HETATM   34  F   UNL     1     -14.191  -0.747 -33.280  1.00  0.00    -0.166 F 
HETATM   35  F   UNL     1     -15.025   1.173 -32.697  1.00  0.00    -0.166 F 
ENDBRANCH  26  32
ENDBRANCH   2  22
TORSDOF 5
ENDMDL
MODEL 7
REMARK VINA RESULT:      -9.5      4.885      7.571
REMARK  5 active torsions:
REMARK  status: ('A' for Active; 'I' for Inactive)
REMARK    1  A    between atoms: N_4  and  C_5 
REMARK    2  A    between atoms: C_15  and  N_16 
REMARK       I    between atoms: N_16  and  C_17 
REMARK    3  A    between atoms: C_17  and  C_18 
REMARK    4  A    between atoms: C_20  and  C_21 
REMARK    5  A    between atoms: C_26  and  C_27 
ROOT
HETATM    1  N   UNL     1      -8.356   0.305 -34.455  1.00  0.00    -0.307 N 
HETATM    2  C   UNL     1      -9.341   0.393 -33.483  1.00  0.00     0.257 C 
HETATM    3  O   UNL     1      -9.263  -0.060 -32.345  1.00  0.00    -0.267 OA
HETATM    4  H   UNL     1      -8.383   0.922 -35.255  1.00  0.00     0.170 HD
ENDROOT
BRANCH   1   5
HETATM    5  C   UNL     1      -7.159  -0.346 -34.194  1.00  0.00     0.152 C 
HETATM    6  N   UNL     1      -5.972   0.224 -33.737  1.00  0.00    -0.045 N 
HETATM    7  N   UNL     1      -4.919  -0.650 -33.899  1.00  0.00    -0.156 NA
HETATM    8  C   UNL     1      -5.505  -1.823 -34.163  1.00  0.00     0.055 C 
HETATM    9  C   UNL     1      -4.687  -3.052 -34.310  1.00  0.00     0.072 C 
HETATM   10  C   UNL     1      -6.903  -1.694 -34.312  1.00  0.00     0.079 C 
BRANCH   6  11
HETATM   11  C   UNL     1      -5.750   1.400 -32.986  1.00  0.00     0.732 A 
HETATM   12  N   UNL     1      -6.659   2.296 -32.731  1.00  0.00    -0.067 NA
HETATM   13  C   UNL     1      -6.226   3.326 -31.946  1.00  0.00     0.065 A 
HETATM   14  C   UNL     1      -5.003   3.465 -31.434  1.00  0.00     0.036 A 
HETATM   15  C   UNL     1      -7.119   4.441 -31.518  1.00  0.00     0.061 C 
HETATM   16  C   UNL     1      -4.841   4.669 -30.590  1.00  0.00     0.047 C 
HETATM   17  C   UNL     1      -3.998   2.440 -31.706  1.00  0.00     0.268 A 
HETATM   18  C   UNL     1      -6.137   5.437 -30.882  1.00  0.00     0.011 C 
HETATM   19  O   UNL     1      -2.866   2.487 -31.244  1.00  0.00    -0.267 OA
HETATM   20  N   UNL     1      -4.458   1.430 -32.502  1.00  0.00    -0.152 N 
HETATM   21  H   UNL     1      -3.842   0.653 -32.716  1.00  0.00     0.188 HD
ENDBRANCH   6  11
ENDBRANCH   1   5
BRANCH   2  22
HETATM   22  C   UNL     1     -10.561   1.164 -33.851  1.00  0.00     0.034 A 
HETATM   23  C   UNL     1     -11.808   0.569 -33.619  1.00  0.00     0.033 A 
HETATM   24  C   UNL     1     -12.996   1.255 -33.910  1.00  0.00     0.049 A 
HETATM   25  C   UNL     1     -12.917   2.557 -34.433  1.00  0.00     0.032 A 
HETATM   26  C   UNL     1     -11.675   3.173 -34.664  1.00  0.00     0.049 A 
HETATM   27  C   UNL     1     -10.497   2.468 -34.359  1.00  0.00     0.033 A 
BRANCH  24  28
HETATM   28  C   UNL     1     -14.346   0.625 -33.653  1.00  0.00     0.417 C 
HETATM   29  F   UNL     1     -15.172   0.636 -34.734  1.00  0.00    -0.166 F 
HETATM   30  F   UNL     1     -14.241  -0.676 -33.270  1.00  0.00    -0.166 F 
HETATM   31  F   UNL     1     -15.025   1.256 -32.656  1.00  0.00    -0.166 F 
ENDBRANCH  24  28
BRANCH  26  32
HETATM   32  C   UNL     1     -11.591   4.588 -35.189  1.00  0.00     0.417 C 
HETATM   33  F   UNL     1     -11.748   5.534 -34.225  1.00  0.00    -0.166 F 
HETATM   34  F   UNL     1     -10.397   4.845 -35.786  1.00  0.00    -0.166 F 
HETATM   35  F   UNL     1     -12.544   4.845 -36.129  1.00  0.00    -0.166 F 
ENDBRANCH  26  32
ENDBRANCH   2  22
TORSDOF 5
ENDMDL
MODEL 8
REMARK VINA RESULT:      -9.5      4.831      7.542
REMARK  5 active torsions:
REMARK  status: ('A' for Active; 'I' for Inactive)
REMARK    1  A    between atoms: N_4  and  C_5 
REMARK    2  A    between atoms: C_15  and  N_16 
REMARK       I    between atoms: N_16  and  C_17 
REMARK    3  A    between atoms: C_17  and  C_18 
REMARK    4  A    between atoms: C_20  and  C_21 
REMARK    5  A    between atoms: C_26  and  C_27 
ROOT
HETATM    1  N   UNL     1      -8.292   0.113 -34.526  1.00  0.00    -0.307 N 
HETATM    2  C   UNL     1      -9.177   0.363 -33.488  1.00  0.00     0.257 C 
HETATM    3  O   UNL     1      -9.004   0.056 -32.313  1.00  0.00    -0.267 OA
HETATM    4  H   UNL     1      -8.378   0.623 -35.394  1.00  0.00     0.170 HD
ENDROOT
BRANCH   1   5
HETATM    5  C   UNL     1      -7.093  -0.544 -34.291  1.00  0.00     0.152 C 
HETATM    6  N   UNL     1      -5.943  -0.017 -33.707  1.00  0.00    -0.045 N 
HETATM    7  N   UNL     1      -4.862  -0.843 -33.928  1.00  0.00    -0.156 NA
HETATM    8  C   UNL     1      -5.407  -1.982 -34.368  1.00  0.00     0.055 C 
HETATM    9  C   UNL     1      -4.553  -3.167 -34.631  1.00  0.00     0.072 C 
HETATM   10  C   UNL     1      -6.799  -1.860 -34.568  1.00  0.00     0.079 C 
BRANCH   6  11
HETATM   11  C   UNL     1      -5.785   1.056 -32.802  1.00  0.00     0.732 A 
HETATM   12  N   UNL     1      -5.601   2.297 -33.152  1.00  0.00    -0.067 NA
HETATM   13  C   UNL     1      -5.521   3.169 -32.104  1.00  0.00     0.065 A 
HETATM   14  C   UNL     1      -5.629   2.859 -30.812  1.00  0.00     0.036 A 
HETATM   15  C   UNL     1      -5.339   4.638 -32.293  1.00  0.00     0.061 C 
HETATM   16  C   UNL     1      -5.537   4.026 -29.908  1.00  0.00     0.047 C 
HETATM   17  C   UNL     1      -5.860   1.468 -30.433  1.00  0.00     0.268 A 
HETATM   18  C   UNL     1      -5.069   5.132 -30.864  1.00  0.00     0.011 C 
HETATM   19  O   UNL     1      -5.999   1.116 -29.269  1.00  0.00    -0.267 OA
HETATM   20  N   UNL     1      -5.924   0.620 -31.501  1.00  0.00    -0.152 N 
HETATM   21  H   UNL     1      -6.118  -0.363 -31.338  1.00  0.00     0.188 HD
ENDBRANCH   6  11
ENDBRANCH   1   5
BRANCH   2  22
HETATM   22  C   UNL     1     -10.406   1.126 -33.842  1.00  0.00     0.034 A 
HETATM   23  C   UNL     1     -11.646   0.518 -33.608  1.00  0.00     0.033 A 
HETATM   24  C   UNL     1     -12.843   1.196 -33.885  1.00  0.00     0.049 A 
HETATM   25  C   UNL     1     -12.778   2.503 -34.397  1.00  0.00     0.032 A 
HETATM   26  C   UNL     1     -11.543   3.133 -34.629  1.00  0.00     0.049 A 
HETATM   27  C   UNL     1     -10.357   2.435 -34.338  1.00  0.00     0.033 A 
BRANCH  24  28
HETATM   28  C   UNL     1     -14.185   0.552 -33.626  1.00  0.00     0.417 C 
HETATM   29  F   UNL     1     -14.105  -0.752 -33.245  1.00  0.00    -0.166 F 
HETATM   30  F   UNL     1     -14.881   1.190 -32.646  1.00  0.00    -0.166 F 
HETATM   31  F   UNL     1     -14.985   0.572 -34.727  1.00  0.00    -0.166 F 
ENDBRANCH  24  28
BRANCH  26  32
HETATM   32  C   UNL     1     -11.475   4.554 -35.142  1.00  0.00     0.417 C 
HETATM   33  F   UNL     1     -10.333   4.830 -35.826  1.00  0.00    -0.166 F 
HETATM   34  F   UNL     1     -12.504   4.847 -35.980  1.00  0.00    -0.166 F 
HETATM   35  F   UNL     1     -11.541   5.467 -34.133  1.00  0.00    -0.166 F 
ENDBRANCH  26  32
ENDBRANCH   2  22
TORSDOF 5
ENDMDL
MODEL 9
REMARK VINA RESULT:      -9.3      4.645      7.848
REMARK  5 active torsions:
REMARK  status: ('A' for Active; 'I' for Inactive)
REMARK    1  A    between atoms: N_4  and  C_5 
REMARK    2  A    between atoms: C_15  and  N_16 
REMARK       I    between atoms: N_16  and  C_17 
REMARK    3  A    between atoms: C_17  and  C_18 
REMARK    4  A    between atoms: C_20  and  C_21 
REMARK    5  A    between atoms: C_26  and  C_27 
ROOT
HETATM    1  N   UNL     1      -7.023   2.531 -33.479  1.00  0.00    -0.307 N 
HETATM    2  C   UNL     1      -8.079   2.351 -32.599  1.00  0.00     0.257 C 
HETATM    3  O   UNL     1      -7.976   2.152 -31.392  1.00  0.00    -0.267 OA
HETATM    4  H   UNL     1      -7.189   2.950 -34.384  1.00  0.00     0.170 HD
ENDROOT
BRANCH   1   5
HETATM    5  C   UNL     1      -5.712   2.484 -33.031  1.00  0.00     0.152 C 
HETATM    6  N   UNL     1      -4.979   1.349 -32.688  1.00  0.00    -0.045 N 
HETATM    7  N   UNL     1      -3.843   1.695 -31.989  1.00  0.00    -0.156 NA
HETATM    8  C   UNL     1      -3.738   3.016 -32.171  1.00  0.00     0.055 C 
HETATM    9  C   UNL     1      -2.567   3.754 -31.637  1.00  0.00     0.072 C 
HETATM   10  C   UNL     1      -4.855   3.547 -32.852  1.00  0.00     0.079 C 
BRANCH   6  11
HETATM   11  C   UNL     1      -5.114   0.008 -33.113  1.00  0.00     0.732 A 
HETATM   12  N   UNL     1      -6.014  -0.413 -33.954  1.00  0.00    -0.067 NA
HETATM   13  C   UNL     1      -5.923  -1.742 -34.254  1.00  0.00     0.065 A 
HETATM   14  C   UNL     1      -5.013  -2.595 -33.783  1.00  0.00     0.036 A 
HETATM   15  C   UNL     1      -6.844  -2.414 -35.216  1.00  0.00     0.061 C 
HETATM   16  C   UNL     1      -5.146  -3.967 -34.318  1.00  0.00     0.047 C 
HETATM   17  C   UNL     1      -3.993  -2.105 -32.859  1.00  0.00     0.268 A 
HETATM   18  C   UNL     1      -6.505  -3.900 -35.028  1.00  0.00     0.011 C 
HETATM   19  O   UNL     1      -3.109  -2.824 -32.412  1.00  0.00    -0.267 OA
HETATM   20  N   UNL     1      -4.117  -0.776 -32.571  1.00  0.00    -0.152 N 
HETATM   21  H   UNL     1      -3.431  -0.338 -31.966  1.00  0.00     0.188 HD
ENDBRANCH   6  11
ENDBRANCH   1   5
BRANCH   2  22
HETATM   22  C   UNL     1      -9.446   2.480 -33.177  1.00  0.00     0.034 A 
HETATM   23  C   UNL     1      -9.770   3.674 -33.834  1.00  0.00     0.033 A 
HETATM   24  C   UNL     1     -11.028   3.846 -34.432  1.00  0.00     0.049 A 
HETATM   25  C   UNL     1     -11.958   2.796 -34.367  1.00  0.00     0.032 A 
HETATM   26  C   UNL     1     -11.647   1.588 -33.720  1.00  0.00     0.049 A 
HETATM   27  C   UNL     1     -10.378   1.436 -33.133  1.00  0.00     0.033 A 
BRANCH  24  28
HETATM   28  C   UNL     1     -11.382   5.127 -35.152  1.00  0.00     0.417 C 
HETATM   29  F   UNL     1     -12.471   5.019 -35.962  1.00  0.00    -0.166 F 
HETATM   30  F   UNL     1     -11.652   6.144 -34.289  1.00  0.00    -0.166 F 
HETATM   31  F   UNL     1     -10.368   5.568 -35.945  1.00  0.00    -0.166 F 
ENDBRANCH  24  28
BRANCH  26  32
HETATM   32  C   UNL     1     -12.635   0.443 -33.686  1.00  0.00     0.417 C 
HETATM   33  F   UNL     1     -13.738   0.701 -32.934  1.00  0.00    -0.166 F 
HETATM   34  F   UNL     1     -13.086   0.117 -34.926  1.00  0.00    -0.166 F 
HETATM   35  F   UNL     1     -12.087  -0.694 -33.174  1.00  0.00    -0.166 F 
ENDBRANCH  26  32
ENDBRANCH   2  22
TORSDOF 5
ENDMDL
MODEL 10
REMARK VINA RESULT:      -9.3      2.690      3.884
REMARK  5 active torsions:
REMARK  status: ('A' for Active; 'I' for Inactive)
REMARK    1  A    between atoms: N_4  and  C_5 
REMARK    2  A    between atoms: C_15  and  N_16 
REMARK       I    between atoms: N_16  and  C_17 
REMARK    3  A    between atoms: C_17  and  C_18 
REMARK    4  A    between atoms: C_20  and  C_21 
REMARK    5  A    between atoms: C_26  and  C_27 
ROOT
HETATM    1  N   UNL     1      -6.286   4.381 -32.157  1.00  0.00    -0.307 N 
HETATM    2  C   UNL     1      -6.012   3.806 -33.389  1.00  0.00     0.257 C 
HETATM    3  O   UNL     1      -5.916   4.410 -34.453  1.00  0.00    -0.267 OA
HETATM    4  H   UNL     1      -6.084   3.871 -31.309  1.00  0.00     0.170 HD
ENDROOT
BRANCH   1   5
HETATM    5  C   UNL     1      -6.493   5.748 -32.045  1.00  0.00     0.152 C 
HETATM    6  N   UNL     1      -5.597   6.698 -31.556  1.00  0.00    -0.045 N 
HETATM    7  N   UNL     1      -6.244   7.886 -31.290  1.00  0.00    -0.156 NA
HETATM    8  C   UNL     1      -7.433   7.750 -31.888  1.00  0.00     0.055 C 
HETATM    9  C   UNL     1      -8.395   8.879 -31.904  1.00  0.00     0.072 C 
HETATM   10  C   UNL     1      -7.617   6.452 -32.411  1.00  0.00     0.079 C 
BRANCH   6  11
HETATM   11  C   UNL     1      -4.186   6.685 -31.504  1.00  0.00     0.732 A 
HETATM   12  N   UNL     1      -3.465   5.624 -31.283  1.00  0.00    -0.067 NA
HETATM   13  C   UNL     1      -2.117   5.843 -31.325  1.00  0.00     0.065 A 
HETATM   14  C   UNL     1      -1.516   7.006 -31.580  1.00  0.00     0.036 A 
HETATM   15  C   UNL     1      -1.119   4.753 -31.124  1.00  0.00     0.061 C 
HETATM   16  C   UNL     1      -0.040   6.925 -31.594  1.00  0.00     0.047 C 
HETATM   17  C   UNL     1      -2.336   8.184 -31.851  1.00  0.00     0.268 A 
HETATM   18  C   UNL     1       0.206   5.523 -31.021  1.00  0.00     0.011 C 
HETATM   19  O   UNL     1      -1.853   9.275 -32.123  1.00  0.00    -0.267 OA
HETATM   20  N   UNL     1      -3.677   7.935 -31.791  1.00  0.00    -0.152 N 
HETATM   21  H   UNL     1      -4.326   8.685 -32.001  1.00  0.00     0.188 HD
ENDBRANCH   6  11
ENDBRANCH   1   5
BRANCH   2  22
HETATM   22  C   UNL     1      -5.750   2.340 -33.386  1.00  0.00     0.034 A 
HETATM   23  C   UNL     1      -4.674   1.868 -32.621  1.00  0.00     0.033 A 
HETATM   24  C   UNL     1      -4.395   0.495 -32.546  1.00  0.00     0.049 A 
HETATM   25  C   UNL     1      -5.218  -0.404 -33.246  1.00  0.00     0.032 A 
HETATM   26  C   UNL     1      -6.306   0.051 -34.010  1.00  0.00     0.049 A 
HETATM   27  C   UNL     1      -6.571   1.431 -34.066  1.00  0.00     0.033 A 
BRANCH  24  28
HETATM   28  C   UNL     1      -3.244  -0.024 -31.716  1.00  0.00     0.417 C 
HETATM   29  F   UNL     1      -2.193  -0.474 -32.455  1.00  0.00    -0.166 F 
HETATM   30  F   UNL     1      -2.741   0.927 -30.883  1.00  0.00    -0.166 F 
HETATM   31  F   UNL     1      -3.613  -1.063 -30.919  1.00  0.00    -0.166 F 
ENDBRANCH  24  28
BRANCH  26  32
HETATM   32  C   UNL     1      -7.215  -0.920 -34.730  1.00  0.00     0.417 C 
HETATM   33  F   UNL     1      -8.044  -0.323 -35.627  1.00  0.00    -0.166 F 
HETATM   34  F   UNL     1      -6.517  -1.860 -35.420  1.00  0.00    -0.166 F 
HETATM   35  F   UNL     1      -8.019  -1.605 -33.870  1.00  0.00    -0.166 F 
ENDBRANCH  26  32
ENDBRANCH   2  22
TORSDOF 5
ENDMDL
