MODEL 1
REMARK VINA RESULT:      -9.3      0.000      0.000
REMARK  10 active torsions:
REMARK  status: ('A' for Active; 'I' for Inactive)
REMARK    1  A    between atoms: C_4  and  C_5 
REMARK    2  A    between atoms: C_8  and  O_9 
REMARK    3  A    between atoms: C_14  and  C_15 
REMARK    4  A    between atoms: C_18  and  C_19 
REMARK    5  A    between atoms: C_19  and  N_20 
REMARK    6  A    between atoms: N_20  and  C_21 
REMARK    7  A    between atoms: C_21  and  N_22 
REMARK    8  A    between atoms: N_22  and  C_23 
REMARK    9  A    between atoms: C_25  and  C_26 
REMARK   10  A    between atoms: C_26  and  O_27 
ROOT
HETATM    1  C   UNL     1      -9.734   2.372 -34.100  1.00  0.00     0.067 C 
HETATM    2  C   UNL     1      -9.791   3.912 -34.098  1.00  0.00     0.001 C 
HETATM    3  C   UNL     1      -9.646   4.494 -32.677  1.00  0.00     0.040 C 
HETATM    4  C   UNL     1     -10.792   4.053 -31.752  1.00  0.00     0.206 C 
HETATM    5  N   UNL     1     -11.557   2.958 -32.493  1.00  0.00    -0.065 N 
HETATM    6  H   UNL     1     -12.266   2.553 -31.865  1.00  0.00     0.280 HD
HETATM    7  C   UNL     1     -10.634   1.831 -32.967  1.00  0.00     0.246 C 
HETATM    8  C   UNL     1     -11.225   4.290 -34.559  1.00  0.00     0.033 C 
HETATM    9  C   UNL     1     -12.272   3.576 -33.690  1.00  0.00     0.236 C 
ENDROOT
BRANCH   4  10
HETATM   10  C   UNL     1     -10.322   3.601 -30.350  1.00  0.00     0.155 C 
BRANCH  10  11
HETATM   11  N   UNL     1      -8.996   2.987 -30.375  1.00  0.00    -0.365 N 
HETATM   12  H   UNL     1      -8.749   2.458 -31.206  1.00  0.00     0.161 HD
BRANCH  11  13
HETATM   13  C   UNL     1      -7.890   3.433 -29.704  1.00  0.00     0.172 C 
HETATM   14  S   UNL     1      -7.613   5.018 -29.253  1.00  0.00    -0.041 SA
BRANCH  13  15
HETATM   15  N   UNL     1      -6.928   2.511 -29.403  1.00  0.00    -0.333 N 
HETATM   16  H   UNL     1      -7.152   1.973 -28.570  1.00  0.00     0.168 HD
BRANCH  15  17
HETATM   17  C   UNL     1      -5.779   2.080 -30.102  1.00  0.00     0.035 A 
HETATM   18  C   UNL     1      -4.855   2.940 -30.695  1.00  0.00     0.047 A 
HETATM   19  C   UNL     1      -3.741   2.442 -31.392  1.00  0.00     0.041 A 
HETATM   20  C   UNL     1      -3.568   1.061 -31.521  1.00  0.00     0.018 A 
HETATM   21  C   UNL     1      -4.506   0.193 -30.962  1.00  0.00     0.003 A 
HETATM   22  C   UNL     1      -5.604   0.701 -30.260  1.00  0.00     0.029 A 
BRANCH  19  23
HETATM   23  C   UNL     1      -2.787   3.433 -31.960  1.00  0.00     0.293 C 
HETATM   24  O   UNL     1      -1.891   3.941 -31.301  1.00  0.00    -0.259 OA
BRANCH  23  25
HETATM   25  O   UNL     1      -3.061   3.674 -33.263  1.00  0.00    -0.323 OA
HETATM   26  C   UNL     1      -2.440   4.847 -33.789  1.00  0.00     0.213 C 
ENDBRANCH  23  25
ENDBRANCH  19  23
ENDBRANCH  15  17
ENDBRANCH  13  15
ENDBRANCH  11  13
ENDBRANCH  10  11
ENDBRANCH   4  10
BRANCH   1  27
HETATM   27  C   UNL     1      -8.423   1.637 -34.181  1.00  0.00     0.038 C 
HETATM   28  N   UNL     1      -7.121   2.067 -34.056  1.00  0.00    -0.277 N 
HETATM   29  C   UNL     1      -6.557   3.389 -33.941  1.00  0.00     0.179 C 
HETATM   30  N   UNL     1      -6.236   1.057 -34.018  1.00  0.00    -0.172 NA
HETATM   31  C   UNL     1      -6.930  -0.053 -34.277  1.00  0.00     0.089 C 
HETATM   32  C   UNL     1      -8.301   0.269 -34.395  1.00  0.00     0.061 C 
BRANCH  31  33
HETATM   33  C   UNL     1      -6.295  -1.369 -34.355  1.00  0.00    -0.005 A 
HETATM   34  C   UNL     1      -4.933  -1.518 -34.068  1.00  0.00     0.016 A 
HETATM   35  C   UNL     1      -4.335  -2.781 -34.094  1.00  0.00     0.037 A 
HETATM   36  C   UNL     1      -5.082  -3.916 -34.407  1.00  0.00     0.068 A 
HETATM   37  C   UNL     1      -6.432  -3.775 -34.725  1.00  0.00     0.037 A 
HETATM   38  C   UNL     1      -7.035  -2.509 -34.698  1.00  0.00     0.016 A 
BRANCH  36  39
HETATM   39  O   UNL     1      -4.383  -5.090 -34.378  1.00  0.00    -0.356 OA
HETATM   40  C   UNL     1      -3.293  -5.165 -33.468  1.00  0.00     0.210 C 
ENDBRANCH  36  39
ENDBRANCH  31  33
ENDBRANCH   1  27
TORSDOF 10
ENDMDL
MODEL 2
REMARK VINA RESULT:      -8.5      2.774      4.132
REMARK  10 active torsions:
REMARK  status: ('A' for Active; 'I' for Inactive)
REMARK    1  A    between atoms: C_4  and  C_5 
REMARK    2  A    between atoms: C_8  and  O_9 
REMARK    3  A    between atoms: C_14  and  C_15 
REMARK    4  A    between atoms: C_18  and  C_19 
REMARK    5  A    between atoms: C_19  and  N_20 
REMARK    6  A    between atoms: N_20  and  C_21 
REMARK    7  A    between atoms: C_21  and  N_22 
REMARK    8  A    between atoms: N_22  and  C_23 
REMARK    9  A    between atoms: C_25  and  C_26 
REMARK   10  A    between atoms: C_26  and  O_27 
ROOT
HETATM    1  C   UNL     1      -8.594   3.762 -32.478  1.00  0.00     0.067 C 
HETATM    2  C   UNL     1      -7.955   4.920 -33.268  1.00  0.00     0.001 C 
HETATM    3  C   UNL     1      -6.497   5.179 -32.836  1.00  0.00     0.040 C 
HETATM    4  C   UNL     1      -6.398   5.601 -31.362  1.00  0.00     0.206 C 
HETATM    5  N   UNL     1      -7.773   5.364 -30.744  1.00  0.00    -0.065 N 
HETATM    6  H   UNL     1      -7.724   5.527 -29.728  1.00  0.00     0.280 HD
HETATM    7  C   UNL     1      -8.271   3.935 -30.977  1.00  0.00     0.246 C 
HETATM    8  C   UNL     1      -8.741   6.199 -32.870  1.00  0.00     0.033 C 
HETATM    9  C   UNL     1      -8.764   6.358 -31.342  1.00  0.00     0.236 C 
ENDROOT
BRANCH   4  10
HETATM   10  C   UNL     1      -5.268   4.887 -30.584  1.00  0.00     0.155 C 
BRANCH  10  11
HETATM   11  N   UNL     1      -5.008   5.502 -29.284  1.00  0.00    -0.365 N 
HETATM   12  H   UNL     1      -4.871   4.875 -28.496  1.00  0.00     0.161 HD
BRANCH  11  13
HETATM   13  C   UNL     1      -4.427   6.723 -29.073  1.00  0.00     0.172 C 
HETATM   14  S   UNL     1      -5.238   8.183 -29.054  1.00  0.00    -0.041 SA
BRANCH  13  15
HETATM   15  N   UNL     1      -3.074   6.747 -28.891  1.00  0.00    -0.333 N 
HETATM   16  H   UNL     1      -2.809   6.585 -27.922  1.00  0.00     0.168 HD
BRANCH  15  17
HETATM   17  C   UNL     1      -1.996   6.809 -29.802  1.00  0.00     0.035 A 
HETATM   18  C   UNL     1      -2.146   6.857 -31.188  1.00  0.00     0.047 A 
HETATM   19  C   UNL     1      -1.029   6.900 -32.039  1.00  0.00     0.041 A 
HETATM   20  C   UNL     1       0.257   6.863 -31.493  1.00  0.00     0.018 A 
HETATM   21  C   UNL     1       0.416   6.779 -30.110  1.00  0.00     0.003 A 
HETATM   22  C   UNL     1      -0.704   6.750 -29.272  1.00  0.00     0.029 A 
BRANCH  19  23
HETATM   23  C   UNL     1      -1.283   6.988 -33.503  1.00  0.00     0.293 C 
HETATM   24  O   UNL     1      -1.733   7.992 -34.037  1.00  0.00    -0.259 OA
BRANCH  23  25
HETATM   25  O   UNL     1      -0.955   5.829 -34.119  1.00  0.00    -0.323 OA
HETATM   26  C   UNL     1      -2.059   5.144 -34.714  1.00  0.00     0.213 C 
ENDBRANCH  23  25
ENDBRANCH  19  23
ENDBRANCH  15  17
ENDBRANCH  13  15
ENDBRANCH  11  13
ENDBRANCH  10  11
ENDBRANCH   4  10
BRANCH   1  27
HETATM   27  C   UNL     1      -8.450   2.333 -32.928  1.00  0.00     0.038 C 
HETATM   28  N   UNL     1      -9.343   1.459 -33.506  1.00  0.00    -0.277 N 
HETATM   29  C   UNL     1     -10.760   1.564 -33.756  1.00  0.00     0.179 C 
HETATM   30  N   UNL     1      -8.768   0.318 -33.921  1.00  0.00    -0.172 NA
HETATM   31  C   UNL     1      -7.509   0.357 -33.478  1.00  0.00     0.089 C 
HETATM   32  C   UNL     1      -7.274   1.597 -32.843  1.00  0.00     0.061 C 
BRANCH  31  33
HETATM   33  C   UNL     1      -6.568  -0.740 -33.709  1.00  0.00    -0.005 A 
HETATM   34  C   UNL     1      -6.968  -1.882 -34.413  1.00  0.00     0.016 A 
HETATM   35  C   UNL     1      -6.058  -2.909 -34.677  1.00  0.00     0.037 A 
HETATM   36  C   UNL     1      -4.735  -2.818 -34.242  1.00  0.00     0.068 A 
HETATM   37  C   UNL     1      -4.335  -1.699 -33.513  1.00  0.00     0.037 A 
HETATM   38  C   UNL     1      -5.246  -0.666 -33.249  1.00  0.00     0.016 A 
BRANCH  36  39
HETATM   39  O   UNL     1      -3.944  -3.878 -34.582  1.00  0.00    -0.356 OA
HETATM   40  C   UNL     1      -3.749  -4.878 -33.590  1.00  0.00     0.210 C 
ENDBRANCH  36  39
ENDBRANCH  31  33
ENDBRANCH   1  27
TORSDOF 10
ENDMDL
MODEL 3
REMARK VINA RESULT:      -8.4      1.786      2.845
REMARK  10 active torsions:
REMARK  status: ('A' for Active; 'I' for Inactive)
REMARK    1  A    between atoms: C_4  and  C_5 
REMARK    2  A    between atoms: C_8  and  O_9 
REMARK    3  A    between atoms: C_14  and  C_15 
REMARK    4  A    between atoms: C_18  and  C_19 
REMARK    5  A    between atoms: C_19  and  N_20 
REMARK    6  A    between atoms: N_20  and  C_21 
REMARK    7  A    between atoms: C_21  and  N_22 
REMARK    8  A    between atoms: N_22  and  C_23 
REMARK    9  A    between atoms: C_25  and  C_26 
REMARK   10  A    between atoms: C_26  and  O_27 
ROOT
HETATM    1  C   UNL     1     -10.720   2.226 -33.125  1.00  0.00     0.067 C 
HETATM    2  C   UNL     1     -11.140   2.472 -34.586  1.00  0.00     0.001 C 
HETATM    3  C   UNL     1     -10.600   3.812 -35.126  1.00  0.00     0.040 C 
HETATM    4  C   UNL     1     -11.156   5.014 -34.347  1.00  0.00     0.206 C 
HETATM    5  N   UNL     1     -11.861   4.451 -33.115  1.00  0.00    -0.065 N 
HETATM    6  H   UNL     1     -12.152   5.227 -32.504  1.00  0.00     0.280 HD
HETATM    7  C   UNL     1     -10.953   3.518 -32.308  1.00  0.00     0.246 C 
HETATM    8  C   UNL     1     -12.685   2.621 -34.572  1.00  0.00     0.033 C 
HETATM    9  C   UNL     1     -13.110   3.697 -33.561  1.00  0.00     0.236 C 
ENDROOT
BRANCH   4  10
HETATM   10  C   UNL     1     -10.086   6.070 -33.984  1.00  0.00     0.155 C 
BRANCH  10  11
HETATM   11  N   UNL     1      -8.724   5.593 -34.220  1.00  0.00    -0.365 N 
HETATM   12  H   UNL     1      -8.404   5.571 -35.184  1.00  0.00     0.161 HD
BRANCH  11  13
HETATM   13  C   UNL     1      -7.683   5.663 -33.335  1.00  0.00     0.172 C 
HETATM   14  S   UNL     1      -7.821   6.046 -31.715  1.00  0.00    -0.041 SA
BRANCH  13  15
HETATM   15  N   UNL     1      -6.430   5.425 -33.826  1.00  0.00    -0.333 N 
HETATM   16  H   UNL     1      -6.246   5.939 -34.684  1.00  0.00     0.168 HD
BRANCH  15  17
HETATM   17  C   UNL     1      -5.322   4.729 -33.296  1.00  0.00     0.035 A 
HETATM   18  C   UNL     1      -4.058   5.291 -33.116  1.00  0.00     0.047 A 
HETATM   19  C   UNL     1      -2.993   4.535 -32.599  1.00  0.00     0.041 A 
HETATM   20  C   UNL     1      -3.191   3.187 -32.286  1.00  0.00     0.018 A 
HETATM   21  C   UNL     1      -4.442   2.607 -32.495  1.00  0.00     0.003 A 
HETATM   22  C   UNL     1      -5.498   3.374 -32.999  1.00  0.00     0.029 A 
BRANCH  19  23
HETATM   23  C   UNL     1      -1.690   5.227 -32.406  1.00  0.00     0.293 C 
HETATM   24  O   UNL     1      -1.425   6.299 -32.933  1.00  0.00    -0.259 OA
BRANCH  23  25
HETATM   25  O   UNL     1      -0.879   4.511 -31.593  1.00  0.00    -0.323 OA
HETATM   26  C   UNL     1      -0.371   5.240 -30.475  1.00  0.00     0.213 C 
ENDBRANCH  23  25
ENDBRANCH  19  23
ENDBRANCH  15  17
ENDBRANCH  13  15
ENDBRANCH  11  13
ENDBRANCH  10  11
ENDBRANCH   4  10
BRANCH   1  27
HETATM   27  C   UNL     1      -9.409   1.571 -32.785  1.00  0.00     0.038 C 
HETATM   28  N   UNL     1      -8.592   1.673 -31.682  1.00  0.00    -0.277 N 
HETATM   29  C   UNL     1      -8.640   2.543 -30.532  1.00  0.00     0.179 C 
HETATM   30  N   UNL     1      -7.588   0.781 -31.687  1.00  0.00    -0.172 NA
HETATM   31  C   UNL     1      -7.635   0.179 -32.877  1.00  0.00     0.089 C 
HETATM   32  C   UNL     1      -8.755   0.653 -33.598  1.00  0.00     0.061 C 
BRANCH  31  33
HETATM   33  C   UNL     1      -6.667  -0.845 -33.272  1.00  0.00    -0.005 A 
HETATM   34  C   UNL     1      -7.008  -1.815 -34.222  1.00  0.00     0.016 A 
HETATM   35  C   UNL     1      -6.069  -2.765 -34.637  1.00  0.00     0.037 A 
HETATM   36  C   UNL     1      -4.778  -2.765 -34.112  1.00  0.00     0.068 A 
HETATM   37  C   UNL     1      -4.437  -1.824 -33.142  1.00  0.00     0.037 A 
HETATM   38  C   UNL     1      -5.376  -0.869 -32.726  1.00  0.00     0.016 A 
BRANCH  36  39
HETATM   39  O   UNL     1      -3.953  -3.731 -34.615  1.00  0.00    -0.356 OA
HETATM   40  C   UNL     1      -3.483  -4.715 -33.702  1.00  0.00     0.210 C 
ENDBRANCH  36  39
ENDBRANCH  31  33
ENDBRANCH   1  27
TORSDOF 10
ENDMDL
MODEL 4
REMARK VINA RESULT:      -8.4      3.413      6.174
REMARK  10 active torsions:
REMARK  status: ('A' for Active; 'I' for Inactive)
REMARK    1  A    between atoms: C_4  and  C_5 
REMARK    2  A    between atoms: C_8  and  O_9 
REMARK    3  A    between atoms: C_14  and  C_15 
REMARK    4  A    between atoms: C_18  and  C_19 
REMARK    5  A    between atoms: C_19  and  N_20 
REMARK    6  A    between atoms: N_20  and  C_21 
REMARK    7  A    between atoms: C_21  and  N_22 
REMARK    8  A    between atoms: N_22  and  C_23 
REMARK    9  A    between atoms: C_25  and  C_26 
REMARK   10  A    between atoms: C_26  and  O_27 
ROOT
HETATM    1  C   UNL     1      -5.771   4.233 -30.647  1.00  0.00     0.067 C 
HETATM    2  C   UNL     1      -7.097   4.042 -29.886  1.00  0.00     0.001 C 
HETATM    3  C   UNL     1      -8.322   4.328 -30.779  1.00  0.00     0.040 C 
HETATM    4  C   UNL     1      -8.353   5.783 -31.271  1.00  0.00     0.206 C 
HETATM    5  N   UNL     1      -6.999   6.394 -30.918  1.00  0.00    -0.065 N 
HETATM    6  H   UNL     1      -6.931   7.336 -31.329  1.00  0.00     0.280 HD
HETATM    7  C   UNL     1      -5.832   5.554 -31.446  1.00  0.00     0.246 C 
HETATM    8  C   UNL     1      -7.122   5.135 -28.784  1.00  0.00     0.033 C 
HETATM    9  C   UNL     1      -6.894   6.524 -29.401  1.00  0.00     0.236 C 
ENDROOT
BRANCH   4  10
HETATM   10  C   UNL     1      -8.692   5.926 -32.773  1.00  0.00     0.155 C 
BRANCH  10  11
HETATM   11  N   UNL     1     -10.120   6.135 -33.007  1.00  0.00    -0.365 N 
HETATM   12  H   UNL     1     -10.482   7.071 -32.843  1.00  0.00     0.161 HD
BRANCH  11  13
HETATM   13  C   UNL     1     -10.904   5.427 -33.877  1.00  0.00     0.172 C 
HETATM   14  S   UNL     1     -12.450   5.854 -34.343  1.00  0.00    -0.041 SA
BRANCH  13  15
HETATM   15  N   UNL     1     -10.388   4.267 -34.381  1.00  0.00    -0.333 N 
HETATM   16  H   UNL     1      -9.693   4.434 -35.105  1.00  0.00     0.168 HD
BRANCH  15  17
HETATM   17  C   UNL     1     -10.531   2.918 -33.989  1.00  0.00     0.035 A 
HETATM   18  C   UNL     1     -11.716   2.192 -34.104  1.00  0.00     0.047 A 
HETATM   19  C   UNL     1     -11.794   0.855 -33.677  1.00  0.00     0.041 A 
HETATM   20  C   UNL     1     -10.676   0.249 -33.098  1.00  0.00     0.018 A 
HETATM   21  C   UNL     1      -9.497   0.979 -32.947  1.00  0.00     0.003 A 
HETATM   22  C   UNL     1      -9.428   2.304 -33.387  1.00  0.00     0.029 A 
BRANCH  19  23
HETATM   23  C   UNL     1     -13.087   0.146 -33.873  1.00  0.00     0.293 C 
HETATM   24  O   UNL     1     -13.328  -0.942 -33.370  1.00  0.00    -0.259 OA
BRANCH  23  25
HETATM   25  O   UNL     1     -13.915   0.865 -34.666  1.00  0.00    -0.323 OA
HETATM   26  C   UNL     1     -15.293   0.796 -34.296  1.00  0.00     0.213 C 
ENDBRANCH  23  25
ENDBRANCH  19  23
ENDBRANCH  15  17
ENDBRANCH  13  15
ENDBRANCH  11  13
ENDBRANCH  10  11
ENDBRANCH   4  10
BRANCH   1  27
HETATM   27  C   UNL     1      -5.159   3.115 -31.448  1.00  0.00     0.038 C 
HETATM   28  N   UNL     1      -3.855   2.843 -31.793  1.00  0.00    -0.277 N 
HETATM   29  C   UNL     1      -2.641   3.604 -31.626  1.00  0.00     0.179 C 
HETATM   30  N   UNL     1      -3.705   1.640 -32.373  1.00  0.00    -0.172 NA
HETATM   31  C   UNL     1      -4.938   1.165 -32.561  1.00  0.00     0.089 C 
HETATM   32  C   UNL     1      -5.877   2.063 -32.006  1.00  0.00     0.061 C 
BRANCH  31  33
HETATM   33  C   UNL     1      -5.186  -0.125 -33.206  1.00  0.00    -0.005 A 
HETATM   34  C   UNL     1      -6.397  -0.368 -33.865  1.00  0.00     0.016 A 
HETATM   35  C   UNL     1      -6.617  -1.582 -34.523  1.00  0.00     0.037 A 
HETATM   36  C   UNL     1      -5.637  -2.574 -34.535  1.00  0.00     0.068 A 
HETATM   37  C   UNL     1      -4.440  -2.355 -33.855  1.00  0.00     0.037 A 
HETATM   38  C   UNL     1      -4.216  -1.137 -33.195  1.00  0.00     0.016 A 
BRANCH  36  39
HETATM   39  O   UNL     1      -5.969  -3.702 -35.230  1.00  0.00    -0.356 OA
HETATM   40  C   UNL     1      -5.336  -4.911 -34.831  1.00  0.00     0.210 C 
ENDBRANCH  36  39
ENDBRANCH  31  33
ENDBRANCH   1  27
TORSDOF 10
ENDMDL
MODEL 5
REMARK VINA RESULT:      -8.3      5.317     10.174
REMARK  10 active torsions:
REMARK  status: ('A' for Active; 'I' for Inactive)
REMARK    1  A    between atoms: C_4  and  C_5 
REMARK    2  A    between atoms: C_8  and  O_9 
REMARK    3  A    between atoms: C_14  and  C_15 
REMARK    4  A    between atoms: C_18  and  C_19 
REMARK    5  A    between atoms: C_19  and  N_20 
REMARK    6  A    between atoms: N_20  and  C_21 
REMARK    7  A    between atoms: C_21  and  N_22 
REMARK    8  A    between atoms: N_22  and  C_23 
REMARK    9  A    between atoms: C_25  and  C_26 
REMARK   10  A    between atoms: C_26  and  O_27 
ROOT
HETATM    1  C   UNL     1      -1.454   6.485 -31.804  1.00  0.00     0.067 C 
HETATM    2  C   UNL     1      -2.458   7.038 -32.833  1.00  0.00     0.001 C 
HETATM    3  C   UNL     1      -3.814   6.305 -32.771  1.00  0.00     0.040 C 
HETATM    4  C   UNL     1      -3.679   4.812 -33.110  1.00  0.00     0.206 C 
HETATM    5  N   UNL     1      -2.184   4.502 -33.139  1.00  0.00    -0.065 N 
HETATM    6  H   UNL     1      -2.048   3.487 -33.251  1.00  0.00     0.280 HD
HETATM    7  C   UNL     1      -1.480   4.941 -31.852  1.00  0.00     0.246 C 
HETATM    8  C   UNL     1      -1.869   6.706 -34.231  1.00  0.00     0.033 C 
HETATM    9  C   UNL     1      -1.555   5.206 -34.337  1.00  0.00     0.236 C 
ENDROOT
BRANCH   4  10
HETATM   10  C   UNL     1      -4.458   3.882 -32.151  1.00  0.00     0.155 C 
BRANCH  10  11
HETATM   11  N   UNL     1      -5.906   4.002 -32.307  1.00  0.00    -0.365 N 
HETATM   12  H   UNL     1      -6.255   4.865 -32.716  1.00  0.00     0.161 HD
BRANCH  11  13
HETATM   13  C   UNL     1      -6.787   2.967 -32.464  1.00  0.00     0.172 C 
HETATM   14  S   UNL     1      -8.001   2.567 -31.389  1.00  0.00    -0.041 SA
BRANCH  13  15
HETATM   15  N   UNL     1      -6.642   2.188 -33.577  1.00  0.00    -0.333 N 
HETATM   16  H   UNL     1      -6.731   2.721 -34.439  1.00  0.00     0.168 HD
BRANCH  15  17
HETATM   17  C   UNL     1      -6.257   0.840 -33.745  1.00  0.00     0.035 A 
HETATM   18  C   UNL     1      -5.161   0.255 -33.112  1.00  0.00     0.047 A 
HETATM   19  C   UNL     1      -4.823  -1.090 -33.338  1.00  0.00     0.041 A 
HETATM   20  C   UNL     1      -5.578  -1.850 -34.235  1.00  0.00     0.018 A 
HETATM   21  C   UNL     1      -6.655  -1.264 -34.899  1.00  0.00     0.003 A 
HETATM   22  C   UNL     1      -6.989   0.072 -34.656  1.00  0.00     0.029 A 
BRANCH  19  23
HETATM   23  C   UNL     1      -3.660  -1.641 -32.591  1.00  0.00     0.293 C 
HETATM   24  O   UNL     1      -2.900  -0.939 -31.939  1.00  0.00    -0.259 OA
BRANCH  23  25
HETATM   25  O   UNL     1      -3.579  -2.983 -32.746  1.00  0.00    -0.323 OA
HETATM   26  C   UNL     1      -2.884  -3.657 -31.696  1.00  0.00     0.213 C 
ENDBRANCH  23  25
ENDBRANCH  19  23
ENDBRANCH  15  17
ENDBRANCH  13  15
ENDBRANCH  11  13
ENDBRANCH  10  11
ENDBRANCH   4  10
BRANCH   1  27
HETATM   27  C   UNL     1      -1.411   7.007 -30.393  1.00  0.00     0.038 C 
HETATM   28  N   UNL     1      -2.360   7.035 -29.396  1.00  0.00    -0.277 N 
HETATM   29  C   UNL     1      -3.763   6.699 -29.400  1.00  0.00     0.179 C 
HETATM   30  N   UNL     1      -1.866   7.431 -28.211  1.00  0.00    -0.172 NA
HETATM   31  C   UNL     1      -0.612   7.823 -28.446  1.00  0.00     0.089 C 
HETATM   32  C   UNL     1      -0.292   7.583 -29.802  1.00  0.00     0.061 C 
BRANCH  31  33
HETATM   33  C   UNL     1       0.249   8.357 -27.390  1.00  0.00    -0.005 A 
HETATM   34  C   UNL     1       1.194   7.537 -26.763  1.00  0.00     0.016 A 
HETATM   35  C   UNL     1       2.050   8.057 -25.788  1.00  0.00     0.037 A 
HETATM   36  C   UNL     1       1.979   9.401 -25.421  1.00  0.00     0.068 A 
HETATM   37  C   UNL     1       1.020  10.219 -26.017  1.00  0.00     0.037 A 
HETATM   38  C   UNL     1       0.161   9.700 -26.996  1.00  0.00     0.016 A 
BRANCH  36  39
HETATM   39  O   UNL     1       2.884   9.786 -24.473  1.00  0.00    -0.356 OA
HETATM   40  C   UNL     1       2.733  11.094 -23.935  1.00  0.00     0.210 C 
ENDBRANCH  36  39
ENDBRANCH  31  33
ENDBRANCH   1  27
TORSDOF 10
ENDMDL
MODEL 6
REMARK VINA RESULT:      -8.3      3.218      4.561
REMARK  10 active torsions:
REMARK  status: ('A' for Active; 'I' for Inactive)
REMARK    1  A    between atoms: C_4  and  C_5 
REMARK    2  A    between atoms: C_8  and  O_9 
REMARK    3  A    between atoms: C_14  and  C_15 
REMARK    4  A    between atoms: C_18  and  C_19 
REMARK    5  A    between atoms: C_19  and  N_20 
REMARK    6  A    between atoms: N_20  and  C_21 
REMARK    7  A    between atoms: C_21  and  N_22 
REMARK    8  A    between atoms: N_22  and  C_23 
REMARK    9  A    between atoms: C_25  and  C_26 
REMARK   10  A    between atoms: C_26  and  O_27 
ROOT
HETATM    1  C   UNL     1      -7.103   4.258 -32.059  1.00  0.00     0.067 C 
HETATM    2  C   UNL     1      -6.694   5.668 -32.524  1.00  0.00     0.001 C 
HETATM    3  C   UNL     1      -5.833   6.397 -31.472  1.00  0.00     0.040 C 
HETATM    4  C   UNL     1      -6.593   6.618 -30.156  1.00  0.00     0.206 C 
HETATM    5  N   UNL     1      -7.877   5.796 -30.246  1.00  0.00    -0.065 N 
HETATM    6  H   UNL     1      -8.365   5.824 -29.340  1.00  0.00     0.280 HD
HETATM    7  C   UNL     1      -7.599   4.331 -30.597  1.00  0.00     0.246 C 
HETATM    8  C   UNL     1      -8.009   6.487 -32.625  1.00  0.00     0.033 C 
HETATM    9  C   UNL     1      -8.788   6.414 -31.302  1.00  0.00     0.236 C 
ENDROOT
BRANCH   4  10
HETATM   10  C   UNL     1      -5.765   6.284 -28.893  1.00  0.00     0.155 C 
BRANCH  10  11
HETATM   11  N   UNL     1      -5.129   7.464 -28.312  1.00  0.00    -0.365 N 
HETATM   12  H   UNL     1      -5.503   7.801 -27.429  1.00  0.00     0.161 HD
BRANCH  11  13
HETATM   13  C   UNL     1      -3.831   7.854 -28.501  1.00  0.00     0.172 C 
HETATM   14  S   UNL     1      -3.272   9.424 -28.381  1.00  0.00    -0.041 SA
BRANCH  13  15
HETATM   15  N   UNL     1      -2.931   6.884 -28.839  1.00  0.00    -0.333 N 
HETATM   16  H   UNL     1      -3.135   5.993 -28.393  1.00  0.00     0.168 HD
BRANCH  15  17
HETATM   17  C   UNL     1      -1.881   6.854 -29.783  1.00  0.00     0.035 A 
HETATM   18  C   UNL     1      -2.068   6.935 -31.163  1.00  0.00     0.047 A 
HETATM   19  C   UNL     1      -0.978   6.880 -32.048  1.00  0.00     0.041 A 
HETATM   20  C   UNL     1       0.314   6.712 -31.544  1.00  0.00     0.018 A 
HETATM   21  C   UNL     1       0.507   6.594 -30.167  1.00  0.00     0.003 A 
HETATM   22  C   UNL     1      -0.585   6.663 -29.295  1.00  0.00     0.029 A 
BRANCH  19  23
HETATM   23  C   UNL     1      -1.268   7.013 -33.502  1.00  0.00     0.293 C 
HETATM   24  O   UNL     1      -1.742   8.028 -33.992  1.00  0.00    -0.259 OA
BRANCH  23  25
HETATM   25  O   UNL     1      -0.940   5.879 -34.164  1.00  0.00    -0.323 OA
HETATM   26  C   UNL     1      -1.988   4.910 -34.229  1.00  0.00     0.213 C 
ENDBRANCH  23  25
ENDBRANCH  19  23
ENDBRANCH  15  17
ENDBRANCH  13  15
ENDBRANCH  11  13
ENDBRANCH  10  11
ENDBRANCH   4  10
BRANCH   1  27
HETATM   27  C   UNL     1      -6.216   3.066 -32.296  1.00  0.00     0.038 C 
HETATM   28  N   UNL     1      -4.919   2.800 -31.922  1.00  0.00    -0.277 N 
HETATM   29  C   UNL     1      -3.916   3.623 -31.291  1.00  0.00     0.179 C 
HETATM   30  N   UNL     1      -4.545   1.536 -32.182  1.00  0.00    -0.172 NA
HETATM   31  C   UNL     1      -5.544   0.991 -32.879  1.00  0.00     0.089 C 
HETATM   32  C   UNL     1      -6.604   1.920 -32.981  1.00  0.00     0.061 C 
BRANCH  31  33
HETATM   33  C   UNL     1      -5.489  -0.383 -33.377  1.00  0.00    -0.005 A 
HETATM   34  C   UNL     1      -6.594  -0.949 -34.025  1.00  0.00     0.016 A 
HETATM   35  C   UNL     1      -6.527  -2.245 -34.544  1.00  0.00     0.037 A 
HETATM   36  C   UNL     1      -5.360  -2.999 -34.427  1.00  0.00     0.068 A 
HETATM   37  C   UNL     1      -4.264  -2.458 -33.757  1.00  0.00     0.037 A 
HETATM   38  C   UNL     1      -4.328  -1.157 -33.236  1.00  0.00     0.016 A 
BRANCH  36  39
HETATM   39  O   UNL     1      -5.419  -4.241 -34.995  1.00  0.00    -0.356 OA
HETATM   40  C   UNL     1      -6.637  -4.596 -35.637  1.00  0.00     0.210 C 
ENDBRANCH  36  39
ENDBRANCH  31  33
ENDBRANCH   1  27
TORSDOF 10
ENDMDL
MODEL 7
REMARK VINA RESULT:      -8.2      3.762      6.550
REMARK  10 active torsions:
REMARK  status: ('A' for Active; 'I' for Inactive)
REMARK    1  A    between atoms: C_4  and  C_5 
REMARK    2  A    between atoms: C_8  and  O_9 
REMARK    3  A    between atoms: C_14  and  C_15 
REMARK    4  A    between atoms: C_18  and  C_19 
REMARK    5  A    between atoms: C_19  and  N_20 
REMARK    6  A    between atoms: N_20  and  C_21 
REMARK    7  A    between atoms: C_21  and  N_22 
REMARK    8  A    between atoms: N_22  and  C_23 
REMARK    9  A    between atoms: C_25  and  C_26 
REMARK   10  A    between atoms: C_26  and  O_27 
ROOT
HETATM    1  C   UNL     1      -3.879   4.298 -33.546  1.00  0.00     0.067 C 
HETATM    2  C   UNL     1      -2.435   4.255 -33.010  1.00  0.00     0.001 C 
HETATM    3  C   UNL     1      -2.329   4.841 -31.587  1.00  0.00     0.040 C 
HETATM    4  C   UNL     1      -2.725   6.325 -31.542  1.00  0.00     0.206 C 
HETATM    5  N   UNL     1      -3.351   6.654 -32.896  1.00  0.00    -0.065 N 
HETATM    6  H   UNL     1      -3.735   7.609 -32.872  1.00  0.00     0.280 HD
HETATM    7  C   UNL     1      -4.485   5.689 -33.255  1.00  0.00     0.246 C 
HETATM    8  C   UNL     1      -1.611   5.210 -33.916  1.00  0.00     0.033 C 
HETATM    9  C   UNL     1      -2.268   6.598 -33.969  1.00  0.00     0.236 C 
ENDROOT
BRANCH   4  10
HETATM   10  C   UNL     1      -3.652   6.687 -30.359  1.00  0.00     0.155 C 
BRANCH  10  11
HETATM   11  N   UNL     1      -4.220   5.506 -29.711  1.00  0.00    -0.365 N 
HETATM   12  H   UNL     1      -3.619   5.002 -29.064  1.00  0.00     0.161 HD
BRANCH  11  13
HETATM   13  C   UNL     1      -5.546   5.289 -29.453  1.00  0.00     0.172 C 
HETATM   14  S   UNL     1      -6.396   5.941 -28.171  1.00  0.00    -0.041 SA
BRANCH  13  15
HETATM   15  N   UNL     1      -6.218   4.453 -30.299  1.00  0.00    -0.333 N 
HETATM   16  H   UNL     1      -5.632   3.694 -30.641  1.00  0.00     0.168 HD
BRANCH  15  17
HETATM   17  C   UNL     1      -7.580   4.366 -30.661  1.00  0.00     0.035 A 
HETATM   18  C   UNL     1      -8.220   5.264 -31.515  1.00  0.00     0.047 A 
HETATM   19  C   UNL     1      -9.586   5.130 -31.820  1.00  0.00     0.041 A 
HETATM   20  C   UNL     1     -10.325   4.097 -31.236  1.00  0.00     0.018 A 
HETATM   21  C   UNL     1      -9.701   3.216 -30.354  1.00  0.00     0.003 A 
HETATM   22  C   UNL     1      -8.339   3.353 -30.068  1.00  0.00     0.029 A 
BRANCH  19  23
HETATM   23  C   UNL     1     -10.177   6.111 -32.770  1.00  0.00     0.293 C 
HETATM   24  O   UNL     1     -10.169   7.316 -32.566  1.00  0.00    -0.259 OA
BRANCH  23  25
HETATM   25  O   UNL     1     -10.704   5.482 -33.846  1.00  0.00    -0.323 OA
HETATM   26  C   UNL     1     -10.032   5.753 -35.076  1.00  0.00     0.213 C 
ENDBRANCH  23  25
ENDBRANCH  19  23
ENDBRANCH  15  17
ENDBRANCH  13  15
ENDBRANCH  11  13
ENDBRANCH  10  11
ENDBRANCH   4  10
BRANCH   1  27
HETATM   27  C   UNL     1      -4.853   3.186 -33.264  1.00  0.00     0.038 C 
HETATM   28  N   UNL     1      -4.745   2.044 -32.504  1.00  0.00    -0.277 N 
HETATM   29  C   UNL     1      -3.620   1.448 -31.826  1.00  0.00     0.179 C 
HETATM   30  N   UNL     1      -5.911   1.392 -32.366  1.00  0.00    -0.172 NA
HETATM   31  C   UNL     1      -6.779   2.013 -33.168  1.00  0.00     0.089 C 
HETATM   32  C   UNL     1      -6.152   3.135 -33.756  1.00  0.00     0.061 C 
BRANCH  31  33
HETATM   33  C   UNL     1      -8.164   1.565 -33.314  1.00  0.00    -0.005 A 
HETATM   34  C   UNL     1      -8.629   0.453 -32.602  1.00  0.00     0.016 A 
HETATM   35  C   UNL     1      -9.965   0.052 -32.702  1.00  0.00     0.037 A 
HETATM   36  C   UNL     1     -10.858   0.751 -33.514  1.00  0.00     0.068 A 
HETATM   37  C   UNL     1     -10.398   1.840 -34.252  1.00  0.00     0.037 A 
HETATM   38  C   UNL     1      -9.059   2.246 -34.151  1.00  0.00     0.016 A 
BRANCH  36  39
HETATM   39  O   UNL     1     -12.137   0.269 -33.507  1.00  0.00    -0.356 OA
HETATM   40  C   UNL     1     -13.069   0.911 -34.369  1.00  0.00     0.210 C 
ENDBRANCH  36  39
ENDBRANCH  31  33
ENDBRANCH   1  27
TORSDOF 10
ENDMDL
MODEL 8
REMARK VINA RESULT:      -8.0      3.301      5.928
REMARK  10 active torsions:
REMARK  status: ('A' for Active; 'I' for Inactive)
REMARK    1  A    between atoms: C_4  and  C_5 
REMARK    2  A    between atoms: C_8  and  O_9 
REMARK    3  A    between atoms: C_14  and  C_15 
REMARK    4  A    between atoms: C_18  and  C_19 
REMARK    5  A    between atoms: C_19  and  N_20 
REMARK    6  A    between atoms: N_20  and  C_21 
REMARK    7  A    between atoms: C_21  and  N_22 
REMARK    8  A    between atoms: N_22  and  C_23 
REMARK    9  A    between atoms: C_25  and  C_26 
REMARK   10  A    between atoms: C_26  and  O_27 
ROOT
HETATM    1  C   UNL     1      -5.900   4.557 -30.973  1.00  0.00     0.067 C 
HETATM    2  C   UNL     1      -6.341   4.316 -29.517  1.00  0.00     0.001 C 
HETATM    3  C   UNL     1      -7.786   4.794 -29.264  1.00  0.00     0.040 C 
HETATM    4  C   UNL     1      -7.940   6.308 -29.481  1.00  0.00     0.206 C 
HETATM    5  N   UNL     1      -6.649   6.791 -30.138  1.00  0.00    -0.065 N 
HETATM    6  H   UNL     1      -6.751   7.780 -30.405  1.00  0.00     0.280 HD
HETATM    7  C   UNL     1      -6.307   5.986 -31.396  1.00  0.00     0.246 C 
HETATM    8  C   UNL     1      -5.442   5.227 -28.638  1.00  0.00     0.033 C 
HETATM    9  C   UNL     1      -5.509   6.681 -29.130  1.00  0.00     0.236 C 
ENDROOT
BRANCH   4  10
HETATM   10  C   UNL     1      -9.198   6.696 -30.292  1.00  0.00     0.155 C 
BRANCH  10  11
HETATM   11  N   UNL     1     -10.353   5.861 -29.969  1.00  0.00    -0.365 N 
HETATM   12  H   UNL     1     -10.753   5.966 -29.041  1.00  0.00     0.161 HD
BRANCH  11  13
HETATM   13  C   UNL     1     -11.260   5.361 -30.864  1.00  0.00     0.172 C 
HETATM   14  S   UNL     1     -12.913   5.315 -30.632  1.00  0.00    -0.041 SA
BRANCH  13  15
HETATM   15  N   UNL     1     -10.767   4.838 -32.026  1.00  0.00    -0.333 N 
HETATM   16  H   UNL     1     -10.221   5.513 -32.555  1.00  0.00     0.168 HD
BRANCH  15  17
HETATM   17  C   UNL     1     -10.755   3.523 -32.542  1.00  0.00     0.035 A 
HETATM   18  C   UNL     1     -11.673   3.041 -33.475  1.00  0.00     0.047 A 
HETATM   19  C   UNL     1     -11.615   1.714 -33.933  1.00  0.00     0.041 A 
HETATM   20  C   UNL     1     -10.640   0.851 -33.426  1.00  0.00     0.018 A 
HETATM   21  C   UNL     1      -9.740   1.314 -32.466  1.00  0.00     0.003 A 
HETATM   22  C   UNL     1      -9.801   2.641 -32.027  1.00  0.00     0.029 A 
BRANCH  19  23
HETATM   23  C   UNL     1     -12.611   1.297 -34.957  1.00  0.00     0.293 C 
HETATM   24  O   UNL     1     -12.666   1.800 -36.070  1.00  0.00    -0.259 OA
BRANCH  23  25
HETATM   25  O   UNL     1     -13.412   0.317 -34.479  1.00  0.00    -0.323 OA
HETATM   26  C   UNL     1     -14.762   0.720 -34.245  1.00  0.00     0.213 C 
ENDBRANCH  23  25
ENDBRANCH  19  23
ENDBRANCH  15  17
ENDBRANCH  13  15
ENDBRANCH  11  13
ENDBRANCH  10  11
ENDBRANCH   4  10
BRANCH   1  27
HETATM   27  C   UNL     1      -6.178   3.547 -32.053  1.00  0.00     0.038 C 
HETATM   28  N   UNL     1      -6.723   3.676 -33.311  1.00  0.00    -0.277 N 
HETATM   29  C   UNL     1      -7.339   4.797 -33.977  1.00  0.00     0.179 C 
HETATM   30  N   UNL     1      -6.638   2.550 -34.039  1.00  0.00    -0.172 NA
HETATM   31  C   UNL     1      -6.175   1.610 -33.212  1.00  0.00     0.089 C 
HETATM   32  C   UNL     1      -5.885   2.191 -31.957  1.00  0.00     0.061 C 
BRANCH  31  33
HETATM   33  C   UNL     1      -5.977   0.224 -33.640  1.00  0.00    -0.005 A 
HETATM   34  C   UNL     1      -4.748  -0.413 -33.434  1.00  0.00     0.016 A 
HETATM   35  C   UNL     1      -4.572  -1.752 -33.797  1.00  0.00     0.037 A 
HETATM   36  C   UNL     1      -5.616  -2.476 -34.373  1.00  0.00     0.068 A 
HETATM   37  C   UNL     1      -6.834  -1.842 -34.612  1.00  0.00     0.037 A 
HETATM   38  C   UNL     1      -7.013  -0.500 -34.246  1.00  0.00     0.016 A 
BRANCH  36  39
HETATM   39  O   UNL     1      -5.320  -3.778 -34.662  1.00  0.00    -0.356 OA
HETATM   40  C   UNL     1      -6.330  -4.537 -35.315  1.00  0.00     0.210 C 
ENDBRANCH  36  39
ENDBRANCH  31  33
ENDBRANCH   1  27
TORSDOF 10
ENDMDL
MODEL 9
REMARK VINA RESULT:      -7.9      2.230      3.129
REMARK  10 active torsions:
REMARK  status: ('A' for Active; 'I' for Inactive)
REMARK    1  A    between atoms: C_4  and  C_5 
REMARK    2  A    between atoms: C_8  and  O_9 
REMARK    3  A    between atoms: C_14  and  C_15 
REMARK    4  A    between atoms: C_18  and  C_19 
REMARK    5  A    between atoms: C_19  and  N_20 
REMARK    6  A    between atoms: N_20  and  C_21 
REMARK    7  A    between atoms: C_21  and  N_22 
REMARK    8  A    between atoms: N_22  and  C_23 
REMARK    9  A    between atoms: C_25  and  C_26 
REMARK   10  A    between atoms: C_26  and  O_27 
ROOT
HETATM    1  C   UNL     1     -10.536   2.199 -34.224  1.00  0.00     0.067 C 
HETATM    2  C   UNL     1     -10.388   3.639 -34.751  1.00  0.00     0.001 C 
HETATM    3  C   UNL     1     -10.584   4.686 -33.636  1.00  0.00     0.040 C 
HETATM    4  C   UNL     1     -11.995   4.628 -33.031  1.00  0.00     0.206 C 
HETATM    5  N   UNL     1     -12.651   3.358 -33.568  1.00  0.00    -0.065 N 
HETATM    6  H   UNL     1     -13.558   3.219 -33.101  1.00  0.00     0.280 HD
HETATM    7  C   UNL     1     -11.788   2.117 -33.324  1.00  0.00     0.246 C 
HETATM    8  C   UNL     1     -11.564   3.859 -35.741  1.00  0.00     0.033 C 
HETATM    9  C   UNL     1     -12.902   3.525 -35.064  1.00  0.00     0.236 C 
ENDROOT
BRANCH   4  10
HETATM   10  C   UNL     1     -12.014   4.695 -31.486  1.00  0.00     0.155 C 
BRANCH  10  11
HETATM   11  N   UNL     1     -11.955   6.067 -30.984  1.00  0.00    -0.365 N 
HETATM   12  H   UNL     1     -12.839   6.507 -30.741  1.00  0.00     0.161 HD
BRANCH  11  13
HETATM   13  C   UNL     1     -10.900   6.639 -30.328  1.00  0.00     0.172 C 
HETATM   14  S   UNL     1     -10.690   8.279 -30.091  1.00  0.00    -0.041 SA
BRANCH  13  15
HETATM   15  N   UNL     1      -9.932   5.800 -29.854  1.00  0.00    -0.333 N 
HETATM   16  H   UNL     1     -10.293   5.136 -29.172  1.00  0.00     0.168 HD
BRANCH  15  17
HETATM   17  C   UNL     1      -8.587   5.596 -30.233  1.00  0.00     0.035 A 
HETATM   18  C   UNL     1      -8.133   5.630 -31.552  1.00  0.00     0.047 A 
HETATM   19  C   UNL     1      -6.782   5.399 -31.861  1.00  0.00     0.041 A 
HETATM   20  C   UNL     1      -5.880   5.100 -30.836  1.00  0.00     0.018 A 
HETATM   21  C   UNL     1      -6.332   5.029 -29.519  1.00  0.00     0.003 A 
HETATM   22  C   UNL     1      -7.677   5.273 -29.222  1.00  0.00     0.029 A 
BRANCH  19  23
HETATM   23  C   UNL     1      -6.379   5.493 -33.291  1.00  0.00     0.293 C 
HETATM   24  O   UNL     1      -7.084   5.088 -34.204  1.00  0.00    -0.259 OA
BRANCH  23  25
HETATM   25  O   UNL     1      -5.161   6.069 -33.411  1.00  0.00    -0.323 OA
HETATM   26  C   UNL     1      -4.234   5.327 -34.206  1.00  0.00     0.213 C 
ENDBRANCH  23  25
ENDBRANCH  19  23
ENDBRANCH  15  17
ENDBRANCH  13  15
ENDBRANCH  11  13
ENDBRANCH  10  11
ENDBRANCH   4  10
BRANCH   1  27
HETATM   27  C   UNL     1      -9.367   1.455 -33.638  1.00  0.00     0.038 C 
HETATM   28  N   UNL     1      -8.845   1.425 -32.364  1.00  0.00    -0.277 N 
HETATM   29  C   UNL     1      -9.151   2.199 -31.186  1.00  0.00     0.179 C 
HETATM   30  N   UNL     1      -7.895   0.489 -32.207  1.00  0.00    -0.172 NA
HETATM   31  C   UNL     1      -7.663  -0.010 -33.424  1.00  0.00     0.089 C 
HETATM   32  C   UNL     1      -8.557   0.576 -34.348  1.00  0.00     0.061 C 
BRANCH  31  33
HETATM   33  C   UNL     1      -6.656  -1.044 -33.663  1.00  0.00    -0.005 A 
HETATM   34  C   UNL     1      -6.903  -2.078 -34.574  1.00  0.00     0.016 A 
HETATM   35  C   UNL     1      -5.924  -3.039 -34.841  1.00  0.00     0.037 A 
HETATM   36  C   UNL     1      -4.683  -2.987 -34.205  1.00  0.00     0.068 A 
HETATM   37  C   UNL     1      -4.438  -1.980 -33.274  1.00  0.00     0.037 A 
HETATM   38  C   UNL     1      -5.418  -1.013 -33.006  1.00  0.00     0.016 A 
BRANCH  36  39
HETATM   39  O   UNL     1      -3.809  -3.972 -34.570  1.00  0.00    -0.356 OA
HETATM   40  C   UNL     1      -3.401  -4.877 -33.552  1.00  0.00     0.210 C 
ENDBRANCH  36  39
ENDBRANCH  31  33
ENDBRANCH   1  27
TORSDOF 10
ENDMDL
MODEL 10
REMARK VINA RESULT:      -7.8      2.725      4.015
REMARK  10 active torsions:
REMARK  status: ('A' for Active; 'I' for Inactive)
REMARK    1  A    between atoms: C_4  and  C_5 
REMARK    2  A    between atoms: C_8  and  O_9 
REMARK    3  A    between atoms: C_14  and  C_15 
REMARK    4  A    between atoms: C_18  and  C_19 
REMARK    5  A    between atoms: C_19  and  N_20 
REMARK    6  A    between atoms: N_20  and  C_21 
REMARK    7  A    between atoms: C_21  and  N_22 
REMARK    8  A    between atoms: N_22  and  C_23 
REMARK    9  A    between atoms: C_25  and  C_26 
REMARK   10  A    between atoms: C_26  and  O_27 
ROOT
HETATM    1  C   UNL     1     -11.002   3.582 -33.819  1.00  0.00     0.067 C 
HETATM    2  C   UNL     1     -10.559   4.479 -34.990  1.00  0.00     0.001 C 
HETATM    3  C   UNL     1      -9.431   5.449 -34.581  1.00  0.00     0.040 C 
HETATM    4  C   UNL     1      -9.879   6.425 -33.482  1.00  0.00     0.206 C 
HETATM    5  N   UNL     1     -11.229   5.924 -32.974  1.00  0.00    -0.065 N 
HETATM    6  H   UNL     1     -11.515   6.483 -32.158  1.00  0.00     0.280 HD
HETATM    7  C   UNL     1     -11.176   4.452 -32.554  1.00  0.00     0.246 C 
HETATM    8  C   UNL     1     -11.778   5.378 -35.330  1.00  0.00     0.033 C 
HETATM    9  C   UNL     1     -12.271   6.109 -34.072  1.00  0.00     0.236 C 
ENDROOT
BRANCH   4  10
HETATM   10  C   UNL     1      -8.846   6.598 -32.344  1.00  0.00     0.155 C 
BRANCH  10  11
HETATM   11  N   UNL     1      -7.471   6.638 -32.837  1.00  0.00    -0.365 N 
HETATM   12  H   UNL     1      -7.056   7.556 -32.973  1.00  0.00     0.161 HD
BRANCH  11  13
HETATM   13  C   UNL     1      -6.522   5.669 -32.653  1.00  0.00     0.172 C 
HETATM   14  S   UNL     1      -6.336   4.757 -31.266  1.00  0.00    -0.041 SA
BRANCH  13  15
HETATM   15  N   UNL     1      -5.645   5.452 -33.678  1.00  0.00    -0.333 N 
HETATM   16  H   UNL     1      -6.111   5.164 -34.534  1.00  0.00     0.168 HD
BRANCH  15  17
HETATM   17  C   UNL     1      -4.258   5.689 -33.803  1.00  0.00     0.035 A 
HETATM   18  C   UNL     1      -3.551   6.615 -33.037  1.00  0.00     0.047 A 
HETATM   19  C   UNL     1      -2.172   6.814 -33.226  1.00  0.00     0.041 A 
HETATM   20  C   UNL     1      -1.501   6.095 -34.219  1.00  0.00     0.018 A 
HETATM   21  C   UNL     1      -2.208   5.192 -35.014  1.00  0.00     0.003 A 
HETATM   22  C   UNL     1      -3.577   4.994 -34.807  1.00  0.00     0.029 A 
BRANCH  19  23
HETATM   23  C   UNL     1      -1.492   7.795 -32.338  1.00  0.00     0.293 C 
HETATM   24  O   UNL     1      -1.791   8.980 -32.309  1.00  0.00    -0.259 OA
BRANCH  23  25
HETATM   25  O   UNL     1      -0.529   7.192 -31.604  1.00  0.00    -0.323 OA
HETATM   26  C   UNL     1      -0.762   7.213 -30.194  1.00  0.00     0.213 C 
ENDBRANCH  23  25
ENDBRANCH  19  23
ENDBRANCH  15  17
ENDBRANCH  13  15
ENDBRANCH  11  13
ENDBRANCH  10  11
ENDBRANCH   4  10
BRANCH   1  27
HETATM   27  C   UNL     1     -10.305   2.282 -33.520  1.00  0.00     0.038 C 
HETATM   28  N   UNL     1     -10.769   0.988 -33.453  1.00  0.00    -0.277 N 
HETATM   29  C   UNL     1     -12.105   0.446 -33.510  1.00  0.00     0.179 C 
HETATM   30  N   UNL     1      -9.785   0.082 -33.330  1.00  0.00    -0.172 NA
HETATM   31  C   UNL     1      -8.660   0.780 -33.156  1.00  0.00     0.089 C 
HETATM   32  C   UNL     1      -8.945   2.160 -33.258  1.00  0.00     0.061 C 
BRANCH  31  33
HETATM   33  C   UNL     1      -7.364   0.132 -32.952  1.00  0.00    -0.005 A 
HETATM   34  C   UNL     1      -6.790   0.082 -31.676  1.00  0.00     0.016 A 
HETATM   35  C   UNL     1      -5.575  -0.578 -31.469  1.00  0.00     0.037 A 
HETATM   36  C   UNL     1      -4.912  -1.198 -32.528  1.00  0.00     0.068 A 
HETATM   37  C   UNL     1      -5.460  -1.127 -33.808  1.00  0.00     0.037 A 
HETATM   38  C   UNL     1      -6.679  -0.467 -34.018  1.00  0.00     0.016 A 
BRANCH  36  39
HETATM   39  O   UNL     1      -3.747  -1.826 -32.189  1.00  0.00    -0.356 OA
HETATM   40  C   UNL     1      -2.637  -0.993 -31.876  1.00  0.00     0.210 C 
ENDBRANCH  36  39
ENDBRANCH  31  33
ENDBRANCH   1  27
TORSDOF 10
ENDMDL
