MODEL 1
REMARK VINA RESULT:      -9.5      0.000      0.000
REMARK  8 active torsions:
REMARK  status: ('A' for Active; 'I' for Inactive)
REMARK    1  A    between atoms: C_2  and  O_3 
REMARK    2  A    between atoms: O_3  and  C_4 
REMARK    3  A    between atoms: C_4  and  C_5 
REMARK    4  A    between atoms: C_6  and  C_7 
REMARK    5  A    between atoms: C_7  and  O_8 
REMARK    6  A    between atoms: O_8  and  C_9 
REMARK    7  A    between atoms: C_9  and  C_10 
REMARK       I    between atoms: C_10  and  N_11 
REMARK       I    between atoms: N_11  and  C_12 
REMARK       I    between atoms: C_12  and  N_13 
REMARK    8  A    between atoms: N_13  and  C_14 
ROOT
HETATM    1  C   UNL     1      -4.262   2.312 -32.481  1.00  0.00     0.282 C 
ENDROOT
BRANCH   1   2
HETATM    2  O   UNL     1      -3.400   1.169 -32.434  1.00  0.00    -0.307 OA
BRANCH   2   3
HETATM    3  C   UNL     1      -3.889   0.151 -31.661  1.00  0.00     0.318 C 
HETATM    4  O   UNL     1      -3.777   0.104 -30.440  1.00  0.00    -0.257 OA
BRANCH   3   5
HETATM    5  C   UNL     1      -4.563  -0.826 -32.479  1.00  0.00     0.160 A 
HETATM    6  C   UNL     1      -5.825  -0.869 -33.063  1.00  0.00     0.018 A 
HETATM    7  C   UNL     1      -5.878  -2.097 -33.797  1.00  0.00     0.009 A 
HETATM    8  C   UNL     1      -4.650  -2.713 -33.605  1.00  0.00     0.087 A 
HETATM    9  C   UNL     1      -6.822  -2.741 -34.620  1.00  0.00     0.015 A 
HETATM   10  O   UNL     1      -3.856  -1.948 -32.818  1.00  0.00    -0.303 OA
HETATM   11  C   UNL     1      -4.289  -3.938 -34.159  1.00  0.00     0.038 A 
HETATM   12  C   UNL     1      -5.243  -4.564 -34.966  1.00  0.00     0.003 A 
HETATM   13  C   UNL     1      -6.489  -3.975 -35.197  1.00  0.00     0.001 A 
BRANCH   6  14
HETATM   14  C   UNL     1      -6.869   0.189 -33.015  1.00  0.00     0.210 C 
BRANCH  14  15
HETATM   15  O   UNL     1      -7.579   0.109 -31.778  1.00  0.00    -0.387 OA
BRANCH  15  16
HETATM   16  C   UNL     1      -8.842   0.763 -31.840  1.00  0.00     0.163 C 
HETATM   17  C   UNL     1      -9.775  -0.084 -32.685  1.00  0.00     0.033 C 
ENDBRANCH  15  16
ENDBRANCH  14  15
ENDBRANCH   6  14
ENDBRANCH   3   5
ENDBRANCH   2   3
ENDBRANCH   1   2
BRANCH   1  18
HETATM   18  C   UNL     1      -4.031   3.293 -31.323  1.00  0.00     0.249 C 
HETATM   19  N   UNL     1      -3.001   4.203 -31.382  1.00  0.00    -0.277 N 
HETATM   20  C   UNL     1      -2.122   4.437 -32.405  1.00  0.00     0.327 C 
HETATM   21  H   UNL     1      -2.796   4.610 -30.485  1.00  0.00     0.173 HD
HETATM   22  N   UNL     1      -0.921   4.999 -32.077  1.00  0.00    -0.308 N 
HETATM   23  O   UNL     1      -2.331   4.133 -33.577  1.00  0.00    -0.247 OA
HETATM   24  H   UNL     1      -0.202   4.727 -32.738  1.00  0.00     0.170 HD
HETATM   25  O   UNL     1      -4.728   3.252 -30.303  1.00  0.00    -0.271 OA
BRANCH  22  26
HETATM   26  C   UNL     1      -0.493   5.647 -30.907  1.00  0.00     0.042 A 
HETATM   27  C   UNL     1      -0.747   6.997 -30.608  1.00  0.00    -0.035 A 
HETATM   28  C   UNL     1      -1.443   7.954 -31.538  1.00  0.00     0.050 C 
HETATM   29  C   UNL     1      -0.248   7.526 -29.400  1.00  0.00     0.015 A 
HETATM   30  C   UNL     1       0.530   6.758 -28.527  1.00  0.00    -0.061 A 
HETATM   31  C   UNL     1       1.111   7.359 -27.281  1.00  0.00     0.048 C 
HETATM   32  C   UNL     1       0.829   5.440 -28.874  1.00  0.00     0.009 A 
HETATM   33  C   UNL     1       0.329   4.894 -30.057  1.00  0.00     0.030 A 
ENDBRANCH  22  26
ENDBRANCH   1  18
TORSDOF 8
ENDMDL
MODEL 2
REMARK VINA RESULT:      -9.1      1.234      1.501
REMARK  8 active torsions:
REMARK  status: ('A' for Active; 'I' for Inactive)
REMARK    1  A    between atoms: C_2  and  O_3 
REMARK    2  A    between atoms: O_3  and  C_4 
REMARK    3  A    between atoms: C_4  and  C_5 
REMARK    4  A    between atoms: C_6  and  C_7 
REMARK    5  A    between atoms: C_7  and  O_8 
REMARK    6  A    between atoms: O_8  and  C_9 
REMARK    7  A    between atoms: C_9  and  C_10 
REMARK       I    between atoms: C_10  and  N_11 
REMARK       I    between atoms: N_11  and  C_12 
REMARK       I    between atoms: C_12  and  N_13 
REMARK    8  A    between atoms: N_13  and  C_14 
ROOT
HETATM    1  C   UNL     1      -4.725   2.808 -32.114  1.00  0.00     0.282 C 
ENDROOT
BRANCH   1   2
HETATM    2  O   UNL     1      -6.103   2.420 -32.080  1.00  0.00    -0.307 OA
BRANCH   2   3
HETATM    3  C   UNL     1      -6.325   1.264 -31.382  1.00  0.00     0.318 C 
HETATM    4  O   UNL     1      -6.568   1.225 -30.180  1.00  0.00    -0.257 OA
BRANCH   3   5
HETATM    5  C   UNL     1      -6.251   0.122 -32.259  1.00  0.00     0.160 A 
HETATM    6  C   UNL     1      -7.155  -0.454 -33.146  1.00  0.00     0.018 A 
HETATM    7  C   UNL     1      -6.463  -1.547 -33.759  1.00  0.00     0.009 A 
HETATM    8  C   UNL     1      -5.193  -1.560 -33.201  1.00  0.00     0.087 A 
HETATM    9  C   UNL     1      -6.766  -2.511 -34.740  1.00  0.00     0.015 A 
HETATM   10  O   UNL     1      -5.061  -0.554 -32.304  1.00  0.00    -0.303 OA
HETATM   11  C   UNL     1      -4.196  -2.473 -33.533  1.00  0.00     0.038 A 
HETATM   12  C   UNL     1      -4.520  -3.426 -34.503  1.00  0.00     0.003 A 
HETATM   13  C   UNL     1      -5.782  -3.444 -35.101  1.00  0.00     0.001 A 
BRANCH   6  14
HETATM   14  C   UNL     1      -8.526   0.025 -33.464  1.00  0.00     0.210 C 
BRANCH  14  15
HETATM   15  O   UNL     1      -8.452   1.137 -34.358  1.00  0.00    -0.387 OA
BRANCH  15  16
HETATM   16  C   UNL     1      -9.482   2.090 -34.118  1.00  0.00     0.163 C 
HETATM   17  C   UNL     1      -9.752   2.132 -32.625  1.00  0.00     0.033 C 
ENDBRANCH  15  16
ENDBRANCH  14  15
ENDBRANCH   6  14
ENDBRANCH   3   5
ENDBRANCH   2   3
ENDBRANCH   1   2
BRANCH   1  18
HETATM   18  C   UNL     1      -4.391   3.945 -31.137  1.00  0.00     0.249 C 
HETATM   19  N   UNL     1      -3.204   4.631 -31.254  1.00  0.00    -0.277 N 
HETATM   20  C   UNL     1      -2.228   4.500 -32.204  1.00  0.00     0.327 C 
HETATM   21  H   UNL     1      -2.988   5.167 -30.430  1.00  0.00     0.173 HD
HETATM   22  N   UNL     1      -0.967   4.897 -31.861  1.00  0.00    -0.308 N 
HETATM   23  O   UNL     1      -2.409   4.008 -33.316  1.00  0.00    -0.247 OA
HETATM   24  H   UNL     1      -0.270   4.378 -32.381  1.00  0.00     0.170 HD
HETATM   25  O   UNL     1      -5.152   4.231 -30.206  1.00  0.00    -0.271 OA
BRANCH  22  26
HETATM   26  C   UNL     1      -0.506   5.681 -30.791  1.00  0.00     0.042 A 
HETATM   27  C   UNL     1      -0.666   7.075 -30.699  1.00  0.00    -0.035 A 
HETATM   28  C   UNL     1      -1.285   7.928 -31.773  1.00  0.00     0.050 C 
HETATM   29  C   UNL     1      -0.142   7.743 -29.574  1.00  0.00     0.015 A 
HETATM   30  C   UNL     1       0.571   7.061 -28.581  1.00  0.00    -0.061 A 
HETATM   31  C   UNL     1       1.182   7.800 -27.427  1.00  0.00     0.048 C 
HETATM   32  C   UNL     1       0.780   5.689 -28.724  1.00  0.00     0.009 A 
HETATM   33  C   UNL     1       0.254   5.009 -29.823  1.00  0.00     0.030 A 
ENDBRANCH  22  26
ENDBRANCH   1  18
TORSDOF 8
ENDMDL
MODEL 3
REMARK VINA RESULT:      -8.7      2.578      8.972
REMARK  8 active torsions:
REMARK  status: ('A' for Active; 'I' for Inactive)
REMARK    1  A    between atoms: C_2  and  O_3 
REMARK    2  A    between atoms: O_3  and  C_4 
REMARK    3  A    between atoms: C_4  and  C_5 
REMARK    4  A    between atoms: C_6  and  C_7 
REMARK    5  A    between atoms: C_7  and  O_8 
REMARK    6  A    between atoms: O_8  and  C_9 
REMARK    7  A    between atoms: C_9  and  C_10 
REMARK       I    between atoms: C_10  and  N_11 
REMARK       I    between atoms: N_11  and  C_12 
REMARK       I    between atoms: C_12  and  N_13 
REMARK    8  A    between atoms: N_13  and  C_14 
ROOT
HETATM    1  C   UNL     1      -6.873   5.538 -32.826  1.00  0.00     0.282 C 
ENDROOT
BRANCH   1   2
HETATM    2  O   UNL     1      -5.771   6.214 -32.210  1.00  0.00    -0.307 OA
BRANCH   2   3
HETATM    3  C   UNL     1      -5.351   5.621 -31.050  1.00  0.00     0.318 C 
HETATM    4  O   UNL     1      -6.106   5.102 -30.233  1.00  0.00    -0.257 OA
BRANCH   3   5
HETATM    5  C   UNL     1      -3.915   5.680 -30.943  1.00  0.00     0.160 A 
HETATM    6  C   UNL     1      -2.890   4.904 -31.476  1.00  0.00     0.018 A 
HETATM    7  C   UNL     1      -1.669   5.506 -31.035  1.00  0.00     0.009 A 
HETATM    8  C   UNL     1      -2.036   6.601 -30.266  1.00  0.00     0.087 A 
HETATM    9  C   UNL     1      -0.295   5.259 -31.222  1.00  0.00     0.015 A 
HETATM   10  O   UNL     1      -3.385   6.711 -30.214  1.00  0.00    -0.303 OA
HETATM   11  C   UNL     1      -1.137   7.467 -29.649  1.00  0.00     0.038 A 
HETATM   12  C   UNL     1       0.221   7.199 -29.842  1.00  0.00     0.003 A 
HETATM   13  C   UNL     1       0.638   6.115 -30.618  1.00  0.00     0.001 A 
BRANCH   6  14
HETATM   14  C   UNL     1      -3.032   3.743 -32.395  1.00  0.00     0.210 C 
BRANCH  14  15
HETATM   15  O   UNL     1      -2.130   3.886 -33.493  1.00  0.00    -0.387 OA
BRANCH  15  16
HETATM   16  C   UNL     1      -2.470   4.988 -34.328  1.00  0.00     0.163 C 
HETATM   17  C   UNL     1      -1.186   5.587 -34.871  1.00  0.00     0.033 C 
ENDBRANCH  15  16
ENDBRANCH  14  15
ENDBRANCH   6  14
ENDBRANCH   3   5
ENDBRANCH   2   3
ENDBRANCH   1   2
BRANCH   1  18
HETATM   18  C   UNL     1      -6.439   4.394 -33.755  1.00  0.00     0.249 C 
HETATM   19  N   UNL     1      -6.867   3.109 -33.516  1.00  0.00    -0.277 N 
HETATM   20  C   UNL     1      -7.729   2.658 -32.554  1.00  0.00     0.327 C 
HETATM   21  H   UNL     1      -6.331   2.425 -34.024  1.00  0.00     0.173 HD
HETATM   22  N   UNL     1      -7.623   1.345 -32.190  1.00  0.00    -0.308 N 
HETATM   23  O   UNL     1      -8.548   3.366 -31.974  1.00  0.00    -0.247 OA
HETATM   24  H   UNL     1      -7.926   1.210 -31.232  1.00  0.00     0.170 HD
HETATM   25  O   UNL     1      -5.665   4.596 -34.697  1.00  0.00    -0.271 OA
BRANCH  22  26
HETATM   26  C   UNL     1      -6.970   0.265 -32.807  1.00  0.00     0.042 A 
HETATM   27  C   UNL     1      -5.677  -0.175 -32.478  1.00  0.00    -0.035 A 
HETATM   28  C   UNL     1      -4.782   0.502 -31.474  1.00  0.00     0.050 C 
HETATM   29  C   UNL     1      -5.134  -1.266 -33.186  1.00  0.00     0.015 A 
HETATM   30  C   UNL     1      -5.829  -1.882 -34.233  1.00  0.00    -0.061 A 
HETATM   31  C   UNL     1      -5.206  -2.996 -35.021  1.00  0.00     0.048 C 
HETATM   32  C   UNL     1      -7.084  -1.387 -34.591  1.00  0.00     0.009 A 
HETATM   33  C   UNL     1      -7.643  -0.318 -33.889  1.00  0.00     0.030 A 
ENDBRANCH  22  26
ENDBRANCH   1  18
TORSDOF 8
ENDMDL
MODEL 4
REMARK VINA RESULT:      -8.6      2.469      4.228
REMARK  8 active torsions:
REMARK  status: ('A' for Active; 'I' for Inactive)
REMARK    1  A    between atoms: C_2  and  O_3 
REMARK    2  A    between atoms: O_3  and  C_4 
REMARK    3  A    between atoms: C_4  and  C_5 
REMARK    4  A    between atoms: C_6  and  C_7 
REMARK    5  A    between atoms: C_7  and  O_8 
REMARK    6  A    between atoms: O_8  and  C_9 
REMARK    7  A    between atoms: C_9  and  C_10 
REMARK       I    between atoms: C_10  and  N_11 
REMARK       I    between atoms: N_11  and  C_12 
REMARK       I    between atoms: C_12  and  N_13 
REMARK    8  A    between atoms: N_13  and  C_14 
ROOT
HETATM    1  C   UNL     1      -8.604   1.848 -32.291  1.00  0.00     0.282 C 
ENDROOT
BRANCH   1   2
HETATM    2  O   UNL     1      -8.402   0.475 -32.646  1.00  0.00    -0.307 OA
BRANCH   2   3
HETATM    3  C   UNL     1      -7.996   0.305 -33.942  1.00  0.00     0.318 C 
HETATM    4  O   UNL     1      -8.390   0.991 -34.880  1.00  0.00    -0.257 OA
BRANCH   3   5
HETATM    5  C   UNL     1      -7.037  -0.768 -34.034  1.00  0.00     0.160 A 
HETATM    6  C   UNL     1      -5.692  -0.871 -33.694  1.00  0.00     0.018 A 
HETATM    7  C   UNL     1      -5.313  -2.220 -33.986  1.00  0.00     0.009 A 
HETATM    8  C   UNL     1      -6.450  -2.839 -34.484  1.00  0.00     0.087 A 
HETATM    9  C   UNL     1      -4.140  -2.990 -33.862  1.00  0.00     0.015 A 
HETATM   10  O   UNL     1      -7.489  -1.970 -34.508  1.00  0.00    -0.303 OA
HETATM   11  C   UNL     1      -6.510  -4.170 -34.887  1.00  0.00     0.038 A 
HETATM   12  C   UNL     1      -5.333  -4.914 -34.763  1.00  0.00     0.003 A 
HETATM   13  C   UNL     1      -4.167  -4.336 -34.255  1.00  0.00     0.001 A 
BRANCH   6  14
HETATM   14  C   UNL     1      -4.845   0.177 -33.064  1.00  0.00     0.210 C 
BRANCH  14  15
HETATM   15  O   UNL     1      -4.657  -0.122 -31.680  1.00  0.00    -0.387 OA
BRANCH  15  16
HETATM   16  C   UNL     1      -3.428   0.393 -31.180  1.00  0.00     0.163 C 
HETATM   17  C   UNL     1      -3.423   1.896 -31.389  1.00  0.00     0.033 C 
ENDBRANCH  15  16
ENDBRANCH  14  15
ENDBRANCH   6  14
ENDBRANCH   3   5
ENDBRANCH   2   3
ENDBRANCH   1   2
BRANCH   1  18
HETATM   18  C   UNL     1      -7.415   2.460 -31.535  1.00  0.00     0.249 C 
HETATM   19  N   UNL     1      -6.740   3.536 -32.063  1.00  0.00    -0.277 N 
HETATM   20  C   UNL     1      -7.011   4.242 -33.204  1.00  0.00     0.327 C 
HETATM   21  H   UNL     1      -5.850   3.686 -31.619  1.00  0.00     0.173 HD
HETATM   22  N   UNL     1      -5.970   4.912 -33.783  1.00  0.00    -0.308 N 
HETATM   23  O   UNL     1      -8.109   4.270 -33.754  1.00  0.00    -0.247 OA
HETATM   24  H   UNL     1      -6.112   5.005 -34.783  1.00  0.00     0.170 HD
HETATM   25  O   UNL     1      -7.015   1.972 -30.473  1.00  0.00    -0.271 OA
BRANCH  22  26
HETATM   26  C   UNL     1      -4.700   5.250 -33.289  1.00  0.00     0.042 A 
HETATM   27  C   UNL     1      -4.462   6.240 -32.320  1.00  0.00    -0.035 A 
HETATM   28  C   UNL     1      -5.528   7.129 -31.738  1.00  0.00     0.050 C 
HETATM   29  C   UNL     1      -3.133   6.488 -31.921  1.00  0.00     0.015 A 
HETATM   30  C   UNL     1      -2.053   5.811 -32.499  1.00  0.00    -0.061 A 
HETATM   31  C   UNL     1      -0.641   6.139 -32.111  1.00  0.00     0.048 C 
HETATM   32  C   UNL     1      -2.304   4.881 -33.509  1.00  0.00     0.009 A 
HETATM   33  C   UNL     1      -3.615   4.611 -33.904  1.00  0.00     0.030 A 
ENDBRANCH  22  26
ENDBRANCH   1  18
TORSDOF 8
ENDMDL
MODEL 5
REMARK VINA RESULT:      -8.5      4.306      8.258
REMARK  8 active torsions:
REMARK  status: ('A' for Active; 'I' for Inactive)
REMARK    1  A    between atoms: C_2  and  O_3 
REMARK    2  A    between atoms: O_3  and  C_4 
REMARK    3  A    between atoms: C_4  and  C_5 
REMARK    4  A    between atoms: C_6  and  C_7 
REMARK    5  A    between atoms: C_7  and  O_8 
REMARK    6  A    between atoms: O_8  and  C_9 
REMARK    7  A    between atoms: C_9  and  C_10 
REMARK       I    between atoms: C_10  and  N_11 
REMARK       I    between atoms: N_11  and  C_12 
REMARK       I    between atoms: C_12  and  N_13 
REMARK    8  A    between atoms: N_13  and  C_14 
ROOT
HETATM    1  C   UNL     1      -7.607   0.717 -31.848  1.00  0.00     0.282 C 
ENDROOT
BRANCH   1   2
HETATM    2  O   UNL     1      -6.477   1.218 -32.572  1.00  0.00    -0.307 OA
BRANCH   2   3
HETATM    3  C   UNL     1      -6.471   0.849 -33.890  1.00  0.00     0.318 C 
HETATM    4  O   UNL     1      -6.818   1.584 -34.809  1.00  0.00    -0.257 OA
BRANCH   3   5
HETATM    5  C   UNL     1      -5.984  -0.500 -34.035  1.00  0.00     0.160 A 
HETATM    6  C   UNL     1      -4.758  -1.101 -33.768  1.00  0.00     0.018 A 
HETATM    7  C   UNL     1      -4.922  -2.488 -34.083  1.00  0.00     0.009 A 
HETATM    8  C   UNL     1      -6.230  -2.631 -34.520  1.00  0.00     0.087 A 
HETATM    9  C   UNL     1      -4.113  -3.640 -34.023  1.00  0.00     0.015 A 
HETATM   10  O   UNL     1      -6.873  -1.439 -34.486  1.00  0.00    -0.303 OA
HETATM   11  C   UNL     1      -6.800  -3.837 -34.921  1.00  0.00     0.038 A 
HETATM   12  C   UNL     1      -5.978  -4.966 -34.861  1.00  0.00     0.003 A 
HETATM   13  C   UNL     1      -4.657  -4.872 -34.416  1.00  0.00     0.001 A 
BRANCH   6  14
HETATM   14  C   UNL     1      -3.553  -0.455 -33.184  1.00  0.00     0.210 C 
BRANCH  14  15
HETATM   15  O   UNL     1      -3.346  -0.934 -31.854  1.00  0.00    -0.387 OA
BRANCH  15  16
HETATM   16  C   UNL     1      -3.764   0.009 -30.872  1.00  0.00     0.163 C 
HETATM   17  C   UNL     1      -3.299   1.386 -31.307  1.00  0.00     0.033 C 
ENDBRANCH  15  16
ENDBRANCH  14  15
ENDBRANCH   6  14
ENDBRANCH   3   5
ENDBRANCH   2   3
ENDBRANCH   1   2
BRANCH   1  18
HETATM   18  C   UNL     1      -8.604   1.815 -31.447  1.00  0.00     0.249 C 
HETATM   19  N   UNL     1      -9.833   1.891 -32.062  1.00  0.00    -0.277 N 
HETATM   20  C   UNL     1     -10.378   1.051 -32.995  1.00  0.00     0.327 C 
HETATM   21  H   UNL     1     -10.287   2.774 -31.903  1.00  0.00     0.173 HD
HETATM   22  N   UNL     1     -11.347   1.569 -33.807  1.00  0.00    -0.308 N 
HETATM   23  O   UNL     1     -10.017  -0.110 -33.173  1.00  0.00    -0.247 OA
HETATM   24  H   UNL     1     -11.363   1.092 -34.701  1.00  0.00     0.170 HD
HETATM   25  O   UNL     1      -8.306   2.672 -30.608  1.00  0.00    -0.271 OA
BRANCH  22  26
HETATM   26  C   UNL     1     -12.108   2.744 -33.703  1.00  0.00     0.042 A 
HETATM   27  C   UNL     1     -11.766   3.969 -34.300  1.00  0.00    -0.035 A 
HETATM   28  C   UNL     1     -10.493   4.210 -35.068  1.00  0.00     0.050 C 
HETATM   29  C   UNL     1     -12.615   5.078 -34.104  1.00  0.00     0.015 A 
HETATM   30  C   UNL     1     -13.753   4.997 -33.295  1.00  0.00    -0.061 A 
HETATM   31  C   UNL     1     -14.606   6.205 -33.042  1.00  0.00     0.048 C 
HETATM   32  C   UNL     1     -14.040   3.791 -32.654  1.00  0.00     0.009 A 
HETATM   33  C   UNL     1     -13.219   2.679 -32.851  1.00  0.00     0.030 A 
ENDBRANCH  22  26
ENDBRANCH   1  18
TORSDOF 8
ENDMDL
MODEL 6
REMARK VINA RESULT:      -8.5      2.508      9.217
REMARK  8 active torsions:
REMARK  status: ('A' for Active; 'I' for Inactive)
REMARK    1  A    between atoms: C_2  and  O_3 
REMARK    2  A    between atoms: O_3  and  C_4 
REMARK    3  A    between atoms: C_4  and  C_5 
REMARK    4  A    between atoms: C_6  and  C_7 
REMARK    5  A    between atoms: C_7  and  O_8 
REMARK    6  A    between atoms: O_8  and  C_9 
REMARK    7  A    between atoms: C_9  and  C_10 
REMARK       I    between atoms: C_10  and  N_11 
REMARK       I    between atoms: N_11  and  C_12 
REMARK       I    between atoms: C_12  and  N_13 
REMARK    8  A    between atoms: N_13  and  C_14 
ROOT
HETATM    1  C   UNL     1      -6.077   5.755 -33.234  1.00  0.00     0.282 C 
ENDROOT
BRANCH   1   2
HETATM    2  O   UNL     1      -4.965   6.478 -32.692  1.00  0.00    -0.307 OA
BRANCH   2   3
HETATM    3  C   UNL     1      -4.969   6.535 -31.325  1.00  0.00     0.318 C 
HETATM    4  O   UNL     1      -5.985   6.473 -30.639  1.00  0.00    -0.257 OA
BRANCH   3   5
HETATM    5  C   UNL     1      -3.624   6.657 -30.820  1.00  0.00     0.160 A 
HETATM    6  C   UNL     1      -2.436   5.994 -31.112  1.00  0.00     0.018 A 
HETATM    7  C   UNL     1      -1.431   6.610 -30.301  1.00  0.00     0.009 A 
HETATM    8  C   UNL     1      -2.077   7.598 -29.573  1.00  0.00     0.087 A 
HETATM    9  C   UNL     1      -0.042   6.453 -30.120  1.00  0.00     0.015 A 
HETATM   10  O   UNL     1      -3.394   7.633 -29.888  1.00  0.00    -0.303 OA
HETATM   11  C   UNL     1      -1.449   8.441 -28.660  1.00  0.00     0.038 A 
HETATM   12  C   UNL     1      -0.073   8.264 -28.491  1.00  0.00     0.003 A 
HETATM   13  C   UNL     1       0.622   7.289 -29.211  1.00  0.00     0.001 A 
BRANCH   6  14
HETATM   14  C   UNL     1      -2.233   4.929 -32.130  1.00  0.00     0.210 C 
BRANCH  14  15
HETATM   15  O   UNL     1      -2.120   3.660 -31.483  1.00  0.00    -0.387 OA
BRANCH  15  16
HETATM   16  C   UNL     1      -3.174   2.775 -31.847  1.00  0.00     0.163 C 
HETATM   17  C   UNL     1      -4.275   2.895 -30.811  1.00  0.00     0.033 C 
ENDBRANCH  15  16
ENDBRANCH  14  15
ENDBRANCH   6  14
ENDBRANCH   3   5
ENDBRANCH   2   3
ENDBRANCH   1   2
BRANCH   1  18
HETATM   18  C   UNL     1      -5.657   4.570 -34.116  1.00  0.00     0.249 C 
HETATM   19  N   UNL     1      -6.196   3.323 -33.901  1.00  0.00    -0.277 N 
HETATM   20  C   UNL     1      -7.161   2.949 -33.005  1.00  0.00     0.327 C 
HETATM   21  H   UNL     1      -5.674   2.595 -34.359  1.00  0.00     0.173 HD
HETATM   22  N   UNL     1      -7.181   1.637 -32.623  1.00  0.00    -0.308 N 
HETATM   23  O   UNL     1      -7.968   3.723 -32.497  1.00  0.00    -0.247 OA
HETATM   24  H   UNL     1      -7.566   1.538 -31.691  1.00  0.00     0.170 HD
HETATM   25  O   UNL     1      -4.799   4.702 -34.996  1.00  0.00    -0.271 OA
BRANCH  22  26
HETATM   26  C   UNL     1      -6.563   0.505 -33.177  1.00  0.00     0.042 A 
HETATM   27  C   UNL     1      -7.006  -0.156 -34.337  1.00  0.00    -0.035 A 
HETATM   28  C   UNL     1      -8.251   0.214 -35.098  1.00  0.00     0.050 C 
HETATM   29  C   UNL     1      -6.299  -1.292 -34.779  1.00  0.00     0.015 A 
HETATM   30  C   UNL     1      -5.207  -1.801 -34.067  1.00  0.00    -0.061 A 
HETATM   31  C   UNL     1      -4.511  -3.052 -34.515  1.00  0.00     0.048 C 
HETATM   32  C   UNL     1      -4.824  -1.173 -32.881  1.00  0.00     0.009 A 
HETATM   33  C   UNL     1      -5.502  -0.036 -32.438  1.00  0.00     0.030 A 
ENDBRANCH  22  26
ENDBRANCH   1  18
TORSDOF 8
ENDMDL
MODEL 7
REMARK VINA RESULT:      -8.3      2.566     10.205
REMARK  8 active torsions:
REMARK  status: ('A' for Active; 'I' for Inactive)
REMARK    1  A    between atoms: C_2  and  O_3 
REMARK    2  A    between atoms: O_3  and  C_4 
REMARK    3  A    between atoms: C_4  and  C_5 
REMARK    4  A    between atoms: C_6  and  C_7 
REMARK    5  A    between atoms: C_7  and  O_8 
REMARK    6  A    between atoms: O_8  and  C_9 
REMARK    7  A    between atoms: C_9  and  C_10 
REMARK       I    between atoms: C_10  and  N_11 
REMARK       I    between atoms: N_11  and  C_12 
REMARK       I    between atoms: C_12  and  N_13 
REMARK    8  A    between atoms: N_13  and  C_14 
ROOT
HETATM    1  C   UNL     1      -2.945   5.322 -33.168  1.00  0.00     0.282 C 
ENDROOT
BRANCH   1   2
HETATM    2  O   UNL     1      -3.298   6.692 -32.940  1.00  0.00    -0.307 OA
BRANCH   2   3
HETATM    3  C   UNL     1      -2.218   7.531 -32.899  1.00  0.00     0.318 C 
HETATM    4  O   UNL     1      -1.448   7.704 -33.839  1.00  0.00    -0.257 OA
BRANCH   3   5
HETATM    5  C   UNL     1      -2.135   8.186 -31.617  1.00  0.00     0.160 A 
HETATM    6  C   UNL     1      -1.807   7.737 -30.342  1.00  0.00     0.018 A 
HETATM    7  C   UNL     1      -1.861   8.889 -29.493  1.00  0.00     0.009 A 
HETATM    8  C   UNL     1      -2.219   9.952 -30.310  1.00  0.00     0.087 A 
HETATM    9  C   UNL     1      -1.623   9.152 -28.130  1.00  0.00     0.015 A 
HETATM   10  O   UNL     1      -2.378   9.533 -31.588  1.00  0.00    -0.303 OA
HETATM   11  C   UNL     1      -2.377  11.264 -29.871  1.00  0.00     0.038 A 
HETATM   12  C   UNL     1      -2.144  11.501 -28.514  1.00  0.00     0.003 A 
HETATM   13  C   UNL     1      -1.769  10.464 -27.656  1.00  0.00     0.001 A 
BRANCH   6  14
HETATM   14  C   UNL     1      -1.391   6.363 -29.955  1.00  0.00     0.210 C 
BRANCH  14  15
HETATM   15  O   UNL     1      -0.282   6.430 -29.057  1.00  0.00    -0.387 OA
BRANCH  15  16
HETATM   16  C   UNL     1       0.669   5.398 -29.299  1.00  0.00     0.163 C 
HETATM   17  C   UNL     1       0.718   5.138 -30.792  1.00  0.00     0.033 C 
ENDBRANCH  15  16
ENDBRANCH  14  15
ENDBRANCH   6  14
ENDBRANCH   3   5
ENDBRANCH   2   3
ENDBRANCH   1   2
BRANCH   1  18
HETATM   18  C   UNL     1      -4.149   4.437 -33.522  1.00  0.00     0.249 C 
HETATM   19  N   UNL     1      -4.278   3.188 -32.959  1.00  0.00    -0.277 N 
HETATM   20  C   UNL     1      -3.487   2.586 -32.019  1.00  0.00     0.327 C 
HETATM   21  H   UNL     1      -4.949   2.616 -33.444  1.00  0.00     0.173 HD
HETATM   22  N   UNL     1      -3.498   1.220 -31.978  1.00  0.00    -0.308 N 
HETATM   23  O   UNL     1      -2.742   3.192 -31.252  1.00  0.00    -0.247 OA
HETATM   24  H   UNL     1      -2.618   0.862 -31.626  1.00  0.00     0.170 HD
HETATM   25  O   UNL     1      -4.990   4.804 -34.350  1.00  0.00    -0.271 OA
BRANCH  22  26
HETATM   26  C   UNL     1      -4.382   0.287 -32.544  1.00  0.00     0.042 A 
HETATM   27  C   UNL     1      -5.729   0.140 -32.172  1.00  0.00    -0.035 A 
HETATM   28  C   UNL     1      -6.388   0.908 -31.057  1.00  0.00     0.050 C 
HETATM   29  C   UNL     1      -6.503  -0.848 -32.813  1.00  0.00     0.015 A 
HETATM   30  C   UNL     1      -5.951  -1.709 -33.769  1.00  0.00    -0.061 A 
HETATM   31  C   UNL     1      -6.774  -2.800 -34.389  1.00  0.00     0.048 C 
HETATM   32  C   UNL     1      -4.595  -1.593 -34.076  1.00  0.00     0.009 A 
HETATM   33  C   UNL     1      -3.818  -0.609 -33.462  1.00  0.00     0.030 A 
ENDBRANCH  22  26
ENDBRANCH   1  18
TORSDOF 8
ENDMDL
MODEL 8
REMARK VINA RESULT:      -8.3      2.070      3.023
REMARK  8 active torsions:
REMARK  status: ('A' for Active; 'I' for Inactive)
REMARK    1  A    between atoms: C_2  and  O_3 
REMARK    2  A    between atoms: O_3  and  C_4 
REMARK    3  A    between atoms: C_4  and  C_5 
REMARK    4  A    between atoms: C_6  and  C_7 
REMARK    5  A    between atoms: C_7  and  O_8 
REMARK    6  A    between atoms: O_8  and  C_9 
REMARK    7  A    between atoms: C_9  and  C_10 
REMARK       I    between atoms: C_10  and  N_11 
REMARK       I    between atoms: N_11  and  C_12 
REMARK       I    between atoms: C_12  and  N_13 
REMARK    8  A    between atoms: N_13  and  C_14 
ROOT
HETATM    1  C   UNL     1      -2.643   4.015 -32.997  1.00  0.00     0.282 C 
ENDROOT
BRANCH   1   2
HETATM    2  O   UNL     1      -3.841   3.259 -32.787  1.00  0.00    -0.307 OA
BRANCH   2   3
HETATM    3  C   UNL     1      -3.637   2.106 -32.078  1.00  0.00     0.318 C 
HETATM    4  O   UNL     1      -2.886   2.019 -31.112  1.00  0.00    -0.257 OA
BRANCH   3   5
HETATM    5  C   UNL     1      -4.439   1.035 -32.615  1.00  0.00     0.160 A 
HETATM    6  C   UNL     1      -5.806   0.886 -32.827  1.00  0.00     0.018 A 
HETATM    7  C   UNL     1      -5.973  -0.399 -33.436  1.00  0.00     0.009 A 
HETATM    8  C   UNL     1      -4.701  -0.939 -33.548  1.00  0.00     0.087 A 
HETATM    9  C   UNL     1      -7.059  -1.152 -33.925  1.00  0.00     0.015 A 
HETATM   10  O   UNL     1      -3.776  -0.077 -33.061  1.00  0.00    -0.303 OA
HETATM   11  C   UNL     1      -4.420  -2.187 -34.099  1.00  0.00     0.038 A 
HETATM   12  C   UNL     1      -5.512  -2.921 -34.571  1.00  0.00     0.003 A 
HETATM   13  C   UNL     1      -6.811  -2.412 -34.490  1.00  0.00     0.001 A 
BRANCH   6  14
HETATM   14  C   UNL     1      -6.867   1.894 -32.564  1.00  0.00     0.210 C 
BRANCH  14  15
HETATM   15  O   UNL     1      -6.943   2.160 -31.163  1.00  0.00    -0.387 OA
BRANCH  15  16
HETATM   16  C   UNL     1      -6.906   3.554 -30.878  1.00  0.00     0.163 C 
HETATM   17  C   UNL     1      -5.883   3.788 -29.782  1.00  0.00     0.033 C 
ENDBRANCH  15  16
ENDBRANCH  14  15
ENDBRANCH   6  14
ENDBRANCH   3   5
ENDBRANCH   2   3
ENDBRANCH   1   2
BRANCH   1  18
HETATM   18  C   UNL     1      -2.794   5.501 -32.639  1.00  0.00     0.249 C 
HETATM   19  N   UNL     1      -2.101   6.030 -31.574  1.00  0.00    -0.277 N 
HETATM   20  C   UNL     1      -1.184   5.421 -30.761  1.00  0.00     0.327 C 
HETATM   21  H   UNL     1      -2.462   6.924 -31.287  1.00  0.00     0.173 HD
HETATM   22  N   UNL     1      -1.009   5.951 -29.514  1.00  0.00    -0.308 N 
HETATM   23  O   UNL     1      -0.554   4.411 -31.066  1.00  0.00    -0.247 OA
HETATM   24  H   UNL     1      -0.707   5.241 -28.858  1.00  0.00     0.170 HD
HETATM   25  O   UNL     1      -3.571   6.232 -33.263  1.00  0.00    -0.271 OA
BRANCH  22  26
HETATM   26  C   UNL     1      -1.396   7.189 -28.975  1.00  0.00     0.042 A 
HETATM   27  C   UNL     1      -0.501   8.181 -28.538  1.00  0.00    -0.035 A 
HETATM   28  C   UNL     1       0.996   8.019 -28.513  1.00  0.00     0.050 C 
HETATM   29  C   UNL     1      -1.024   9.376 -28.003  1.00  0.00     0.015 A 
HETATM   30  C   UNL     1      -2.401   9.572 -27.854  1.00  0.00    -0.061 A 
HETATM   31  C   UNL     1      -2.937  10.822 -27.219  1.00  0.00     0.048 C 
HETATM   32  C   UNL     1      -3.272   8.549 -28.230  1.00  0.00     0.009 A 
HETATM   33  C   UNL     1      -2.772   7.367 -28.777  1.00  0.00     0.030 A 
ENDBRANCH  22  26
ENDBRANCH   1  18
TORSDOF 8
ENDMDL
MODEL 9
REMARK VINA RESULT:      -8.2      2.391      9.398
REMARK  8 active torsions:
REMARK  status: ('A' for Active; 'I' for Inactive)
REMARK    1  A    between atoms: C_2  and  O_3 
REMARK    2  A    between atoms: O_3  and  C_4 
REMARK    3  A    between atoms: C_4  and  C_5 
REMARK    4  A    between atoms: C_6  and  C_7 
REMARK    5  A    between atoms: C_7  and  O_8 
REMARK    6  A    between atoms: O_8  and  C_9 
REMARK    7  A    between atoms: C_9  and  C_10 
REMARK       I    between atoms: C_10  and  N_11 
REMARK       I    between atoms: N_11  and  C_12 
REMARK       I    between atoms: C_12  and  N_13 
REMARK    8  A    between atoms: N_13  and  C_14 
ROOT
HETATM    1  C   UNL     1      -6.410   3.602 -30.368  1.00  0.00     0.282 C 
ENDROOT
BRANCH   1   2
HETATM    2  O   UNL     1      -5.340   4.372 -29.808  1.00  0.00    -0.307 OA
BRANCH   2   3
HETATM    3  C   UNL     1      -5.100   5.538 -30.484  1.00  0.00     0.318 C 
HETATM    4  O   UNL     1      -5.957   6.161 -31.102  1.00  0.00    -0.257 OA
BRANCH   3   5
HETATM    5  C   UNL     1      -3.718   5.926 -30.346  1.00  0.00     0.160 A 
HETATM    6  C   UNL     1      -2.581   5.677 -31.107  1.00  0.00     0.018 A 
HETATM    7  C   UNL     1      -1.514   6.384 -30.466  1.00  0.00     0.009 A 
HETATM    8  C   UNL     1      -2.076   7.008 -29.362  1.00  0.00     0.087 A 
HETATM    9  C   UNL     1      -0.141   6.581 -30.712  1.00  0.00     0.015 A 
HETATM   10  O   UNL     1      -3.402   6.740 -29.291  1.00  0.00    -0.303 OA
HETATM   11  C   UNL     1      -1.371   7.808 -28.466  1.00  0.00     0.038 A 
HETATM   12  C   UNL     1      -0.009   7.985 -28.725  1.00  0.00     0.003 A 
HETATM   13  C   UNL     1       0.597   7.385 -29.831  1.00  0.00     0.001 A 
BRANCH   6  14
HETATM   14  C   UNL     1      -2.506   4.913 -32.381  1.00  0.00     0.210 C 
BRANCH  14  15
HETATM   15  O   UNL     1      -3.115   5.666 -33.431  1.00  0.00    -0.387 OA
BRANCH  15  16
HETATM   16  C   UNL     1      -2.164   6.424 -34.171  1.00  0.00     0.163 C 
HETATM   17  C   UNL     1      -1.212   5.459 -34.851  1.00  0.00     0.033 C 
ENDBRANCH  15  16
ENDBRANCH  14  15
ENDBRANCH   6  14
ENDBRANCH   3   5
ENDBRANCH   2   3
ENDBRANCH   1   2
BRANCH   1  18
HETATM   18  C   UNL     1      -6.103   2.098 -30.437  1.00  0.00     0.249 C 
HETATM   19  N   UNL     1      -5.811   1.508 -31.644  1.00  0.00    -0.277 N 
HETATM   20  C   UNL     1      -5.677   2.092 -32.874  1.00  0.00     0.327 C 
HETATM   21  H   UNL     1      -5.874   0.504 -31.606  1.00  0.00     0.173 HD
HETATM   22  N   UNL     1      -5.880   1.297 -33.967  1.00  0.00    -0.308 N 
HETATM   23  O   UNL     1      -5.435   3.284 -33.050  1.00  0.00    -0.247 OA
HETATM   24  H   UNL     1      -6.211   1.842 -34.755  1.00  0.00     0.170 HD
HETATM   25  O   UNL     1      -6.160   1.388 -29.427  1.00  0.00    -0.271 OA
BRANCH  22  26
HETATM   26  C   UNL     1      -5.940  -0.100 -34.093  1.00  0.00     0.042 A 
HETATM   27  C   UNL     1      -4.878  -0.972 -33.799  1.00  0.00    -0.035 A 
HETATM   28  C   UNL     1      -3.503  -0.521 -33.385  1.00  0.00     0.050 C 
HETATM   29  C   UNL     1      -5.069  -2.357 -33.983  1.00  0.00     0.015 A 
HETATM   30  C   UNL     1      -6.266  -2.872 -34.494  1.00  0.00    -0.061 A 
HETATM   31  C   UNL     1      -6.425  -4.342 -34.748  1.00  0.00     0.048 C 
HETATM   32  C   UNL     1      -7.285  -1.985 -34.845  1.00  0.00     0.009 A 
HETATM   33  C   UNL     1      -7.119  -0.613 -34.654  1.00  0.00     0.030 A 
ENDBRANCH  22  26
ENDBRANCH   1  18
TORSDOF 8
ENDMDL
MODEL 10
REMARK VINA RESULT:      -8.2      2.021      4.433
REMARK  8 active torsions:
REMARK  status: ('A' for Active; 'I' for Inactive)
REMARK    1  A    between atoms: C_2  and  O_3 
REMARK    2  A    between atoms: O_3  and  C_4 
REMARK    3  A    between atoms: C_4  and  C_5 
REMARK    4  A    between atoms: C_6  and  C_7 
REMARK    5  A    between atoms: C_7  and  O_8 
REMARK    6  A    between atoms: O_8  and  C_9 
REMARK    7  A    between atoms: C_9  and  C_10 
REMARK       I    between atoms: C_10  and  N_11 
REMARK       I    between atoms: N_11  and  C_12 
REMARK       I    between atoms: C_12  and  N_13 
REMARK    8  A    between atoms: N_13  and  C_14 
ROOT
HETATM    1  C   UNL     1      -4.895   2.443 -31.760  1.00  0.00     0.282 C 
ENDROOT
BRANCH   1   2
HETATM    2  O   UNL     1      -6.307   2.269 -31.930  1.00  0.00    -0.307 OA
BRANCH   2   3
HETATM    3  C   UNL     1      -6.744   2.578 -33.190  1.00  0.00     0.318 C 
HETATM    4  O   UNL     1      -6.029   3.056 -34.065  1.00  0.00    -0.257 OA
BRANCH   3   5
HETATM    5  C   UNL     1      -8.138   2.243 -33.338  1.00  0.00     0.160 A 
HETATM    6  C   UNL     1      -8.812   1.038 -33.509  1.00  0.00     0.018 A 
HETATM    7  C   UNL     1     -10.205   1.367 -33.544  1.00  0.00     0.009 A 
HETATM    8  C   UNL     1     -10.278   2.744 -33.394  1.00  0.00     0.087 A 
HETATM    9  C   UNL     1     -11.411   0.647 -33.662  1.00  0.00     0.015 A 
HETATM   10  O   UNL     1      -9.038   3.272 -33.264  1.00  0.00    -0.303 OA
HETATM   11  C   UNL     1     -11.466   3.471 -33.368  1.00  0.00     0.038 A 
HETATM   12  C   UNL     1     -12.649   2.739 -33.494  1.00  0.00     0.003 A 
HETATM   13  C   UNL     1     -12.625   1.349 -33.636  1.00  0.00     0.001 A 
BRANCH   6  14
HETATM   14  C   UNL     1      -8.216  -0.324 -33.551  1.00  0.00     0.210 C 
BRANCH  14  15
HETATM   15  O   UNL     1      -7.569  -0.528 -34.808  1.00  0.00    -0.387 OA
BRANCH  15  16
HETATM   16  C   UNL     1      -6.422  -1.363 -34.694  1.00  0.00     0.163 C 
HETATM   17  C   UNL     1      -5.747  -1.065 -33.368  1.00  0.00     0.033 C 
ENDBRANCH  15  16
ENDBRANCH  14  15
ENDBRANCH   6  14
ENDBRANCH   3   5
ENDBRANCH   2   3
ENDBRANCH   1   2
BRANCH   1  18
HETATM   18  C   UNL     1      -4.535   3.646 -30.877  1.00  0.00     0.249 C 
HETATM   19  N   UNL     1      -3.412   4.393 -31.149  1.00  0.00    -0.277 N 
HETATM   20  C   UNL     1      -2.533   4.270 -32.191  1.00  0.00     0.327 C 
HETATM   21  H   UNL     1      -3.147   4.982 -30.378  1.00  0.00     0.173 HD
HETATM   22  N   UNL     1      -1.271   4.757 -32.000  1.00  0.00    -0.308 N 
HETATM   23  O   UNL     1      -2.796   3.712 -33.254  1.00  0.00    -0.247 OA
HETATM   24  H   UNL     1      -0.599   4.253 -32.568  1.00  0.00     0.170 HD
HETATM   25  O   UNL     1      -5.213   3.934 -29.884  1.00  0.00    -0.271 OA
BRANCH  22  26
HETATM   26  C   UNL     1      -0.752   5.620 -31.022  1.00  0.00     0.042 A 
HETATM   27  C   UNL     1      -0.880   7.020 -31.048  1.00  0.00    -0.035 A 
HETATM   28  C   UNL     1      -1.521   7.791 -32.171  1.00  0.00     0.050 C 
HETATM   29  C   UNL     1      -0.298   7.771 -30.006  1.00  0.00     0.015 A 
HETATM   30  C   UNL     1       0.438   7.162 -28.984  1.00  0.00    -0.061 A 
HETATM   31  C   UNL     1       1.108   7.984 -27.922  1.00  0.00     0.048 C 
HETATM   32  C   UNL     1       0.612   5.778 -29.012  1.00  0.00     0.009 A 
HETATM   33  C   UNL     1       0.029   5.017 -30.027  1.00  0.00     0.030 A 
ENDBRANCH  22  26
ENDBRANCH   1  18
TORSDOF 8
ENDMDL
