MODEL 1
REMARK VINA RESULT:      -8.3      0.000      0.000
REMARK  5 active torsions:
REMARK  status: ('A' for Active; 'I' for Inactive)
REMARK    1  A    between atoms: C_6  and  C_7 
REMARK    2  A    between atoms: C_7  and  C_8 
REMARK    3  A    between atoms: C_8  and  C_9 
REMARK    4  A    between atoms: C_9  and  N_10 
REMARK    5  A    between atoms: C_9  and  C_14 
ROOT
HETATM    1  C   UNL     1      -8.130   0.785 -32.278  1.00  0.00     0.253 C 
ENDROOT
BRANCH   1   2
HETATM    2  C   UNL     1      -7.073   1.538 -33.112  1.00  0.00     0.048 C 
BRANCH   2   3
HETATM    3  C   UNL     1      -6.734   0.957 -34.492  1.00  0.00     0.081 C 
BRANCH   3   4
HETATM    4  C   UNL     1      -6.349  -0.477 -34.408  1.00  0.00     0.105 A 
HETATM    5  N   UNL     1      -7.083  -1.478 -34.857  1.00  0.00    -0.233 NA
HETATM    6  C   UNL     1      -6.308  -2.603 -34.674  1.00  0.00     0.085 A 
HETATM    7  C   UNL     1      -5.091  -2.273 -34.088  1.00  0.00     0.062 A 
HETATM    8  C   UNL     1      -6.570  -3.939 -35.008  1.00  0.00     0.034 A 
HETATM    9  C   UNL     1      -4.095  -3.211 -33.810  1.00  0.00     0.032 A 
HETATM   10  N   UNL     1      -5.156  -0.918 -33.890  1.00  0.00    -0.343 N 
HETATM   11  C   UNL     1      -4.370  -4.538 -34.158  1.00  0.00     0.002 A 
HETATM   12  C   UNL     1      -5.585  -4.899 -34.745  1.00  0.00     0.002 A 
HETATM   13  H   UNL     1      -4.432  -0.350 -33.469  1.00  0.00     0.167 HD
ENDBRANCH   3   4
ENDBRANCH   2   3
ENDBRANCH   1   2
BRANCH   1  14
HETATM   14  N   UNL     1      -8.183   1.312 -30.892  1.00  0.00    -0.068 N 
HETATM   15  H   UNL     1      -7.554   2.113 -30.774  1.00  0.00     0.275 HD
HETATM   16  H   UNL     1      -9.128   1.654 -30.685  1.00  0.00     0.275 HD
HETATM   17  H   UNL     1      -7.963   0.550 -30.224  1.00  0.00     0.275 HD
ENDBRANCH   1  14
BRANCH   1  18
HETATM   18  C   UNL     1      -9.486   0.915 -32.889  1.00  0.00     0.136 A 
HETATM   19  N   UNL     1      -9.923   1.977 -33.535  1.00  0.00    -0.231 NA
HETATM   20  C   UNL     1     -11.220   1.681 -33.888  1.00  0.00     0.085 A 
HETATM   21  C   UNL     1     -11.584   0.425 -33.415  1.00  0.00     0.062 A 
HETATM   22  C   UNL     1     -12.154   2.441 -34.606  1.00  0.00     0.034 A 
HETATM   23  N   UNL     1     -10.462  -0.047 -32.788  1.00  0.00    -0.341 N 
HETATM   24  C   UNL     1     -12.852  -0.127 -33.603  1.00  0.00     0.032 A 
HETATM   25  H   UNL     1     -10.392  -0.944 -32.324  1.00  0.00     0.167 HD
HETATM   26  C   UNL     1     -13.773   0.646 -34.317  1.00  0.00     0.002 A 
HETATM   27  C   UNL     1     -13.432   1.907 -34.814  1.00  0.00     0.002 A 
ENDBRANCH   1  18
TORSDOF 5
ENDMDL
MODEL 2
REMARK VINA RESULT:      -8.2      4.562      8.026
REMARK  5 active torsions:
REMARK  status: ('A' for Active; 'I' for Inactive)
REMARK    1  A    between atoms: C_6  and  C_7 
REMARK    2  A    between atoms: C_7  and  C_8 
REMARK    3  A    between atoms: C_8  and  C_9 
REMARK    4  A    between atoms: C_9  and  N_10 
REMARK    5  A    between atoms: C_9  and  C_14 
ROOT
HETATM    1  C   UNL     1      -3.407   0.072 -32.464  1.00  0.00     0.253 C 
ENDROOT
BRANCH   1   2
HETATM    2  C   UNL     1      -4.388   1.226 -32.176  1.00  0.00     0.048 C 
BRANCH   2   3
HETATM    3  C   UNL     1      -3.956   2.261 -31.127  1.00  0.00     0.081 C 
BRANCH   3   4
HETATM    4  C   UNL     1      -3.129   3.342 -31.725  1.00  0.00     0.105 A 
HETATM    5  N   UNL     1      -2.950   3.517 -33.021  1.00  0.00    -0.233 NA
HETATM    6  C   UNL     1      -2.216   4.680 -33.129  1.00  0.00     0.085 A 
HETATM    7  C   UNL     1      -1.936   5.204 -31.871  1.00  0.00     0.062 A 
HETATM    8  C   UNL     1      -1.775   5.361 -34.271  1.00  0.00     0.034 A 
HETATM    9  C   UNL     1      -1.230   6.391 -31.676  1.00  0.00     0.032 A 
HETATM   10  N   UNL     1      -2.493   4.312 -30.991  1.00  0.00    -0.343 N 
HETATM   11  C   UNL     1      -0.805   7.063 -32.828  1.00  0.00     0.002 A 
HETATM   12  C   UNL     1      -1.069   6.560 -34.103  1.00  0.00     0.002 A 
HETATM   13  H   UNL     1      -2.463   4.386 -29.982  1.00  0.00     0.167 HD
ENDBRANCH   3   4
ENDBRANCH   2   3
ENDBRANCH   1   2
BRANCH   1  14
HETATM   14  N   UNL     1      -2.789  -0.422 -31.209  1.00  0.00    -0.068 N 
HETATM   15  H   UNL     1      -3.052   0.163 -30.409  1.00  0.00     0.275 HD
HETATM   16  H   UNL     1      -3.132  -1.367 -31.000  1.00  0.00     0.275 HD
HETATM   17  H   UNL     1      -1.760  -0.473 -31.327  1.00  0.00     0.275 HD
ENDBRANCH   1  14
BRANCH   1  18
HETATM   18  C   UNL     1      -4.102  -1.067 -33.134  1.00  0.00     0.136 A 
HETATM   19  N   UNL     1      -5.315  -1.013 -33.646  1.00  0.00    -0.231 NA
HETATM   20  C   UNL     1      -5.568  -2.281 -34.118  1.00  0.00     0.085 A 
HETATM   21  C   UNL     1      -4.496  -3.127 -33.856  1.00  0.00     0.062 A 
HETATM   22  C   UNL     1      -6.697  -2.789 -34.776  1.00  0.00     0.034 A 
HETATM   23  N   UNL     1      -3.570  -2.330 -33.234  1.00  0.00    -0.341 N 
HETATM   24  C   UNL     1      -4.483  -4.479 -34.201  1.00  0.00     0.032 A 
HETATM   25  H   UNL     1      -2.667  -2.643 -32.902  1.00  0.00     0.167 HD
HETATM   26  C   UNL     1      -5.619  -4.971 -34.851  1.00  0.00     0.002 A 
HETATM   27  C   UNL     1      -6.707  -4.142 -35.138  1.00  0.00     0.002 A 
ENDBRANCH   1  18
TORSDOF 5
ENDMDL
MODEL 3
REMARK VINA RESULT:      -8.0      1.821      6.741
REMARK  5 active torsions:
REMARK  status: ('A' for Active; 'I' for Inactive)
REMARK    1  A    between atoms: C_6  and  C_7 
REMARK    2  A    between atoms: C_7  and  C_8 
REMARK    3  A    between atoms: C_8  and  C_9 
REMARK    4  A    between atoms: C_9  and  N_10 
REMARK    5  A    between atoms: C_9  and  C_14 
ROOT
HETATM    1  C   UNL     1      -3.908   0.017 -31.741  1.00  0.00     0.253 C 
ENDROOT
BRANCH   1   2
HETATM    2  C   UNL     1      -4.914   0.351 -30.621  1.00  0.00     0.048 C 
BRANCH   2   3
HETATM    3  C   UNL     1      -5.602   1.722 -30.690  1.00  0.00     0.081 C 
BRANCH   3   4
HETATM    4  C   UNL     1      -6.970   1.625 -31.266  1.00  0.00     0.105 A 
HETATM    5  N   UNL     1      -7.710   2.660 -31.616  1.00  0.00    -0.233 NA
HETATM    6  C   UNL     1      -8.838   2.117 -32.193  1.00  0.00     0.085 A 
HETATM    7  C   UNL     1      -8.780   0.728 -32.176  1.00  0.00     0.062 A 
HETATM    8  C   UNL     1      -9.942   2.752 -32.778  1.00  0.00     0.034 A 
HETATM    9  C   UNL     1      -9.775  -0.087 -32.717  1.00  0.00     0.032 A 
HETATM   10  N   UNL     1      -7.599   0.437 -31.543  1.00  0.00    -0.343 N 
HETATM   11  C   UNL     1     -10.866   0.563 -33.305  1.00  0.00     0.002 A 
HETATM   12  C   UNL     1     -10.953   1.957 -33.335  1.00  0.00     0.002 A 
HETATM   13  H   UNL     1      -7.249  -0.493 -31.352  1.00  0.00     0.167 HD
ENDBRANCH   3   4
ENDBRANCH   2   3
ENDBRANCH   1   2
BRANCH   1  14
HETATM   14  N   UNL     1      -2.602  -0.398 -31.173  1.00  0.00    -0.068 N 
HETATM   15  H   UNL     1      -2.272   0.272 -30.471  1.00  0.00     0.275 HD
HETATM   16  H   UNL     1      -2.703  -1.297 -30.688  1.00  0.00     0.275 HD
HETATM   17  H   UNL     1      -1.915  -0.522 -31.940  1.00  0.00     0.275 HD
ENDBRANCH   1  14
BRANCH   1  18
HETATM   18  C   UNL     1      -4.421  -1.083 -32.611  1.00  0.00     0.136 A 
HETATM   19  N   UNL     1      -5.597  -1.088 -33.205  1.00  0.00    -0.231 NA
HETATM   20  C   UNL     1      -5.670  -2.296 -33.862  1.00  0.00     0.085 A 
HETATM   21  C   UNL     1      -4.525  -3.050 -33.631  1.00  0.00     0.062 A 
HETATM   22  C   UNL     1      -6.687  -2.823 -34.668  1.00  0.00     0.034 A 
HETATM   23  N   UNL     1      -3.740  -2.255 -32.837  1.00  0.00    -0.341 N 
HETATM   24  C   UNL     1      -4.331  -4.330 -34.152  1.00  0.00     0.032 A 
HETATM   25  H   UNL     1      -2.830  -2.514 -32.479  1.00  0.00     0.167 HD
HETATM   26  C   UNL     1      -5.359  -4.843 -34.950  1.00  0.00     0.002 A 
HETATM   27  C   UNL     1      -6.516  -4.104 -35.208  1.00  0.00     0.002 A 
ENDBRANCH   1  18
TORSDOF 5
ENDMDL
MODEL 4
REMARK VINA RESULT:      -8.0      1.467      2.565
REMARK  5 active torsions:
REMARK  status: ('A' for Active; 'I' for Inactive)
REMARK    1  A    between atoms: C_6  and  C_7 
REMARK    2  A    between atoms: C_7  and  C_8 
REMARK    3  A    between atoms: C_8  and  C_9 
REMARK    4  A    between atoms: C_9  and  N_10 
REMARK    5  A    between atoms: C_9  and  C_14 
ROOT
HETATM    1  C   UNL     1      -6.343   0.704 -30.725  1.00  0.00     0.253 C 
ENDROOT
BRANCH   1   2
HETATM    2  C   UNL     1      -5.156   1.153 -31.602  1.00  0.00     0.048 C 
BRANCH   2   3
HETATM    3  C   UNL     1      -5.335   1.046 -33.123  1.00  0.00     0.081 C 
BRANCH   3   4
HETATM    4  C   UNL     1      -5.316  -0.368 -33.583  1.00  0.00     0.105 A 
HETATM    5  N   UNL     1      -4.286  -1.183 -33.455  1.00  0.00    -0.233 NA
HETATM    6  C   UNL     1      -4.736  -2.404 -33.910  1.00  0.00     0.085 A 
HETATM    7  C   UNL     1      -6.057  -2.317 -34.334  1.00  0.00     0.062 A 
HETATM    8  C   UNL     1      -4.076  -3.640 -33.967  1.00  0.00     0.034 A 
HETATM    9  C   UNL     1      -6.780  -3.406 -34.821  1.00  0.00     0.032 A 
HETATM   10  N   UNL     1      -6.393  -0.999 -34.154  1.00  0.00    -0.343 N 
HETATM   11  C   UNL     1      -6.110  -4.634 -34.861  1.00  0.00     0.002 A 
HETATM   12  C   UNL     1      -4.782  -4.752 -34.445  1.00  0.00     0.002 A 
HETATM   13  H   UNL     1      -7.290  -0.586 -34.375  1.00  0.00     0.167 HD
ENDBRANCH   3   4
ENDBRANCH   2   3
ENDBRANCH   1   2
BRANCH   1  14
HETATM   14  N   UNL     1      -6.292   1.354 -29.393  1.00  0.00    -0.068 N 
HETATM   15  H   UNL     1      -5.345   1.676 -29.171  1.00  0.00     0.275 HD
HETATM   16  H   UNL     1      -6.888   2.190 -29.390  1.00  0.00     0.275 HD
HETATM   17  H   UNL     1      -6.654   0.700 -28.675  1.00  0.00     0.275 HD
ENDBRANCH   1  14
BRANCH   1  18
HETATM   18  C   UNL     1      -7.644   1.044 -31.373  1.00  0.00     0.136 A 
HETATM   19  N   UNL     1      -8.387   0.201 -32.060  1.00  0.00    -0.231 NA
HETATM   20  C   UNL     1      -9.462   0.938 -32.504  1.00  0.00     0.085 A 
HETATM   21  C   UNL     1      -9.348   2.264 -32.102  1.00  0.00     0.062 A 
HETATM   22  C   UNL     1     -10.572   0.545 -33.264  1.00  0.00     0.034 A 
HETATM   23  N   UNL     1      -8.185   2.308 -31.377  1.00  0.00    -0.341 N 
HETATM   24  C   UNL     1     -10.281   3.248 -32.428  1.00  0.00     0.032 A 
HETATM   25  H   UNL     1      -7.805   3.139 -30.943  1.00  0.00     0.167 HD
HETATM   26  C   UNL     1     -11.380   2.840 -33.192  1.00  0.00     0.002 A 
HETATM   27  C   UNL     1     -11.528   1.512 -33.601  1.00  0.00     0.002 A 
ENDBRANCH   1  18
TORSDOF 5
ENDMDL
MODEL 5
REMARK VINA RESULT:      -8.0      3.224      6.676
REMARK  5 active torsions:
REMARK  status: ('A' for Active; 'I' for Inactive)
REMARK    1  A    between atoms: C_6  and  C_7 
REMARK    2  A    between atoms: C_7  and  C_8 
REMARK    3  A    between atoms: C_8  and  C_9 
REMARK    4  A    between atoms: C_9  and  N_10 
REMARK    5  A    between atoms: C_9  and  C_14 
ROOT
HETATM    1  C   UNL     1      -7.910   1.327 -31.910  1.00  0.00     0.253 C 
ENDROOT
BRANCH   1   2
HETATM    2  C   UNL     1      -8.287   2.456 -32.891  1.00  0.00     0.048 C 
BRANCH   2   3
HETATM    3  C   UNL     1      -7.758   3.862 -32.570  1.00  0.00     0.081 C 
BRANCH   3   4
HETATM    4  C   UNL     1      -6.370   4.057 -33.068  1.00  0.00     0.105 A 
HETATM    5  N   UNL     1      -6.061   4.626 -34.217  1.00  0.00    -0.233 NA
HETATM    6  C   UNL     1      -4.684   4.696 -34.225  1.00  0.00     0.085 A 
HETATM    7  C   UNL     1      -4.156   4.143 -33.063  1.00  0.00     0.062 A 
HETATM    8  C   UNL     1      -3.817   5.242 -35.181  1.00  0.00     0.034 A 
HETATM    9  C   UNL     1      -2.789   4.100 -32.787  1.00  0.00     0.032 A 
HETATM   10  N   UNL     1      -5.249   3.705 -32.360  1.00  0.00    -0.343 N 
HETATM   11  C   UNL     1      -1.939   4.658 -33.748  1.00  0.00     0.002 A 
HETATM   12  C   UNL     1      -2.440   5.218 -34.926  1.00  0.00     0.002 A 
HETATM   13  H   UNL     1      -5.220   3.238 -31.462  1.00  0.00     0.167 HD
ENDBRANCH   3   4
ENDBRANCH   2   3
ENDBRANCH   1   2
BRANCH   1  14
HETATM   14  N   UNL     1      -9.120   0.765 -31.261  1.00  0.00    -0.068 N 
HETATM   15  H   UNL     1      -9.964   1.274 -31.542  1.00  0.00     0.275 HD
HETATM   16  H   UNL     1      -9.257  -0.207 -31.562  1.00  0.00     0.275 HD
HETATM   17  H   UNL     1      -8.994   0.768 -30.232  1.00  0.00     0.275 HD
ENDBRANCH   1  14
BRANCH   1  18
HETATM   18  C   UNL     1      -7.190   0.225 -32.614  1.00  0.00     0.136 A 
HETATM   19  N   UNL     1      -7.764  -0.682 -33.379  1.00  0.00    -0.231 NA
HETATM   20  C   UNL     1      -6.746  -1.515 -33.784  1.00  0.00     0.085 A 
HETATM   21  C   UNL     1      -5.536  -1.121 -33.224  1.00  0.00     0.062 A 
HETATM   22  C   UNL     1      -6.779  -2.637 -34.624  1.00  0.00     0.034 A 
HETATM   23  N   UNL     1      -5.842  -0.007 -32.487  1.00  0.00    -0.341 N 
HETATM   24  C   UNL     1      -4.334  -1.796 -33.440  1.00  0.00     0.032 A 
HETATM   25  H   UNL     1      -5.177   0.527 -31.942  1.00  0.00     0.167 HD
HETATM   26  C   UNL     1      -4.387  -2.916 -34.276  1.00  0.00     0.002 A 
HETATM   27  C   UNL     1      -5.586  -3.330 -34.862  1.00  0.00     0.002 A 
ENDBRANCH   1  18
TORSDOF 5
ENDMDL
MODEL 6
REMARK VINA RESULT:      -7.9      4.369      6.815
REMARK  5 active torsions:
REMARK  status: ('A' for Active; 'I' for Inactive)
REMARK    1  A    between atoms: C_6  and  C_7 
REMARK    2  A    between atoms: C_7  and  C_8 
REMARK    3  A    between atoms: C_8  and  C_9 
REMARK    4  A    between atoms: C_9  and  N_10 
REMARK    5  A    between atoms: C_9  and  C_14 
ROOT
HETATM    1  C   UNL     1      -4.941   2.309 -31.062  1.00  0.00     0.253 C 
ENDROOT
BRANCH   1   2
HETATM    2  C   UNL     1      -4.276   0.919 -30.993  1.00  0.00     0.048 C 
BRANCH   2   3
HETATM    3  C   UNL     1      -3.565   0.426 -32.262  1.00  0.00     0.081 C 
BRANCH   3   4
HETATM    4  C   UNL     1      -4.253  -0.750 -32.858  1.00  0.00     0.105 A 
HETATM    5  N   UNL     1      -5.493  -0.741 -33.311  1.00  0.00    -0.233 NA
HETATM    6  C   UNL     1      -5.681  -1.989 -33.866  1.00  0.00     0.085 A 
HETATM    7  C   UNL     1      -4.537  -2.767 -33.730  1.00  0.00     0.062 A 
HETATM    8  C   UNL     1      -6.798  -2.519 -34.528  1.00  0.00     0.034 A 
HETATM    9  C   UNL     1      -4.431  -4.068 -34.223  1.00  0.00     0.032 A 
HETATM   10  N   UNL     1      -3.654  -1.970 -33.048  1.00  0.00    -0.343 N 
HETATM   11  C   UNL     1      -5.552  -4.578 -34.889  1.00  0.00     0.002 A 
HETATM   12  C   UNL     1      -6.716  -3.821 -35.038  1.00  0.00     0.002 A 
HETATM   13  H   UNL     1      -2.717  -2.235 -32.770  1.00  0.00     0.167 HD
ENDBRANCH   3   4
ENDBRANCH   2   3
ENDBRANCH   1   2
BRANCH   1  14
HETATM   14  N   UNL     1      -5.239   2.821 -29.701  1.00  0.00    -0.068 N 
HETATM   15  H   UNL     1      -4.520   2.532 -29.030  1.00  0.00     0.275 HD
HETATM   16  H   UNL     1      -5.232   3.847 -29.706  1.00  0.00     0.275 HD
HETATM   17  H   UNL     1      -6.183   2.507 -29.412  1.00  0.00     0.275 HD
ENDBRANCH   1  14
BRANCH   1  18
HETATM   18  C   UNL     1      -4.058   3.291 -31.758  1.00  0.00     0.136 A 
HETATM   19  N   UNL     1      -4.249   3.740 -32.982  1.00  0.00    -0.231 NA
HETATM   20  C   UNL     1      -3.189   4.583 -33.231  1.00  0.00     0.085 A 
HETATM   21  C   UNL     1      -2.323   4.617 -32.144  1.00  0.00     0.062 A 
HETATM   22  C   UNL     1      -2.894   5.347 -34.368  1.00  0.00     0.034 A 
HETATM   23  N   UNL     1      -2.900   3.792 -31.215  1.00  0.00    -0.341 N 
HETATM   24  C   UNL     1      -1.147   5.369 -32.123  1.00  0.00     0.032 A 
HETATM   25  H   UNL     1      -2.514   3.590 -30.301  1.00  0.00     0.167 HD
HETATM   26  C   UNL     1      -0.865   6.122 -33.268  1.00  0.00     0.002 A 
HETATM   27  C   UNL     1      -1.723   6.116 -34.371  1.00  0.00     0.002 A 
ENDBRANCH   1  18
TORSDOF 5
ENDMDL
MODEL 7
REMARK VINA RESULT:      -7.9      4.558      8.095
REMARK  5 active torsions:
REMARK  status: ('A' for Active; 'I' for Inactive)
REMARK    1  A    between atoms: C_6  and  C_7 
REMARK    2  A    between atoms: C_7  and  C_8 
REMARK    3  A    between atoms: C_8  and  C_9 
REMARK    4  A    between atoms: C_9  and  N_10 
REMARK    5  A    between atoms: C_9  and  C_14 
ROOT
HETATM    1  C   UNL     1      -5.167   0.717 -32.657  1.00  0.00     0.253 C 
ENDROOT
BRANCH   1   2
HETATM    2  C   UNL     1      -3.699   1.159 -32.489  1.00  0.00     0.048 C 
BRANCH   2   3
HETATM    3  C   UNL     1      -3.384   2.090 -31.309  1.00  0.00     0.081 C 
BRANCH   3   4
HETATM    4  C   UNL     1      -2.899   3.419 -31.768  1.00  0.00     0.105 A 
HETATM    5  N   UNL     1      -1.834   4.033 -31.289  1.00  0.00    -0.233 NA
HETATM    6  C   UNL     1      -1.693   5.166 -32.063  1.00  0.00     0.085 A 
HETATM    7  C   UNL     1      -2.703   5.240 -33.015  1.00  0.00     0.062 A 
HETATM    8  C   UNL     1      -0.710   6.163 -32.024  1.00  0.00     0.034 A 
HETATM    9  C   UNL     1      -2.797   6.268 -33.954  1.00  0.00     0.032 A 
HETATM   10  N   UNL     1      -3.484   4.137 -32.782  1.00  0.00    -0.343 N 
HETATM   11  C   UNL     1      -1.802   7.251 -33.908  1.00  0.00     0.002 A 
HETATM   12  C   UNL     1      -0.777   7.204 -32.960  1.00  0.00     0.002 A 
HETATM   13  H   UNL     1      -4.319   3.889 -33.295  1.00  0.00     0.167 HD
ENDBRANCH   3   4
ENDBRANCH   2   3
ENDBRANCH   1   2
BRANCH   1  14
HETATM   14  N   UNL     1      -5.888   1.617 -33.591  1.00  0.00    -0.068 N 
HETATM   15  H   UNL     1      -6.785   1.920 -33.197  1.00  0.00     0.275 HD
HETATM   16  H   UNL     1      -5.338   2.470 -33.746  1.00  0.00     0.275 HD
HETATM   17  H   UNL     1      -6.010   1.142 -34.504  1.00  0.00     0.275 HD
ENDBRANCH   1  14
BRANCH   1  18
HETATM   18  C   UNL     1      -5.249  -0.678 -33.182  1.00  0.00     0.136 A 
HETATM   19  N   UNL     1      -4.253  -1.541 -33.188  1.00  0.00    -0.231 NA
HETATM   20  C   UNL     1      -4.753  -2.673 -33.791  1.00  0.00     0.085 A 
HETATM   21  C   UNL     1      -6.071  -2.477 -34.187  1.00  0.00     0.062 A 
HETATM   22  C   UNL     1      -4.137  -3.906 -34.044  1.00  0.00     0.034 A 
HETATM   23  N   UNL     1      -6.368  -1.201 -33.784  1.00  0.00    -0.341 N 
HETATM   24  C   UNL     1      -6.826  -3.447 -34.848  1.00  0.00     0.032 A 
HETATM   25  H   UNL     1      -7.258  -0.741 -33.928  1.00  0.00     0.167 HD
HETATM   26  C   UNL     1      -6.195  -4.670 -35.097  1.00  0.00     0.002 A 
HETATM   27  C   UNL     1      -4.875  -4.900 -34.700  1.00  0.00     0.002 A 
ENDBRANCH   1  18
TORSDOF 5
ENDMDL
MODEL 8
REMARK VINA RESULT:      -7.9      5.092      8.025
REMARK  5 active torsions:
REMARK  status: ('A' for Active; 'I' for Inactive)
REMARK    1  A    between atoms: C_6  and  C_7 
REMARK    2  A    between atoms: C_7  and  C_8 
REMARK    3  A    between atoms: C_8  and  C_9 
REMARK    4  A    between atoms: C_9  and  N_10 
REMARK    5  A    between atoms: C_9  and  C_14 
ROOT
HETATM    1  C   UNL     1      -5.240   1.460 -30.374  1.00  0.00     0.253 C 
ENDROOT
BRANCH   1   2
HETATM    2  C   UNL     1      -5.302   2.907 -30.904  1.00  0.00     0.048 C 
BRANCH   2   3
HETATM    3  C   UNL     1      -4.345   3.270 -32.048  1.00  0.00     0.081 C 
BRANCH   3   4
HETATM    4  C   UNL     1      -3.233   4.141 -31.583  1.00  0.00     0.105 A 
HETATM    5  N   UNL     1      -1.971   4.001 -31.943  1.00  0.00    -0.233 NA
HETATM    6  C   UNL     1      -1.313   5.070 -31.372  1.00  0.00     0.085 A 
HETATM    7  C   UNL     1      -2.196   5.859 -30.643  1.00  0.00     0.062 A 
HETATM    8  C   UNL     1       0.035   5.444 -31.456  1.00  0.00     0.034 A 
HETATM    9  C   UNL     1      -1.812   7.024 -29.978  1.00  0.00     0.032 A 
HETATM   10  N   UNL     1      -3.406   5.224 -30.758  1.00  0.00    -0.343 N 
HETATM   11  C   UNL     1      -0.465   7.388 -30.081  1.00  0.00     0.002 A 
HETATM   12  C   UNL     1       0.445   6.614 -30.803  1.00  0.00     0.002 A 
HETATM   13  H   UNL     1      -4.272   5.530 -30.334  1.00  0.00     0.167 HD
ENDBRANCH   3   4
ENDBRANCH   2   3
ENDBRANCH   1   2
BRANCH   1  14
HETATM   14  N   UNL     1      -6.274   1.232 -29.335  1.00  0.00    -0.068 N 
HETATM   15  H   UNL     1      -6.306   2.007 -28.665  1.00  0.00     0.275 HD
HETATM   16  H   UNL     1      -7.203   1.191 -29.771  1.00  0.00     0.275 HD
HETATM   17  H   UNL     1      -6.099   0.324 -28.866  1.00  0.00     0.275 HD
ENDBRANCH   1  14
BRANCH   1  18
HETATM   18  C   UNL     1      -5.448   0.477 -31.478  1.00  0.00     0.136 A 
HETATM   19  N   UNL     1      -6.602   0.241 -32.070  1.00  0.00    -0.231 NA
HETATM   20  C   UNL     1      -6.345  -0.753 -32.987  1.00  0.00     0.085 A 
HETATM   21  C   UNL     1      -5.013  -1.148 -32.924  1.00  0.00     0.062 A 
HETATM   22  C   UNL     1      -7.203  -1.376 -33.904  1.00  0.00     0.034 A 
HETATM   23  N   UNL     1      -4.459  -0.347 -31.961  1.00  0.00    -0.341 N 
HETATM   24  C   UNL     1      -4.474  -2.157 -33.723  1.00  0.00     0.032 A 
HETATM   25  H   UNL     1      -3.493  -0.384 -31.663  1.00  0.00     0.167 HD
HETATM   26  C   UNL     1      -5.345  -2.772 -34.628  1.00  0.00     0.002 A 
HETATM   27  C   UNL     1      -6.685  -2.388 -34.722  1.00  0.00     0.002 A 
ENDBRANCH   1  18
TORSDOF 5
ENDMDL
MODEL 9
REMARK VINA RESULT:      -7.9      1.107      6.957
REMARK  5 active torsions:
REMARK  status: ('A' for Active; 'I' for Inactive)
REMARK    1  A    between atoms: C_6  and  C_7 
REMARK    2  A    between atoms: C_7  and  C_8 
REMARK    3  A    between atoms: C_8  and  C_9 
REMARK    4  A    between atoms: C_9  and  N_10 
REMARK    5  A    between atoms: C_9  and  C_14 
ROOT
HETATM    1  C   UNL     1      -5.539   1.065 -33.221  1.00  0.00     0.253 C 
ENDROOT
BRANCH   1   2
HETATM    2  C   UNL     1      -6.955   1.523 -32.817  1.00  0.00     0.048 C 
BRANCH   2   3
HETATM    3  C   UNL     1      -7.727   2.375 -33.836  1.00  0.00     0.081 C 
BRANCH   3   4
HETATM    4  C   UNL     1      -9.129   1.904 -33.999  1.00  0.00     0.105 A 
HETATM    5  N   UNL     1      -9.650   0.869 -33.366  1.00  0.00    -0.233 NA
HETATM    6  C   UNL     1     -10.980   0.860 -33.727  1.00  0.00     0.085 A 
HETATM    7  C   UNL     1     -11.260   1.900 -34.607  1.00  0.00     0.062 A 
HETATM    8  C   UNL     1     -12.015   0.005 -33.322  1.00  0.00     0.034 A 
HETATM    9  C   UNL     1     -12.534   2.150 -35.118  1.00  0.00     0.032 A 
HETATM   10  N   UNL     1     -10.055   2.527 -34.797  1.00  0.00    -0.343 N 
HETATM   11  C   UNL     1     -13.557   1.293 -34.696  1.00  0.00     0.002 A 
HETATM   12  C   UNL     1     -13.305   0.238 -33.816  1.00  0.00     0.002 A 
HETATM   13  H   UNL     1      -9.898   3.328 -35.395  1.00  0.00     0.167 HD
ENDBRANCH   3   4
ENDBRANCH   2   3
ENDBRANCH   1   2
BRANCH   1  14
HETATM   14  N   UNL     1      -4.587   1.235 -32.097  1.00  0.00    -0.068 N 
HETATM   15  H   UNL     1      -4.997   1.798 -31.344  1.00  0.00     0.275 HD
HETATM   16  H   UNL     1      -4.366   0.321 -31.686  1.00  0.00     0.275 HD
HETATM   17  H   UNL     1      -3.705   1.650 -32.450  1.00  0.00     0.275 HD
ENDBRANCH   1  14
BRANCH   1  18
HETATM   18  C   UNL     1      -5.539  -0.371 -33.633  1.00  0.00     0.136 A 
HETATM   19  N   UNL     1      -6.586  -1.021 -34.099  1.00  0.00    -0.231 NA
HETATM   20  C   UNL     1      -6.151  -2.310 -34.309  1.00  0.00     0.085 A 
HETATM   21  C   UNL     1      -4.821  -2.448 -33.930  1.00  0.00     0.062 A 
HETATM   22  C   UNL     1      -6.839  -3.423 -34.812  1.00  0.00     0.034 A 
HETATM   23  N   UNL     1      -4.449  -1.198 -33.508  1.00  0.00    -0.341 N 
HETATM   24  C   UNL     1      -4.121  -3.653 -34.008  1.00  0.00     0.032 A 
HETATM   25  H   UNL     1      -3.532  -0.955 -33.157  1.00  0.00     0.167 HD
HETATM   26  C   UNL     1      -4.824  -4.754 -34.508  1.00  0.00     0.002 A 
HETATM   27  C   UNL     1      -6.159  -4.643 -34.907  1.00  0.00     0.002 A 
ENDBRANCH   1  18
TORSDOF 5
ENDMDL
MODEL 10
REMARK VINA RESULT:      -7.8      5.134      8.069
REMARK  5 active torsions:
REMARK  status: ('A' for Active; 'I' for Inactive)
REMARK    1  A    between atoms: C_6  and  C_7 
REMARK    2  A    between atoms: C_7  and  C_8 
REMARK    3  A    between atoms: C_8  and  C_9 
REMARK    4  A    between atoms: C_9  and  N_10 
REMARK    5  A    between atoms: C_9  and  C_14 
ROOT
HETATM    1  C   UNL     1      -5.278   1.592 -30.356  1.00  0.00     0.253 C 
ENDROOT
BRANCH   1   2
HETATM    2  C   UNL     1      -5.296   2.996 -30.993  1.00  0.00     0.048 C 
BRANCH   2   3
HETATM    3  C   UNL     1      -4.248   3.280 -32.080  1.00  0.00     0.081 C 
BRANCH   3   4
HETATM    4  C   UNL     1      -3.165   4.170 -31.583  1.00  0.00     0.105 A 
HETATM    5  N   UNL     1      -1.897   4.074 -31.935  1.00  0.00    -0.233 NA
HETATM    6  C   UNL     1      -1.274   5.147 -31.332  1.00  0.00     0.085 A 
HETATM    7  C   UNL     1      -2.185   5.892 -30.591  1.00  0.00     0.062 A 
HETATM    8  C   UNL     1       0.063   5.560 -31.395  1.00  0.00     0.034 A 
HETATM    9  C   UNL     1      -1.839   7.051 -29.895  1.00  0.00     0.032 A 
HETATM   10  N   UNL     1      -3.375   5.227 -30.733  1.00  0.00    -0.343 N 
HETATM   11  C   UNL     1      -0.502   7.455 -29.976  1.00  0.00     0.002 A 
HETATM   12  C   UNL     1       0.436   6.724 -30.710  1.00  0.00     0.002 A 
HETATM   13  H   UNL     1      -4.253   5.498 -30.309  1.00  0.00     0.167 HD
ENDBRANCH   3   4
ENDBRANCH   2   3
ENDBRANCH   1   2
BRANCH   1  14
HETATM   14  N   UNL     1      -6.373   1.447 -29.365  1.00  0.00    -0.068 N 
HETATM   15  H   UNL     1      -6.987   0.660 -29.601  1.00  0.00     0.275 HD
HETATM   16  H   UNL     1      -5.980   1.238 -28.440  1.00  0.00     0.275 HD
HETATM   17  H   UNL     1      -6.898   2.338 -29.297  1.00  0.00     0.275 HD
ENDBRANCH   1  14
BRANCH   1  18
HETATM   18  C   UNL     1      -5.432   0.531 -31.395  1.00  0.00     0.136 A 
HETATM   19  N   UNL     1      -4.460  -0.244 -31.831  1.00  0.00    -0.231 NA
HETATM   20  C   UNL     1      -5.031  -1.037 -32.800  1.00  0.00     0.085 A 
HETATM   21  C   UNL     1      -6.372  -0.711 -32.975  1.00  0.00     0.062 A 
HETATM   22  C   UNL     1      -4.465  -2.054 -33.581  1.00  0.00     0.034 A 
HETATM   23  N   UNL     1      -6.607   0.286 -32.065  1.00  0.00    -0.341 N 
HETATM   24  C   UNL     1      -7.198  -1.336 -33.910  1.00  0.00     0.032 A 
HETATM   25  H   UNL     1      -7.495   0.755 -31.937  1.00  0.00     0.167 HD
HETATM   26  C   UNL     1      -6.616  -2.344 -34.685  1.00  0.00     0.002 A 
HETATM   27  C   UNL     1      -5.274  -2.702 -34.524  1.00  0.00     0.002 A 
ENDBRANCH   1  18
TORSDOF 5
ENDMDL
