MODEL 1
REMARK VINA RESULT:     -10.7      0.000      0.000
REMARK  4 active torsions:
REMARK  status: ('A' for Active; 'I' for Inactive)
REMARK    1  A    between atoms: C_2  and  N_3 
REMARK    2  A    between atoms: C_10  and  C_11 
REMARK    3  A    between atoms: C_11  and  C_12 
REMARK       I    between atoms: C_12  and  N_13 
REMARK    4  A    between atoms: N_13  and  C_14 
ROOT
HETATM    1  C   UNL     1      -3.500   3.201 -32.188  1.00  0.00     0.035 A 
HETATM    2  C   UNL     1      -2.459   3.710 -31.411  1.00  0.00     0.049 A 
HETATM    3  C   UNL     1      -2.027   5.048 -31.545  1.00  0.00     0.061 A 
HETATM    4  C   UNL     1      -2.650   5.888 -32.476  1.00  0.00     0.050 A 
HETATM    5  N   UNL     1      -2.409   7.263 -32.644  1.00  0.00    -0.324 N 
HETATM    6  C   UNL     1      -2.035   8.180 -31.698  1.00  0.00     0.245 C 
HETATM    7  O   UNL     1      -2.080   9.375 -32.001  1.00  0.00    -0.271 OA
HETATM    8  C   UNL     1      -1.786   7.697 -30.270  1.00  0.00     0.180 C 
HETATM    9  N   UNL     1      -0.732   6.696 -30.249  1.00  0.00    -0.334 N 
HETATM   10  C   UNL     1      -0.829   5.421 -30.748  1.00  0.00     0.256 C 
HETATM   11  O   UNL     1       0.039   4.574 -30.551  1.00  0.00    -0.267 OA
HETATM   12  C   UNL     1      -1.273   8.811 -29.348  1.00  0.00     0.037 C 
HETATM   13  C   UNL     1      -0.296   8.092 -28.427  1.00  0.00     0.022 C 
HETATM   14  C   UNL     1       0.346   7.074 -29.352  1.00  0.00     0.127 C 
HETATM   15  C   UNL     1      -3.621   5.341 -33.327  1.00  0.00     0.033 A 
HETATM   16  C   UNL     1      -4.050   4.018 -33.177  1.00  0.00     0.032 A 
HETATM   17  H   UNL     1      -2.752   7.712 -33.486  1.00  0.00     0.169 HD
ENDROOT
BRANCH   1  18
HETATM   18  N   UNL     1      -4.083   1.930 -31.999  1.00  0.00    -0.327 N 
HETATM   19  C   UNL     1      -3.558   0.866 -31.284  1.00  0.00     0.226 C 
HETATM   20  O   UNL     1      -2.397   0.772 -30.892  1.00  0.00    -0.273 OA
HETATM   21  H   UNL     1      -5.005   1.790 -32.398  1.00  0.00     0.169 HD
BRANCH  19  22
HETATM   22  C   UNL     1      -4.591  -0.162 -30.849  1.00  0.00     0.144 C 
BRANCH  22  23
HETATM   23  C   UNL     1      -5.595  -0.538 -31.889  1.00  0.00    -0.021 A 
HETATM   24  C   UNL     1      -5.409  -1.435 -32.988  1.00  0.00    -0.001 A 
HETATM   25  C   UNL     1      -6.577  -1.414 -33.758  1.00  0.00     0.045 A 
HETATM   26  C   UNL     1      -4.335  -2.252 -33.407  1.00  0.00     0.014 A 
HETATM   27  N   UNL     1      -7.437  -0.510 -33.161  1.00  0.00    -0.351 N 
HETATM   28  C   UNL     1      -6.709  -2.194 -34.919  1.00  0.00     0.030 A 
HETATM   29  C   UNL     1      -6.869  -0.022 -32.010  1.00  0.00     0.100 A 
HETATM   30  C   UNL     1      -5.635  -3.000 -35.305  1.00  0.00     0.002 A 
HETATM   31  C   UNL     1      -4.461  -3.029 -34.561  1.00  0.00     0.001 A 
BRANCH  27  32
HETATM   32  C   UNL     1      -8.731  -0.074 -33.691  1.00  0.00     0.081 C 
HETATM   33  C   UNL     1      -8.616   1.249 -34.453  1.00  0.00     0.032 C 
HETATM   34  C   UNL     1      -9.792   0.003 -32.594  1.00  0.00     0.032 C 
ENDBRANCH  27  32
ENDBRANCH  22  23
ENDBRANCH  19  22
ENDBRANCH   1  18
TORSDOF 4
ENDMDL
MODEL 2
REMARK VINA RESULT:     -10.3      0.962      2.499
REMARK  4 active torsions:
REMARK  status: ('A' for Active; 'I' for Inactive)
REMARK    1  A    between atoms: C_2  and  N_3 
REMARK    2  A    between atoms: C_10  and  C_11 
REMARK    3  A    between atoms: C_11  and  C_12 
REMARK       I    between atoms: C_12  and  N_13 
REMARK    4  A    between atoms: N_13  and  C_14 
ROOT
HETATM    1  C   UNL     1      -3.343   3.451 -32.394  1.00  0.00     0.035 A 
HETATM    2  C   UNL     1      -2.316   3.950 -31.591  1.00  0.00     0.049 A 
HETATM    3  C   UNL     1      -1.953   5.313 -31.623  1.00  0.00     0.061 A 
HETATM    4  C   UNL     1      -2.632   6.193 -32.477  1.00  0.00     0.050 A 
HETATM    5  N   UNL     1      -2.462   7.587 -32.537  1.00  0.00    -0.324 N 
HETATM    6  C   UNL     1      -2.118   8.444 -31.525  1.00  0.00     0.245 C 
HETATM    7  O   UNL     1      -2.227   9.655 -31.732  1.00  0.00    -0.271 OA
HETATM    8  C   UNL     1      -1.822   7.862 -30.144  1.00  0.00     0.180 C 
HETATM    9  N   UNL     1      -0.720   6.917 -30.217  1.00  0.00    -0.334 N 
HETATM   10  C   UNL     1      -0.762   5.682 -30.815  1.00  0.00     0.256 C 
HETATM   11  O   UNL     1       0.150   4.868 -30.697  1.00  0.00    -0.267 OA
HETATM   12  C   UNL     1      -1.349   8.924 -29.143  1.00  0.00     0.037 C 
HETATM   13  C   UNL     1      -0.323   8.185 -28.294  1.00  0.00     0.022 C 
HETATM   14  C   UNL     1       0.353   7.277 -29.306  1.00  0.00     0.127 C 
HETATM   15  C   UNL     1      -3.588   5.666 -33.357  1.00  0.00     0.033 A 
HETATM   16  C   UNL     1      -3.949   4.315 -33.307  1.00  0.00     0.032 A 
HETATM   17  H   UNL     1      -2.840   8.083 -33.336  1.00  0.00     0.169 HD
ENDROOT
BRANCH   1  18
HETATM   18  N   UNL     1      -3.860   2.142 -32.300  1.00  0.00    -0.327 N 
HETATM   19  C   UNL     1      -3.447   1.139 -31.437  1.00  0.00     0.226 C 
HETATM   20  O   UNL     1      -2.412   1.148 -30.774  1.00  0.00    -0.273 OA
HETATM   21  H   UNL     1      -4.645   1.919 -32.902  1.00  0.00     0.169 HD
BRANCH  19  22
HETATM   22  C   UNL     1      -4.476   0.040 -31.222  1.00  0.00     0.144 C 
BRANCH  22  23
HETATM   23  C   UNL     1      -4.947  -0.646 -32.463  1.00  0.00    -0.021 A 
HETATM   24  C   UNL     1      -6.013  -0.240 -33.326  1.00  0.00    -0.001 A 
HETATM   25  C   UNL     1      -6.166  -1.227 -34.306  1.00  0.00     0.045 A 
HETATM   26  C   UNL     1      -6.876   0.878 -33.346  1.00  0.00     0.014 A 
HETATM   27  N   UNL     1      -5.242  -2.217 -34.030  1.00  0.00    -0.351 N 
HETATM   28  C   UNL     1      -7.143  -1.121 -35.312  1.00  0.00     0.030 A 
HETATM   29  C   UNL     1      -4.473  -1.845 -32.954  1.00  0.00     0.100 A 
HETATM   30  C   UNL     1      -7.977  -0.000 -35.314  1.00  0.00     0.002 A 
HETATM   31  C   UNL     1      -7.849   0.987 -34.344  1.00  0.00     0.001 A 
BRANCH  27  32
HETATM   32  C   UNL     1      -5.124  -3.502 -34.723  1.00  0.00     0.081 C 
HETATM   33  C   UNL     1      -6.446  -4.274 -34.716  1.00  0.00     0.032 C 
HETATM   34  C   UNL     1      -3.981  -4.344 -34.158  1.00  0.00     0.032 C 
ENDBRANCH  27  32
ENDBRANCH  22  23
ENDBRANCH  19  22
ENDBRANCH   1  18
TORSDOF 4
ENDMDL
MODEL 3
REMARK VINA RESULT:     -10.1      2.066      9.107
REMARK  4 active torsions:
REMARK  status: ('A' for Active; 'I' for Inactive)
REMARK    1  A    between atoms: C_2  and  N_3 
REMARK    2  A    between atoms: C_10  and  C_11 
REMARK    3  A    between atoms: C_11  and  C_12 
REMARK       I    between atoms: C_12  and  N_13 
REMARK    4  A    between atoms: N_13  and  C_14 
ROOT
HETATM    1  C   UNL     1      -3.397   3.757 -32.498  1.00  0.00     0.035 A 
HETATM    2  C   UNL     1      -3.129   2.400 -32.315  1.00  0.00     0.049 A 
HETATM    3  C   UNL     1      -4.154   1.432 -32.389  1.00  0.00     0.061 A 
HETATM    4  C   UNL     1      -5.470   1.832 -32.651  1.00  0.00     0.050 A 
HETATM    5  N   UNL     1      -6.569   0.982 -32.865  1.00  0.00    -0.324 N 
HETATM    6  C   UNL     1      -6.577  -0.268 -33.424  1.00  0.00     0.245 C 
HETATM    7  O   UNL     1      -7.669  -0.763 -33.717  1.00  0.00    -0.271 OA
HETATM    8  C   UNL     1      -5.247  -0.890 -33.844  1.00  0.00     0.180 C 
HETATM    9  N   UNL     1      -4.356  -1.004 -32.701  1.00  0.00    -0.334 N 
HETATM   10  C   UNL     1      -3.752   0.042 -32.049  1.00  0.00     0.256 C 
HETATM   11  O   UNL     1      -2.884  -0.133 -31.198  1.00  0.00    -0.267 OA
HETATM   12  C   UNL     1      -5.400  -2.329 -34.355  1.00  0.00     0.037 C 
HETATM   13  C   UNL     1      -4.135  -3.020 -33.863  1.00  0.00     0.022 C 
HETATM   14  C   UNL     1      -3.908  -2.372 -32.509  1.00  0.00     0.127 C 
HETATM   15  C   UNL     1      -5.749   3.205 -32.727  1.00  0.00     0.033 A 
HETATM   16  C   UNL     1      -4.724   4.155 -32.665  1.00  0.00     0.032 A 
HETATM   17  H   UNL     1      -7.501   1.380 -32.824  1.00  0.00     0.169 HD
ENDROOT
BRANCH   1  18
HETATM   18  N   UNL     1      -2.405   4.756 -32.593  1.00  0.00    -0.327 N 
HETATM   19  C   UNL     1      -1.846   5.274 -33.749  1.00  0.00     0.226 C 
HETATM   20  O   UNL     1      -1.952   4.788 -34.874  1.00  0.00    -0.273 OA
HETATM   21  H   UNL     1      -2.091   5.169 -31.721  1.00  0.00     0.169 HD
BRANCH  19  22
HETATM   22  C   UNL     1      -1.193   6.635 -33.571  1.00  0.00     0.144 C 
BRANCH  22  23
HETATM   23  C   UNL     1      -1.131   7.135 -32.163  1.00  0.00    -0.021 A 
HETATM   24  C   UNL     1      -0.438   6.539 -31.063  1.00  0.00    -0.001 A 
HETATM   25  C   UNL     1      -0.734   7.288 -29.919  1.00  0.00     0.045 A 
HETATM   26  C   UNL     1       0.404   5.411 -30.938  1.00  0.00     0.014 A 
HETATM   27  N   UNL     1      -1.604   8.291 -30.306  1.00  0.00    -0.351 N 
HETATM   28  C   UNL     1      -0.202   6.953 -28.661  1.00  0.00     0.030 A 
HETATM   29  C   UNL     1      -1.803   8.231 -31.664  1.00  0.00     0.100 A 
HETATM   30  C   UNL     1       0.636   5.839 -28.568  1.00  0.00     0.002 A 
HETATM   31  C   UNL     1       0.934   5.075 -29.690  1.00  0.00     0.001 A 
BRANCH  27  32
HETATM   32  C   UNL     1      -2.274   9.240 -29.415  1.00  0.00     0.081 C 
HETATM   33  C   UNL     1      -3.600   8.685 -28.888  1.00  0.00     0.032 C 
HETATM   34  C   UNL     1      -2.464  10.601 -30.083  1.00  0.00     0.032 C 
ENDBRANCH  27  32
ENDBRANCH  22  23
ENDBRANCH  19  22
ENDBRANCH   1  18
TORSDOF 4
ENDMDL
MODEL 4
REMARK VINA RESULT:     -10.1      2.248      9.511
REMARK  4 active torsions:
REMARK  status: ('A' for Active; 'I' for Inactive)
REMARK    1  A    between atoms: C_2  and  N_3 
REMARK    2  A    between atoms: C_10  and  C_11 
REMARK    3  A    between atoms: C_11  and  C_12 
REMARK       I    between atoms: C_12  and  N_13 
REMARK    4  A    between atoms: N_13  and  C_14 
ROOT
HETATM    1  C   UNL     1      -3.348   3.899 -31.575  1.00  0.00     0.035 A 
HETATM    2  C   UNL     1      -3.717   2.570 -31.785  1.00  0.00     0.049 A 
HETATM    3  C   UNL     1      -5.028   2.224 -32.177  1.00  0.00     0.061 A 
HETATM    4  C   UNL     1      -5.986   3.229 -32.361  1.00  0.00     0.050 A 
HETATM    5  N   UNL     1      -7.290   3.051 -32.856  1.00  0.00    -0.324 N 
HETATM    6  C   UNL     1      -7.736   2.119 -33.755  1.00  0.00     0.245 C 
HETATM    7  O   UNL     1      -8.870   2.262 -34.220  1.00  0.00    -0.271 OA
HETATM    8  C   UNL     1      -6.747   1.084 -34.286  1.00  0.00     0.180 C 
HETATM    9  N   UNL     1      -6.192   0.304 -33.192  1.00  0.00    -0.334 N 
HETATM   10  C   UNL     1      -5.317   0.768 -32.242  1.00  0.00     0.256 C 
HETATM   11  O   UNL     1      -4.759   0.016 -31.445  1.00  0.00    -0.267 OA
HETATM   12  C   UNL     1      -7.410   0.044 -35.199  1.00  0.00     0.037 C 
HETATM   13  C   UNL     1      -6.660  -1.242 -34.882  1.00  0.00     0.022 C 
HETATM   14  C   UNL     1      -6.406  -1.119 -33.390  1.00  0.00     0.127 C 
HETATM   15  C   UNL     1      -5.638   4.550 -32.045  1.00  0.00     0.033 A 
HETATM   16  C   UNL     1      -4.332   4.884 -31.670  1.00  0.00     0.032 A 
HETATM   17  H   UNL     1      -7.956   3.806 -32.736  1.00  0.00     0.169 HD
ENDROOT
BRANCH   1  18
HETATM   18  N   UNL     1      -2.025   4.328 -31.337  1.00  0.00    -0.327 N 
HETATM   19  C   UNL     1      -1.174   4.956 -32.232  1.00  0.00     0.226 C 
HETATM   20  O   UNL     1      -1.347   5.036 -33.446  1.00  0.00    -0.273 OA
HETATM   21  H   UNL     1      -1.667   4.196 -30.397  1.00  0.00     0.169 HD
BRANCH  19  22
HETATM   22  C   UNL     1      -0.035   5.721 -31.576  1.00  0.00     0.144 C 
BRANCH  22  23
HETATM   23  C   UNL     1      -0.406   6.494 -30.352  1.00  0.00    -0.021 A 
HETATM   24  C   UNL     1      -1.181   7.695 -30.289  1.00  0.00    -0.001 A 
HETATM   25  C   UNL     1      -1.196   8.121 -28.956  1.00  0.00     0.045 A 
HETATM   26  C   UNL     1      -1.859   8.469 -31.257  1.00  0.00     0.014 A 
HETATM   27  N   UNL     1      -0.429   7.224 -28.236  1.00  0.00    -0.351 N 
HETATM   28  C   UNL     1      -1.879   9.285 -28.562  1.00  0.00     0.030 A 
HETATM   29  C   UNL     1       0.004   6.217 -29.065  1.00  0.00     0.100 A 
HETATM   30  C   UNL     1      -2.549  10.026 -29.539  1.00  0.00     0.002 A 
HETATM   31  C   UNL     1      -2.539   9.627 -30.870  1.00  0.00     0.001 A 
BRANCH  27  32
HETATM   32  C   UNL     1      -0.065   7.342 -26.823  1.00  0.00     0.081 C 
HETATM   33  C   UNL     1       1.446   7.508 -26.638  1.00  0.00     0.032 C 
HETATM   34  C   UNL     1      -0.603   6.171 -26.002  1.00  0.00     0.032 C 
ENDBRANCH  27  32
ENDBRANCH  22  23
ENDBRANCH  19  22
ENDBRANCH   1  18
TORSDOF 4
ENDMDL
MODEL 5
REMARK VINA RESULT:     -10.0      2.370      9.127
REMARK  4 active torsions:
REMARK  status: ('A' for Active; 'I' for Inactive)
REMARK    1  A    between atoms: C_2  and  N_3 
REMARK    2  A    between atoms: C_10  and  C_11 
REMARK    3  A    between atoms: C_11  and  C_12 
REMARK       I    between atoms: C_12  and  N_13 
REMARK    4  A    between atoms: N_13  and  C_14 
ROOT
HETATM    1  C   UNL     1      -4.076   4.591 -33.011  1.00  0.00     0.035 A 
HETATM    2  C   UNL     1      -4.205   3.223 -32.769  1.00  0.00     0.049 A 
HETATM    3  C   UNL     1      -5.429   2.551 -32.977  1.00  0.00     0.061 A 
HETATM    4  C   UNL     1      -6.543   3.264 -33.436  1.00  0.00     0.050 A 
HETATM    5  N   UNL     1      -7.788   2.717 -33.795  1.00  0.00    -0.324 N 
HETATM    6  C   UNL     1      -8.050   1.484 -34.329  1.00  0.00     0.245 C 
HETATM    7  O   UNL     1      -9.182   1.274 -34.770  1.00  0.00    -0.271 OA
HETATM    8  C   UNL     1      -6.886   0.517 -34.539  1.00  0.00     0.180 C 
HETATM    9  N   UNL     1      -6.223   0.238 -33.276  1.00  0.00    -0.334 N 
HETATM   10  C   UNL     1      -5.460   1.125 -32.559  1.00  0.00     0.256 C 
HETATM   11  O   UNL     1      -4.794   0.778 -31.587  1.00  0.00    -0.267 OA
HETATM   12  C   UNL     1      -7.342  -0.859 -35.043  1.00  0.00     0.037 C 
HETATM   13  C   UNL     1      -6.386  -1.827 -34.360  1.00  0.00     0.022 C 
HETATM   14  C   UNL     1      -6.183  -1.187 -32.997  1.00  0.00     0.127 C 
HETATM   15  C   UNL     1      -6.436   4.656 -33.574  1.00  0.00     0.033 A 
HETATM   16  C   UNL     1      -5.215   5.310 -33.378  1.00  0.00     0.032 A 
HETATM   17  H   UNL     1      -8.577   3.345 -33.897  1.00  0.00     0.169 HD
ENDROOT
BRANCH   1  18
HETATM   18  N   UNL     1      -2.852   5.292 -32.976  1.00  0.00    -0.327 N 
HETATM   19  C   UNL     1      -2.102   5.722 -34.058  1.00  0.00     0.226 C 
HETATM   20  O   UNL     1      -2.257   5.362 -35.223  1.00  0.00    -0.273 OA
HETATM   21  H   UNL     1      -2.499   5.543 -32.059  1.00  0.00     0.169 HD
BRANCH  19  22
HETATM   22  C   UNL     1      -1.126   6.842 -33.734  1.00  0.00     0.144 C 
BRANCH  22  23
HETATM   23  C   UNL     1      -1.106   7.278 -32.305  1.00  0.00    -0.021 A 
HETATM   24  C   UNL     1      -0.459   6.624 -31.209  1.00  0.00    -0.001 A 
HETATM   25  C   UNL     1      -0.783   7.326 -30.043  1.00  0.00     0.045 A 
HETATM   26  C   UNL     1       0.361   5.478 -31.106  1.00  0.00     0.014 A 
HETATM   27  N   UNL     1      -1.624   8.359 -30.414  1.00  0.00    -0.351 N 
HETATM   28  C   UNL     1      -0.299   6.929 -28.785  1.00  0.00     0.030 A 
HETATM   29  C   UNL     1      -1.777   8.363 -31.780  1.00  0.00     0.100 A 
HETATM   30  C   UNL     1       0.518   5.797 -28.714  1.00  0.00     0.002 A 
HETATM   31  C   UNL     1       0.844   5.079 -29.858  1.00  0.00     0.001 A 
BRANCH  27  32
HETATM   32  C   UNL     1      -2.310   9.280 -29.505  1.00  0.00     0.081 C 
HETATM   33  C   UNL     1      -3.681   8.744 -29.083  1.00  0.00     0.032 C 
HETATM   34  C   UNL     1      -2.417  10.683 -30.100  1.00  0.00     0.032 C 
ENDBRANCH  27  32
ENDBRANCH  22  23
ENDBRANCH  19  22
ENDBRANCH   1  18
TORSDOF 4
ENDMDL
MODEL 6
REMARK VINA RESULT:      -9.7      5.348      8.851
REMARK  4 active torsions:
REMARK  status: ('A' for Active; 'I' for Inactive)
REMARK    1  A    between atoms: C_2  and  N_3 
REMARK    2  A    between atoms: C_10  and  C_11 
REMARK    3  A    between atoms: C_11  and  C_12 
REMARK       I    between atoms: C_12  and  N_13 
REMARK    4  A    between atoms: N_13  and  C_14 
ROOT
HETATM    1  C   UNL     1     -10.715   2.365 -34.544  1.00  0.00     0.035 A 
HETATM    2  C   UNL     1     -10.835   3.601 -33.907  1.00  0.00     0.049 A 
HETATM    3  C   UNL     1     -12.084   4.073 -33.448  1.00  0.00     0.061 A 
HETATM    4  C   UNL     1     -13.232   3.293 -33.634  1.00  0.00     0.050 A 
HETATM    5  N   UNL     1     -14.516   3.575 -33.137  1.00  0.00    -0.324 N 
HETATM    6  C   UNL     1     -14.853   4.237 -31.986  1.00  0.00     0.245 C 
HETATM    7  O   UNL     1     -16.031   4.197 -31.620  1.00  0.00    -0.271 OA
HETATM    8  C   UNL     1     -13.734   4.806 -31.116  1.00  0.00     0.180 C 
HETATM    9  N   UNL     1     -12.939   5.761 -31.871  1.00  0.00    -0.334 N 
HETATM   10  C   UNL     1     -12.089   5.455 -32.904  1.00  0.00     0.256 C 
HETATM   11  O   UNL     1     -11.325   6.287 -33.388  1.00  0.00    -0.267 OA
HETATM   12  C   UNL     1     -14.263   5.609 -29.920  1.00  0.00     0.037 C 
HETATM   13  C   UNL     1     -13.251   6.737 -29.770  1.00  0.00     0.022 C 
HETATM   14  C   UNL     1     -12.890   7.054 -31.210  1.00  0.00     0.127 C 
HETATM   15  C   UNL     1     -13.121   2.104 -34.370  1.00  0.00     0.033 A 
HETATM   16  C   UNL     1     -11.876   1.638 -34.807  1.00  0.00     0.032 A 
HETATM   17  H   UNL     1     -15.303   3.061 -33.518  1.00  0.00     0.169 HD
ENDROOT
BRANCH   1  18
HETATM   18  N   UNL     1      -9.484   1.765 -34.885  1.00  0.00    -0.327 N 
HETATM   19  C   UNL     1      -8.918   0.635 -34.316  1.00  0.00     0.226 C 
HETATM   20  O   UNL     1      -9.279   0.106 -33.268  1.00  0.00    -0.273 OA
HETATM   21  H   UNL     1      -8.973   2.181 -35.656  1.00  0.00     0.169 HD
BRANCH  19  22
HETATM   22  C   UNL     1      -7.872  -0.043 -35.187  1.00  0.00     0.144 C 
BRANCH  22  23
HETATM   23  C   UNL     1      -6.576  -0.348 -34.508  1.00  0.00    -0.021 A 
HETATM   24  C   UNL     1      -5.922  -1.617 -34.421  1.00  0.00    -0.001 A 
HETATM   25  C   UNL     1      -4.790  -1.458 -33.615  1.00  0.00     0.045 A 
HETATM   26  C   UNL     1      -6.208  -2.898 -34.946  1.00  0.00     0.014 A 
HETATM   27  N   UNL     1      -4.772  -0.139 -33.200  1.00  0.00    -0.351 N 
HETATM   28  C   UNL     1      -3.929  -2.533 -33.332  1.00  0.00     0.030 A 
HETATM   29  C   UNL     1      -5.816   0.542 -33.778  1.00  0.00     0.100 A 
HETATM   30  C   UNL     1      -4.231  -3.786 -33.871  1.00  0.00     0.002 A 
HETATM   31  C   UNL     1      -5.356  -3.969 -34.666  1.00  0.00     0.001 A 
BRANCH  27  32
HETATM   32  C   UNL     1      -3.834   0.449 -32.242  1.00  0.00     0.081 C 
HETATM   33  C   UNL     1      -4.147   0.021 -30.805  1.00  0.00     0.032 C 
HETATM   34  C   UNL     1      -3.775   1.970 -32.372  1.00  0.00     0.032 C 
ENDBRANCH  27  32
ENDBRANCH  22  23
ENDBRANCH  19  22
ENDBRANCH   1  18
TORSDOF 4
ENDMDL
MODEL 7
REMARK VINA RESULT:      -9.6      3.099      9.305
REMARK  4 active torsions:
REMARK  status: ('A' for Active; 'I' for Inactive)
REMARK    1  A    between atoms: C_2  and  N_3 
REMARK    2  A    between atoms: C_10  and  C_11 
REMARK    3  A    between atoms: C_11  and  C_12 
REMARK       I    between atoms: C_12  and  N_13 
REMARK    4  A    between atoms: N_13  and  C_14 
ROOT
HETATM    1  C   UNL     1      -7.048   4.758 -29.977  1.00  0.00     0.035 A 
HETATM    2  C   UNL     1      -6.401   3.565 -30.303  1.00  0.00     0.049 A 
HETATM    3  C   UNL     1      -7.126   2.413 -30.674  1.00  0.00     0.061 A 
HETATM    4  C   UNL     1      -8.525   2.457 -30.719  1.00  0.00     0.050 A 
HETATM    5  N   UNL     1      -9.373   1.433 -31.176  1.00  0.00    -0.324 N 
HETATM    6  C   UNL     1      -9.126   0.496 -32.144  1.00  0.00     0.245 C 
HETATM    7  O   UNL     1     -10.074  -0.182 -32.548  1.00  0.00    -0.271 OA
HETATM    8  C   UNL     1      -7.753   0.483 -32.815  1.00  0.00     0.180 C 
HETATM    9  N   UNL     1      -6.707   0.275 -31.827  1.00  0.00    -0.334 N 
HETATM   10  C   UNL     1      -6.319   1.180 -30.870  1.00  0.00     0.256 C 
HETATM   11  O   UNL     1      -5.321   1.008 -30.175  1.00  0.00    -0.267 OA
HETATM   12  C   UNL     1      -7.586  -0.683 -33.799  1.00  0.00     0.037 C 
HETATM   13  C   UNL     1      -6.124  -1.079 -33.640  1.00  0.00     0.022 C 
HETATM   14  C   UNL     1      -5.884  -0.875 -32.155  1.00  0.00     0.127 C 
HETATM   15  C   UNL     1      -9.171   3.625 -30.288  1.00  0.00     0.033 A 
HETATM   16  C   UNL     1      -8.443   4.765 -29.935  1.00  0.00     0.032 A 
HETATM   17  H   UNL     1     -10.361   1.493 -30.956  1.00  0.00     0.169 HD
ENDROOT
BRANCH   1  18
HETATM   18  N   UNL     1      -6.387   5.984 -29.751  1.00  0.00    -0.327 N 
HETATM   19  C   UNL     1      -5.521   6.289 -28.714  1.00  0.00     0.226 C 
HETATM   20  O   UNL     1      -5.366   5.622 -27.693  1.00  0.00    -0.273 OA
HETATM   21  H   UNL     1      -6.530   6.712 -30.443  1.00  0.00     0.169 HD
BRANCH  19  22
HETATM   22  C   UNL     1      -4.607   7.472 -28.992  1.00  0.00     0.144 C 
BRANCH  22  23
HETATM   23  C   UNL     1      -3.307   7.133 -29.648  1.00  0.00    -0.021 A 
HETATM   24  C   UNL     1      -1.992   7.393 -29.149  1.00  0.00    -0.001 A 
HETATM   25  C   UNL     1      -1.078   6.997 -30.132  1.00  0.00     0.045 A 
HETATM   26  C   UNL     1      -1.499   7.951 -27.948  1.00  0.00     0.014 A 
HETATM   27  N   UNL     1      -1.816   6.537 -31.207  1.00  0.00    -0.351 N 
HETATM   28  C   UNL     1       0.309   7.126 -29.943  1.00  0.00     0.030 A 
HETATM   29  C   UNL     1      -3.154   6.571 -30.898  1.00  0.00     0.100 A 
HETATM   30  C   UNL     1       0.769   7.672 -28.742  1.00  0.00     0.002 A 
HETATM   31  C   UNL     1      -0.121   8.082 -27.757  1.00  0.00     0.001 A 
BRANCH  27  32
HETATM   32  C   UNL     1      -1.280   6.134 -32.509  1.00  0.00     0.081 C 
HETATM   33  C   UNL     1      -1.542   7.194 -33.583  1.00  0.00     0.032 C 
HETATM   34  C   UNL     1      -1.806   4.764 -32.935  1.00  0.00     0.032 C 
ENDBRANCH  27  32
ENDBRANCH  22  23
ENDBRANCH  19  22
ENDBRANCH   1  18
TORSDOF 4
ENDMDL
MODEL 8
REMARK VINA RESULT:      -9.6      2.125      3.463
REMARK  4 active torsions:
REMARK  status: ('A' for Active; 'I' for Inactive)
REMARK    1  A    between atoms: C_2  and  N_3 
REMARK    2  A    between atoms: C_10  and  C_11 
REMARK    3  A    between atoms: C_11  and  C_12 
REMARK       I    between atoms: C_12  and  N_13 
REMARK    4  A    between atoms: N_13  and  C_14 
ROOT
HETATM    1  C   UNL     1      -6.033   3.335 -32.754  1.00  0.00     0.035 A 
HETATM    2  C   UNL     1      -4.662   3.446 -32.518  1.00  0.00     0.049 A 
HETATM    3  C   UNL     1      -4.051   4.701 -32.312  1.00  0.00     0.061 A 
HETATM    4  C   UNL     1      -4.829   5.866 -32.346  1.00  0.00     0.050 A 
HETATM    5  N   UNL     1      -4.386   7.167 -32.049  1.00  0.00    -0.324 N 
HETATM    6  C   UNL     1      -3.408   7.551 -31.171  1.00  0.00     0.245 C 
HETATM    7  O   UNL     1      -3.314   8.750 -30.898  1.00  0.00    -0.271 OA
HETATM    8  C   UNL     1      -2.630   6.468 -30.426  1.00  0.00     0.180 C 
HETATM    9  N   UNL     1      -1.956   5.588 -31.366  1.00  0.00    -0.334 N 
HETATM   10  C   UNL     1      -2.569   4.686 -32.198  1.00  0.00     0.256 C 
HETATM   11  O   UNL     1      -1.934   3.858 -32.847  1.00  0.00    -0.267 OA
HETATM   12  C   UNL     1      -1.499   7.041 -29.561  1.00  0.00     0.037 C 
HETATM   13  C   UNL     1      -0.397   5.995 -29.673  1.00  0.00     0.022 C 
HETATM   14  C   UNL     1      -0.527   5.529 -31.112  1.00  0.00     0.127 C 
HETATM   15  C   UNL     1      -6.183   5.756 -32.690  1.00  0.00     0.033 A 
HETATM   16  C   UNL     1      -6.782   4.505 -32.878  1.00  0.00     0.032 A 
HETATM   17  H   UNL     1      -4.974   7.948 -32.320  1.00  0.00     0.169 HD
ENDROOT
BRANCH   1  18
HETATM   18  N   UNL     1      -6.732   2.110 -32.812  1.00  0.00    -0.327 N 
HETATM   19  C   UNL     1      -6.966   1.331 -33.934  1.00  0.00     0.226 C 
HETATM   20  O   UNL     1      -6.806   1.690 -35.098  1.00  0.00    -0.273 OA
HETATM   21  H   UNL     1      -7.069   1.738 -31.931  1.00  0.00     0.169 HD
BRANCH  19  22
HETATM   22  C   UNL     1      -7.295  -0.121 -33.626  1.00  0.00     0.144 C 
BRANCH  22  23
HETATM   23  C   UNL     1      -6.126  -1.051 -33.605  1.00  0.00    -0.021 A 
HETATM   24  C   UNL     1      -6.059  -2.370 -34.154  1.00  0.00    -0.001 A 
HETATM   25  C   UNL     1      -4.810  -2.907 -33.820  1.00  0.00     0.045 A 
HETATM   26  C   UNL     1      -6.964  -3.165 -34.892  1.00  0.00     0.014 A 
HETATM   27  N   UNL     1      -4.150  -1.954 -33.067  1.00  0.00    -0.351 N 
HETATM   28  C   UNL     1      -4.436  -4.203 -34.215  1.00  0.00     0.030 A 
HETATM   29  C   UNL     1      -4.918  -0.818 -32.981  1.00  0.00     0.100 A 
HETATM   30  C   UNL     1      -5.347  -4.963 -34.953  1.00  0.00     0.002 A 
HETATM   31  C   UNL     1      -6.596  -4.454 -35.286  1.00  0.00     0.001 A 
BRANCH  27  32
HETATM   32  C   UNL     1      -2.858  -2.128 -32.398  1.00  0.00     0.081 C 
HETATM   33  C   UNL     1      -2.830  -3.397 -31.542  1.00  0.00     0.032 C 
HETATM   34  C   UNL     1      -2.475  -0.895 -31.583  1.00  0.00     0.032 C 
ENDBRANCH  27  32
ENDBRANCH  22  23
ENDBRANCH  19  22
ENDBRANCH   1  18
TORSDOF 4
ENDMDL
MODEL 9
REMARK VINA RESULT:      -9.4      2.029      3.394
REMARK  4 active torsions:
REMARK  status: ('A' for Active; 'I' for Inactive)
REMARK    1  A    between atoms: C_2  and  N_3 
REMARK    2  A    between atoms: C_10  and  C_11 
REMARK    3  A    between atoms: C_11  and  C_12 
REMARK       I    between atoms: C_12  and  N_13 
REMARK    4  A    between atoms: N_13  and  C_14 
ROOT
HETATM    1  C   UNL     1      -6.183   3.963 -32.197  1.00  0.00     0.035 A 
HETATM    2  C   UNL     1      -4.790   3.972 -32.286  1.00  0.00     0.049 A 
HETATM    3  C   UNL     1      -4.062   5.181 -32.297  1.00  0.00     0.061 A 
HETATM    4  C   UNL     1      -4.743   6.403 -32.217  1.00  0.00     0.050 A 
HETATM    5  N   UNL     1      -4.155   7.674 -32.104  1.00  0.00    -0.324 N 
HETATM    6  C   UNL     1      -2.975   8.012 -31.496  1.00  0.00     0.245 C 
HETATM    7  O   UNL     1      -2.737   9.210 -31.320  1.00  0.00    -0.271 OA
HETATM    8  C   UNL     1      -2.122   6.900 -30.888  1.00  0.00     0.180 C 
HETATM    9  N   UNL     1      -1.748   5.932 -31.907  1.00  0.00    -0.334 N 
HETATM   10  C   UNL     1      -2.599   5.050 -32.524  1.00  0.00     0.256 C 
HETATM   11  O   UNL     1      -2.191   4.150 -33.253  1.00  0.00    -0.267 OA
HETATM   12  C   UNL     1      -0.784   7.412 -30.339  1.00  0.00     0.037 C 
HETATM   13  C   UNL     1       0.186   6.277 -30.640  1.00  0.00     0.022 C 
HETATM   14  C   UNL     1      -0.307   5.767 -31.983  1.00  0.00     0.127 C 
HETATM   15  C   UNL     1      -6.145   6.389 -32.236  1.00  0.00     0.033 A 
HETATM   16  C   UNL     1      -6.856   5.185 -32.212  1.00  0.00     0.032 A 
HETATM   17  H   UNL     1      -4.733   8.489 -32.277  1.00  0.00     0.169 HD
ENDROOT
BRANCH   1  18
HETATM   18  N   UNL     1      -6.959   2.798 -32.024  1.00  0.00    -0.327 N 
HETATM   19  C   UNL     1      -7.478   1.982 -33.016  1.00  0.00     0.226 C 
HETATM   20  O   UNL     1      -7.546   2.266 -34.210  1.00  0.00    -0.273 OA
HETATM   21  H   UNL     1      -7.126   2.500 -31.068  1.00  0.00     0.169 HD
BRANCH  19  22
HETATM   22  C   UNL     1      -7.833   0.580 -32.548  1.00  0.00     0.144 C 
BRANCH  22  23
HETATM   23  C   UNL     1      -6.812  -0.470 -32.847  1.00  0.00    -0.021 A 
HETATM   24  C   UNL     1      -5.479  -0.551 -32.336  1.00  0.00    -0.001 A 
HETATM   25  C   UNL     1      -4.851  -1.638 -32.954  1.00  0.00     0.045 A 
HETATM   26  C   UNL     1      -4.742   0.222 -31.410  1.00  0.00     0.014 A 
HETATM   27  N   UNL     1      -5.766  -2.184 -33.836  1.00  0.00    -0.351 N 
HETATM   28  C   UNL     1      -3.520  -1.983 -32.664  1.00  0.00     0.030 A 
HETATM   29  C   UNL     1      -6.962  -1.515 -33.735  1.00  0.00     0.100 A 
HETATM   30  C   UNL     1      -2.818  -1.207 -31.738  1.00  0.00     0.002 A 
HETATM   31  C   UNL     1      -3.419  -0.117 -31.119  1.00  0.00     0.001 A 
BRANCH  27  32
HETATM   32  C   UNL     1      -5.503  -3.265 -34.788  1.00  0.00     0.081 C 
HETATM   33  C   UNL     1      -6.759  -4.099 -35.060  1.00  0.00     0.032 C 
HETATM   34  C   UNL     1      -4.336  -4.142 -34.338  1.00  0.00     0.032 C 
ENDBRANCH  27  32
ENDBRANCH  22  23
ENDBRANCH  19  22
ENDBRANCH   1  18
TORSDOF 4
ENDMDL
MODEL 10
REMARK VINA RESULT:      -9.2      5.355      8.347
REMARK  4 active torsions:
REMARK  status: ('A' for Active; 'I' for Inactive)
REMARK    1  A    between atoms: C_2  and  N_3 
REMARK    2  A    between atoms: C_10  and  C_11 
REMARK    3  A    between atoms: C_11  and  C_12 
REMARK       I    between atoms: C_12  and  N_13 
REMARK    4  A    between atoms: N_13  and  C_14 
ROOT
HETATM    1  C   UNL     1     -10.929   2.251 -34.296  1.00  0.00     0.035 A 
HETATM    2  C   UNL     1     -10.444   3.559 -34.339  1.00  0.00     0.049 A 
HETATM    3  C   UNL     1     -11.222   4.615 -34.861  1.00  0.00     0.061 A 
HETATM    4  C   UNL     1     -12.509   4.353 -35.348  1.00  0.00     0.050 A 
HETATM    5  N   UNL     1     -13.439   5.311 -35.790  1.00  0.00    -0.324 N 
HETATM    6  C   UNL     1     -13.597   6.601 -35.359  1.00  0.00     0.245 C 
HETATM    7  O   UNL     1     -14.606   7.212 -35.722  1.00  0.00    -0.271 OA
HETATM    8  C   UNL     1     -12.639   7.140 -34.299  1.00  0.00     0.180 C 
HETATM    9  N   UNL     1     -11.267   7.077 -34.775  1.00  0.00    -0.334 N 
HETATM   10  C   UNL     1     -10.538   5.929 -34.964  1.00  0.00     0.256 C 
HETATM   11  O   UNL     1      -9.334   5.954 -35.209  1.00  0.00    -0.267 OA
HETATM   12  C   UNL     1     -12.869   8.626 -33.993  1.00  0.00     0.037 C 
HETATM   13  C   UNL     1     -11.466   9.160 -33.734  1.00  0.00     0.022 C 
HETATM   14  C   UNL     1     -10.625   8.379 -34.728  1.00  0.00     0.127 C 
HETATM   15  C   UNL     1     -12.947   3.022 -35.400  1.00  0.00     0.033 A 
HETATM   16  C   UNL     1     -12.173   1.985 -34.868  1.00  0.00     0.032 A 
HETATM   17  H   UNL     1     -14.242   4.992 -36.322  1.00  0.00     0.169 HD
ENDROOT
BRANCH   1  18
HETATM   18  N   UNL     1     -10.272   1.182 -33.649  1.00  0.00    -0.327 N 
HETATM   19  C   UNL     1      -9.092   0.568 -34.036  1.00  0.00     0.226 C 
HETATM   20  O   UNL     1      -8.545   0.696 -35.129  1.00  0.00    -0.273 OA
HETATM   21  H   UNL     1     -10.687   0.849 -32.786  1.00  0.00     0.169 HD
BRANCH  19  22
HETATM   22  C   UNL     1      -8.388  -0.187 -32.919  1.00  0.00     0.144 C 
BRANCH  22  23
HETATM   23  C   UNL     1      -6.956  -0.524 -33.180  1.00  0.00    -0.021 A 
HETATM   24  C   UNL     1      -6.443  -1.710 -33.793  1.00  0.00    -0.001 A 
HETATM   25  C   UNL     1      -5.046  -1.644 -33.746  1.00  0.00     0.045 A 
HETATM   26  C   UNL     1      -7.050  -2.848 -34.370  1.00  0.00     0.014 A 
HETATM   27  N   UNL     1      -4.719  -0.468 -33.097  1.00  0.00    -0.351 N 
HETATM   28  C   UNL     1      -4.242  -2.671 -34.270  1.00  0.00     0.030 A 
HETATM   29  C   UNL     1      -5.865   0.232 -32.803  1.00  0.00     0.100 A 
HETATM   30  C   UNL     1      -4.868  -3.780 -34.843  1.00  0.00     0.002 A 
HETATM   31  C   UNL     1      -6.254  -3.871 -34.892  1.00  0.00     0.001 A 
BRANCH  27  32
HETATM   32  C   UNL     1      -3.372  -0.042 -32.714  1.00  0.00     0.081 C 
HETATM   33  C   UNL     1      -2.798  -0.914 -31.594  1.00  0.00     0.032 C 
HETATM   34  C   UNL     1      -3.333   1.440 -32.344  1.00  0.00     0.032 C 
ENDBRANCH  27  32
ENDBRANCH  22  23
ENDBRANCH  19  22
ENDBRANCH   1  18
TORSDOF 4
ENDMDL
