MODEL 1
REMARK VINA RESULT:      -8.2      0.000      0.000
REMARK  7 active torsions:
REMARK  status: ('A' for Active; 'I' for Inactive)
REMARK    1  A    between atoms: C_2  and  N_3 
REMARK    2  A    between atoms: N_3  and  C_4 
REMARK    3  A    between atoms: C_6  and  N_7 
REMARK    4  A    between atoms: N_7  and  C_8 
REMARK    5  A    between atoms: C_8  and  C_9 
REMARK    6  A    between atoms: C_9  and  C_10 
REMARK    7  A    between atoms: C_12  and  O_13 
ROOT
HETATM    1  C   UNL     1      -4.983  -0.805 -33.923  1.00  0.00     0.119 A 
HETATM    2  N   UNL     1      -5.981   0.065 -34.170  1.00  0.00    -0.207 NA
HETATM    3  C   UNL     1      -7.128  -0.405 -34.684  1.00  0.00     0.181 A 
HETATM    4  N   UNL     1      -7.325  -1.699 -34.920  1.00  0.00    -0.330 N 
HETATM    5  H   UNL     1      -8.243  -1.974 -35.244  1.00  0.00     0.168 HD
HETATM    6  C   UNL     1      -6.376  -2.609 -34.677  1.00  0.00     0.048 A 
HETATM    7  C   UNL     1      -5.138  -2.188 -34.157  1.00  0.00     0.031 A 
HETATM    8  C   UNL     1      -6.625  -3.967 -34.933  1.00  0.00     0.030 A 
HETATM    9  C   UNL     1      -5.641  -4.920 -34.673  1.00  0.00     0.002 A 
HETATM   10  C   UNL     1      -4.414  -4.527 -34.150  1.00  0.00     0.001 A 
HETATM   11  C   UNL     1      -4.163  -3.177 -33.890  1.00  0.00     0.017 A 
ENDROOT
BRANCH   3  12
HETATM   12  N   UNL     1      -8.192   0.440 -34.980  1.00  0.00    -0.262 NA
HETATM   13  H   UNL     1      -7.998   1.067 -35.757  1.00  0.00     0.130 HD
BRANCH  12  14
HETATM   14  C   UNL     1      -8.737   1.169 -33.824  1.00  0.00     0.100 C 
BRANCH  14  15
HETATM   15  C   UNL     1      -9.819   0.323 -33.140  1.00  0.00     0.053 C 
BRANCH  15  16
HETATM   16  C   UNL     1     -11.192   0.621 -33.687  1.00  0.00    -0.054 A 
HETATM   17  C   UNL     1     -11.391   1.707 -34.557  1.00  0.00     0.044 A 
HETATM   18  C   UNL     1     -12.665   1.999 -35.049  1.00  0.00     0.068 A 
HETATM   19  C   UNL     1     -13.746   1.202 -34.662  1.00  0.00     0.037 A 
HETATM   20  C   UNL     1     -13.560   0.124 -33.799  1.00  0.00     0.003 A 
HETATM   21  C   UNL     1     -12.287  -0.167 -33.310  1.00  0.00     0.007 A 
BRANCH  18  22
HETATM   22  O   UNL     1     -12.987   3.022 -35.896  1.00  0.00    -0.356 OA
HETATM   23  C   UNL     1     -12.675   4.342 -35.471  1.00  0.00     0.210 C 
ENDBRANCH  18  22
ENDBRANCH  15  16
ENDBRANCH  14  15
ENDBRANCH  12  14
ENDBRANCH   3  12
BRANCH   1  24
HETATM   24  N   UNL     1      -3.795  -0.329 -33.364  1.00  0.00    -0.273 NA
HETATM   25  H   UNL     1      -3.248   0.217 -34.026  1.00  0.00     0.129 HD
BRANCH  24  26
HETATM   26  C   UNL     1      -3.829   0.292 -32.034  1.00  0.00     0.053 C 
HETATM   27  C   UNL     1      -3.630   1.805 -32.134  1.00  0.00     0.026 C 
HETATM   28  C   UNL     1      -2.707  -0.328 -31.199  1.00  0.00     0.026 C 
ENDBRANCH  24  26
ENDBRANCH   1  24
TORSDOF 7
ENDMDL
MODEL 2
REMARK VINA RESULT:      -8.1      4.329      8.431
REMARK  7 active torsions:
REMARK  status: ('A' for Active; 'I' for Inactive)
REMARK    1  A    between atoms: C_2  and  N_3 
REMARK    2  A    between atoms: N_3  and  C_4 
REMARK    3  A    between atoms: C_6  and  N_7 
REMARK    4  A    between atoms: N_7  and  C_8 
REMARK    5  A    between atoms: C_8  and  C_9 
REMARK    6  A    between atoms: C_9  and  C_10 
REMARK    7  A    between atoms: C_12  and  O_13 
ROOT
HETATM    1  C   UNL     1      -6.414   0.503 -33.014  1.00  0.00     0.119 A 
HETATM    2  N   UNL     1      -5.481   1.274 -32.424  1.00  0.00    -0.207 NA
HETATM    3  C   UNL     1      -4.225   0.810 -32.340  1.00  0.00     0.181 A 
HETATM    4  N   UNL     1      -3.864  -0.364 -32.853  1.00  0.00    -0.330 N 
HETATM    5  H   UNL     1      -2.883  -0.605 -32.804  1.00  0.00     0.168 HD
HETATM    6  C   UNL     1      -4.743  -1.162 -33.465  1.00  0.00     0.048 A 
HETATM    7  C   UNL     1      -6.085  -0.751 -33.572  1.00  0.00     0.031 A 
HETATM    8  C   UNL     1      -4.322  -2.390 -33.998  1.00  0.00     0.030 A 
HETATM    9  C   UNL     1      -5.234  -3.223 -34.645  1.00  0.00     0.002 A 
HETATM   10  C   UNL     1      -6.564  -2.832 -34.770  1.00  0.00     0.001 A 
HETATM   11  C   UNL     1      -6.987  -1.609 -34.244  1.00  0.00     0.017 A 
ENDROOT
BRANCH   3  12
HETATM   12  N   UNL     1      -3.217   1.547 -31.727  1.00  0.00    -0.262 NA
HETATM   13  H   UNL     1      -2.974   1.198 -30.804  1.00  0.00     0.130 HD
BRANCH  12  14
HETATM   14  C   UNL     1      -3.442   3.001 -31.712  1.00  0.00     0.100 C 
BRANCH  14  15
HETATM   15  C   UNL     1      -2.765   3.644 -32.929  1.00  0.00     0.053 C 
BRANCH  15  16
HETATM   16  C   UNL     1      -1.874   4.794 -32.531  1.00  0.00    -0.054 A 
HETATM   17  C   UNL     1      -1.259   4.813 -31.266  1.00  0.00     0.044 A 
HETATM   18  C   UNL     1      -0.450   5.886 -30.887  1.00  0.00     0.068 A 
HETATM   19  C   UNL     1      -0.261   6.947 -31.775  1.00  0.00     0.037 A 
HETATM   20  C   UNL     1      -0.867   6.939 -33.030  1.00  0.00     0.003 A 
HETATM   21  C   UNL     1      -1.673   5.867 -33.408  1.00  0.00     0.007 A 
BRANCH  18  22
HETATM   22  O   UNL     1       0.199   6.022 -29.691  1.00  0.00    -0.356 OA
HETATM   23  C   UNL     1       0.393   7.342 -29.202  1.00  0.00     0.210 C 
ENDBRANCH  18  22
ENDBRANCH  15  16
ENDBRANCH  14  15
ENDBRANCH  12  14
ENDBRANCH   3  12
BRANCH   1  24
HETATM   24  N   UNL     1      -7.718   0.988 -33.129  1.00  0.00    -0.273 NA
HETATM   25  H   UNL     1      -8.098   0.856 -34.063  1.00  0.00     0.129 HD
BRANCH  24  26
HETATM   26  C   UNL     1      -8.698   0.661 -32.085  1.00  0.00     0.053 C 
HETATM   27  C   UNL     1      -9.955   0.040 -32.694  1.00  0.00     0.026 C 
HETATM   28  C   UNL     1      -9.054   1.958 -31.356  1.00  0.00     0.026 C 
ENDBRANCH  24  26
ENDBRANCH   1  24
TORSDOF 7
ENDMDL
MODEL 3
REMARK VINA RESULT:      -7.9      3.214      6.682
REMARK  7 active torsions:
REMARK  status: ('A' for Active; 'I' for Inactive)
REMARK    1  A    between atoms: C_2  and  N_3 
REMARK    2  A    between atoms: N_3  and  C_4 
REMARK    3  A    between atoms: C_6  and  N_7 
REMARK    4  A    between atoms: N_7  and  C_8 
REMARK    5  A    between atoms: C_8  and  C_9 
REMARK    6  A    between atoms: C_9  and  C_10 
REMARK    7  A    between atoms: C_12  and  O_13 
ROOT
HETATM    1  C   UNL     1      -6.478  -0.845 -33.958  1.00  0.00     0.119 A 
HETATM    2  N   UNL     1      -5.609   0.084 -33.518  1.00  0.00    -0.207 NA
HETATM    3  C   UNL     1      -4.346  -0.290 -33.260  1.00  0.00     0.181 A 
HETATM    4  N   UNL     1      -3.917  -1.534 -33.462  1.00  0.00    -0.330 N 
HETATM    5  H   UNL     1      -2.934  -1.713 -33.306  1.00  0.00     0.168 HD
HETATM    6  C   UNL     1      -4.731  -2.492 -33.915  1.00  0.00     0.048 A 
HETATM    7  C   UNL     1      -6.076  -2.178 -34.187  1.00  0.00     0.031 A 
HETATM    8  C   UNL     1      -4.239  -3.790 -34.121  1.00  0.00     0.030 A 
HETATM    9  C   UNL     1      -5.083  -4.791 -34.601  1.00  0.00     0.002 A 
HETATM   10  C   UNL     1      -6.414  -4.500 -34.886  1.00  0.00     0.001 A 
HETATM   11  C   UNL     1      -6.907  -3.208 -34.686  1.00  0.00     0.017 A 
ENDROOT
BRANCH   3  12
HETATM   12  N   UNL     1      -3.402   0.614 -32.785  1.00  0.00    -0.262 NA
HETATM   13  H   UNL     1      -2.446   0.336 -32.990  1.00  0.00     0.130 HD
BRANCH  12  14
HETATM   14  C   UNL     1      -3.563   0.981 -31.369  1.00  0.00     0.100 C 
BRANCH  14  15
HETATM   15  C   UNL     1      -4.416   2.250 -31.255  1.00  0.00     0.053 C 
BRANCH  15  16
HETATM   16  C   UNL     1      -4.064   3.259 -32.319  1.00  0.00    -0.054 A 
HETATM   17  C   UNL     1      -2.758   3.771 -32.408  1.00  0.00     0.044 A 
HETATM   18  C   UNL     1      -2.434   4.721 -33.380  1.00  0.00     0.068 A 
HETATM   19  C   UNL     1      -3.423   5.164 -34.260  1.00  0.00     0.037 A 
HETATM   20  C   UNL     1      -4.722   4.664 -34.178  1.00  0.00     0.003 A 
HETATM   21  C   UNL     1      -5.044   3.715 -33.210  1.00  0.00     0.007 A 
BRANCH  18  22
HETATM   22  O   UNL     1      -1.207   5.294 -33.568  1.00  0.00    -0.356 OA
HETATM   23  C   UNL     1      -1.164   6.706 -33.729  1.00  0.00     0.210 C 
ENDBRANCH  18  22
ENDBRANCH  15  16
ENDBRANCH  14  15
ENDBRANCH  12  14
ENDBRANCH   3  12
BRANCH   1  24
HETATM   24  N   UNL     1      -7.787  -0.459 -34.253  1.00  0.00    -0.273 NA
HETATM   25  H   UNL     1      -8.386  -1.254 -34.464  1.00  0.00     0.129 HD
BRANCH  24  26
HETATM   26  C   UNL     1      -8.457   0.520 -33.388  1.00  0.00     0.053 C 
HETATM   27  C   UNL     1      -9.731  -0.069 -32.784  1.00  0.00     0.026 C 
HETATM   28  C   UNL     1      -8.799   1.743 -34.241  1.00  0.00     0.026 C 
ENDBRANCH  24  26
ENDBRANCH   1  24
TORSDOF 7
ENDMDL
MODEL 4
REMARK VINA RESULT:      -7.7      2.491      5.430
REMARK  7 active torsions:
REMARK  status: ('A' for Active; 'I' for Inactive)
REMARK    1  A    between atoms: C_2  and  N_3 
REMARK    2  A    between atoms: N_3  and  C_4 
REMARK    3  A    between atoms: C_6  and  N_7 
REMARK    4  A    between atoms: N_7  and  C_8 
REMARK    5  A    between atoms: C_8  and  C_9 
REMARK    6  A    between atoms: C_9  and  C_10 
REMARK    7  A    between atoms: C_12  and  O_13 
ROOT
HETATM    1  C   UNL     1      -6.355  -0.884 -33.967  1.00  0.00     0.119 A 
HETATM    2  N   UNL     1      -5.484   0.015 -33.472  1.00  0.00    -0.207 NA
HETATM    3  C   UNL     1      -4.249  -0.398 -33.149  1.00  0.00     0.181 A 
HETATM    4  N   UNL     1      -3.847  -1.653 -33.337  1.00  0.00    -0.330 N 
HETATM    5  H   UNL     1      -2.880  -1.862 -33.129  1.00  0.00     0.168 HD
HETATM    6  C   UNL     1      -4.663  -2.583 -33.841  1.00  0.00     0.048 A 
HETATM    7  C   UNL     1      -5.981  -2.227 -34.184  1.00  0.00     0.031 A 
HETATM    8  C   UNL     1      -4.199  -3.894 -34.031  1.00  0.00     0.030 A 
HETATM    9  C   UNL     1      -5.045  -4.866 -34.565  1.00  0.00     0.002 A 
HETATM   10  C   UNL     1      -6.348  -4.533 -34.920  1.00  0.00     0.001 A 
HETATM   11  C   UNL     1      -6.814  -3.229 -34.736  1.00  0.00     0.017 A 
ENDROOT
BRANCH   3  12
HETATM   12  N   UNL     1      -3.306   0.473 -32.615  1.00  0.00    -0.262 NA
HETATM   13  H   UNL     1      -2.404   0.034 -32.453  1.00  0.00     0.130 HD
BRANCH  12  14
HETATM   14  C   UNL     1      -3.761   1.220 -31.432  1.00  0.00     0.100 C 
BRANCH  14  15
HETATM   15  C   UNL     1      -3.429   2.708 -31.597  1.00  0.00     0.053 C 
BRANCH  15  16
HETATM   16  C   UNL     1      -4.537   3.454 -32.298  1.00  0.00    -0.054 A 
HETATM   17  C   UNL     1      -5.856   3.386 -31.816  1.00  0.00     0.044 A 
HETATM   18  C   UNL     1      -6.888   4.059 -32.475  1.00  0.00     0.068 A 
HETATM   19  C   UNL     1      -6.598   4.797 -33.624  1.00  0.00     0.037 A 
HETATM   20  C   UNL     1      -5.293   4.870 -34.111  1.00  0.00     0.003 A 
HETATM   21  C   UNL     1      -4.264   4.200 -33.451  1.00  0.00     0.007 A 
BRANCH  18  22
HETATM   22  O   UNL     1      -8.205   4.070 -32.109  1.00  0.00    -0.356 OA
HETATM   23  C   UNL     1      -8.735   5.294 -31.620  1.00  0.00     0.210 C 
ENDBRANCH  18  22
ENDBRANCH  15  16
ENDBRANCH  14  15
ENDBRANCH  12  14
ENDBRANCH   3  12
BRANCH   1  24
HETATM   24  N   UNL     1      -7.634  -0.457 -34.330  1.00  0.00    -0.273 NA
HETATM   25  H   UNL     1      -8.244  -1.232 -34.578  1.00  0.00     0.129 HD
BRANCH  24  26
HETATM   26  C   UNL     1      -8.319   0.539 -33.496  1.00  0.00     0.053 C 
HETATM   27  C   UNL     1      -9.438  -0.111 -32.682  1.00  0.00     0.026 C 
HETATM   28  C   UNL     1      -8.900   1.606 -34.425  1.00  0.00     0.026 C 
ENDBRANCH  24  26
ENDBRANCH   1  24
TORSDOF 7
ENDMDL
MODEL 5
REMARK VINA RESULT:      -7.6     13.579     16.220
REMARK  7 active torsions:
REMARK  status: ('A' for Active; 'I' for Inactive)
REMARK    1  A    between atoms: C_2  and  N_3 
REMARK    2  A    between atoms: N_3  and  C_4 
REMARK    3  A    between atoms: C_6  and  N_7 
REMARK    4  A    between atoms: N_7  and  C_8 
REMARK    5  A    between atoms: C_8  and  C_9 
REMARK    6  A    between atoms: C_9  and  C_10 
REMARK    7  A    between atoms: C_12  and  O_13 
ROOT
HETATM    1  C   UNL     1      -5.420 -12.826 -37.179  1.00  0.00     0.119 A 
HETATM    2  N   UNL     1      -4.091 -12.650 -37.297  1.00  0.00    -0.207 NA
HETATM    3  C   UNL     1      -3.588 -12.347 -38.503  1.00  0.00     0.181 A 
HETATM    4  N   UNL     1      -4.361 -12.176 -39.573  1.00  0.00    -0.330 N 
HETATM    5  H   UNL     1      -3.906 -11.883 -40.428  1.00  0.00     0.168 HD
HETATM    6  C   UNL     1      -5.688 -12.320 -39.511  1.00  0.00     0.048 A 
HETATM    7  C   UNL     1      -6.285 -12.659 -38.282  1.00  0.00     0.031 A 
HETATM    8  C   UNL     1      -6.469 -12.125 -40.661  1.00  0.00     0.030 A 
HETATM    9  C   UNL     1      -7.855 -12.265 -40.598  1.00  0.00     0.002 A 
HETATM   10  C   UNL     1      -8.466 -12.591 -39.391  1.00  0.00     0.001 A 
HETATM   11  C   UNL     1      -7.693 -12.782 -38.243  1.00  0.00     0.017 A 
ENDROOT
BRANCH   3  12
HETATM   12  N   UNL     1      -2.223 -12.171 -38.700  1.00  0.00    -0.262 NA
HETATM   13  H   UNL     1      -2.006 -11.630 -39.533  1.00  0.00     0.130 HD
BRANCH  12  14
HETATM   14  C   UNL     1      -1.430 -13.409 -38.641  1.00  0.00     0.100 C 
BRANCH  14  15
HETATM   15  C   UNL     1      -0.632 -13.578 -39.940  1.00  0.00     0.053 C 
BRANCH  15  16
HETATM   16  C   UNL     1      -1.234 -14.634 -40.833  1.00  0.00    -0.054 A 
HETATM   17  C   UNL     1      -2.265 -14.304 -41.730  1.00  0.00     0.044 A 
HETATM   18  C   UNL     1      -2.838 -15.284 -42.544  1.00  0.00     0.068 A 
HETATM   19  C   UNL     1      -2.382 -16.600 -42.454  1.00  0.00     0.037 A 
HETATM   20  C   UNL     1      -1.361 -16.939 -41.566  1.00  0.00     0.003 A 
HETATM   21  C   UNL     1      -0.788 -15.959 -40.756  1.00  0.00     0.007 A 
BRANCH  18  22
HETATM   22  O   UNL     1      -3.843 -15.091 -43.451  1.00  0.00    -0.356 OA
HETATM   23  C   UNL     1      -5.065 -14.554 -42.965  1.00  0.00     0.210 C 
ENDBRANCH  18  22
ENDBRANCH  15  16
ENDBRANCH  14  15
ENDBRANCH  12  14
ENDBRANCH   3  12
BRANCH   1  24
HETATM   24  N   UNL     1      -5.955 -13.116 -35.922  1.00  0.00    -0.273 NA
HETATM   25  H   UNL     1      -6.755 -13.742 -35.978  1.00  0.00     0.129 HD
BRANCH  24  26
HETATM   26  C   UNL     1      -5.048 -13.479 -34.825  1.00  0.00     0.053 C 
HETATM   27  C   UNL     1      -4.998 -14.995 -34.640  1.00  0.00     0.026 C 
HETATM   28  C   UNL     1      -5.566 -12.812 -33.550  1.00  0.00     0.026 C 
ENDBRANCH  24  26
ENDBRANCH   1  24
TORSDOF 7
ENDMDL
MODEL 6
REMARK VINA RESULT:      -7.5     13.721     16.476
REMARK  7 active torsions:
REMARK  status: ('A' for Active; 'I' for Inactive)
REMARK    1  A    between atoms: C_2  and  N_3 
REMARK    2  A    between atoms: N_3  and  C_4 
REMARK    3  A    between atoms: C_6  and  N_7 
REMARK    4  A    between atoms: N_7  and  C_8 
REMARK    5  A    between atoms: C_8  and  C_9 
REMARK    6  A    between atoms: C_9  and  C_10 
REMARK    7  A    between atoms: C_12  and  O_13 
ROOT
HETATM    1  C   UNL     1      -5.935 -13.549 -37.036  1.00  0.00     0.119 A 
HETATM    2  N   UNL     1      -4.708 -13.045 -37.265  1.00  0.00    -0.207 NA
HETATM    3  C   UNL     1      -4.502 -12.345 -38.391  1.00  0.00     0.181 A 
HETATM    4  N   UNL     1      -5.475 -12.102 -39.266  1.00  0.00    -0.330 N 
HETATM    5  H   UNL     1      -5.248 -11.509 -40.053  1.00  0.00     0.168 HD
HETATM    6  C   UNL     1      -6.716 -12.562 -39.081  1.00  0.00     0.048 A 
HETATM    7  C   UNL     1      -7.002 -13.323 -37.932  1.00  0.00     0.031 A 
HETATM    8  C   UNL     1      -7.716 -12.278 -40.024  1.00  0.00     0.030 A 
HETATM    9  C   UNL     1      -9.014 -12.750 -39.830  1.00  0.00     0.002 A 
HETATM   10  C   UNL     1      -9.321 -13.495 -38.697  1.00  0.00     0.001 A 
HETATM   11  C   UNL     1      -8.330 -13.777 -37.754  1.00  0.00     0.017 A 
ENDROOT
BRANCH   3  12
HETATM   12  N   UNL     1      -3.254 -11.812 -38.699  1.00  0.00    -0.262 NA
HETATM   13  H   UNL     1      -3.091 -11.733 -39.699  1.00  0.00     0.130 HD
BRANCH  12  14
HETATM   14  C   UNL     1      -2.124 -12.465 -38.019  1.00  0.00     0.100 C 
BRANCH  14  15
HETATM   15  C   UNL     1      -1.245 -13.186 -39.049  1.00  0.00     0.053 C 
BRANCH  15  16
HETATM   16  C   UNL     1      -0.297 -14.158 -38.393  1.00  0.00    -0.054 A 
HETATM   17  C   UNL     1      -0.688 -14.865 -37.242  1.00  0.00     0.044 A 
HETATM   18  C   UNL     1       0.195 -15.751 -36.619  1.00  0.00     0.068 A 
HETATM   19  C   UNL     1       1.475 -15.925 -37.149  1.00  0.00     0.037 A 
HETATM   20  C   UNL     1       1.873 -15.228 -38.289  1.00  0.00     0.003 A 
HETATM   21  C   UNL     1       0.991 -14.346 -38.910  1.00  0.00     0.007 A 
BRANCH  18  22
HETATM   22  O   UNL     1      -0.063 -16.492 -35.500  1.00  0.00    -0.356 OA
HETATM   23  C   UNL     1       0.708 -16.211 -34.340  1.00  0.00     0.210 C 
ENDBRANCH  18  22
ENDBRANCH  15  16
ENDBRANCH  14  15
ENDBRANCH  12  14
ENDBRANCH   3  12
BRANCH   1  24
HETATM   24  N   UNL     1      -6.165 -14.257 -35.854  1.00  0.00    -0.273 NA
HETATM   25  H   UNL     1      -5.427 -14.928 -35.656  1.00  0.00     0.129 HD
BRANCH  24  26
HETATM   26  C   UNL     1      -6.579 -13.524 -34.651  1.00  0.00     0.053 C 
HETATM   27  C   UNL     1      -5.379 -12.860 -33.977  1.00  0.00     0.026 C 
HETATM   28  C   UNL     1      -7.229 -14.526 -33.695  1.00  0.00     0.026 C 
ENDBRANCH  24  26
ENDBRANCH   1  24
TORSDOF 7
ENDMDL
MODEL 7
REMARK VINA RESULT:      -7.4     13.476     15.007
REMARK  7 active torsions:
REMARK  status: ('A' for Active; 'I' for Inactive)
REMARK    1  A    between atoms: C_2  and  N_3 
REMARK    2  A    between atoms: N_3  and  C_4 
REMARK    3  A    between atoms: C_6  and  N_7 
REMARK    4  A    between atoms: N_7  and  C_8 
REMARK    5  A    between atoms: C_8  and  C_9 
REMARK    6  A    between atoms: C_9  and  C_10 
REMARK    7  A    between atoms: C_12  and  O_13 
ROOT
HETATM    1  C   UNL     1      -3.715 -13.018 -39.304  1.00  0.00     0.119 A 
HETATM    2  N   UNL     1      -4.473 -12.770 -38.220  1.00  0.00    -0.207 NA
HETATM    3  C   UNL     1      -3.968 -13.046 -37.007  1.00  0.00     0.181 A 
HETATM    4  N   UNL     1      -2.734 -13.518 -36.841  1.00  0.00    -0.330 N 
HETATM    5  H   UNL     1      -2.410 -13.634 -35.890  1.00  0.00     0.168 HD
HETATM    6  C   UNL     1      -1.931 -13.765 -37.881  1.00  0.00     0.048 A 
HETATM    7  C   UNL     1      -2.401 -13.519 -39.185  1.00  0.00     0.031 A 
HETATM    8  C   UNL     1      -0.635 -14.256 -37.663  1.00  0.00     0.030 A 
HETATM    9  C   UNL     1       0.209 -14.507 -38.745  1.00  0.00     0.002 A 
HETATM   10  C   UNL     1      -0.231 -14.262 -40.041  1.00  0.00     0.001 A 
HETATM   11  C   UNL     1      -1.520 -13.770 -40.262  1.00  0.00     0.017 A 
ENDROOT
BRANCH   3  12
HETATM   12  N   UNL     1      -4.703 -12.833 -35.846  1.00  0.00    -0.262 NA
HETATM   13  H   UNL     1      -4.125 -12.577 -35.050  1.00  0.00     0.130 HD
BRANCH  12  14
HETATM   14  C   UNL     1      -5.639 -13.916 -35.506  1.00  0.00     0.100 C 
BRANCH  14  15
HETATM   15  C   UNL     1      -7.079 -13.465 -35.784  1.00  0.00     0.053 C 
BRANCH  15  16
HETATM   16  C   UNL     1      -7.610 -14.049 -37.069  1.00  0.00    -0.054 A 
HETATM   17  C   UNL     1      -8.687 -13.438 -37.735  1.00  0.00     0.044 A 
HETATM   18  C   UNL     1      -9.196 -13.988 -38.915  1.00  0.00     0.068 A 
HETATM   19  C   UNL     1      -8.627 -15.158 -39.424  1.00  0.00     0.037 A 
HETATM   20  C   UNL     1      -7.560 -15.772 -38.769  1.00  0.00     0.003 A 
HETATM   21  C   UNL     1      -7.053 -15.221 -37.594  1.00  0.00     0.007 A 
BRANCH  18  22
HETATM   22  O   UNL     1     -10.234 -13.493 -39.653  1.00  0.00    -0.356 OA
HETATM   23  C   UNL     1     -10.102 -12.172 -40.161  1.00  0.00     0.210 C 
ENDBRANCH  18  22
ENDBRANCH  15  16
ENDBRANCH  14  15
ENDBRANCH  12  14
ENDBRANCH   3  12
BRANCH   1  24
HETATM   24  N   UNL     1      -4.223 -12.709 -40.568  1.00  0.00    -0.273 NA
HETATM   25  H   UNL     1      -3.487 -12.501 -41.239  1.00  0.00     0.129 HD
BRANCH  24  26
HETATM   26  C   UNL     1      -5.270 -13.561 -41.146  1.00  0.00     0.053 C 
HETATM   27  C   UNL     1      -4.869 -14.048 -42.538  1.00  0.00     0.026 C 
HETATM   28  C   UNL     1      -6.553 -12.732 -41.231  1.00  0.00     0.026 C 
ENDBRANCH  24  26
ENDBRANCH   1  24
TORSDOF 7
ENDMDL
MODEL 8
REMARK VINA RESULT:      -7.4      3.740      7.283
REMARK  7 active torsions:
REMARK  status: ('A' for Active; 'I' for Inactive)
REMARK    1  A    between atoms: C_2  and  N_3 
REMARK    2  A    between atoms: N_3  and  C_4 
REMARK    3  A    between atoms: C_6  and  N_7 
REMARK    4  A    between atoms: N_7  and  C_8 
REMARK    5  A    between atoms: C_8  and  C_9 
REMARK    6  A    between atoms: C_9  and  C_10 
REMARK    7  A    between atoms: C_12  and  O_13 
ROOT
HETATM    1  C   UNL     1      -2.887   4.752 -31.567  1.00  0.00     0.119 A 
HETATM    2  N   UNL     1      -2.484   3.468 -31.614  1.00  0.00    -0.207 NA
HETATM    3  C   UNL     1      -3.362   2.534 -32.011  1.00  0.00     0.181 A 
HETATM    4  N   UNL     1      -4.600   2.840 -32.395  1.00  0.00    -0.330 N 
HETATM    5  H   UNL     1      -5.173   2.083 -32.744  1.00  0.00     0.168 HD
HETATM    6  C   UNL     1      -5.047   4.099 -32.386  1.00  0.00     0.048 A 
HETATM    7  C   UNL     1      -4.188   5.129 -31.961  1.00  0.00     0.031 A 
HETATM    8  C   UNL     1      -6.357   4.380 -32.805  1.00  0.00     0.030 A 
HETATM    9  C   UNL     1      -6.825   5.694 -32.805  1.00  0.00     0.002 A 
HETATM   10  C   UNL     1      -5.989   6.729 -32.398  1.00  0.00     0.001 A 
HETATM   11  C   UNL     1      -4.684   6.454 -31.983  1.00  0.00     0.017 A 
ENDROOT
BRANCH   3  12
HETATM   12  N   UNL     1      -3.019   1.188 -32.065  1.00  0.00    -0.262 NA
HETATM   13  H   UNL     1      -3.053   0.805 -33.006  1.00  0.00     0.130 HD
BRANCH  12  14
HETATM   14  C   UNL     1      -3.742   0.332 -31.110  1.00  0.00     0.100 C 
BRANCH  14  15
HETATM   15  C   UNL     1      -3.888  -1.082 -31.687  1.00  0.00     0.053 C 
BRANCH  15  16
HETATM   16  C   UNL     1      -5.016  -1.166 -32.683  1.00  0.00    -0.054 A 
HETATM   17  C   UNL     1      -6.243  -0.529 -32.424  1.00  0.00     0.044 A 
HETATM   18  C   UNL     1      -7.297  -0.622 -33.335  1.00  0.00     0.068 A 
HETATM   19  C   UNL     1      -7.125  -1.363 -34.506  1.00  0.00     0.037 A 
HETATM   20  C   UNL     1      -5.914  -2.001 -34.772  1.00  0.00     0.003 A 
HETATM   21  C   UNL     1      -4.862  -1.905 -33.863  1.00  0.00     0.007 A 
BRANCH  18  22
HETATM   22  O   UNL     1      -8.532  -0.052 -33.199  1.00  0.00    -0.356 OA
HETATM   23  C   UNL     1      -8.838   0.550 -31.950  1.00  0.00     0.210 C 
ENDBRANCH  18  22
ENDBRANCH  15  16
ENDBRANCH  14  15
ENDBRANCH  12  14
ENDBRANCH   3  12
BRANCH   1  24
HETATM   24  N   UNL     1      -1.972   5.733 -31.179  1.00  0.00    -0.273 NA
HETATM   25  H   UNL     1      -1.796   5.722 -30.177  1.00  0.00     0.129 HD
BRANCH  24  26
HETATM   26  C   UNL     1      -0.735   5.904 -31.953  1.00  0.00     0.053 C 
HETATM   27  C   UNL     1       0.339   6.598 -31.116  1.00  0.00     0.026 C 
HETATM   28  C   UNL     1      -1.067   6.748 -33.184  1.00  0.00     0.026 C 
ENDBRANCH  24  26
ENDBRANCH   1  24
TORSDOF 7
ENDMDL
MODEL 9
REMARK VINA RESULT:      -7.4     13.309     14.621
REMARK  7 active torsions:
REMARK  status: ('A' for Active; 'I' for Inactive)
REMARK    1  A    between atoms: C_2  and  N_3 
REMARK    2  A    between atoms: N_3  and  C_4 
REMARK    3  A    between atoms: C_6  and  N_7 
REMARK    4  A    between atoms: N_7  and  C_8 
REMARK    5  A    between atoms: C_8  and  C_9 
REMARK    6  A    between atoms: C_9  and  C_10 
REMARK    7  A    between atoms: C_12  and  O_13 
ROOT
HETATM    1  C   UNL     1      -3.733 -12.924 -36.947  1.00  0.00     0.119 A 
HETATM    2  N   UNL     1      -4.609 -12.347 -37.790  1.00  0.00    -0.207 NA
HETATM    3  C   UNL     1      -4.316 -12.318 -39.099  1.00  0.00     0.181 A 
HETATM    4  N   UNL     1      -3.211 -12.873 -39.593  1.00  0.00    -0.330 N 
HETATM    5  H   UNL     1      -3.102 -12.864 -40.598  1.00  0.00     0.168 HD
HETATM    6  C   UNL     1      -2.315 -13.475 -38.805  1.00  0.00     0.048 A 
HETATM    7  C   UNL     1      -2.546 -13.525 -37.417  1.00  0.00     0.031 A 
HETATM    8  C   UNL     1      -1.166 -14.053 -39.365  1.00  0.00     0.030 A 
HETATM    9  C   UNL     1      -0.233 -14.690 -38.547  1.00  0.00     0.002 A 
HETATM   10  C   UNL     1      -0.446 -14.760 -37.174  1.00  0.00     0.001 A 
HETATM   11  C   UNL     1      -1.590 -14.188 -36.612  1.00  0.00     0.017 A 
ENDROOT
BRANCH   3  12
HETATM   12  N   UNL     1      -5.167 -11.721 -40.023  1.00  0.00    -0.262 NA
HETATM   13  H   UNL     1      -5.796 -11.042 -39.604  1.00  0.00     0.130 HD
BRANCH  12  14
HETATM   14  C   UNL     1      -5.892 -12.666 -40.888  1.00  0.00     0.100 C 
BRANCH  14  15
HETATM   15  C   UNL     1      -6.683 -13.658 -40.026  1.00  0.00     0.053 C 
BRANCH  15  16
HETATM   16  C   UNL     1      -8.170 -13.439 -40.144  1.00  0.00    -0.054 A 
HETATM   17  C   UNL     1      -9.024 -14.514 -40.451  1.00  0.00     0.044 A 
HETATM   18  C   UNL     1     -10.400 -14.311 -40.581  1.00  0.00     0.068 A 
HETATM   19  C   UNL     1     -10.921 -13.027 -40.410  1.00  0.00     0.037 A 
HETATM   20  C   UNL     1     -10.083 -11.954 -40.108  1.00  0.00     0.003 A 
HETATM   21  C   UNL     1      -8.711 -12.159 -39.976  1.00  0.00     0.007 A 
BRANCH  18  22
HETATM   22  O   UNL     1     -11.331 -15.268 -40.876  1.00  0.00    -0.356 OA
HETATM   23  C   UNL     1     -11.282 -15.847 -42.173  1.00  0.00     0.210 C 
ENDBRANCH  18  22
ENDBRANCH  15  16
ENDBRANCH  14  15
ENDBRANCH  12  14
ENDBRANCH   3  12
BRANCH   1  24
HETATM   24  N   UNL     1      -4.043 -12.982 -35.587  1.00  0.00    -0.273 NA
HETATM   25  H   UNL     1      -3.784 -12.129 -35.095  1.00  0.00     0.129 HD
BRANCH  24  26
HETATM   26  C   UNL     1      -5.362 -13.476 -35.173  1.00  0.00     0.053 C 
HETATM   27  C   UNL     1      -5.660 -13.087 -33.725  1.00  0.00     0.026 C 
HETATM   28  C   UNL     1      -5.357 -14.999 -35.316  1.00  0.00     0.026 C 
ENDBRANCH  24  26
ENDBRANCH   1  24
TORSDOF 7
ENDMDL
MODEL 10
REMARK VINA RESULT:      -7.3      4.424      8.782
REMARK  7 active torsions:
REMARK  status: ('A' for Active; 'I' for Inactive)
REMARK    1  A    between atoms: C_2  and  N_3 
REMARK    2  A    between atoms: N_3  and  C_4 
REMARK    3  A    between atoms: C_6  and  N_7 
REMARK    4  A    between atoms: N_7  and  C_8 
REMARK    5  A    between atoms: C_8  and  C_9 
REMARK    6  A    between atoms: C_9  and  C_10 
REMARK    7  A    between atoms: C_12  and  O_13 
ROOT
HETATM    1  C   UNL     1      -6.691   0.530 -33.192  1.00  0.00     0.119 A 
HETATM    2  N   UNL     1      -5.732   1.473 -33.263  1.00  0.00    -0.207 NA
HETATM    3  C   UNL     1      -6.102   2.754 -33.410  1.00  0.00     0.181 A 
HETATM    4  N   UNL     1      -7.380   3.125 -33.450  1.00  0.00    -0.330 N 
HETATM    5  H   UNL     1      -7.569   4.118 -33.495  1.00  0.00     0.168 HD
HETATM    6  C   UNL     1      -8.373   2.235 -33.365  1.00  0.00     0.048 A 
HETATM    7  C   UNL     1      -8.060   0.869 -33.230  1.00  0.00     0.031 A 
HETATM    8  C   UNL     1      -9.707   2.667 -33.404  1.00  0.00     0.030 A 
HETATM    9  C   UNL     1     -10.746   1.742 -33.307  1.00  0.00     0.002 A 
HETATM   10  C   UNL     1     -10.460   0.388 -33.164  1.00  0.00     0.001 A 
HETATM   11  C   UNL     1      -9.133  -0.047 -33.122  1.00  0.00     0.017 A 
ENDROOT
BRANCH   3  12
HETATM   12  N   UNL     1      -5.164   3.776 -33.510  1.00  0.00    -0.262 NA
HETATM   13  H   UNL     1      -4.663   3.772 -34.394  1.00  0.00     0.130 HD
BRANCH  12  14
HETATM   14  C   UNL     1      -4.241   3.874 -32.368  1.00  0.00     0.100 C 
BRANCH  14  15
HETATM   15  C   UNL     1      -2.802   3.632 -32.841  1.00  0.00     0.053 C 
BRANCH  15  16
HETATM   16  C   UNL     1      -1.895   4.783 -32.488  1.00  0.00    -0.054 A 
HETATM   17  C   UNL     1      -1.260   4.829 -31.234  1.00  0.00     0.044 A 
HETATM   18  C   UNL     1      -0.435   5.905 -30.895  1.00  0.00     0.068 A 
HETATM   19  C   UNL     1      -0.252   6.941 -31.813  1.00  0.00     0.037 A 
HETATM   20  C   UNL     1      -0.879   6.906 -33.058  1.00  0.00     0.003 A 
HETATM   21  C   UNL     1      -1.700   5.831 -33.396  1.00  0.00     0.007 A 
BRANCH  18  22
HETATM   22  O   UNL     1       0.234   6.066 -29.714  1.00  0.00    -0.356 OA
HETATM   23  C   UNL     1       0.371   7.390 -29.218  1.00  0.00     0.210 C 
ENDBRANCH  18  22
ENDBRANCH  15  16
ENDBRANCH  14  15
ENDBRANCH  12  14
ENDBRANCH   3  12
BRANCH   1  24
HETATM   24  N   UNL     1      -6.315  -0.803 -33.012  1.00  0.00    -0.273 NA
HETATM   25  H   UNL     1      -7.014  -1.335 -32.498  1.00  0.00     0.129 HD
BRANCH  24  26
HETATM   26  C   UNL     1      -5.780  -1.556 -34.154  1.00  0.00     0.053 C 
HETATM   27  C   UNL     1      -6.732  -2.682 -34.557  1.00  0.00     0.026 C 
HETATM   28  C   UNL     1      -4.428  -2.136 -33.739  1.00  0.00     0.026 C 
ENDBRANCH  24  26
ENDBRANCH   1  24
TORSDOF 7
ENDMDL
