MODEL 1
REMARK VINA RESULT:      -8.9      0.000      0.000
REMARK  6 active torsions:
REMARK  status: ('A' for Active; 'I' for Inactive)
REMARK    1  A    between atoms: O_2  and  C_3 
REMARK    2  A    between atoms: C_6  and  C_7 
REMARK    3  A    between atoms: C_13  and  C_14 
REMARK       I    between atoms: C_14  and  N_15 
REMARK    4  A    between atoms: N_15  and  C_16 
REMARK    5  A    between atoms: C_18  and  O_19 
REMARK    6  A    between atoms: C_24  and  C_25 
ROOT
HETATM    1  C   UNL     1      -6.911   1.279 -34.804  1.00  0.00     0.118 C 
HETATM    2  N   UNL     1      -6.023   2.312 -34.248  1.00  0.00    -0.365 N 
HETATM    3  C   UNL     1      -6.266   2.859 -33.022  1.00  0.00     0.138 A 
HETATM    4  N   UNL     1      -7.396   2.536 -32.307  1.00  0.00    -0.240 N 
HETATM    5  N   UNL     1      -7.547   3.244 -31.179  1.00  0.00    -0.181 NA
HETATM    6  C   UNL     1      -6.443   3.993 -31.137  1.00  0.00     0.160 A 
HETATM    7  C   UNL     1      -5.599   3.804 -32.260  1.00  0.00     0.096 A 
HETATM    8  C   UNL     1      -8.470   1.691 -32.795  1.00  0.00     0.221 C 
HETATM    9  C   UNL     1      -8.352   1.516 -34.319  1.00  0.00     0.066 C 
HETATM   10  H   UNL     1      -5.620   2.907 -34.974  1.00  0.00     0.161 HD
ENDROOT
BRANCH   7  11
HETATM   11  C   UNL     1      -4.349   4.508 -32.507  1.00  0.00     0.261 C 
HETATM   12  N   UNL     1      -3.704   4.926 -31.359  1.00  0.00    -0.323 N 
HETATM   13  H   UNL     1      -4.231   4.814 -30.501  1.00  0.00     0.169 HD
HETATM   14  O   UNL     1      -3.955   4.681 -33.654  1.00  0.00    -0.267 OA
BRANCH  12  15
HETATM   15  C   UNL     1      -2.413   5.483 -31.247  1.00  0.00     0.037 A 
HETATM   16  C   UNL     1      -1.239   4.727 -31.194  1.00  0.00     0.066 A 
HETATM   17  C   UNL     1      -0.007   5.363 -31.047  1.00  0.00     0.067 A 
HETATM   18  C   UNL     1       0.078   6.745 -30.941  1.00  0.00     0.036 A 
HETATM   19  C   UNL     1      -1.086   7.507 -30.995  1.00  0.00     0.005 A 
HETATM   20  C   UNL     1      -2.324   6.880 -31.153  1.00  0.00     0.029 A 
BRANCH  17  21
HETATM   21  O   UNL     1       1.156   4.651 -30.999  1.00  0.00    -0.361 OA
HETATM   22  H   UNL     1       0.935   3.704 -30.961  1.00  0.00     0.217 HD
ENDBRANCH  17  21
ENDBRANCH  12  15
ENDBRANCH   7  11
BRANCH   1  23
HETATM   23  C   UNL     1      -6.395  -0.134 -34.580  1.00  0.00    -0.035 A 
HETATM   24  C   UNL     1      -7.060  -1.274 -35.056  1.00  0.00     0.012 A 
HETATM   25  C   UNL     1      -6.517  -2.551 -34.875  1.00  0.00     0.037 A 
HETATM   26  C   UNL     1      -5.300  -2.720 -34.217  1.00  0.00     0.068 A 
HETATM   27  C   UNL     1      -4.657  -1.607 -33.685  1.00  0.00     0.037 A 
HETATM   28  C   UNL     1      -5.202  -0.329 -33.860  1.00  0.00     0.012 A 
BRANCH  26  29
HETATM   29  O   UNL     1      -4.853  -4.010 -34.136  1.00  0.00    -0.356 OA
HETATM   30  C   UNL     1      -3.605  -4.192 -33.476  1.00  0.00     0.210 C 
ENDBRANCH  26  29
ENDBRANCH   1  23
BRANCH   8  31
HETATM   31  C   UNL     1      -8.528   0.403 -32.007  1.00  0.00     0.409 C 
HETATM   32  F   UNL     1      -7.342   0.006 -31.511  1.00  0.00    -0.169 F 
HETATM   33  F   UNL     1      -9.390   0.487 -30.967  1.00  0.00    -0.169 F 
HETATM   34  F   UNL     1      -8.989  -0.603 -32.796  1.00  0.00    -0.169 F 
ENDBRANCH   8  31
TORSDOF 6
ENDMDL
MODEL 2
REMARK VINA RESULT:      -8.9      3.787      7.345
REMARK  6 active torsions:
REMARK  status: ('A' for Active; 'I' for Inactive)
REMARK    1  A    between atoms: O_2  and  C_3 
REMARK    2  A    between atoms: C_6  and  C_7 
REMARK    3  A    between atoms: C_13  and  C_14 
REMARK       I    between atoms: C_14  and  N_15 
REMARK    4  A    between atoms: N_15  and  C_16 
REMARK    5  A    between atoms: C_18  and  O_19 
REMARK    6  A    between atoms: C_24  and  C_25 
ROOT
HETATM    1  C   UNL     1      -6.316   0.356 -30.576  1.00  0.00     0.118 C 
HETATM    2  N   UNL     1      -7.536   1.070 -30.983  1.00  0.00    -0.365 N 
HETATM    3  C   UNL     1      -7.483   2.370 -31.392  1.00  0.00     0.138 A 
HETATM    4  N   UNL     1      -6.309   3.086 -31.347  1.00  0.00    -0.240 N 
HETATM    5  N   UNL     1      -6.447   4.380 -31.670  1.00  0.00    -0.181 NA
HETATM    6  C   UNL     1      -7.737   4.477 -31.999  1.00  0.00     0.160 A 
HETATM    7  C   UNL     1      -8.444   3.258 -31.846  1.00  0.00     0.096 A 
HETATM    8  C   UNL     1      -5.064   2.597 -30.786  1.00  0.00     0.221 C 
HETATM    9  C   UNL     1      -5.325   1.343 -29.934  1.00  0.00     0.066 C 
HETATM   10  H   UNL     1      -8.358   0.756 -30.466  1.00  0.00     0.161 HD
ENDROOT
BRANCH   7  11
HETATM   11  C   UNL     1      -9.867   3.068 -32.092  1.00  0.00     0.261 C 
HETATM   12  N   UNL     1     -10.145   2.263 -33.180  1.00  0.00    -0.323 N 
HETATM   13  H   UNL     1      -9.345   2.013 -33.749  1.00  0.00     0.169 HD
HETATM   14  O   UNL     1     -10.696   3.598 -31.362  1.00  0.00    -0.267 OA
BRANCH  12  15
HETATM   15  C   UNL     1     -11.399   1.759 -33.583  1.00  0.00     0.037 A 
HETATM   16  C   UNL     1     -11.888   0.502 -33.215  1.00  0.00     0.066 A 
HETATM   17  C   UNL     1     -13.126   0.070 -33.692  1.00  0.00     0.067 A 
HETATM   18  C   UNL     1     -13.885   0.867 -34.539  1.00  0.00     0.036 A 
HETATM   19  C   UNL     1     -13.407   2.121 -34.909  1.00  0.00     0.005 A 
HETATM   20  C   UNL     1     -12.173   2.567 -34.428  1.00  0.00     0.029 A 
BRANCH  17  21
HETATM   21  O   UNL     1     -13.632  -1.148 -33.344  1.00  0.00    -0.361 OA
HETATM   22  H   UNL     1     -14.468  -1.009 -32.866  1.00  0.00     0.217 HD
ENDBRANCH  17  21
ENDBRANCH  12  15
ENDBRANCH   7  11
BRANCH   1  23
HETATM   23  C   UNL     1      -5.724  -0.497 -31.687  1.00  0.00    -0.035 A 
HETATM   24  C   UNL     1      -4.457  -1.094 -31.600  1.00  0.00     0.012 A 
HETATM   25  C   UNL     1      -3.979  -1.918 -32.626  1.00  0.00     0.037 A 
HETATM   26  C   UNL     1      -4.752  -2.165 -33.758  1.00  0.00     0.068 A 
HETATM   27  C   UNL     1      -5.985  -1.534 -33.889  1.00  0.00     0.037 A 
HETATM   28  C   UNL     1      -6.462  -0.704 -32.867  1.00  0.00     0.012 A 
BRANCH  26  29
HETATM   29  O   UNL     1      -4.194  -3.016 -34.673  1.00  0.00    -0.356 OA
HETATM   30  C   UNL     1      -3.845  -4.307 -34.185  1.00  0.00     0.210 C 
ENDBRANCH  26  29
ENDBRANCH   1  23
BRANCH   8  31
HETATM   31  C   UNL     1      -4.027   2.426 -31.873  1.00  0.00     0.409 C 
HETATM   32  F   UNL     1      -3.049   1.553 -31.569  1.00  0.00    -0.169 F 
HETATM   33  F   UNL     1      -4.581   2.019 -33.038  1.00  0.00    -0.169 F 
HETATM   34  F   UNL     1      -3.431   3.619 -32.137  1.00  0.00    -0.169 F 
ENDBRANCH   8  31
TORSDOF 6
ENDMDL
MODEL 3
REMARK VINA RESULT:      -8.8      4.337      8.026
REMARK  6 active torsions:
REMARK  status: ('A' for Active; 'I' for Inactive)
REMARK    1  A    between atoms: O_2  and  C_3 
REMARK    2  A    between atoms: C_6  and  C_7 
REMARK    3  A    between atoms: C_13  and  C_14 
REMARK       I    between atoms: C_14  and  N_15 
REMARK    4  A    between atoms: N_15  and  C_16 
REMARK    5  A    between atoms: C_18  and  O_19 
REMARK    6  A    between atoms: C_24  and  C_25 
ROOT
HETATM    1  C   UNL     1      -7.748   0.868 -31.785  1.00  0.00     0.118 C 
HETATM    2  N   UNL     1      -8.936   1.424 -32.451  1.00  0.00    -0.365 N 
HETATM    3  C   UNL     1      -8.891   2.642 -33.064  1.00  0.00     0.138 A 
HETATM    4  N   UNL     1      -7.766   3.432 -32.998  1.00  0.00    -0.240 N 
HETATM    5  N   UNL     1      -7.921   4.645 -33.549  1.00  0.00    -0.181 NA
HETATM    6  C   UNL     1      -9.160   4.601 -34.044  1.00  0.00     0.160 A 
HETATM    7  C   UNL     1      -9.824   3.379 -33.773  1.00  0.00     0.096 A 
HETATM    8  C   UNL     1      -6.584   3.125 -32.217  1.00  0.00     0.221 C 
HETATM    9  C   UNL     1      -6.895   2.010 -31.204  1.00  0.00     0.066 C 
HETATM   10  H   UNL     1      -9.804   1.143 -31.991  1.00  0.00     0.161 HD
ENDROOT
BRANCH   7  11
HETATM   11  C   UNL     1     -11.192   3.056 -34.154  1.00  0.00     0.261 C 
HETATM   12  N   UNL     1     -11.922   2.440 -33.156  1.00  0.00    -0.323 N 
HETATM   13  H   UNL     1     -11.391   2.169 -32.336  1.00  0.00     0.169 HD
HETATM   14  O   UNL     1     -11.603   3.335 -35.275  1.00  0.00    -0.267 OA
BRANCH  12  15
HETATM   15  C   UNL     1     -13.302   2.150 -33.148  1.00  0.00     0.037 A 
HETATM   16  C   UNL     1     -13.924   1.295 -34.062  1.00  0.00     0.066 A 
HETATM   17  C   UNL     1     -15.303   1.095 -34.000  1.00  0.00     0.067 A 
HETATM   18  C   UNL     1     -16.079   1.741 -33.047  1.00  0.00     0.036 A 
HETATM   19  C   UNL     1     -15.469   2.593 -32.131  1.00  0.00     0.005 A 
HETATM   20  C   UNL     1     -14.086   2.792 -32.177  1.00  0.00     0.029 A 
BRANCH  17  21
HETATM   21  O   UNL     1     -15.937   0.261 -34.875  1.00  0.00    -0.361 OA
HETATM   22  H   UNL     1     -16.715   0.723 -35.231  1.00  0.00     0.217 HD
ENDBRANCH  17  21
ENDBRANCH  12  15
ENDBRANCH   7  11
BRANCH   1  23
HETATM   23  C   UNL     1      -6.978  -0.111 -32.658  1.00  0.00    -0.035 A 
HETATM   24  C   UNL     1      -5.773  -0.708 -32.256  1.00  0.00     0.012 A 
HETATM   25  C   UNL     1      -5.130  -1.648 -33.070  1.00  0.00     0.037 A 
HETATM   26  C   UNL     1      -5.673  -2.013 -34.300  1.00  0.00     0.068 A 
HETATM   27  C   UNL     1      -6.835  -1.388 -34.741  1.00  0.00     0.037 A 
HETATM   28  C   UNL     1      -7.476  -0.443 -33.931  1.00  0.00     0.012 A 
BRANCH  26  29
HETATM   29  O   UNL     1      -4.975  -2.968 -34.987  1.00  0.00    -0.356 OA
HETATM   30  C   UNL     1      -4.113  -3.788 -34.206  1.00  0.00     0.210 C 
ENDBRANCH  26  29
ENDBRANCH   1  23
BRANCH   8  31
HETATM   31  C   UNL     1      -5.407   2.851 -33.126  1.00  0.00     0.409 C 
HETATM   32  F   UNL     1      -4.491   2.015 -32.604  1.00  0.00    -0.169 F 
HETATM   33  F   UNL     1      -5.798   2.330 -34.312  1.00  0.00    -0.169 F 
HETATM   34  F   UNL     1      -4.768   4.014 -33.420  1.00  0.00    -0.169 F 
ENDBRANCH   8  31
TORSDOF 6
ENDMDL
MODEL 4
REMARK VINA RESULT:      -8.1      2.577      7.882
REMARK  6 active torsions:
REMARK  status: ('A' for Active; 'I' for Inactive)
REMARK    1  A    between atoms: O_2  and  C_3 
REMARK    2  A    between atoms: C_6  and  C_7 
REMARK    3  A    between atoms: C_13  and  C_14 
REMARK       I    between atoms: C_14  and  N_15 
REMARK    4  A    between atoms: N_15  and  C_16 
REMARK    5  A    between atoms: C_18  and  O_19 
REMARK    6  A    between atoms: C_24  and  C_25 
ROOT
HETATM    1  C   UNL     1      -5.563   3.492 -30.729  1.00  0.00     0.118 C 
HETATM    2  N   UNL     1      -5.740   2.130 -31.256  1.00  0.00    -0.365 N 
HETATM    3  C   UNL     1      -6.593   1.885 -32.292  1.00  0.00     0.138 A 
HETATM    4  N   UNL     1      -7.386   2.880 -32.814  1.00  0.00    -0.240 N 
HETATM    5  N   UNL     1      -8.252   2.454 -33.745  1.00  0.00    -0.181 NA
HETATM    6  C   UNL     1      -7.953   1.159 -33.871  1.00  0.00     0.160 A 
HETATM    7  C   UNL     1      -6.927   0.736 -32.990  1.00  0.00     0.096 A 
HETATM    8  C   UNL     1      -7.483   4.226 -32.281  1.00  0.00     0.221 C 
HETATM    9  C   UNL     1      -6.879   4.278 -30.868  1.00  0.00     0.066 C 
HETATM   10  H   UNL     1      -5.639   1.419 -30.530  1.00  0.00     0.161 HD
ENDROOT
BRANCH   7  11
HETATM   11  C   UNL     1      -6.417  -0.623 -32.874  1.00  0.00     0.261 C 
HETATM   12  N   UNL     1      -6.577  -1.382 -34.017  1.00  0.00    -0.323 N 
HETATM   13  H   UNL     1      -7.139  -0.955 -34.745  1.00  0.00     0.169 HD
HETATM   14  O   UNL     1      -5.900  -1.001 -31.829  1.00  0.00    -0.267 OA
BRANCH  12  15
HETATM   15  C   UNL     1      -6.054  -2.664 -34.284  1.00  0.00     0.037 A 
HETATM   16  C   UNL     1      -4.762  -3.067 -33.934  1.00  0.00     0.066 A 
HETATM   17  C   UNL     1      -4.317  -4.345 -34.270  1.00  0.00     0.067 A 
HETATM   18  C   UNL     1      -5.135  -5.231 -34.960  1.00  0.00     0.036 A 
HETATM   19  C   UNL     1      -6.424  -4.839 -35.311  1.00  0.00     0.005 A 
HETATM   20  C   UNL     1      -6.883  -3.564 -34.969  1.00  0.00     0.029 A 
BRANCH  17  21
HETATM   21  O   UNL     1      -3.064  -4.769 -33.936  1.00  0.00    -0.361 OA
HETATM   22  H   UNL     1      -2.824  -4.373 -33.080  1.00  0.00     0.217 HD
ENDBRANCH  17  21
ENDBRANCH  12  15
ENDBRANCH   7  11
BRANCH   1  23
HETATM   23  C   UNL     1      -4.343   4.199 -31.300  1.00  0.00    -0.035 A 
HETATM   24  C   UNL     1      -3.962   5.494 -30.916  1.00  0.00     0.012 A 
HETATM   25  C   UNL     1      -2.798   6.081 -31.426  1.00  0.00     0.037 A 
HETATM   26  C   UNL     1      -1.991   5.392 -32.328  1.00  0.00     0.068 A 
HETATM   27  C   UNL     1      -2.385   4.132 -32.766  1.00  0.00     0.037 A 
HETATM   28  C   UNL     1      -3.552   3.546 -32.262  1.00  0.00     0.012 A 
BRANCH  26  29
HETATM   29  O   UNL     1      -0.862   6.054 -32.726  1.00  0.00    -0.356 OA
HETATM   30  C   UNL     1      -0.755   7.409 -32.301  1.00  0.00     0.210 C 
ENDBRANCH  26  29
ENDBRANCH   1  23
BRANCH   8  31
HETATM   31  C   UNL     1      -6.906   5.223 -33.260  1.00  0.00     0.409 C 
HETATM   32  F   UNL     1      -5.888   4.745 -33.998  1.00  0.00    -0.169 F 
HETATM   33  F   UNL     1      -7.843   5.686 -34.119  1.00  0.00    -0.169 F 
HETATM   34  F   UNL     1      -6.441   6.312 -32.592  1.00  0.00    -0.169 F 
ENDBRANCH   8  31
TORSDOF 6
ENDMDL
MODEL 5
REMARK VINA RESULT:      -8.0      2.579      4.277
REMARK  6 active torsions:
REMARK  status: ('A' for Active; 'I' for Inactive)
REMARK    1  A    between atoms: O_2  and  C_3 
REMARK    2  A    between atoms: C_6  and  C_7 
REMARK    3  A    between atoms: C_13  and  C_14 
REMARK       I    between atoms: C_14  and  N_15 
REMARK    4  A    between atoms: N_15  and  C_16 
REMARK    5  A    between atoms: C_18  and  O_19 
REMARK    6  A    between atoms: C_24  and  C_25 
ROOT
HETATM    1  C   UNL     1      -7.554   1.044 -31.193  1.00  0.00     0.118 C 
HETATM    2  N   UNL     1      -6.395   1.949 -31.250  1.00  0.00    -0.365 N 
HETATM    3  C   UNL     1      -5.239   1.570 -31.869  1.00  0.00     0.138 A 
HETATM    4  N   UNL     1      -5.084   0.299 -32.373  1.00  0.00    -0.240 N 
HETATM    5  N   UNL     1      -3.853   0.047 -32.843  1.00  0.00    -0.181 NA
HETATM    6  C   UNL     1      -3.225   1.216 -32.697  1.00  0.00     0.160 A 
HETATM    7  C   UNL     1      -4.032   2.211 -32.091  1.00  0.00     0.096 A 
HETATM    8  C   UNL     1      -6.048  -0.774 -32.223  1.00  0.00     0.221 C 
HETATM    9  C   UNL     1      -7.071  -0.416 -31.132  1.00  0.00     0.066 C 
HETATM   10  H   UNL     1      -6.331   2.548 -30.426  1.00  0.00     0.161 HD
ENDROOT
BRANCH   7  11
HETATM   11  C   UNL     1      -3.608   3.566 -31.772  1.00  0.00     0.261 C 
HETATM   12  N   UNL     1      -2.239   3.752 -31.818  1.00  0.00    -0.323 N 
HETATM   13  H   UNL     1      -1.692   2.907 -31.936  1.00  0.00     0.169 HD
HETATM   14  O   UNL     1      -4.438   4.425 -31.497  1.00  0.00    -0.267 OA
BRANCH  12  15
HETATM   15  C   UNL     1      -1.528   4.965 -31.721  1.00  0.00     0.037 A 
HETATM   16  C   UNL     1      -0.801   5.355 -30.592  1.00  0.00     0.066 A 
HETATM   17  C   UNL     1      -0.157   6.592 -30.572  1.00  0.00     0.067 A 
HETATM   18  C   UNL     1      -0.232   7.457 -31.656  1.00  0.00     0.036 A 
HETATM   19  C   UNL     1      -0.951   7.077 -32.785  1.00  0.00     0.005 A 
HETATM   20  C   UNL     1      -1.591   5.834 -32.820  1.00  0.00     0.029 A 
BRANCH  17  21
HETATM   21  O   UNL     1       0.565   6.996 -29.487  1.00  0.00    -0.361 OA
HETATM   22  H   UNL     1       1.486   7.140 -29.768  1.00  0.00     0.217 HD
ENDBRANCH  17  21
ENDBRANCH  12  15
ENDBRANCH   7  11
BRANCH   1  23
HETATM   23  C   UNL     1      -8.582   1.323 -32.279  1.00  0.00    -0.035 A 
HETATM   24  C   UNL     1      -9.736   0.544 -32.456  1.00  0.00     0.012 A 
HETATM   25  C   UNL     1     -10.683   0.874 -33.432  1.00  0.00     0.037 A 
HETATM   26  C   UNL     1     -10.501   1.985 -34.252  1.00  0.00     0.068 A 
HETATM   27  C   UNL     1      -9.334   2.733 -34.133  1.00  0.00     0.037 A 
HETATM   28  C   UNL     1      -8.383   2.401 -33.161  1.00  0.00     0.012 A 
BRANCH  26  29
HETATM   29  O   UNL     1     -11.512   2.228 -35.142  1.00  0.00    -0.356 OA
HETATM   30  C   UNL     1     -12.691   1.450 -34.967  1.00  0.00     0.210 C 
ENDBRANCH  26  29
ENDBRANCH   1  23
BRANCH   8  31
HETATM   31  C   UNL     1      -6.645  -1.138 -33.564  1.00  0.00     0.409 C 
HETATM   32  F   UNL     1      -7.902  -1.613 -33.497  1.00  0.00    -0.169 F 
HETATM   33  F   UNL     1      -6.657  -0.084 -34.412  1.00  0.00    -0.169 F 
HETATM   34  F   UNL     1      -5.887  -2.094 -34.165  1.00  0.00    -0.169 F 
ENDBRANCH   8  31
TORSDOF 6
ENDMDL
MODEL 6
REMARK VINA RESULT:      -7.9      2.929      4.583
REMARK  6 active torsions:
REMARK  status: ('A' for Active; 'I' for Inactive)
REMARK    1  A    between atoms: O_2  and  C_3 
REMARK    2  A    between atoms: C_6  and  C_7 
REMARK    3  A    between atoms: C_13  and  C_14 
REMARK       I    between atoms: C_14  and  N_15 
REMARK    4  A    between atoms: N_15  and  C_16 
REMARK    5  A    between atoms: C_18  and  O_19 
REMARK    6  A    between atoms: C_24  and  C_25 
ROOT
HETATM    1  C   UNL     1      -7.375   1.178 -30.816  1.00  0.00     0.118 C 
HETATM    2  N   UNL     1      -6.538   2.378 -30.656  1.00  0.00    -0.365 N 
HETATM    3  C   UNL     1      -5.319   2.467 -31.263  1.00  0.00     0.138 A 
HETATM    4  N   UNL     1      -4.790   1.407 -31.962  1.00  0.00    -0.240 N 
HETATM    5  N   UNL     1      -3.538   1.612 -32.397  1.00  0.00    -0.181 NA
HETATM    6  C   UNL     1      -3.287   2.869 -32.024  1.00  0.00     0.160 A 
HETATM    7  C   UNL     1      -4.357   3.462 -31.308  1.00  0.00     0.096 A 
HETATM    8  C   UNL     1      -5.391   0.089 -32.047  1.00  0.00     0.221 C 
HETATM    9  C   UNL     1      -6.479  -0.064 -30.971  1.00  0.00     0.066 C 
HETATM   10  H   UNL     1      -6.659   2.815 -29.742  1.00  0.00     0.161 HD
ENDROOT
BRANCH   7  11
HETATM   11  C   UNL     1      -4.357   4.805 -30.745  1.00  0.00     0.261 C 
HETATM   12  N   UNL     1      -3.116   5.412 -30.739  1.00  0.00    -0.323 N 
HETATM   13  H   UNL     1      -2.341   4.813 -31.000  1.00  0.00     0.169 HD
HETATM   14  O   UNL     1      -5.399   5.301 -30.332  1.00  0.00    -0.267 OA
BRANCH  12  15
HETATM   15  C   UNL     1      -2.810   6.749 -30.417  1.00  0.00     0.037 A 
HETATM   16  C   UNL     1      -3.445   7.855 -30.990  1.00  0.00     0.066 A 
HETATM   17  C   UNL     1      -3.051   9.145 -30.636  1.00  0.00     0.067 A 
HETATM   18  C   UNL     1      -2.024   9.356 -29.725  1.00  0.00     0.036 A 
HETATM   19  C   UNL     1      -1.387   8.262 -29.147  1.00  0.00     0.005 A 
HETATM   20  C   UNL     1      -1.782   6.965 -29.487  1.00  0.00     0.029 A 
BRANCH  17  21
HETATM   21  O   UNL     1      -3.657  10.243 -31.174  1.00  0.00    -0.361 OA
HETATM   22  H   UNL     1      -3.562  10.983 -30.549  1.00  0.00     0.217 HD
ENDBRANCH  17  21
ENDBRANCH  12  15
ENDBRANCH   7  11
BRANCH   1  23
HETATM   23  C   UNL     1      -8.435   1.329 -31.896  1.00  0.00    -0.035 A 
HETATM   24  C   UNL     1      -8.522   2.454 -32.729  1.00  0.00     0.012 A 
HETATM   25  C   UNL     1      -9.479   2.522 -33.749  1.00  0.00     0.037 A 
HETATM   26  C   UNL     1     -10.368   1.471 -33.960  1.00  0.00     0.068 A 
HETATM   27  C   UNL     1     -10.337   0.373 -33.105  1.00  0.00     0.037 A 
HETATM   28  C   UNL     1      -9.384   0.307 -32.081  1.00  0.00     0.012 A 
BRANCH  26  29
HETATM   29  O   UNL     1     -11.231   1.636 -35.008  1.00  0.00    -0.356 OA
HETATM   30  C   UNL     1     -12.584   1.270 -34.761  1.00  0.00     0.210 C 
ENDBRANCH  26  29
ENDBRANCH   1  23
BRANCH   8  31
HETATM   31  C   UNL     1      -5.847  -0.193 -33.461  1.00  0.00     0.409 C 
HETATM   32  F   UNL     1      -6.932  -0.984 -33.542  1.00  0.00    -0.169 F 
HETATM   33  F   UNL     1      -6.127   0.946 -34.136  1.00  0.00    -0.169 F 
HETATM   34  F   UNL     1      -4.851  -0.804 -34.155  1.00  0.00    -0.169 F 
ENDBRANCH   8  31
TORSDOF 6
ENDMDL
MODEL 7
REMARK VINA RESULT:      -7.8      4.265      9.554
REMARK  6 active torsions:
REMARK  status: ('A' for Active; 'I' for Inactive)
REMARK    1  A    between atoms: O_2  and  C_3 
REMARK    2  A    between atoms: C_6  and  C_7 
REMARK    3  A    between atoms: C_13  and  C_14 
REMARK       I    between atoms: C_14  and  N_15 
REMARK    4  A    between atoms: N_15  and  C_16 
REMARK    5  A    between atoms: C_18  and  O_19 
REMARK    6  A    between atoms: C_24  and  C_25 
ROOT
HETATM    1  C   UNL     1      -2.874   8.061 -31.052  1.00  0.00     0.118 C 
HETATM    2  N   UNL     1      -3.737   6.949 -31.479  1.00  0.00    -0.365 N 
HETATM    3  C   UNL     1      -3.201   5.776 -31.925  1.00  0.00     0.138 A 
HETATM    4  N   UNL     1      -1.842   5.627 -32.083  1.00  0.00    -0.240 N 
HETATM    5  N   UNL     1      -1.483   4.461 -32.640  1.00  0.00    -0.181 NA
HETATM    6  C   UNL     1      -2.645   3.818 -32.778  1.00  0.00     0.160 A 
HETATM    7  C   UNL     1      -3.759   4.583 -32.353  1.00  0.00     0.096 A 
HETATM    8  C   UNL     1      -0.867   6.686 -31.901  1.00  0.00     0.221 C 
HETATM    9  C   UNL     1      -1.572   8.053 -31.873  1.00  0.00     0.066 C 
HETATM   10  H   UNL     1      -4.609   7.275 -31.898  1.00  0.00     0.161 HD
ENDROOT
BRANCH   7  11
HETATM   11  C   UNL     1      -5.151   4.160 -32.418  1.00  0.00     0.261 C 
HETATM   12  N   UNL     1      -5.332   2.911 -32.979  1.00  0.00    -0.323 N 
HETATM   13  H   UNL     1      -4.504   2.499 -33.394  1.00  0.00     0.169 HD
HETATM   14  O   UNL     1      -6.039   4.891 -31.993  1.00  0.00    -0.267 OA
BRANCH  12  15
HETATM   15  C   UNL     1      -6.521   2.155 -33.039  1.00  0.00     0.037 A 
HETATM   16  C   UNL     1      -7.325   1.876 -31.930  1.00  0.00     0.066 A 
HETATM   17  C   UNL     1      -8.466   1.088 -32.078  1.00  0.00     0.067 A 
HETATM   18  C   UNL     1      -8.818   0.561 -33.314  1.00  0.00     0.036 A 
HETATM   19  C   UNL     1      -8.026   0.835 -34.424  1.00  0.00     0.005 A 
HETATM   20  C   UNL     1      -6.886   1.633 -34.289  1.00  0.00     0.029 A 
BRANCH  17  21
HETATM   21  O   UNL     1      -9.273   0.805 -31.014  1.00  0.00    -0.361 OA
HETATM   22  H   UNL     1      -8.826   1.101 -30.202  1.00  0.00     0.217 HD
ENDBRANCH  17  21
ENDBRANCH  12  15
ENDBRANCH   7  11
BRANCH   1  23
HETATM   23  C   UNL     1      -2.668   8.113 -29.546  1.00  0.00    -0.035 A 
HETATM   24  C   UNL     1      -3.242   7.185 -28.664  1.00  0.00     0.012 A 
HETATM   25  C   UNL     1      -2.976   7.238 -27.291  1.00  0.00     0.037 A 
HETATM   26  C   UNL     1      -2.134   8.217 -26.768  1.00  0.00     0.068 A 
HETATM   27  C   UNL     1      -1.604   9.182 -27.619  1.00  0.00     0.037 A 
HETATM   28  C   UNL     1      -1.874   9.133 -28.992  1.00  0.00     0.012 A 
BRANCH  26  29
HETATM   29  O   UNL     1      -1.921   8.145 -25.418  1.00  0.00    -0.356 OA
HETATM   30  C   UNL     1      -2.988   8.605 -24.597  1.00  0.00     0.210 C 
ENDBRANCH  26  29
ENDBRANCH   1  23
BRANCH   8  31
HETATM   31  C   UNL     1       0.010   6.395 -30.704  1.00  0.00     0.409 C 
HETATM   32  F   UNL     1       0.511   7.493 -30.109  1.00  0.00    -0.169 F 
HETATM   33  F   UNL     1      -0.649   5.688 -29.757  1.00  0.00    -0.169 F 
HETATM   34  F   UNL     1       1.066   5.625 -31.079  1.00  0.00    -0.169 F 
ENDBRANCH   8  31
TORSDOF 6
ENDMDL
MODEL 8
REMARK VINA RESULT:      -7.8      1.411      2.067
REMARK  6 active torsions:
REMARK  status: ('A' for Active; 'I' for Inactive)
REMARK    1  A    between atoms: O_2  and  C_3 
REMARK    2  A    between atoms: C_6  and  C_7 
REMARK    3  A    between atoms: C_13  and  C_14 
REMARK       I    between atoms: C_14  and  N_15 
REMARK    4  A    between atoms: N_15  and  C_16 
REMARK    5  A    between atoms: C_18  and  O_19 
REMARK    6  A    between atoms: C_24  and  C_25 
ROOT
HETATM    1  C   UNL     1      -6.708   1.552 -34.441  1.00  0.00     0.118 C 
HETATM    2  N   UNL     1      -5.805   2.374 -33.619  1.00  0.00    -0.365 N 
HETATM    3  C   UNL     1      -6.132   2.704 -32.336  1.00  0.00     0.138 A 
HETATM    4  N   UNL     1      -7.352   2.364 -31.800  1.00  0.00    -0.240 N 
HETATM    5  N   UNL     1      -7.566   2.861 -30.573  1.00  0.00    -0.181 NA
HETATM    6  C   UNL     1      -6.417   3.480 -30.290  1.00  0.00     0.160 A 
HETATM    7  C   UNL     1      -5.478   3.423 -31.350  1.00  0.00     0.096 A 
HETATM    8  C   UNL     1      -8.432   1.732 -32.535  1.00  0.00     0.221 C 
HETATM    9  C   UNL     1      -8.169   1.832 -34.048  1.00  0.00     0.066 C 
HETATM   10  H   UNL     1      -5.284   3.051 -34.178  1.00  0.00     0.161 HD
ENDROOT
BRANCH   7  11
HETATM   11  C   UNL     1      -4.157   4.037 -31.345  1.00  0.00     0.261 C 
HETATM   12  N   UNL     1      -4.180   5.415 -31.434  1.00  0.00    -0.323 N 
HETATM   13  H   UNL     1      -5.088   5.822 -31.624  1.00  0.00     0.169 HD
HETATM   14  O   UNL     1      -3.153   3.340 -31.262  1.00  0.00    -0.267 OA
BRANCH  12  15
HETATM   15  C   UNL     1      -3.097   6.308 -31.294  1.00  0.00     0.037 A 
HETATM   16  C   UNL     1      -3.177   7.678 -31.558  1.00  0.00     0.066 A 
HETATM   17  C   UNL     1      -2.043   8.480 -31.427  1.00  0.00     0.067 A 
HETATM   18  C   UNL     1      -0.823   7.938 -31.045  1.00  0.00     0.036 A 
HETATM   19  C   UNL     1      -0.733   6.575 -30.778  1.00  0.00     0.005 A 
HETATM   20  C   UNL     1      -1.866   5.765 -30.896  1.00  0.00     0.029 A 
BRANCH  17  21
HETATM   21  O   UNL     1      -2.093   9.822 -31.670  1.00  0.00    -0.361 OA
HETATM   22  H   UNL     1      -2.782   9.987 -32.337  1.00  0.00     0.217 HD
ENDBRANCH  17  21
ENDBRANCH  12  15
ENDBRANCH   7  11
BRANCH   1  23
HETATM   23  C   UNL     1      -6.330   0.079 -34.451  1.00  0.00    -0.035 A 
HETATM   24  C   UNL     1      -5.178  -0.419 -33.823  1.00  0.00     0.012 A 
HETATM   25  C   UNL     1      -4.902  -1.791 -33.810  1.00  0.00     0.037 A 
HETATM   26  C   UNL     1      -5.767  -2.696 -34.421  1.00  0.00     0.068 A 
HETATM   27  C   UNL     1      -6.882  -2.215 -35.101  1.00  0.00     0.037 A 
HETATM   28  C   UNL     1      -7.157  -0.842 -35.120  1.00  0.00     0.012 A 
BRANCH  26  29
HETATM   29  O   UNL     1      -5.412  -4.012 -34.309  1.00  0.00    -0.356 OA
HETATM   30  C   UNL     1      -5.970  -4.889 -35.281  1.00  0.00     0.210 C 
ENDBRANCH  26  29
ENDBRANCH   1  23
BRANCH   8  31
HETATM   31  C   UNL     1      -8.672   0.331 -32.020  1.00  0.00     0.409 C 
HETATM   32  F   UNL     1      -9.188  -0.511 -32.934  1.00  0.00    -0.169 F 
HETATM   33  F   UNL     1      -7.536  -0.233 -31.548  1.00  0.00    -0.169 F 
HETATM   34  F   UNL     1      -9.537   0.365 -30.972  1.00  0.00    -0.169 F 
ENDBRANCH   8  31
TORSDOF 6
ENDMDL
MODEL 9
REMARK VINA RESULT:      -7.7      2.798      7.884
REMARK  6 active torsions:
REMARK  status: ('A' for Active; 'I' for Inactive)
REMARK    1  A    between atoms: O_2  and  C_3 
REMARK    2  A    between atoms: C_6  and  C_7 
REMARK    3  A    between atoms: C_13  and  C_14 
REMARK       I    between atoms: C_14  and  N_15 
REMARK    4  A    between atoms: N_15  and  C_16 
REMARK    5  A    between atoms: C_18  and  O_19 
REMARK    6  A    between atoms: C_24  and  C_25 
ROOT
HETATM    1  C   UNL     1      -6.096   3.263 -30.771  1.00  0.00     0.118 C 
HETATM    2  N   UNL     1      -6.273   2.283 -31.854  1.00  0.00    -0.365 N 
HETATM    3  C   UNL     1      -7.380   2.314 -32.652  1.00  0.00     0.138 A 
HETATM    4  N   UNL     1      -8.409   3.195 -32.412  1.00  0.00    -0.240 N 
HETATM    5  N   UNL     1      -9.473   3.020 -33.210  1.00  0.00    -0.181 NA
HETATM    6  C   UNL     1      -9.082   2.042 -34.030  1.00  0.00     0.160 A 
HETATM    7  C   UNL     1      -7.785   1.553 -33.736  1.00  0.00     0.096 A 
HETATM    8  C   UNL     1      -8.484   4.088 -31.271  1.00  0.00     0.221 C 
HETATM    9  C   UNL     1      -7.468   3.660 -30.199  1.00  0.00     0.066 C 
HETATM   10  H   UNL     1      -5.863   1.376 -31.627  1.00  0.00     0.161 HD
ENDROOT
BRANCH   7  11
HETATM   11  C   UNL     1      -7.112   0.466 -34.434  1.00  0.00     0.261 C 
HETATM   12  N   UNL     1      -6.681  -0.551 -33.605  1.00  0.00    -0.323 N 
HETATM   13  H   UNL     1      -6.763  -0.364 -32.612  1.00  0.00     0.169 HD
HETATM   14  O   UNL     1      -6.973   0.507 -35.651  1.00  0.00    -0.267 OA
BRANCH  12  15
HETATM   15  C   UNL     1      -6.146  -1.801 -33.978  1.00  0.00     0.037 A 
HETATM   16  C   UNL     1      -6.895  -2.825 -34.567  1.00  0.00     0.066 A 
HETATM   17  C   UNL     1      -6.289  -4.044 -34.870  1.00  0.00     0.067 A 
HETATM   18  C   UNL     1      -4.948  -4.268 -34.587  1.00  0.00     0.036 A 
HETATM   19  C   UNL     1      -4.194  -3.255 -34.002  1.00  0.00     0.005 A 
HETATM   20  C   UNL     1      -4.789  -2.026 -33.705  1.00  0.00     0.029 A 
BRANCH  17  21
HETATM   21  O   UNL     1      -6.993  -5.058 -35.452  1.00  0.00    -0.361 OA
HETATM   22  H   UNL     1      -7.070  -4.872 -36.404  1.00  0.00     0.217 HD
ENDBRANCH  17  21
ENDBRANCH  12  15
ENDBRANCH   7  11
BRANCH   1  23
HETATM   23  C   UNL     1      -5.215   4.438 -31.168  1.00  0.00    -0.035 A 
HETATM   24  C   UNL     1      -4.707   4.608 -32.465  1.00  0.00     0.012 A 
HETATM   25  C   UNL     1      -3.948   5.737 -32.797  1.00  0.00     0.037 A 
HETATM   26  C   UNL     1      -3.680   6.718 -31.845  1.00  0.00     0.068 A 
HETATM   27  C   UNL     1      -4.124   6.536 -30.539  1.00  0.00     0.037 A 
HETATM   28  C   UNL     1      -4.878   5.405 -30.204  1.00  0.00     0.012 A 
BRANCH  26  29
HETATM   29  O   UNL     1      -2.962   7.791 -32.298  1.00  0.00    -0.356 OA
HETATM   30  C   UNL     1      -2.308   8.565 -31.298  1.00  0.00     0.210 C 
ENDBRANCH  26  29
ENDBRANCH   1  23
BRANCH   8  31
HETATM   31  C   UNL     1      -8.372   5.527 -31.719  1.00  0.00     0.409 C 
HETATM   32  F   UNL     1      -7.792   6.341 -30.819  1.00  0.00    -0.169 F 
HETATM   33  F   UNL     1      -7.675   5.642 -32.874  1.00  0.00    -0.169 F 
HETATM   34  F   UNL     1      -9.608   6.031 -31.976  1.00  0.00    -0.169 F 
ENDBRANCH   8  31
TORSDOF 6
ENDMDL
MODEL 10
REMARK VINA RESULT:      -7.7      4.038      7.251
REMARK  6 active torsions:
REMARK  status: ('A' for Active; 'I' for Inactive)
REMARK    1  A    between atoms: O_2  and  C_3 
REMARK    2  A    between atoms: C_6  and  C_7 
REMARK    3  A    between atoms: C_13  and  C_14 
REMARK       I    between atoms: C_14  and  N_15 
REMARK    4  A    between atoms: N_15  and  C_16 
REMARK    5  A    between atoms: C_18  and  O_19 
REMARK    6  A    between atoms: C_24  and  C_25 
ROOT
HETATM    1  C   UNL     1      -6.060   0.617 -30.619  1.00  0.00     0.118 C 
HETATM    2  N   UNL     1      -7.326   1.367 -30.625  1.00  0.00    -0.365 N 
HETATM    3  C   UNL     1      -7.380   2.647 -31.095  1.00  0.00     0.138 A 
HETATM    4  N   UNL     1      -6.241   3.312 -31.487  1.00  0.00    -0.240 N 
HETATM    5  N   UNL     1      -6.445   4.597 -31.811  1.00  0.00    -0.181 NA
HETATM    6  C   UNL     1      -7.767   4.737 -31.689  1.00  0.00     0.160 A 
HETATM    7  C   UNL     1      -8.413   3.557 -31.242  1.00  0.00     0.096 A 
HETATM    8  C   UNL     1      -4.893   2.792 -31.356  1.00  0.00     0.221 C 
HETATM    9  C   UNL     1      -4.883   1.585 -30.402  1.00  0.00     0.066 C 
HETATM   10  H   UNL     1      -7.932   1.110 -29.845  1.00  0.00     0.161 HD
ENDROOT
BRANCH   7  11
HETATM   11  C   UNL     1      -9.839   3.420 -30.982  1.00  0.00     0.261 C 
HETATM   12  N   UNL     1     -10.643   3.841 -32.024  1.00  0.00    -0.323 N 
HETATM   13  H   UNL     1     -10.159   4.313 -32.780  1.00  0.00     0.169 HD
HETATM   14  O   UNL     1     -10.231   2.960 -29.916  1.00  0.00    -0.267 OA
BRANCH  12  15
HETATM   15  C   UNL     1     -12.039   3.694 -32.153  1.00  0.00     0.037 A 
HETATM   16  C   UNL     1     -12.650   2.776 -33.013  1.00  0.00     0.066 A 
HETATM   17  C   UNL     1     -14.040   2.725 -33.102  1.00  0.00     0.067 A 
HETATM   18  C   UNL     1     -14.839   3.581 -32.354  1.00  0.00     0.036 A 
HETATM   19  C   UNL     1     -14.240   4.495 -31.493  1.00  0.00     0.005 A 
HETATM   20  C   UNL     1     -12.847   4.548 -31.389  1.00  0.00     0.029 A 
BRANCH  17  21
HETATM   21  O   UNL     1     -14.665   1.835 -33.927  1.00  0.00    -0.361 OA
HETATM   22  H   UNL     1     -15.088   1.152 -33.379  1.00  0.00     0.217 HD
ENDBRANCH  17  21
ENDBRANCH  12  15
ENDBRANCH   7  11
BRANCH   1  23
HETATM   23  C   UNL     1      -5.906  -0.304 -31.819  1.00  0.00    -0.035 A 
HETATM   24  C   UNL     1      -6.903  -0.462 -32.794  1.00  0.00     0.012 A 
HETATM   25  C   UNL     1      -6.691  -1.277 -33.912  1.00  0.00     0.037 A 
HETATM   26  C   UNL     1      -5.484  -1.950 -34.084  1.00  0.00     0.068 A 
HETATM   27  C   UNL     1      -4.507  -1.853 -33.098  1.00  0.00     0.037 A 
HETATM   28  C   UNL     1      -4.719  -1.043 -31.975  1.00  0.00     0.012 A 
BRANCH  26  29
HETATM   29  O   UNL     1      -5.381  -2.684 -35.234  1.00  0.00    -0.356 OA
HETATM   30  C   UNL     1      -5.902  -4.007 -35.172  1.00  0.00     0.210 C 
ENDBRANCH  26  29
ENDBRANCH   1  23
BRANCH   8  31
HETATM   31  C   UNL     1      -4.292   2.533 -32.719  1.00  0.00     0.409 C 
HETATM   32  F   UNL     1      -3.704   3.608 -33.275  1.00  0.00    -0.169 F 
HETATM   33  F   UNL     1      -3.371   1.543 -32.684  1.00  0.00    -0.169 F 
HETATM   34  F   UNL     1      -5.258   2.115 -33.579  1.00  0.00    -0.169 F 
ENDBRANCH   8  31
TORSDOF 6
ENDMDL
