MODEL 1
REMARK VINA RESULT:      -9.2      0.000      0.000
REMARK  5 active torsions:
REMARK  status: ('A' for Active; 'I' for Inactive)
REMARK    1  A    between atoms: C_8  and  C_9 
REMARK    2  A    between atoms: C_13  and  C_14 
REMARK    3  A    between atoms: C_14  and  O_15 
REMARK    4  A    between atoms: O_15  and  C_16 
REMARK    5  A    between atoms: C_27  and  N_28 
ROOT
HETATM    1  C   UNL     1     -12.076   0.474 -33.598  1.00  0.00     0.073 C 
HETATM    2  C   UNL     1     -11.931   1.636 -34.509  1.00  0.00     0.062 A 
HETATM    3  N   UNL     1     -12.649   1.704 -35.644  1.00  0.00    -0.177 NA
HETATM    4  N   UNL     1     -12.260   2.862 -36.215  1.00  0.00    -0.256 N 
HETATM    5  H   UNL     1     -12.669   3.132 -37.102  1.00  0.00     0.191 HD
HETATM    6  C   UNL     1     -11.344   3.532 -35.471  1.00  0.00     0.175 A 
HETATM    7  C   UNL     1     -11.092   2.764 -34.365  1.00  0.00     0.035 A 
HETATM    8  C   UNL     1     -10.104   3.210 -33.338  1.00  0.00     0.112 A 
HETATM    9  C   UNL     1      -9.602   4.623 -33.694  1.00  0.00     0.081 A 
HETATM   10  C   UNL     1      -8.755   5.253 -32.737  1.00  0.00     0.100 C 
HETATM   11  N   UNL     1      -8.091   5.792 -31.952  1.00  0.00    -0.191 NA
HETATM   12  C   UNL     1      -9.945   5.272 -34.841  1.00  0.00     0.140 A 
HETATM   13  O   UNL     1     -10.820   4.708 -35.786  1.00  0.00    -0.279 OA
ENDROOT
BRANCH   8  14
HETATM   14  C   UNL     1      -8.981   2.198 -33.197  1.00  0.00    -0.003 A 
HETATM   15  S   UNL     1      -8.506   1.650 -31.649  1.00  0.00    -0.098 SA
HETATM   16  C   UNL     1      -7.295   0.629 -32.295  1.00  0.00    -0.013 A 
HETATM   17  C   UNL     1      -6.460  -0.203 -31.377  1.00  0.00     0.057 C 
HETATM   18  C   UNL     1      -7.231   0.704 -33.678  1.00  0.00    -0.020 A 
HETATM   19  C   UNL     1      -8.218   1.610 -34.187  1.00  0.00     0.026 A 
BRANCH  18  20
HETATM   20  C   UNL     1      -6.273  -0.061 -34.551  1.00  0.00     0.215 C 
BRANCH  20  21
HETATM   21  O   UNL     1      -6.847  -1.313 -34.929  1.00  0.00    -0.347 OA
BRANCH  21  22
HETATM   22  C   UNL     1      -6.110  -2.438 -34.684  1.00  0.00     0.069 A 
HETATM   23  C   UNL     1      -6.488  -3.751 -34.980  1.00  0.00     0.040 A 
HETATM   24  C   UNL     1      -5.630  -4.811 -34.670  1.00  0.00     0.045 A 
HETATM   25  C   UNL     1      -4.403  -4.555 -34.070  1.00  0.00     0.116 A 
HETATM   26  F   UNL     1      -3.587  -5.575 -33.775  1.00  0.00    -0.206 F 
HETATM   27  C   UNL     1      -4.012  -3.256 -33.774  1.00  0.00     0.045 A 
HETATM   28  C   UNL     1      -4.869  -2.199 -34.083  1.00  0.00     0.040 A 
ENDBRANCH  21  22
ENDBRANCH  20  21
ENDBRANCH  18  20
ENDBRANCH   8  14
BRANCH  12  29
HETATM   29  N   UNL     1      -9.514   6.527 -35.208  1.00  0.00    -0.282 NA
HETATM   30  H   UNL     1      -8.776   6.555 -35.907  1.00  0.00     0.126 HD
HETATM   31  H   UNL     1      -9.324   7.119 -34.403  1.00  0.00     0.126 HD
ENDBRANCH  12  29
TORSDOF 5
ENDMDL
MODEL 2
REMARK VINA RESULT:      -8.5      4.825      6.591
REMARK  5 active torsions:
REMARK  status: ('A' for Active; 'I' for Inactive)
REMARK    1  A    between atoms: C_8  and  C_9 
REMARK    2  A    between atoms: C_13  and  C_14 
REMARK    3  A    between atoms: C_14  and  O_15 
REMARK    4  A    between atoms: O_15  and  C_16 
REMARK    5  A    between atoms: C_27  and  N_28 
ROOT
HETATM    1  C   UNL     1      -4.073   5.025 -35.408  1.00  0.00     0.073 C 
HETATM    2  C   UNL     1      -2.932   5.319 -34.507  1.00  0.00     0.062 A 
HETATM    3  N   UNL     1      -1.684   5.413 -34.998  1.00  0.00    -0.177 NA
HETATM    4  N   UNL     1      -0.919   5.670 -33.917  1.00  0.00    -0.256 N 
HETATM    5  H   UNL     1       0.081   5.778 -34.040  1.00  0.00     0.191 HD
HETATM    6  C   UNL     1      -1.644   5.764 -32.773  1.00  0.00     0.175 A 
HETATM    7  C   UNL     1      -2.950   5.527 -33.109  1.00  0.00     0.035 A 
HETATM    8  C   UNL     1      -4.018   5.538 -32.066  1.00  0.00     0.112 A 
HETATM    9  C   UNL     1      -3.407   5.964 -30.717  1.00  0.00     0.081 A 
HETATM   10  C   UNL     1      -4.322   6.160 -29.642  1.00  0.00     0.100 C 
HETATM   11  N   UNL     1      -5.058   6.356 -28.766  1.00  0.00    -0.191 NA
HETATM   12  C   UNL     1      -2.074   6.171 -30.531  1.00  0.00     0.140 A 
HETATM   13  O   UNL     1      -1.144   6.040 -31.577  1.00  0.00    -0.279 OA
ENDROOT
BRANCH   8  14
HETATM   14  C   UNL     1      -4.722   4.195 -32.003  1.00  0.00    -0.003 A 
HETATM   15  S   UNL     1      -6.429   4.117 -31.993  1.00  0.00    -0.098 SA
HETATM   16  C   UNL     1      -6.429   2.409 -31.911  1.00  0.00    -0.013 A 
HETATM   17  C   UNL     1      -7.728   1.668 -31.883  1.00  0.00     0.057 C 
HETATM   18  C   UNL     1      -5.146   1.886 -31.877  1.00  0.00    -0.020 A 
HETATM   19  C   UNL     1      -4.166   2.931 -31.939  1.00  0.00     0.026 A 
BRANCH  18  20
HETATM   20  C   UNL     1      -4.800   0.423 -31.799  1.00  0.00     0.215 C 
BRANCH  20  21
HETATM   21  O   UNL     1      -4.348  -0.043 -33.071  1.00  0.00    -0.347 OA
BRANCH  21  22
HETATM   22  C   UNL     1      -5.049  -1.065 -33.648  1.00  0.00     0.069 A 
HETATM   23  C   UNL     1      -6.397  -1.034 -34.014  1.00  0.00     0.040 A 
HETATM   24  C   UNL     1      -6.988  -2.160 -34.596  1.00  0.00     0.045 A 
HETATM   25  C   UNL     1      -6.229  -3.305 -34.812  1.00  0.00     0.116 A 
HETATM   26  F   UNL     1      -6.801  -4.380 -35.370  1.00  0.00    -0.206 F 
HETATM   27  C   UNL     1      -4.888  -3.348 -34.458  1.00  0.00     0.045 A 
HETATM   28  C   UNL     1      -4.299  -2.225 -33.876  1.00  0.00     0.040 A 
ENDBRANCH  21  22
ENDBRANCH  20  21
ENDBRANCH  18  20
ENDBRANCH   8  14
BRANCH  12  29
HETATM   29  N   UNL     1      -1.480   6.540 -29.344  1.00  0.00    -0.282 NA
HETATM   30  H   UNL     1      -0.865   7.348 -29.389  1.00  0.00     0.126 HD
HETATM   31  H   UNL     1      -1.065   5.748 -28.859  1.00  0.00     0.126 HD
ENDBRANCH  12  29
TORSDOF 5
ENDMDL
MODEL 3
REMARK VINA RESULT:      -8.4      6.539      8.457
REMARK  5 active torsions:
REMARK  status: ('A' for Active; 'I' for Inactive)
REMARK    1  A    between atoms: C_8  and  C_9 
REMARK    2  A    between atoms: C_13  and  C_14 
REMARK    3  A    between atoms: C_14  and  O_15 
REMARK    4  A    between atoms: O_15  and  C_16 
REMARK    5  A    between atoms: C_27  and  N_28 
ROOT
HETATM    1  C   UNL     1      -3.056  -0.453 -32.519  1.00  0.00     0.073 C 
HETATM    2  C   UNL     1      -4.530  -0.569 -32.643  1.00  0.00     0.062 A 
HETATM    3  N   UNL     1      -5.076  -1.588 -33.329  1.00  0.00    -0.177 NA
HETATM    4  N   UNL     1      -6.405  -1.370 -33.246  1.00  0.00    -0.256 N 
HETATM    5  H   UNL     1      -7.036  -2.018 -33.702  1.00  0.00     0.191 HD
HETATM    6  C   UNL     1      -6.710  -0.267 -32.516  1.00  0.00     0.175 A 
HETATM    7  C   UNL     1      -5.524   0.289 -32.120  1.00  0.00     0.035 A 
HETATM    8  C   UNL     1      -5.504   1.541 -31.306  1.00  0.00     0.112 A 
HETATM    9  C   UNL     1      -6.948   1.933 -30.940  1.00  0.00     0.081 A 
HETATM   10  C   UNL     1      -7.098   3.031 -30.044  1.00  0.00     0.100 C 
HETATM   11  N   UNL     1      -7.235   3.903 -29.290  1.00  0.00    -0.191 NA
HETATM   12  C   UNL     1      -8.044   1.275 -31.411  1.00  0.00     0.140 A 
HETATM   13  O   UNL     1      -7.939   0.155 -32.253  1.00  0.00    -0.279 OA
ENDROOT
BRANCH   8  14
HETATM   14  C   UNL     1      -4.754   2.643 -32.032  1.00  0.00    -0.003 A 
HETATM   15  S   UNL     1      -5.402   3.333 -33.456  1.00  0.00    -0.098 SA
HETATM   16  C   UNL     1      -4.075   4.395 -33.640  1.00  0.00    -0.013 A 
HETATM   17  C   UNL     1      -4.044   5.351 -34.788  1.00  0.00     0.057 C 
HETATM   18  C   UNL     1      -3.128   4.228 -32.641  1.00  0.00    -0.020 A 
HETATM   19  C   UNL     1      -3.538   3.216 -31.712  1.00  0.00     0.026 A 
BRANCH  18  20
HETATM   20  C   UNL     1      -1.843   5.002 -32.517  1.00  0.00     0.215 C 
BRANCH  20  21
HETATM   21  O   UNL     1      -1.034   4.447 -31.479  1.00  0.00    -0.347 OA
BRANCH  21  22
HETATM   22  C   UNL     1      -0.480   5.320 -30.585  1.00  0.00     0.069 A 
HETATM   23  C   UNL     1       0.387   4.988 -29.540  1.00  0.00     0.040 A 
HETATM   24  C   UNL     1       0.879   5.989 -28.697  1.00  0.00     0.045 A 
HETATM   25  C   UNL     1       0.507   7.313 -28.903  1.00  0.00     0.116 A 
HETATM   26  F   UNL     1       0.981   8.266 -28.092  1.00  0.00    -0.206 F 
HETATM   27  C   UNL     1      -0.350   7.657 -29.940  1.00  0.00     0.045 A 
HETATM   28  C   UNL     1      -0.841   6.658 -30.781  1.00  0.00     0.040 A 
ENDBRANCH  21  22
ENDBRANCH  20  21
ENDBRANCH  18  20
ENDBRANCH   8  14
BRANCH  12  29
HETATM   29  N   UNL     1      -9.352   1.594 -31.122  1.00  0.00    -0.282 NA
HETATM   30  H   UNL     1      -9.937   0.824 -30.805  1.00  0.00     0.126 HD
HETATM   31  H   UNL     1      -9.785   2.147 -31.858  1.00  0.00     0.126 HD
ENDBRANCH  12  29
TORSDOF 5
ENDMDL
MODEL 4
REMARK VINA RESULT:      -8.4      4.569      7.678
REMARK  5 active torsions:
REMARK  status: ('A' for Active; 'I' for Inactive)
REMARK    1  A    between atoms: C_8  and  C_9 
REMARK    2  A    between atoms: C_13  and  C_14 
REMARK    3  A    between atoms: C_14  and  O_15 
REMARK    4  A    between atoms: O_15  and  C_16 
REMARK    5  A    between atoms: C_27  and  N_28 
ROOT
HETATM    1  C   UNL     1      -5.852  -1.180 -33.595  1.00  0.00     0.073 C 
HETATM    2  C   UNL     1      -4.826  -0.612 -32.687  1.00  0.00     0.062 A 
HETATM    3  N   UNL     1      -4.105  -1.417 -31.888  1.00  0.00    -0.177 NA
HETATM    4  N   UNL     1      -3.298  -0.576 -31.208  1.00  0.00    -0.256 N 
HETATM    5  H   UNL     1      -2.654  -0.960 -30.527  1.00  0.00     0.191 HD
HETATM    6  C   UNL     1      -3.472   0.721 -31.568  1.00  0.00     0.175 A 
HETATM    7  C   UNL     1      -4.463   0.743 -32.511  1.00  0.00     0.035 A 
HETATM    8  C   UNL     1      -4.916   2.034 -33.110  1.00  0.00     0.112 A 
HETATM    9  C   UNL     1      -4.024   3.177 -32.589  1.00  0.00     0.081 A 
HETATM   10  C   UNL     1      -4.235   4.460 -33.172  1.00  0.00     0.100 C 
HETATM   11  N   UNL     1      -4.372   5.504 -33.661  1.00  0.00    -0.191 NA
HETATM   12  C   UNL     1      -3.063   3.003 -31.640  1.00  0.00     0.140 A 
HETATM   13  O   UNL     1      -2.787   1.745 -31.077  1.00  0.00    -0.279 OA
ENDROOT
BRANCH   8  14
HETATM   14  C   UNL     1      -6.393   2.262 -32.842  1.00  0.00    -0.003 A 
HETATM   15  S   UNL     1      -6.952   2.499 -31.244  1.00  0.00    -0.098 SA
HETATM   16  C   UNL     1      -8.576   2.664 -31.753  1.00  0.00    -0.013 A 
HETATM   17  C   UNL     1      -9.646   2.922 -30.742  1.00  0.00     0.057 C 
HETATM   18  C   UNL     1      -8.711   2.529 -33.125  1.00  0.00    -0.020 A 
HETATM   19  C   UNL     1      -7.438   2.304 -33.745  1.00  0.00     0.026 A 
BRANCH  18  20
HETATM   20  C   UNL     1     -10.006   2.614 -33.889  1.00  0.00     0.215 C 
BRANCH  20  21
HETATM   21  O   UNL     1     -10.652   1.341 -33.904  1.00  0.00    -0.347 OA
BRANCH  21  22
HETATM   22  C   UNL     1     -12.000   1.321 -33.679  1.00  0.00     0.069 A 
HETATM   23  C   UNL     1     -12.849   0.225 -33.859  1.00  0.00     0.040 A 
HETATM   24  C   UNL     1     -14.216   0.350 -33.590  1.00  0.00     0.045 A 
HETATM   25  C   UNL     1     -14.725   1.563 -33.141  1.00  0.00     0.116 A 
HETATM   26  F   UNL     1     -16.034   1.675 -32.886  1.00  0.00    -0.206 F 
HETATM   27  C   UNL     1     -13.893   2.658 -32.953  1.00  0.00     0.045 A 
HETATM   28  C   UNL     1     -12.529   2.534 -33.222  1.00  0.00     0.040 A 
ENDBRANCH  21  22
ENDBRANCH  20  21
ENDBRANCH  18  20
ENDBRANCH   8  14
BRANCH  12  29
HETATM   29  N   UNL     1      -2.250   3.994 -31.135  1.00  0.00    -0.282 NA
HETATM   30  H   UNL     1      -2.151   4.824 -31.715  1.00  0.00     0.126 HD
HETATM   31  H   UNL     1      -1.360   3.630 -30.804  1.00  0.00     0.126 HD
ENDBRANCH  12  29
TORSDOF 5
ENDMDL
MODEL 5
REMARK VINA RESULT:      -8.4      2.158      3.825
REMARK  5 active torsions:
REMARK  status: ('A' for Active; 'I' for Inactive)
REMARK    1  A    between atoms: C_8  and  C_9 
REMARK    2  A    between atoms: C_13  and  C_14 
REMARK    3  A    between atoms: C_14  and  O_15 
REMARK    4  A    between atoms: O_15  and  C_16 
REMARK    5  A    between atoms: C_27  and  N_28 
ROOT
HETATM    1  C   UNL     1     -10.528   5.135 -35.581  1.00  0.00     0.073 C 
HETATM    2  C   UNL     1     -11.702   5.091 -34.675  1.00  0.00     0.062 A 
HETATM    3  N   UNL     1     -12.314   6.227 -34.299  1.00  0.00    -0.177 NA
HETATM    4  N   UNL     1     -13.308   5.816 -33.484  1.00  0.00    -0.256 N 
HETATM    5  H   UNL     1     -13.915   6.510 -33.065  1.00  0.00     0.191 HD
HETATM    6  C   UNL     1     -13.354   4.466 -33.354  1.00  0.00     0.175 A 
HETATM    7  C   UNL     1     -12.321   3.959 -34.097  1.00  0.00     0.035 A 
HETATM    8  C   UNL     1     -12.075   2.488 -34.154  1.00  0.00     0.112 A 
HETATM    9  C   UNL     1     -13.198   1.754 -33.395  1.00  0.00     0.081 A 
HETATM   10  C   UNL     1     -13.190   0.331 -33.473  1.00  0.00     0.100 C 
HETATM   11  N   UNL     1     -13.215  -0.826 -33.555  1.00  0.00    -0.191 NA
HETATM   12  C   UNL     1     -14.174   2.398 -32.696  1.00  0.00     0.140 A 
HETATM   13  O   UNL     1     -14.249   3.801 -32.638  1.00  0.00    -0.279 OA
ENDROOT
BRANCH   8  14
HETATM   14  C   UNL     1     -10.689   2.153 -33.635  1.00  0.00    -0.003 A 
HETATM   15  S   UNL     1     -10.163   2.763 -32.127  1.00  0.00    -0.098 SA
HETATM   16  C   UNL     1      -8.637   2.003 -32.263  1.00  0.00    -0.013 A 
HETATM   17  C   UNL     1      -7.634   2.154 -31.165  1.00  0.00     0.057 C 
HETATM   18  C   UNL     1      -8.507   1.298 -33.449  1.00  0.00    -0.020 A 
HETATM   19  C   UNL     1      -9.706   1.386 -34.231  1.00  0.00     0.026 A 
BRANCH  18  20
HETATM   20  C   UNL     1      -7.289   0.524 -33.876  1.00  0.00     0.215 C 
BRANCH  20  21
HETATM   21  O   UNL     1      -7.583  -0.873 -33.915  1.00  0.00    -0.347 OA
BRANCH  21  22
HETATM   22  C   UNL     1      -6.523  -1.733 -33.993  1.00  0.00     0.069 A 
HETATM   23  C   UNL     1      -5.245  -1.514 -33.472  1.00  0.00     0.040 A 
HETATM   24  C   UNL     1      -4.251  -2.486 -33.629  1.00  0.00     0.045 A 
HETATM   25  C   UNL     1      -4.541  -3.668 -34.300  1.00  0.00     0.116 A 
HETATM   26  F   UNL     1      -3.585  -4.594 -34.446  1.00  0.00    -0.206 F 
HETATM   27  C   UNL     1      -5.807  -3.901 -34.818  1.00  0.00     0.045 A 
HETATM   28  C   UNL     1      -6.798  -2.931 -34.662  1.00  0.00     0.040 A 
ENDBRANCH  21  22
ENDBRANCH  20  21
ENDBRANCH  18  20
ENDBRANCH   8  14
BRANCH  12  29
HETATM   29  N   UNL     1     -15.189   1.788 -31.994  1.00  0.00    -0.282 NA
HETATM   30  H   UNL     1     -16.133   1.995 -32.310  1.00  0.00     0.126 HD
HETATM   31  H   UNL     1     -15.074   1.886 -30.988  1.00  0.00     0.126 HD
ENDBRANCH  12  29
TORSDOF 5
ENDMDL
MODEL 6
REMARK VINA RESULT:      -8.3      5.550      7.636
REMARK  5 active torsions:
REMARK  status: ('A' for Active; 'I' for Inactive)
REMARK    1  A    between atoms: C_8  and  C_9 
REMARK    2  A    between atoms: C_13  and  C_14 
REMARK    3  A    between atoms: C_14  and  O_15 
REMARK    4  A    between atoms: O_15  and  C_16 
REMARK    5  A    between atoms: C_27  and  N_28 
ROOT
HETATM    1  C   UNL     1      -3.614   0.166 -31.119  1.00  0.00     0.073 C 
HETATM    2  C   UNL     1      -4.745  -0.305 -31.955  1.00  0.00     0.062 A 
HETATM    3  N   UNL     1      -4.584  -1.341 -32.796  1.00  0.00    -0.177 NA
HETATM    4  N   UNL     1      -5.789  -1.480 -33.388  1.00  0.00    -0.256 N 
HETATM    5  H   UNL     1      -5.912  -2.209 -34.081  1.00  0.00     0.191 HD
HETATM    6  C   UNL     1      -6.702  -0.586 -32.932  1.00  0.00     0.175 A 
HETATM    7  C   UNL     1      -6.063   0.203 -32.014  1.00  0.00     0.035 A 
HETATM    8  C   UNL     1      -6.788   1.313 -31.327  1.00  0.00     0.112 A 
HETATM    9  C   UNL     1      -8.274   1.278 -31.735  1.00  0.00     0.081 A 
HETATM   10  C   UNL     1      -9.137   2.188 -31.058  1.00  0.00     0.100 C 
HETATM   11  N   UNL     1      -9.858   2.900 -30.492  1.00  0.00    -0.191 NA
HETATM   12  C   UNL     1      -8.774   0.424 -32.670  1.00  0.00     0.140 A 
HETATM   13  O   UNL     1      -7.967  -0.525 -33.323  1.00  0.00    -0.279 OA
ENDROOT
BRANCH   8  14
HETATM   14  C   UNL     1      -6.124   2.648 -31.613  1.00  0.00    -0.003 A 
HETATM   15  S   UNL     1      -5.742   3.711 -30.330  1.00  0.00    -0.098 SA
HETATM   16  C   UNL     1      -5.087   4.881 -31.391  1.00  0.00    -0.013 A 
HETATM   17  C   UNL     1      -4.524   6.150 -30.838  1.00  0.00     0.057 C 
HETATM   18  C   UNL     1      -5.163   4.487 -32.718  1.00  0.00    -0.020 A 
HETATM   19  C   UNL     1      -5.759   3.187 -32.831  1.00  0.00     0.026 A 
BRANCH  18  20
HETATM   20  C   UNL     1      -4.682   5.288 -33.897  1.00  0.00     0.215 C 
BRANCH  20  21
HETATM   21  O   UNL     1      -3.327   4.951 -34.199  1.00  0.00    -0.347 OA
BRANCH  21  22
HETATM   22  C   UNL     1      -2.350   5.600 -33.497  1.00  0.00     0.069 A 
HETATM   23  C   UNL     1      -2.084   6.971 -33.530  1.00  0.00     0.040 A 
HETATM   24  C   UNL     1      -1.046   7.500 -32.757  1.00  0.00     0.045 A 
HETATM   25  C   UNL     1      -0.284   6.659 -31.953  1.00  0.00     0.116 A 
HETATM   26  F   UNL     1       0.708   7.173 -31.215  1.00  0.00    -0.206 F 
HETATM   27  C   UNL     1      -0.540   5.296 -31.906  1.00  0.00     0.045 A 
HETATM   28  C   UNL     1      -1.576   4.769 -32.679  1.00  0.00     0.040 A 
ENDBRANCH  21  22
ENDBRANCH  20  21
ENDBRANCH  18  20
ENDBRANCH   8  14
BRANCH  12  29
HETATM   29  N   UNL     1     -10.088   0.363 -33.076  1.00  0.00    -0.282 NA
HETATM   30  H   UNL     1     -10.774   0.224 -32.337  1.00  0.00     0.126 HD
HETATM   31  H   UNL     1     -10.219  -0.265 -33.865  1.00  0.00     0.126 HD
ENDBRANCH  12  29
TORSDOF 5
ENDMDL
MODEL 7
REMARK VINA RESULT:      -8.1      2.517      3.732
REMARK  5 active torsions:
REMARK  status: ('A' for Active; 'I' for Inactive)
REMARK    1  A    between atoms: C_8  and  C_9 
REMARK    2  A    between atoms: C_13  and  C_14 
REMARK    3  A    between atoms: C_14  and  O_15 
REMARK    4  A    between atoms: O_15  and  C_16 
REMARK    5  A    between atoms: C_27  and  N_28 
ROOT
HETATM    1  C   UNL     1     -13.767   4.052 -30.536  1.00  0.00     0.073 C 
HETATM    2  C   UNL     1     -13.927   3.314 -31.813  1.00  0.00     0.062 A 
HETATM    3  N   UNL     1     -14.894   2.389 -31.946  1.00  0.00    -0.177 NA
HETATM    4  N   UNL     1     -14.738   1.923 -33.203  1.00  0.00    -0.256 N 
HETATM    5  H   UNL     1     -15.362   1.199 -33.537  1.00  0.00     0.191 HD
HETATM    6  C   UNL     1     -13.727   2.538 -33.867  1.00  0.00     0.175 A 
HETATM    7  C   UNL     1     -13.166   3.434 -32.997  1.00  0.00     0.035 A 
HETATM    8  C   UNL     1     -12.002   4.272 -33.413  1.00  0.00     0.112 A 
HETATM    9  C   UNL     1     -11.706   4.027 -34.905  1.00  0.00     0.081 A 
HETATM   10  C   UNL     1     -10.709   4.856 -35.497  1.00  0.00     0.100 C 
HETATM   11  N   UNL     1      -9.923   5.546 -36.000  1.00  0.00    -0.191 NA
HETATM   12  C   UNL     1     -12.356   3.094 -35.654  1.00  0.00     0.140 A 
HETATM   13  O   UNL     1     -13.382   2.292 -35.123  1.00  0.00    -0.279 OA
ENDROOT
BRANCH   8  14
HETATM   14  C   UNL     1     -10.804   4.010 -32.518  1.00  0.00    -0.003 A 
HETATM   15  S   UNL     1     -10.261   5.214 -31.432  1.00  0.00    -0.098 SA
HETATM   16  C   UNL     1      -8.989   4.228 -30.853  1.00  0.00    -0.013 A 
HETATM   17  C   UNL     1      -8.077   4.746 -29.788  1.00  0.00     0.057 C 
HETATM   18  C   UNL     1      -8.955   2.994 -31.481  1.00  0.00    -0.020 A 
HETATM   19  C   UNL     1     -10.017   2.878 -32.438  1.00  0.00     0.026 A 
BRANCH  18  20
HETATM   20  C   UNL     1      -7.958   1.900 -31.207  1.00  0.00     0.215 C 
BRANCH  20  21
HETATM   21  O   UNL     1      -8.424   0.664 -31.748  1.00  0.00    -0.347 OA
BRANCH  21  22
HETATM   22  C   UNL     1      -7.559  -0.037 -32.542  1.00  0.00     0.069 A 
HETATM   23  C   UNL     1      -7.801  -0.456 -33.853  1.00  0.00     0.040 A 
HETATM   24  C   UNL     1      -6.821  -1.171 -34.549  1.00  0.00     0.045 A 
HETATM   25  C   UNL     1      -5.607  -1.458 -33.935  1.00  0.00     0.116 A 
HETATM   26  F   UNL     1      -4.674  -2.143 -34.608  1.00  0.00    -0.206 F 
HETATM   27  C   UNL     1      -5.351  -1.044 -32.636  1.00  0.00     0.045 A 
HETATM   28  C   UNL     1      -6.330  -0.332 -31.941  1.00  0.00     0.040 A 
ENDBRANCH  21  22
ENDBRANCH  20  21
ENDBRANCH  18  20
ENDBRANCH   8  14
BRANCH  12  29
HETATM   29  N   UNL     1     -12.119   2.831 -36.985  1.00  0.00    -0.282 NA
HETATM   30  H   UNL     1     -12.588   2.012 -37.365  1.00  0.00     0.126 HD
HETATM   31  H   UNL     1     -11.129   2.866 -37.214  1.00  0.00     0.126 HD
ENDBRANCH  12  29
TORSDOF 5
ENDMDL
MODEL 8
REMARK VINA RESULT:      -8.0      4.146      7.371
REMARK  5 active torsions:
REMARK  status: ('A' for Active; 'I' for Inactive)
REMARK    1  A    between atoms: C_8  and  C_9 
REMARK    2  A    between atoms: C_13  and  C_14 
REMARK    3  A    between atoms: C_14  and  O_15 
REMARK    4  A    between atoms: O_15  and  C_16 
REMARK    5  A    between atoms: C_27  and  N_28 
ROOT
HETATM    1  C   UNL     1      -7.380  -0.126 -35.633  1.00  0.00     0.073 C 
HETATM    2  C   UNL     1      -6.467  -0.803 -34.680  1.00  0.00     0.062 A 
HETATM    3  N   UNL     1      -6.423  -2.145 -34.618  1.00  0.00    -0.177 NA
HETATM    4  N   UNL     1      -5.514  -2.405 -33.655  1.00  0.00    -0.256 N 
HETATM    5  H   UNL     1      -5.312  -3.369 -33.421  1.00  0.00     0.191 HD
HETATM    6  C   UNL     1      -4.972  -1.277 -33.129  1.00  0.00     0.175 A 
HETATM    7  C   UNL     1      -5.574  -0.218 -33.754  1.00  0.00     0.035 A 
HETATM    8  C   UNL     1      -5.214   1.185 -33.391  1.00  0.00     0.112 A 
HETATM    9  C   UNL     1      -4.053   1.166 -32.378  1.00  0.00     0.081 A 
HETATM   10  C   UNL     1      -3.493   2.431 -32.033  1.00  0.00     0.100 C 
HETATM   11  N   UNL     1      -3.006   3.450 -31.767  1.00  0.00    -0.191 NA
HETATM   12  C   UNL     1      -3.549   0.022 -31.838  1.00  0.00     0.140 A 
HETATM   13  O   UNL     1      -4.036  -1.249 -32.192  1.00  0.00    -0.279 OA
ENDROOT
BRANCH   8  14
HETATM   14  C   UNL     1      -6.430   1.940 -32.887  1.00  0.00    -0.003 A 
HETATM   15  S   UNL     1      -7.096   1.577 -31.355  1.00  0.00    -0.098 SA
HETATM   16  C   UNL     1      -8.327   2.751 -31.524  1.00  0.00    -0.013 A 
HETATM   17  C   UNL     1      -9.316   2.952 -30.421  1.00  0.00     0.057 C 
HETATM   18  C   UNL     1      -8.255   3.414 -32.739  1.00  0.00    -0.020 A 
HETATM   19  C   UNL     1      -7.147   2.940 -33.515  1.00  0.00     0.026 A 
BRANCH  18  20
HETATM   20  C   UNL     1      -9.192   4.498 -33.199  1.00  0.00     0.215 C 
BRANCH  20  21
HETATM   21  O   UNL     1      -9.965   4.040 -34.310  1.00  0.00    -0.347 OA
BRANCH  21  22
HETATM   22  C   UNL     1     -11.008   3.199 -34.040  1.00  0.00     0.069 A 
HETATM   23  C   UNL     1     -11.148   1.887 -34.502  1.00  0.00     0.040 A 
HETATM   24  C   UNL     1     -12.275   1.138 -34.147  1.00  0.00     0.045 A 
HETATM   25  C   UNL     1     -13.251   1.702 -33.333  1.00  0.00     0.116 A 
HETATM   26  F   UNL     1     -14.327   0.979 -32.997  1.00  0.00    -0.206 F 
HETATM   27  C   UNL     1     -13.123   3.001 -32.863  1.00  0.00     0.045 A 
HETATM   28  C   UNL     1     -11.999   3.748 -33.218  1.00  0.00     0.040 A 
ENDBRANCH  21  22
ENDBRANCH  20  21
ENDBRANCH  18  20
ENDBRANCH   8  14
BRANCH  12  29
HETATM   29  N   UNL     1      -2.522  -0.045 -30.923  1.00  0.00    -0.282 NA
HETATM   30  H   UNL     1      -1.807   0.674 -31.005  1.00  0.00     0.126 HD
HETATM   31  H   UNL     1      -2.137  -0.983 -30.844  1.00  0.00     0.126 HD
ENDBRANCH  12  29
TORSDOF 5
ENDMDL
MODEL 9
REMARK VINA RESULT:      -8.0      2.398      3.846
REMARK  5 active torsions:
REMARK  status: ('A' for Active; 'I' for Inactive)
REMARK    1  A    between atoms: C_8  and  C_9 
REMARK    2  A    between atoms: C_13  and  C_14 
REMARK    3  A    between atoms: C_14  and  O_15 
REMARK    4  A    between atoms: O_15  and  C_16 
REMARK    5  A    between atoms: C_27  and  N_28 
ROOT
HETATM    1  C   UNL     1     -10.562   5.308 -31.043  1.00  0.00     0.073 C 
HETATM    2  C   UNL     1     -11.771   4.455 -31.154  1.00  0.00     0.062 A 
HETATM    3  N   UNL     1     -12.611   4.329 -30.112  1.00  0.00    -0.177 NA
HETATM    4  N   UNL     1     -13.568   3.488 -30.556  1.00  0.00    -0.256 N 
HETATM    5  H   UNL     1     -14.324   3.234 -29.931  1.00  0.00     0.191 HD
HETATM    6  C   UNL     1     -13.371   3.103 -31.842  1.00  0.00     0.175 A 
HETATM    7  C   UNL     1     -12.209   3.694 -32.261  1.00  0.00     0.035 A 
HETATM    8  C   UNL     1     -11.690   3.459 -33.641  1.00  0.00     0.112 A 
HETATM    9  C   UNL     1     -12.709   2.616 -34.431  1.00  0.00     0.081 A 
HETATM   10  C   UNL     1     -12.430   2.418 -35.815  1.00  0.00     0.100 C 
HETATM   11  N   UNL     1     -12.232   2.277 -36.950  1.00  0.00    -0.191 NA
HETATM   12  C   UNL     1     -13.837   2.091 -33.876  1.00  0.00     0.140 A 
HETATM   13  O   UNL     1     -14.177   2.307 -32.529  1.00  0.00    -0.279 OA
ENDROOT
BRANCH   8  14
HETATM   14  C   UNL     1     -10.308   2.833 -33.596  1.00  0.00    -0.003 A 
HETATM   15  S   UNL     1      -8.932   3.751 -34.028  1.00  0.00    -0.098 SA
HETATM   16  C   UNL     1      -7.871   2.441 -33.742  1.00  0.00    -0.013 A 
HETATM   17  C   UNL     1      -6.401   2.620 -33.944  1.00  0.00     0.057 C 
HETATM   18  C   UNL     1      -8.544   1.300 -33.334  1.00  0.00    -0.020 A 
HETATM   19  C   UNL     1      -9.955   1.544 -33.246  1.00  0.00     0.026 A 
BRANCH  18  20
HETATM   20  C   UNL     1      -7.905  -0.023 -33.009  1.00  0.00     0.215 C 
BRANCH  20  21
HETATM   21  O   UNL     1      -7.835  -0.836 -34.181  1.00  0.00    -0.347 OA
BRANCH  21  22
HETATM   22  C   UNL     1      -6.805  -1.730 -34.261  1.00  0.00     0.069 A 
HETATM   23  C   UNL     1      -6.889  -3.045 -34.729  1.00  0.00     0.040 A 
HETATM   24  C   UNL     1      -5.747  -3.852 -34.753  1.00  0.00     0.045 A 
HETATM   25  C   UNL     1      -4.531  -3.342 -34.314  1.00  0.00     0.116 A 
HETATM   26  F   UNL     1      -3.442  -4.121 -34.339  1.00  0.00    -0.206 F 
HETATM   27  C   UNL     1      -4.431  -2.037 -33.851  1.00  0.00     0.045 A 
HETATM   28  C   UNL     1      -5.571  -1.232 -33.827  1.00  0.00     0.040 A 
ENDBRANCH  21  22
ENDBRANCH  20  21
ENDBRANCH  18  20
ENDBRANCH   8  14
BRANCH  12  29
HETATM   29  N   UNL     1     -14.770   1.324 -34.537  1.00  0.00    -0.282 NA
HETATM   30  H   UNL     1     -15.414   0.803 -33.947  1.00  0.00     0.126 HD
HETATM   31  H   UNL     1     -14.351   0.756 -35.270  1.00  0.00     0.126 HD
ENDBRANCH  12  29
TORSDOF 5
ENDMDL
MODEL 10
REMARK VINA RESULT:      -7.8      2.237      2.904
REMARK  5 active torsions:
REMARK  status: ('A' for Active; 'I' for Inactive)
REMARK    1  A    between atoms: C_8  and  C_9 
REMARK    2  A    between atoms: C_13  and  C_14 
REMARK    3  A    between atoms: C_14  and  O_15 
REMARK    4  A    between atoms: O_15  and  C_16 
REMARK    5  A    between atoms: C_27  and  N_28 
ROOT
HETATM    1  C   UNL     1      -9.641  -0.023 -32.868  1.00  0.00     0.073 C 
HETATM    2  C   UNL     1      -9.969   1.404 -33.106  1.00  0.00     0.062 A 
HETATM    3  N   UNL     1     -10.777   1.756 -34.122  1.00  0.00    -0.177 NA
HETATM    4  N   UNL     1     -10.841   3.101 -34.046  1.00  0.00    -0.256 N 
HETATM    5  H   UNL     1     -11.399   3.603 -34.726  1.00  0.00     0.191 HD
HETATM    6  C   UNL     1     -10.123   3.602 -33.008  1.00  0.00     0.175 A 
HETATM    7  C   UNL     1      -9.530   2.537 -32.384  1.00  0.00     0.035 A 
HETATM    8  C   UNL     1      -8.644   2.745 -31.200  1.00  0.00     0.112 A 
HETATM    9  C   UNL     1      -8.664   4.235 -30.806  1.00  0.00     0.081 A 
HETATM   10  C   UNL     1      -7.978   4.581 -29.606  1.00  0.00     0.100 C 
HETATM   11  N   UNL     1      -7.451   4.872 -28.613  1.00  0.00    -0.191 NA
HETATM   12  C   UNL     1      -9.309   5.192 -31.529  1.00  0.00     0.140 A 
HETATM   13  O   UNL     1     -10.041   4.886 -32.689  1.00  0.00    -0.279 OA
ENDROOT
BRANCH   8  14
HETATM   14  C   UNL     1      -7.247   2.221 -31.475  1.00  0.00    -0.003 A 
HETATM   15  S   UNL     1      -6.011   3.287 -31.983  1.00  0.00    -0.098 SA
HETATM   16  C   UNL     1      -4.855   2.030 -32.073  1.00  0.00    -0.013 A 
HETATM   17  C   UNL     1      -3.452   2.342 -32.482  1.00  0.00     0.057 C 
HETATM   18  C   UNL     1      -5.393   0.798 -31.735  1.00  0.00    -0.020 A 
HETATM   19  C   UNL     1      -6.778   0.925 -31.383  1.00  0.00     0.026 A 
BRANCH  18  20
HETATM   20  C   UNL     1      -4.645  -0.508 -31.719  1.00  0.00     0.215 C 
BRANCH  20  21
HETATM   21  O   UNL     1      -4.202  -0.836 -33.037  1.00  0.00    -0.347 OA
BRANCH  21  22
HETATM   22  C   UNL     1      -4.793  -1.907 -33.646  1.00  0.00     0.069 A 
HETATM   23  C   UNL     1      -4.201  -3.152 -33.880  1.00  0.00     0.040 A 
HETATM   24  C   UNL     1      -4.927  -4.161 -34.519  1.00  0.00     0.045 A 
HETATM   25  C   UNL     1      -6.238  -3.924 -34.918  1.00  0.00     0.116 A 
HETATM   26  F   UNL     1      -6.927  -4.895 -35.530  1.00  0.00    -0.206 F 
HETATM   27  C   UNL     1      -6.840  -2.695 -34.689  1.00  0.00     0.045 A 
HETATM   28  C   UNL     1      -6.115  -1.687 -34.051  1.00  0.00     0.040 A 
ENDBRANCH  21  22
ENDBRANCH  20  21
ENDBRANCH  18  20
ENDBRANCH   8  14
BRANCH  12  29
HETATM   29  N   UNL     1      -9.345   6.534 -31.224  1.00  0.00    -0.282 NA
HETATM   30  H   UNL     1     -10.156   6.847 -30.695  1.00  0.00     0.126 HD
HETATM   31  H   UNL     1      -9.147   7.118 -32.034  1.00  0.00     0.126 HD
ENDBRANCH  12  29
TORSDOF 5
ENDMDL
