MODEL 1
REMARK VINA RESULT:     -10.5      0.000      0.000
REMARK  7 active torsions:
REMARK  status: ('A' for Active; 'I' for Inactive)
REMARK    1  A    between atoms: C_3  and  N_4 
REMARK       I    between atoms: N_4  and  C_5 
REMARK    2  A    between atoms: C_5  and  C_6 
REMARK    3  A    between atoms: C_6  and  N_7 
REMARK    4  A    between atoms: N_10  and  C_11 
REMARK    5  A    between atoms: C_11  and  C_12 
REMARK    6  A    between atoms: C_27  and  C_28 
REMARK       I    between atoms: C_28  and  N_29 
REMARK    7  A    between atoms: N_29  and  C_30 
ROOT
HETATM    1  N   UNL     1      -6.159   3.120 -31.009  1.00  0.00    -0.290 N 
HETATM    2  C   UNL     1      -7.511   3.271 -30.742  1.00  0.00     0.332 C 
HETATM    3  O   UNL     1      -7.985   2.757 -29.726  1.00  0.00    -0.246 OA
HETATM    4  N   UNL     1      -8.245   4.038 -31.631  1.00  0.00    -0.261 N 
HETATM    5  C   UNL     1      -7.663   4.942 -32.511  1.00  0.00     0.264 C 
HETATM    6  O   UNL     1      -8.295   5.746 -33.193  1.00  0.00    -0.267 OA
HETATM    7  C   UNL     1      -6.189   4.959 -32.577  1.00  0.00     0.059 A 
HETATM    8  C   UNL     1      -5.461   4.042 -31.825  1.00  0.00     0.056 A 
HETATM    9  C   UNL     1      -5.540   5.896 -33.393  1.00  0.00     0.020 A 
HETATM   10  C   UNL     1      -4.145   5.952 -33.428  1.00  0.00     0.018 A 
HETATM   11  C   UNL     1      -3.393   5.079 -32.636  1.00  0.00     0.034 A 
HETATM   12  C   UNL     1      -4.061   4.109 -31.859  1.00  0.00     0.048 A 
ENDROOT
BRANCH   1  13
HETATM   13  C   UNL     1      -5.503   1.916 -30.489  1.00  0.00     0.237 C 
BRANCH  13  14
HETATM   14  C   UNL     1      -5.811   0.565 -31.144  1.00  0.00     0.240 C 
HETATM   15  N   UNL     1      -5.215   0.378 -32.373  1.00  0.00    -0.325 N 
HETATM   16  H   UNL     1      -4.423   0.998 -32.534  1.00  0.00     0.169 HD
HETATM   17  O   UNL     1      -6.401  -0.289 -30.487  1.00  0.00    -0.271 OA
BRANCH  15  18
HETATM   18  C   UNL     1      -5.276  -0.751 -33.223  1.00  0.00     0.040 A 
HETATM   19  C   UNL     1      -6.207  -0.985 -34.252  1.00  0.00    -0.035 A 
HETATM   20  C   UNL     1      -7.268  -0.020 -34.702  1.00  0.00     0.050 C 
HETATM   21  C   UNL     1      -6.152  -2.213 -34.949  1.00  0.00     0.009 A 
HETATM   22  C   UNL     1      -5.162  -3.158 -34.688  1.00  0.00     0.001 A 
HETATM   23  C   UNL     1      -4.203  -2.894 -33.722  1.00  0.00     0.002 A 
HETATM   24  C   UNL     1      -4.261  -1.702 -33.000  1.00  0.00     0.030 A 
ENDBRANCH  15  18
ENDBRANCH  13  14
ENDBRANCH   1  13
BRANCH   4  25
HETATM   25  C   UNL     1      -9.691   4.145 -31.435  1.00  0.00     0.175 C 
BRANCH  25  26
HETATM   26  C   UNL     1     -10.525   3.169 -32.242  1.00  0.00    -0.037 A 
HETATM   27  C   UNL     1     -11.898   3.386 -32.454  1.00  0.00     0.048 A 
HETATM   28  C   UNL     1     -12.581   2.480 -33.238  1.00  0.00     0.105 A 
HETATM   29  C   UNL     1     -11.965   1.379 -33.787  1.00  0.00     0.105 A 
HETATM   30  O   UNL     1     -13.900   2.551 -33.571  1.00  0.00    -0.323 OA
HETATM   31  O   UNL     1     -12.814   0.623 -34.533  1.00  0.00    -0.323 OA
HETATM   32  C   UNL     1     -10.630   1.117 -33.581  1.00  0.00     0.040 A 
HETATM   33  C   UNL     1     -14.030   1.388 -34.417  1.00  0.00     0.352 A 
HETATM   34  C   UNL     1      -9.907   2.022 -32.800  1.00  0.00     0.012 A 
ENDBRANCH  25  26
ENDBRANCH   4  25
BRANCH  11  35
HETATM   35  C   UNL     1      -1.900   5.131 -32.548  1.00  0.00     0.252 C 
HETATM   36  N   UNL     1      -1.338   5.467 -31.330  1.00  0.00    -0.352 N 
HETATM   37  H   UNL     1      -1.921   5.546 -30.513  1.00  0.00     0.163 HD
HETATM   38  O   UNL     1      -1.231   4.846 -33.536  1.00  0.00    -0.268 OA
BRANCH  36  39
HETATM   39  C   UNL     1       0.104   5.386 -31.100  1.00  0.00     0.084 C 
HETATM   40  C   UNL     1       0.762   6.761 -31.271  1.00  0.00     0.025 C 
HETATM   41  C   UNL     1       0.450   7.721 -30.125  1.00  0.00     0.002 C 
HETATM   42  C   UNL     1       0.777   7.106 -28.769  1.00  0.00     0.000 C 
HETATM   43  C   UNL     1       0.077   5.764 -28.576  1.00  0.00     0.002 C 
HETATM   44  C   UNL     1       0.393   4.793 -29.713  1.00  0.00     0.025 C 
ENDBRANCH  36  39
ENDBRANCH  11  35
TORSDOF 7
ENDMDL
MODEL 2
REMARK VINA RESULT:     -10.4      2.046      8.863
REMARK  7 active torsions:
REMARK  status: ('A' for Active; 'I' for Inactive)
REMARK    1  A    between atoms: C_3  and  N_4 
REMARK       I    between atoms: N_4  and  C_5 
REMARK    2  A    between atoms: C_5  and  C_6 
REMARK    3  A    between atoms: C_6  and  N_7 
REMARK    4  A    between atoms: N_10  and  C_11 
REMARK    5  A    between atoms: C_11  and  C_12 
REMARK    6  A    between atoms: C_27  and  C_28 
REMARK       I    between atoms: C_28  and  N_29 
REMARK    7  A    between atoms: N_29  and  C_30 
ROOT
HETATM    1  N   UNL     1      -5.052   3.108 -31.066  1.00  0.00    -0.290 N 
HETATM    2  C   UNL     1      -3.760   3.423 -31.457  1.00  0.00     0.332 C 
HETATM    3  O   UNL     1      -2.937   2.516 -31.606  1.00  0.00    -0.246 OA
HETATM    4  N   UNL     1      -3.486   4.759 -31.699  1.00  0.00    -0.261 N 
HETATM    5  C   UNL     1      -4.475   5.703 -31.942  1.00  0.00     0.264 C 
HETATM    6  O   UNL     1      -4.255   6.853 -32.316  1.00  0.00    -0.267 OA
HETATM    7  C   UNL     1      -5.875   5.262 -31.789  1.00  0.00     0.059 A 
HETATM    8  C   UNL     1      -6.139   3.969 -31.348  1.00  0.00     0.056 A 
HETATM    9  C   UNL     1      -6.920   6.147 -32.087  1.00  0.00     0.020 A 
HETATM   10  C   UNL     1      -8.248   5.727 -31.990  1.00  0.00     0.018 A 
HETATM   11  C   UNL     1      -8.536   4.413 -31.606  1.00  0.00     0.034 A 
HETATM   12  C   UNL     1      -7.475   3.551 -31.260  1.00  0.00     0.048 A 
ENDROOT
BRANCH   1  13
HETATM   13  C   UNL     1      -5.233   1.891 -30.267  1.00  0.00     0.237 C 
BRANCH  13  14
HETATM   14  C   UNL     1      -5.772   0.630 -30.952  1.00  0.00     0.240 C 
HETATM   15  N   UNL     1      -5.290   0.424 -32.227  1.00  0.00    -0.325 N 
HETATM   16  H   UNL     1      -4.430   0.934 -32.420  1.00  0.00     0.169 HD
HETATM   17  O   UNL     1      -6.434  -0.165 -30.290  1.00  0.00    -0.271 OA
BRANCH  15  18
HETATM   18  C   UNL     1      -5.567  -0.641 -33.116  1.00  0.00     0.040 A 
HETATM   19  C   UNL     1      -6.792  -0.917 -33.751  1.00  0.00    -0.035 A 
HETATM   20  C   UNL     1      -8.026  -0.062 -33.669  1.00  0.00     0.050 C 
HETATM   21  C   UNL     1      -6.896  -2.076 -34.552  1.00  0.00     0.009 A 
HETATM   22  C   UNL     1      -5.801  -2.907 -34.779  1.00  0.00     0.001 A 
HETATM   23  C   UNL     1      -4.576  -2.595 -34.210  1.00  0.00     0.002 A 
HETATM   24  C   UNL     1      -4.463  -1.472 -33.389  1.00  0.00     0.030 A 
ENDBRANCH  15  18
ENDBRANCH  13  14
ENDBRANCH   1  13
BRANCH   4  25
HETATM   25  C   UNL     1      -2.112   5.142 -32.023  1.00  0.00     0.175 C 
BRANCH  25  26
HETATM   26  C   UNL     1      -1.259   5.551 -30.838  1.00  0.00    -0.037 A 
HETATM   27  C   UNL     1      -1.623   6.632 -30.017  1.00  0.00     0.048 A 
HETATM   28  C   UNL     1      -0.823   6.915 -28.929  1.00  0.00     0.105 A 
HETATM   29  C   UNL     1       0.312   6.190 -28.649  1.00  0.00     0.105 A 
HETATM   30  O   UNL     1      -1.041   7.902 -28.016  1.00  0.00    -0.323 OA
HETATM   31  O   UNL     1       0.948   6.625 -27.529  1.00  0.00    -0.323 OA
HETATM   32  C   UNL     1       0.716   5.141 -29.443  1.00  0.00     0.040 A 
HETATM   33  C   UNL     1       0.068   7.689 -27.116  1.00  0.00     0.352 A 
HETATM   34  C   UNL     1      -0.078   4.823 -30.547  1.00  0.00     0.012 A 
ENDBRANCH  25  26
ENDBRANCH   4  25
BRANCH  11  35
HETATM   35  C   UNL     1      -9.925   3.857 -31.561  1.00  0.00     0.252 C 
HETATM   36  N   UNL     1     -10.674   3.905 -32.722  1.00  0.00    -0.352 N 
HETATM   37  H   UNL     1     -10.243   4.189 -33.587  1.00  0.00     0.163 HD
HETATM   38  O   UNL     1     -10.337   3.356 -30.521  1.00  0.00    -0.268 OA
BRANCH  36  39
HETATM   39  C   UNL     1     -11.975   3.244 -32.825  1.00  0.00     0.084 C 
HETATM   40  C   UNL     1     -12.933   4.061 -33.702  1.00  0.00     0.025 C 
HETATM   41  C   UNL     1     -12.584   4.003 -35.187  1.00  0.00     0.002 C 
HETATM   42  C   UNL     1     -12.456   2.566 -35.680  1.00  0.00     0.000 C 
HETATM   43  C   UNL     1     -11.459   1.769 -34.843  1.00  0.00     0.002 C 
HETATM   44  C   UNL     1     -11.810   1.812 -33.355  1.00  0.00     0.025 C 
ENDBRANCH  36  39
ENDBRANCH  11  35
TORSDOF 7
ENDMDL
MODEL 3
REMARK VINA RESULT:     -10.3      1.594      2.133
REMARK  7 active torsions:
REMARK  status: ('A' for Active; 'I' for Inactive)
REMARK    1  A    between atoms: C_3  and  N_4 
REMARK       I    between atoms: N_4  and  C_5 
REMARK    2  A    between atoms: C_5  and  C_6 
REMARK    3  A    between atoms: C_6  and  N_7 
REMARK    4  A    between atoms: N_10  and  C_11 
REMARK    5  A    between atoms: C_11  and  C_12 
REMARK    6  A    between atoms: C_27  and  C_28 
REMARK       I    between atoms: C_28  and  N_29 
REMARK    7  A    between atoms: N_29  and  C_30 
ROOT
HETATM    1  N   UNL     1      -5.716   3.780 -30.677  1.00  0.00    -0.290 N 
HETATM    2  C   UNL     1      -6.972   3.298 -30.342  1.00  0.00     0.332 C 
HETATM    3  O   UNL     1      -7.062   2.264 -29.674  1.00  0.00    -0.246 OA
HETATM    4  N   UNL     1      -8.062   4.046 -30.753  1.00  0.00    -0.261 N 
HETATM    5  C   UNL     1      -7.968   5.382 -31.120  1.00  0.00     0.264 C 
HETATM    6  O   UNL     1      -8.936   6.110 -31.332  1.00  0.00    -0.267 OA
HETATM    7  C   UNL     1      -6.614   5.962 -31.200  1.00  0.00     0.059 A 
HETATM    8  C   UNL     1      -5.507   5.146 -30.980  1.00  0.00     0.056 A 
HETATM    9  C   UNL     1      -6.455   7.323 -31.496  1.00  0.00     0.020 A 
HETATM   10  C   UNL     1      -5.180   7.892 -31.530  1.00  0.00     0.018 A 
HETATM   11  C   UNL     1      -4.058   7.104 -31.254  1.00  0.00     0.034 A 
HETATM   12  C   UNL     1      -4.231   5.726 -31.008  1.00  0.00     0.048 A 
ENDROOT
BRANCH   1  13
HETATM   13  C   UNL     1      -4.631   2.800 -30.794  1.00  0.00     0.237 C 
BRANCH  13  14
HETATM   14  C   UNL     1      -4.597   1.878 -32.018  1.00  0.00     0.240 C 
HETATM   15  N   UNL     1      -5.269   0.686 -31.852  1.00  0.00    -0.325 N 
HETATM   16  H   UNL     1      -5.945   0.708 -31.091  1.00  0.00     0.169 HD
HETATM   17  O   UNL     1      -4.139   2.312 -33.072  1.00  0.00    -0.271 OA
BRANCH  15  18
HETATM   18  C   UNL     1      -5.447  -0.365 -32.781  1.00  0.00     0.040 A 
HETATM   19  C   UNL     1      -4.601  -1.473 -32.977  1.00  0.00    -0.035 A 
HETATM   20  C   UNL     1      -3.382  -1.792 -32.158  1.00  0.00     0.050 C 
HETATM   21  C   UNL     1      -4.909  -2.387 -34.010  1.00  0.00     0.009 A 
HETATM   22  C   UNL     1      -6.058  -2.253 -34.785  1.00  0.00     0.001 A 
HETATM   23  C   UNL     1      -6.928  -1.201 -34.543  1.00  0.00     0.002 A 
HETATM   24  C   UNL     1      -6.623  -0.269 -33.550  1.00  0.00     0.030 A 
ENDBRANCH  15  18
ENDBRANCH  13  14
ENDBRANCH   1  13
BRANCH   4  25
HETATM   25  C   UNL     1      -9.405   3.523 -30.499  1.00  0.00     0.175 C 
BRANCH  25  26
HETATM   26  C   UNL     1     -10.099   2.918 -31.704  1.00  0.00    -0.037 A 
HETATM   27  C   UNL     1     -11.245   3.514 -32.259  1.00  0.00     0.048 A 
HETATM   28  C   UNL     1     -11.795   2.933 -33.383  1.00  0.00     0.105 A 
HETATM   29  C   UNL     1     -11.268   1.793 -33.947  1.00  0.00     0.105 A 
HETATM   30  O   UNL     1     -12.879   3.391 -34.067  1.00  0.00    -0.323 OA
HETATM   31  O   UNL     1     -11.952   1.393 -35.053  1.00  0.00    -0.323 OA
HETATM   32  C   UNL     1     -10.165   1.165 -33.418  1.00  0.00     0.040 A 
HETATM   33  C   UNL     1     -12.952   2.428 -35.140  1.00  0.00     0.352 A 
HETATM   34  C   UNL     1      -9.578   1.735 -32.285  1.00  0.00     0.012 A 
ENDBRANCH  25  26
ENDBRANCH   4  25
BRANCH  11  35
HETATM   35  C   UNL     1      -2.668   7.654 -31.183  1.00  0.00     0.252 C 
HETATM   36  N   UNL     1      -1.820   7.135 -30.223  1.00  0.00    -0.352 N 
HETATM   37  H   UNL     1      -2.101   6.331 -29.685  1.00  0.00     0.163 HD
HETATM   38  O   UNL     1      -2.321   8.511 -31.989  1.00  0.00    -0.268 OA
BRANCH  36  39
HETATM   39  C   UNL     1      -0.400   7.486 -30.180  1.00  0.00     0.084 C 
HETATM   40  C   UNL     1       0.145   7.378 -28.751  1.00  0.00     0.025 C 
HETATM   41  C   UNL     1       0.303   5.935 -28.277  1.00  0.00     0.002 C 
HETATM   42  C   UNL     1       1.126   5.106 -29.257  1.00  0.00     0.000 C 
HETATM   43  C   UNL     1       0.550   5.168 -30.669  1.00  0.00     0.002 C 
HETATM   44  C   UNL     1       0.400   6.610 -31.155  1.00  0.00     0.025 C 
ENDBRANCH  36  39
ENDBRANCH  11  35
TORSDOF 7
ENDMDL
MODEL 4
REMARK VINA RESULT:      -9.9      1.895      2.898
REMARK  7 active torsions:
REMARK  status: ('A' for Active; 'I' for Inactive)
REMARK    1  A    between atoms: C_3  and  N_4 
REMARK       I    between atoms: N_4  and  C_5 
REMARK    2  A    between atoms: C_5  and  C_6 
REMARK    3  A    between atoms: C_6  and  N_7 
REMARK    4  A    between atoms: N_10  and  C_11 
REMARK    5  A    between atoms: C_11  and  C_12 
REMARK    6  A    between atoms: C_27  and  C_28 
REMARK       I    between atoms: C_28  and  N_29 
REMARK    7  A    between atoms: N_29  and  C_30 
ROOT
HETATM    1  N   UNL     1      -4.496   2.194 -31.915  1.00  0.00    -0.290 N 
HETATM    2  C   UNL     1      -5.810   2.003 -32.312  1.00  0.00     0.332 C 
HETATM    3  O   UNL     1      -6.476   1.111 -31.781  1.00  0.00    -0.246 OA
HETATM    4  N   UNL     1      -6.308   2.869 -33.270  1.00  0.00    -0.261 N 
HETATM    5  C   UNL     1      -5.728   4.098 -33.556  1.00  0.00     0.264 C 
HETATM    6  O   UNL     1      -6.236   4.951 -34.280  1.00  0.00    -0.267 OA
HETATM    7  C   UNL     1      -4.445   4.404 -32.893  1.00  0.00     0.059 A 
HETATM    8  C   UNL     1      -3.848   3.441 -32.085  1.00  0.00     0.056 A 
HETATM    9  C   UNL     1      -3.843   5.655 -33.084  1.00  0.00     0.020 A 
HETATM   10  C   UNL     1      -2.653   5.972 -32.426  1.00  0.00     0.018 A 
HETATM   11  C   UNL     1      -2.066   5.041 -31.563  1.00  0.00     0.034 A 
HETATM   12  C   UNL     1      -2.656   3.768 -31.421  1.00  0.00     0.048 A 
ENDROOT
BRANCH   1  13
HETATM   13  C   UNL     1      -3.775   1.027 -31.396  1.00  0.00     0.237 C 
BRANCH  13  14
HETATM   14  C   UNL     1      -3.491  -0.146 -32.340  1.00  0.00     0.240 C 
HETATM   15  N   UNL     1      -4.435  -1.151 -32.301  1.00  0.00    -0.325 N 
HETATM   16  H   UNL     1      -5.325  -0.851 -31.909  1.00  0.00     0.169 HD
HETATM   17  O   UNL     1      -2.577  -0.042 -33.153  1.00  0.00    -0.271 OA
BRANCH  15  18
HETATM   18  C   UNL     1      -4.483  -2.348 -33.052  1.00  0.00     0.040 A 
HETATM   19  C   UNL     1      -3.723  -3.513 -32.838  1.00  0.00    -0.035 A 
HETATM   20  C   UNL     1      -2.771  -3.732 -31.695  1.00  0.00     0.050 C 
HETATM   21  C   UNL     1      -3.859  -4.588 -33.744  1.00  0.00     0.009 A 
HETATM   22  C   UNL     1      -4.771  -4.546 -34.795  1.00  0.00     0.001 A 
HETATM   23  C   UNL     1      -5.571  -3.426 -34.963  1.00  0.00     0.002 A 
HETATM   24  C   UNL     1      -5.427  -2.341 -34.098  1.00  0.00     0.030 A 
ENDBRANCH  15  18
ENDBRANCH  13  14
ENDBRANCH   1  13
BRANCH   4  25
HETATM   25  C   UNL     1      -7.660   2.642 -33.783  1.00  0.00     0.175 C 
BRANCH  25  26
HETATM   26  C   UNL     1      -8.778   3.197 -32.923  1.00  0.00    -0.037 A 
HETATM   27  C   UNL     1     -10.126   3.039 -33.291  1.00  0.00     0.048 A 
HETATM   28  C   UNL     1     -11.091   3.529 -32.434  1.00  0.00     0.105 A 
HETATM   29  C   UNL     1     -10.767   4.175 -31.263  1.00  0.00     0.105 A 
HETATM   30  O   UNL     1     -12.437   3.437 -32.616  1.00  0.00    -0.323 OA
HETATM   31  O   UNL     1     -11.864   4.568 -30.562  1.00  0.00    -0.323 OA
HETATM   32  C   UNL     1      -9.460   4.373 -30.882  1.00  0.00     0.040 A 
HETATM   33  C   UNL     1     -12.918   4.070 -31.410  1.00  0.00     0.352 A 
HETATM   34  C   UNL     1      -8.459   3.878 -31.723  1.00  0.00     0.012 A 
ENDBRANCH  25  26
ENDBRANCH   4  25
BRANCH  11  35
HETATM   35  C   UNL     1      -0.841   5.332 -30.753  1.00  0.00     0.252 C 
HETATM   36  N   UNL     1      -0.995   6.078 -29.600  1.00  0.00    -0.352 N 
HETATM   37  H   UNL     1      -1.918   6.301 -29.264  1.00  0.00     0.163 HD
HETATM   38  O   UNL     1       0.239   4.879 -31.117  1.00  0.00    -0.268 OA
BRANCH  36  39
HETATM   39  C   UNL     1       0.108   6.277 -28.659  1.00  0.00     0.084 C 
HETATM   40  C   UNL     1       0.707   7.681 -28.809  1.00  0.00     0.025 C 
HETATM   41  C   UNL     1      -0.199   8.781 -28.259  1.00  0.00     0.002 C 
HETATM   42  C   UNL     1      -0.618   8.498 -26.820  1.00  0.00     0.000 C 
HETATM   43  C   UNL     1      -1.266   7.123 -26.682  1.00  0.00     0.002 C 
HETATM   44  C   UNL     1      -0.360   6.015 -27.220  1.00  0.00     0.025 C 
ENDBRANCH  36  39
ENDBRANCH  11  35
TORSDOF 7
ENDMDL
MODEL 5
REMARK VINA RESULT:      -9.8      2.673      6.660
REMARK  7 active torsions:
REMARK  status: ('A' for Active; 'I' for Inactive)
REMARK    1  A    between atoms: C_3  and  N_4 
REMARK       I    between atoms: N_4  and  C_5 
REMARK    2  A    between atoms: C_5  and  C_6 
REMARK    3  A    between atoms: C_6  and  N_7 
REMARK    4  A    between atoms: N_10  and  C_11 
REMARK    5  A    between atoms: C_11  and  C_12 
REMARK    6  A    between atoms: C_27  and  C_28 
REMARK       I    between atoms: C_28  and  N_29 
REMARK    7  A    between atoms: N_29  and  C_30 
ROOT
HETATM    1  N   UNL     1      -6.105   4.609 -32.722  1.00  0.00    -0.290 N 
HETATM    2  C   UNL     1      -6.359   3.461 -33.457  1.00  0.00     0.332 C 
HETATM    3  O   UNL     1      -5.688   3.232 -34.466  1.00  0.00    -0.246 OA
HETATM    4  N   UNL     1      -7.341   2.612 -32.976  1.00  0.00    -0.261 N 
HETATM    5  C   UNL     1      -7.790   2.641 -31.662  1.00  0.00     0.264 C 
HETATM    6  O   UNL     1      -8.539   1.799 -31.169  1.00  0.00    -0.267 OA
HETATM    7  C   UNL     1      -7.282   3.728 -30.803  1.00  0.00     0.059 A 
HETATM    8  C   UNL     1      -6.448   4.699 -31.352  1.00  0.00     0.056 A 
HETATM    9  C   UNL     1      -7.642   3.772 -29.449  1.00  0.00     0.020 A 
HETATM   10  C   UNL     1      -7.130   4.770 -28.617  1.00  0.00     0.018 A 
HETATM   11  C   UNL     1      -6.244   5.721 -29.133  1.00  0.00     0.034 A 
HETATM   12  C   UNL     1      -5.932   5.693 -30.508  1.00  0.00     0.048 A 
ENDROOT
BRANCH   1  13
HETATM   13  C   UNL     1      -5.552   5.760 -33.444  1.00  0.00     0.237 C 
BRANCH  13  14
HETATM   14  C   UNL     1      -4.036   5.983 -33.427  1.00  0.00     0.240 C 
HETATM   15  N   UNL     1      -3.466   5.928 -32.173  1.00  0.00    -0.325 N 
HETATM   16  H   UNL     1      -4.045   5.447 -31.488  1.00  0.00     0.169 HD
HETATM   17  O   UNL     1      -3.433   6.026 -34.496  1.00  0.00    -0.271 OA
BRANCH  15  18
HETATM   18  C   UNL     1      -2.105   6.069 -31.813  1.00  0.00     0.040 A 
HETATM   19  C   UNL     1      -1.374   7.268 -31.724  1.00  0.00    -0.035 A 
HETATM   20  C   UNL     1      -1.940   8.648 -31.910  1.00  0.00     0.050 C 
HETATM   21  C   UNL     1       0.004   7.201 -31.418  1.00  0.00     0.009 A 
HETATM   22  C   UNL     1       0.632   5.990 -31.138  1.00  0.00     0.001 A 
HETATM   23  C   UNL     1      -0.107   4.816 -31.157  1.00  0.00     0.002 A 
HETATM   24  C   UNL     1      -1.461   4.859 -31.489  1.00  0.00     0.030 A 
ENDBRANCH  15  18
ENDBRANCH  13  14
ENDBRANCH   1  13
BRANCH   4  25
HETATM   25  C   UNL     1      -7.702   1.439 -33.772  1.00  0.00     0.175 C 
BRANCH  25  26
HETATM   26  C   UNL     1      -6.709   0.294 -33.720  1.00  0.00    -0.037 A 
HETATM   27  C   UNL     1      -5.744   0.212 -32.702  1.00  0.00     0.048 A 
HETATM   28  C   UNL     1      -4.905  -0.884 -32.693  1.00  0.00     0.105 A 
HETATM   29  C   UNL     1      -4.979  -1.867 -33.653  1.00  0.00     0.105 A 
HETATM   30  O   UNL     1      -3.938  -1.139 -31.769  1.00  0.00    -0.323 OA
HETATM   31  O   UNL     1      -4.073  -2.861 -33.454  1.00  0.00    -0.323 OA
HETATM   32  C   UNL     1      -5.893  -1.810 -34.680  1.00  0.00     0.040 A 
HETATM   33  C   UNL     1      -3.438  -2.409 -32.242  1.00  0.00     0.352 A 
HETATM   34  C   UNL     1      -6.763  -0.718 -34.711  1.00  0.00     0.012 A 
ENDBRANCH  25  26
ENDBRANCH   4  25
BRANCH  11  35
HETATM   35  C   UNL     1      -5.583   6.768 -28.292  1.00  0.00     0.252 C 
HETATM   36  N   UNL     1      -4.231   6.630 -28.039  1.00  0.00    -0.352 N 
HETATM   37  H   UNL     1      -3.700   5.918 -28.514  1.00  0.00     0.163 HD
HETATM   38  O   UNL     1      -6.245   7.717 -27.887  1.00  0.00    -0.268 OA
BRANCH  36  39
HETATM   39  C   UNL     1      -3.463   7.680 -27.369  1.00  0.00     0.084 C 
HETATM   40  C   UNL     1      -3.159   7.291 -25.917  1.00  0.00     0.025 C 
HETATM   41  C   UNL     1      -2.103   6.193 -25.800  1.00  0.00     0.002 C 
HETATM   42  C   UNL     1      -0.834   6.548 -26.565  1.00  0.00     0.000 C 
HETATM   43  C   UNL     1      -1.130   6.880 -28.025  1.00  0.00     0.002 C 
HETATM   44  C   UNL     1      -2.177   7.987 -28.151  1.00  0.00     0.025 C 
ENDBRANCH  36  39
ENDBRANCH  11  35
TORSDOF 7
ENDMDL
MODEL 6
REMARK VINA RESULT:      -9.8      3.929      8.814
REMARK  7 active torsions:
REMARK  status: ('A' for Active; 'I' for Inactive)
REMARK    1  A    between atoms: C_3  and  N_4 
REMARK       I    between atoms: N_4  and  C_5 
REMARK    2  A    between atoms: C_5  and  C_6 
REMARK    3  A    between atoms: C_6  and  N_7 
REMARK    4  A    between atoms: N_10  and  C_11 
REMARK    5  A    between atoms: C_11  and  C_12 
REMARK    6  A    between atoms: C_27  and  C_28 
REMARK       I    between atoms: C_28  and  N_29 
REMARK    7  A    between atoms: N_29  and  C_30 
ROOT
HETATM    1  N   UNL     1      -8.928   4.320 -32.738  1.00  0.00    -0.290 N 
HETATM    2  C   UNL     1      -8.772   3.065 -32.171  1.00  0.00     0.332 C 
HETATM    3  O   UNL     1      -8.216   2.964 -31.075  1.00  0.00    -0.246 OA
HETATM    4  N   UNL     1      -9.297   1.991 -32.870  1.00  0.00    -0.261 N 
HETATM    5  C   UNL     1     -10.263   2.130 -33.858  1.00  0.00     0.264 C 
HETATM    6  O   UNL     1     -10.859   1.189 -34.378  1.00  0.00    -0.267 OA
HETATM    7  C   UNL     1     -10.623   3.505 -34.256  1.00  0.00     0.059 A 
HETATM    8  C   UNL     1      -9.943   4.579 -33.690  1.00  0.00     0.056 A 
HETATM    9  C   UNL     1     -11.641   3.714 -35.197  1.00  0.00     0.020 A 
HETATM   10  C   UNL     1     -12.020   5.011 -35.547  1.00  0.00     0.018 A 
HETATM   11  C   UNL     1     -11.392   6.106 -34.946  1.00  0.00     0.034 A 
HETATM   12  C   UNL     1     -10.335   5.880 -34.040  1.00  0.00     0.048 A 
ENDROOT
BRANCH   1  13
HETATM   13  C   UNL     1      -7.941   5.345 -32.381  1.00  0.00     0.237 C 
BRANCH  13  14
HETATM   14  C   UNL     1      -6.559   5.303 -33.042  1.00  0.00     0.240 C 
HETATM   15  N   UNL     1      -5.504   5.426 -32.164  1.00  0.00    -0.325 N 
HETATM   16  H   UNL     1      -5.754   5.213 -31.201  1.00  0.00     0.169 HD
HETATM   17  O   UNL     1      -6.483   5.006 -34.231  1.00  0.00    -0.271 OA
BRANCH  15  18
HETATM   18  C   UNL     1      -4.117   5.406 -32.441  1.00  0.00     0.040 A 
HETATM   19  C   UNL     1      -3.286   4.272 -32.520  1.00  0.00    -0.035 A 
HETATM   20  C   UNL     1      -3.748   2.846 -32.412  1.00  0.00     0.050 C 
HETATM   21  C   UNL     1      -1.902   4.459 -32.737  1.00  0.00     0.009 A 
HETATM   22  C   UNL     1      -1.359   5.726 -32.939  1.00  0.00     0.001 A 
HETATM   23  C   UNL     1      -2.190   6.836 -32.932  1.00  0.00     0.002 A 
HETATM   24  C   UNL     1      -3.554   6.674 -32.687  1.00  0.00     0.030 A 
ENDBRANCH  15  18
ENDBRANCH  13  14
ENDBRANCH   1  13
BRANCH   4  25
HETATM   25  C   UNL     1      -9.071   0.642 -32.352  1.00  0.00     0.175 C 
BRANCH  25  26
HETATM   26  C   UNL     1      -7.767  -0.004 -32.779  1.00  0.00    -0.037 A 
HETATM   27  C   UNL     1      -6.674  -0.089 -31.899  1.00  0.00     0.048 A 
HETATM   28  C   UNL     1      -5.537  -0.733 -32.342  1.00  0.00     0.105 A 
HETATM   29  C   UNL     1      -5.445  -1.263 -33.609  1.00  0.00     0.105 A 
HETATM   30  O   UNL     1      -4.402  -0.933 -31.617  1.00  0.00    -0.323 OA
HETATM   31  O   UNL     1      -4.246  -1.863 -33.839  1.00  0.00    -0.323 OA
HETATM   32  C   UNL     1      -6.483  -1.177 -34.508  1.00  0.00     0.040 A 
HETATM   33  C   UNL     1      -3.602  -1.677 -32.563  1.00  0.00     0.352 A 
HETATM   34  C   UNL     1      -7.653  -0.540 -34.086  1.00  0.00     0.012 A 
ENDBRANCH  25  26
ENDBRANCH   4  25
BRANCH  11  35
HETATM   35  C   UNL     1     -11.797   7.525 -35.199  1.00  0.00     0.252 C 
HETATM   36  N   UNL     1     -11.819   7.963 -36.509  1.00  0.00    -0.352 N 
HETATM   37  H   UNL     1     -11.688   7.306 -37.262  1.00  0.00     0.163 HD
HETATM   38  O   UNL     1     -12.124   8.232 -34.252  1.00  0.00    -0.268 OA
BRANCH  36  39
HETATM   39  C   UNL     1     -12.356   9.275 -36.873  1.00  0.00     0.084 C 
HETATM   40  C   UNL     1     -11.231  10.225 -37.303  1.00  0.00     0.025 C 
HETATM   41  C   UNL     1     -10.649   9.882 -38.673  1.00  0.00     0.002 C 
HETATM   42  C   UNL     1     -11.736   9.779 -39.737  1.00  0.00     0.000 C 
HETATM   43  C   UNL     1     -12.827   8.791 -39.334  1.00  0.00     0.002 C 
HETATM   44  C   UNL     1     -13.423   9.134 -37.968  1.00  0.00     0.025 C 
ENDBRANCH  36  39
ENDBRANCH  11  35
TORSDOF 7
ENDMDL
MODEL 7
REMARK VINA RESULT:      -9.5      4.464      8.449
REMARK  7 active torsions:
REMARK  status: ('A' for Active; 'I' for Inactive)
REMARK    1  A    between atoms: C_3  and  N_4 
REMARK       I    between atoms: N_4  and  C_5 
REMARK    2  A    between atoms: C_5  and  C_6 
REMARK    3  A    between atoms: C_6  and  N_7 
REMARK    4  A    between atoms: N_10  and  C_11 
REMARK    5  A    between atoms: C_11  and  C_12 
REMARK    6  A    between atoms: C_27  and  C_28 
REMARK       I    between atoms: C_28  and  N_29 
REMARK    7  A    between atoms: N_29  and  C_30 
ROOT
HETATM    1  N   UNL     1      -1.562   8.437 -30.159  1.00  0.00    -0.290 N 
HETATM    2  C   UNL     1      -1.469   7.844 -31.408  1.00  0.00     0.332 C 
HETATM    3  O   UNL     1      -1.806   8.486 -32.406  1.00  0.00    -0.246 OA
HETATM    4  N   UNL     1      -0.957   6.558 -31.456  1.00  0.00    -0.261 N 
HETATM    5  C   UNL     1      -0.205   6.004 -30.429  1.00  0.00     0.264 C 
HETATM    6  O   UNL     1       0.394   4.933 -30.511  1.00  0.00    -0.267 OA
HETATM    7  C   UNL     1      -0.082   6.791 -29.187  1.00  0.00     0.059 A 
HETATM    8  C   UNL     1      -0.769   7.997 -29.072  1.00  0.00     0.056 A 
HETATM    9  C   UNL     1       0.721   6.320 -28.140  1.00  0.00     0.020 A 
HETATM   10  C   UNL     1       0.881   7.079 -26.978  1.00  0.00     0.018 A 
HETATM   11  C   UNL     1       0.247   8.320 -26.865  1.00  0.00     0.034 A 
HETATM   12  C   UNL     1      -0.598   8.757 -27.906  1.00  0.00     0.048 A 
ENDROOT
BRANCH   1  13
HETATM   13  C   UNL     1      -2.581   9.478 -29.984  1.00  0.00     0.237 C 
BRANCH  13  14
HETATM   14  C   UNL     1      -4.044   9.057 -29.805  1.00  0.00     0.240 C 
HETATM   15  N   UNL     1      -4.250   7.694 -29.815  1.00  0.00    -0.325 N 
HETATM   16  H   UNL     1      -3.406   7.158 -29.623  1.00  0.00     0.169 HD
HETATM   17  O   UNL     1      -4.873   9.914 -29.509  1.00  0.00    -0.271 OA
BRANCH  15  18
HETATM   18  C   UNL     1      -5.462   6.982 -29.655  1.00  0.00     0.040 A 
HETATM   19  C   UNL     1      -6.498   6.854 -30.597  1.00  0.00    -0.035 A 
HETATM   20  C   UNL     1      -6.466   7.384 -32.003  1.00  0.00     0.050 C 
HETATM   21  C   UNL     1      -7.671   6.158 -30.226  1.00  0.00     0.009 A 
HETATM   22  C   UNL     1      -7.793   5.545 -28.982  1.00  0.00     0.001 A 
HETATM   23  C   UNL     1      -6.742   5.612 -28.080  1.00  0.00     0.002 A 
HETATM   24  C   UNL     1      -5.589   6.322 -28.416  1.00  0.00     0.030 A 
ENDBRANCH  15  18
ENDBRANCH  13  14
ENDBRANCH   1  13
BRANCH   4  25
HETATM   25  C   UNL     1      -0.930   5.864 -32.744  1.00  0.00     0.175 C 
BRANCH  25  26
HETATM   26  C   UNL     1      -2.281   5.408 -33.260  1.00  0.00    -0.037 A 
HETATM   27  C   UNL     1      -3.220   4.803 -32.406  1.00  0.00     0.048 A 
HETATM   28  C   UNL     1      -4.446   4.458 -32.936  1.00  0.00     0.105 A 
HETATM   29  C   UNL     1      -4.755   4.668 -34.260  1.00  0.00     0.105 A 
HETATM   30  O   UNL     1      -5.480   3.895 -32.250  1.00  0.00    -0.323 OA
HETATM   31  O   UNL     1      -6.016   4.267 -34.574  1.00  0.00    -0.323 OA
HETATM   32  C   UNL     1      -3.854   5.232 -35.134  1.00  0.00     0.040 A 
HETATM   33  C   UNL     1      -6.480   3.807 -33.289  1.00  0.00     0.352 A 
HETATM   34  C   UNL     1      -2.606   5.604 -34.625  1.00  0.00     0.012 A 
ENDBRANCH  25  26
ENDBRANCH   4  25
BRANCH  11  35
HETATM   35  C   UNL     1       0.435   9.233 -25.694  1.00  0.00     0.252 C 
HETATM   36  N   UNL     1       1.560   9.051 -24.911  1.00  0.00    -0.352 N 
HETATM   37  H   UNL     1       2.278   8.408 -25.205  1.00  0.00     0.163 HD
HETATM   38  O   UNL     1      -0.385  10.121 -25.489  1.00  0.00    -0.268 OA
BRANCH  36  39
HETATM   39  C   UNL     1       1.917   9.990 -23.848  1.00  0.00     0.084 C 
HETATM   40  C   UNL     1       1.872   9.304 -22.477  1.00  0.00     0.025 C 
HETATM   41  C   UNL     1       3.029   8.332 -22.255  1.00  0.00     0.002 C 
HETATM   42  C   UNL     1       4.379   8.995 -22.508  1.00  0.00     0.000 C 
HETATM   43  C   UNL     1       4.443   9.628 -23.895  1.00  0.00     0.002 C 
HETATM   44  C   UNL     1       3.295  10.612 -24.121  1.00  0.00     0.025 C 
ENDBRANCH  36  39
ENDBRANCH  11  35
TORSDOF 7
ENDMDL
MODEL 8
REMARK VINA RESULT:      -9.5      2.287      3.206
REMARK  7 active torsions:
REMARK  status: ('A' for Active; 'I' for Inactive)
REMARK    1  A    between atoms: C_3  and  N_4 
REMARK       I    between atoms: N_4  and  C_5 
REMARK    2  A    between atoms: C_5  and  C_6 
REMARK    3  A    between atoms: C_6  and  N_7 
REMARK    4  A    between atoms: N_10  and  C_11 
REMARK    5  A    between atoms: C_11  and  C_12 
REMARK    6  A    between atoms: C_27  and  C_28 
REMARK       I    between atoms: C_28  and  N_29 
REMARK    7  A    between atoms: N_29  and  C_30 
ROOT
HETATM    1  N   UNL     1      -8.024   2.281 -31.775  1.00  0.00    -0.290 N 
HETATM    2  C   UNL     1      -9.066   1.589 -32.372  1.00  0.00     0.332 C 
HETATM    3  O   UNL     1      -9.541   0.605 -31.799  1.00  0.00    -0.246 OA
HETATM    4  N   UNL     1      -9.539   2.082 -33.576  1.00  0.00    -0.261 N 
HETATM    5  C   UNL     1      -9.309   3.383 -34.005  1.00  0.00     0.264 C 
HETATM    6  O   UNL     1      -9.848   3.893 -34.984  1.00  0.00    -0.267 OA
HETATM    7  C   UNL     1      -8.399   4.208 -33.186  1.00  0.00     0.059 A 
HETATM    8  C   UNL     1      -7.767   3.638 -32.084  1.00  0.00     0.056 A 
HETATM    9  C   UNL     1      -8.181   5.550 -33.525  1.00  0.00     0.020 A 
HETATM   10  C   UNL     1      -7.358   6.352 -32.731  1.00  0.00     0.018 A 
HETATM   11  C   UNL     1      -6.760   5.817 -31.586  1.00  0.00     0.034 A 
HETATM   12  C   UNL     1      -6.948   4.451 -31.287  1.00  0.00     0.048 A 
ENDROOT
BRANCH   1  13
HETATM   13  C   UNL     1      -7.141   1.524 -30.881  1.00  0.00     0.237 C 
BRANCH  13  14
HETATM   14  C   UNL     1      -6.652   0.141 -31.322  1.00  0.00     0.240 C 
HETATM   15  N   UNL     1      -6.463   0.009 -32.681  1.00  0.00    -0.325 N 
HETATM   16  H   UNL     1      -6.366   0.902 -33.162  1.00  0.00     0.169 HD
HETATM   17  O   UNL     1      -6.314  -0.668 -30.462  1.00  0.00    -0.271 OA
BRANCH  15  18
HETATM   18  C   UNL     1      -6.004  -1.115 -33.405  1.00  0.00     0.040 A 
HETATM   19  C   UNL     1      -4.669  -1.524 -33.576  1.00  0.00    -0.035 A 
HETATM   20  C   UNL     1      -3.473  -0.880 -32.931  1.00  0.00     0.050 C 
HETATM   21  C   UNL     1      -4.401  -2.641 -34.399  1.00  0.00     0.009 A 
HETATM   22  C   UNL     1      -5.426  -3.378 -34.986  1.00  0.00     0.001 A 
HETATM   23  C   UNL     1      -6.745  -3.017 -34.759  1.00  0.00     0.002 A 
HETATM   24  C   UNL     1      -7.028  -1.898 -33.975  1.00  0.00     0.030 A 
ENDBRANCH  15  18
ENDBRANCH  13  14
ENDBRANCH   1  13
BRANCH   4  25
HETATM   25  C   UNL     1     -10.574   1.327 -34.283  1.00  0.00     0.175 C 
BRANCH  25  26
HETATM   26  C   UNL     1     -11.983   1.511 -33.752  1.00  0.00    -0.037 A 
HETATM   27  C   UNL     1     -12.376   2.709 -33.131  1.00  0.00     0.048 A 
HETATM   28  C   UNL     1     -13.688   2.820 -32.716  1.00  0.00     0.105 A 
HETATM   29  C   UNL     1     -14.593   1.796 -32.874  1.00  0.00     0.105 A 
HETATM   30  O   UNL     1     -14.246   3.915 -32.128  1.00  0.00    -0.323 OA
HETATM   31  O   UNL     1     -15.830   2.116 -32.408  1.00  0.00    -0.323 OA
HETATM   32  C   UNL     1     -14.239   0.599 -33.452  1.00  0.00     0.040 A 
HETATM   33  C   UNL     1     -15.610   3.470 -31.965  1.00  0.00     0.352 A 
HETATM   34  C   UNL     1     -12.921   0.458 -33.893  1.00  0.00     0.012 A 
ENDBRANCH  25  26
ENDBRANCH   4  25
BRANCH  11  35
HETATM   35  C   UNL     1      -5.937   6.629 -30.635  1.00  0.00     0.252 C 
HETATM   36  N   UNL     1      -4.650   6.957 -31.018  1.00  0.00    -0.352 N 
HETATM   37  H   UNL     1      -4.338   6.758 -31.955  1.00  0.00     0.163 HD
HETATM   38  O   UNL     1      -6.434   6.999 -29.577  1.00  0.00    -0.268 OA
BRANCH  36  39
HETATM   39  C   UNL     1      -3.826   7.879 -30.236  1.00  0.00     0.084 C 
HETATM   40  C   UNL     1      -2.829   7.112 -29.360  1.00  0.00     0.025 C 
HETATM   41  C   UNL     1      -1.688   6.486 -30.159  1.00  0.00     0.002 C 
HETATM   42  C   UNL     1      -0.988   7.513 -31.042  1.00  0.00     0.000 C 
HETATM   43  C   UNL     1      -1.973   8.237 -31.954  1.00  0.00     0.002 C 
HETATM   44  C   UNL     1      -3.113   8.877 -31.160  1.00  0.00     0.025 C 
ENDBRANCH  36  39
ENDBRANCH  11  35
TORSDOF 7
ENDMDL
MODEL 9
REMARK VINA RESULT:      -9.2      2.440      8.466
REMARK  7 active torsions:
REMARK  status: ('A' for Active; 'I' for Inactive)
REMARK    1  A    between atoms: C_3  and  N_4 
REMARK       I    between atoms: N_4  and  C_5 
REMARK    2  A    between atoms: C_5  and  C_6 
REMARK    3  A    between atoms: C_6  and  N_7 
REMARK    4  A    between atoms: N_10  and  C_11 
REMARK    5  A    between atoms: C_11  and  C_12 
REMARK    6  A    between atoms: C_27  and  C_28 
REMARK       I    between atoms: C_28  and  N_29 
REMARK    7  A    between atoms: N_29  and  C_30 
ROOT
HETATM    1  N   UNL     1      -7.338   4.278 -30.634  1.00  0.00    -0.290 N 
HETATM    2  C   UNL     1      -5.988   4.470 -30.383  1.00  0.00     0.332 C 
HETATM    3  O   UNL     1      -5.243   3.489 -30.318  1.00  0.00    -0.246 OA
HETATM    4  N   UNL     1      -5.552   5.778 -30.261  1.00  0.00    -0.261 N 
HETATM    5  C   UNL     1      -6.273   6.865 -30.738  1.00  0.00     0.264 C 
HETATM    6  O   UNL     1      -5.839   8.014 -30.787  1.00  0.00    -0.267 OA
HETATM    7  C   UNL     1      -7.624   6.593 -31.267  1.00  0.00     0.059 A 
HETATM    8  C   UNL     1      -8.136   5.301 -31.202  1.00  0.00     0.056 A 
HETATM    9  C   UNL     1      -8.374   7.636 -31.828  1.00  0.00     0.020 A 
HETATM   10  C   UNL     1      -9.635   7.382 -32.373  1.00  0.00     0.018 A 
HETATM   11  C   UNL     1     -10.144   6.079 -32.372  1.00  0.00     0.034 A 
HETATM   12  C   UNL     1      -9.399   5.051 -31.758  1.00  0.00     0.048 A 
ENDROOT
BRANCH   1  13
HETATM   13  C   UNL     1      -7.927   3.006 -30.202  1.00  0.00     0.237 C 
BRANCH  13  14
HETATM   14  C   UNL     1      -8.142   1.900 -31.240  1.00  0.00     0.240 C 
HETATM   15  N   UNL     1      -7.022   1.591 -31.983  1.00  0.00    -0.325 N 
HETATM   16  H   UNL     1      -6.154   1.893 -31.546  1.00  0.00     0.169 HD
HETATM   17  O   UNL     1      -9.199   1.275 -31.228  1.00  0.00    -0.271 OA
BRANCH  15  18
HETATM   18  C   UNL     1      -6.876   0.615 -32.996  1.00  0.00     0.040 A 
HETATM   19  C   UNL     1      -7.640   0.495 -34.172  1.00  0.00    -0.035 A 
HETATM   20  C   UNL     1      -8.711   1.452 -34.614  1.00  0.00     0.050 C 
HETATM   21  C   UNL     1      -7.390  -0.596 -35.035  1.00  0.00     0.009 A 
HETATM   22  C   UNL     1      -6.367  -1.507 -34.783  1.00  0.00     0.001 A 
HETATM   23  C   UNL     1      -5.568  -1.345 -33.662  1.00  0.00     0.002 A 
HETATM   24  C   UNL     1      -5.821  -0.294 -32.780  1.00  0.00     0.030 A 
ENDBRANCH  15  18
ENDBRANCH  13  14
ENDBRANCH   1  13
BRANCH   4  25
HETATM   25  C   UNL     1      -4.154   6.018 -29.904  1.00  0.00     0.175 C 
BRANCH  25  26
HETATM   26  C   UNL     1      -3.213   6.215 -31.077  1.00  0.00    -0.037 A 
HETATM   27  C   UNL     1      -3.088   5.241 -32.082  1.00  0.00     0.048 A 
HETATM   28  C   UNL     1      -2.248   5.511 -33.143  1.00  0.00     0.105 A 
HETATM   29  C   UNL     1      -1.529   6.681 -33.225  1.00  0.00     0.105 A 
HETATM   30  O   UNL     1      -2.032   4.699 -34.214  1.00  0.00    -0.323 OA
HETATM   31  O   UNL     1      -0.774   6.753 -34.353  1.00  0.00    -0.323 OA
HETATM   32  C   UNL     1      -1.604   7.648 -32.248  1.00  0.00     0.040 A 
HETATM   33  C   UNL     1      -1.121   5.508 -34.990  1.00  0.00     0.352 A 
HETATM   34  C   UNL     1      -2.454   7.409 -31.166  1.00  0.00     0.012 A 
ENDBRANCH  25  26
ENDBRANCH   4  25
BRANCH  11  35
HETATM   35  C   UNL     1     -11.445   5.707 -33.012  1.00  0.00     0.252 C 
HETATM   36  N   UNL     1     -11.666   4.370 -33.288  1.00  0.00    -0.352 N 
HETATM   37  H   UNL     1     -11.021   3.674 -32.949  1.00  0.00     0.163 HD
HETATM   38  O   UNL     1     -12.273   6.582 -33.238  1.00  0.00    -0.268 OA
BRANCH  36  39
HETATM   39  C   UNL     1     -12.964   3.887 -33.760  1.00  0.00     0.084 C 
HETATM   40  C   UNL     1     -12.964   3.727 -35.285  1.00  0.00     0.025 C 
HETATM   41  C   UNL     1     -12.142   2.531 -35.763  1.00  0.00     0.002 C 
HETATM   42  C   UNL     1     -12.561   1.244 -35.062  1.00  0.00     0.000 C 
HETATM   43  C   UNL     1     -12.505   1.385 -33.543  1.00  0.00     0.002 C 
HETATM   44  C   UNL     1     -13.335   2.573 -33.056  1.00  0.00     0.025 C 
ENDBRANCH  36  39
ENDBRANCH  11  35
TORSDOF 7
ENDMDL
MODEL 10
REMARK VINA RESULT:      -9.2      2.468      3.654
REMARK  7 active torsions:
REMARK  status: ('A' for Active; 'I' for Inactive)
REMARK    1  A    between atoms: C_3  and  N_4 
REMARK       I    between atoms: N_4  and  C_5 
REMARK    2  A    between atoms: C_5  and  C_6 
REMARK    3  A    between atoms: C_6  and  N_7 
REMARK    4  A    between atoms: N_10  and  C_11 
REMARK    5  A    between atoms: C_11  and  C_12 
REMARK    6  A    between atoms: C_27  and  C_28 
REMARK       I    between atoms: C_28  and  N_29 
REMARK    7  A    between atoms: N_29  and  C_30 
ROOT
HETATM    1  N   UNL     1      -8.786   2.143 -33.409  1.00  0.00    -0.290 N 
HETATM    2  C   UNL     1     -10.144   2.101 -33.135  1.00  0.00     0.332 C 
HETATM    3  O   UNL     1     -10.746   1.029 -33.234  1.00  0.00    -0.246 OA
HETATM    4  N   UNL     1     -10.738   3.282 -32.722  1.00  0.00    -0.261 N 
HETATM    5  C   UNL     1     -10.017   4.355 -32.214  1.00  0.00     0.264 C 
HETATM    6  O   UNL     1     -10.526   5.346 -31.694  1.00  0.00    -0.267 OA
HETATM    7  C   UNL     1      -8.545   4.256 -32.261  1.00  0.00     0.059 A 
HETATM    8  C   UNL     1      -7.954   3.149 -32.864  1.00  0.00     0.056 A 
HETATM    9  C   UNL     1      -7.760   5.274 -31.700  1.00  0.00     0.020 A 
HETATM   10  C   UNL     1      -6.368   5.168 -31.698  1.00  0.00     0.018 A 
HETATM   11  C   UNL     1      -5.754   4.037 -32.245  1.00  0.00     0.034 A 
HETATM   12  C   UNL     1      -6.555   3.047 -32.851  1.00  0.00     0.048 A 
ENDROOT
BRANCH   1  13
HETATM   13  C   UNL     1      -8.263   1.156 -34.360  1.00  0.00     0.237 C 
BRANCH  13  14
HETATM   14  C   UNL     1      -7.622  -0.126 -33.818  1.00  0.00     0.240 C 
HETATM   15  N   UNL     1      -6.901  -0.840 -34.751  1.00  0.00    -0.325 N 
HETATM   16  H   UNL     1      -6.628  -0.286 -35.560  1.00  0.00     0.169 HD
HETATM   17  O   UNL     1      -7.650  -0.334 -32.608  1.00  0.00    -0.271 OA
BRANCH  15  18
HETATM   18  C   UNL     1      -6.176  -2.042 -34.576  1.00  0.00     0.040 A 
HETATM   19  C   UNL     1      -4.866  -2.176 -34.080  1.00  0.00    -0.035 A 
HETATM   20  C   UNL     1      -4.017  -1.053 -33.552  1.00  0.00     0.050 C 
HETATM   21  C   UNL     1      -4.281  -3.462 -34.047  1.00  0.00     0.009 A 
HETATM   22  C   UNL     1      -4.991  -4.597 -34.427  1.00  0.00     0.001 A 
HETATM   23  C   UNL     1      -6.307  -4.472 -34.847  1.00  0.00     0.002 A 
HETATM   24  C   UNL     1      -6.890  -3.207 -34.918  1.00  0.00     0.030 A 
ENDBRANCH  15  18
ENDBRANCH  13  14
ENDBRANCH   1  13
BRANCH   4  25
HETATM   25  C   UNL     1     -12.186   3.301 -32.514  1.00  0.00     0.175 C 
BRANCH  25  26
HETATM   26  C   UNL     1     -12.921   4.440 -33.194  1.00  0.00    -0.037 A 
HETATM   27  C   UNL     1     -12.680   4.760 -34.541  1.00  0.00     0.048 A 
HETATM   28  C   UNL     1     -13.422   5.778 -35.106  1.00  0.00     0.105 A 
HETATM   29  C   UNL     1     -14.356   6.486 -34.385  1.00  0.00     0.105 A 
HETATM   30  O   UNL     1     -13.343   6.197 -36.399  1.00  0.00    -0.323 OA
HETATM   31  O   UNL     1     -14.981   7.436 -35.131  1.00  0.00    -0.323 OA
HETATM   32  C   UNL     1     -14.601   6.221 -33.058  1.00  0.00     0.040 A 
HETATM   33  C   UNL     1     -14.356   7.226 -36.413  1.00  0.00     0.352 A 
HETATM   34  C   UNL     1     -13.874   5.188 -32.460  1.00  0.00     0.012 A 
ENDBRANCH  25  26
ENDBRANCH   4  25
BRANCH  11  35
HETATM   35  C   UNL     1      -4.276   3.806 -32.205  1.00  0.00     0.252 C 
HETATM   36  N   UNL     1      -3.456   4.909 -32.057  1.00  0.00    -0.352 N 
HETATM   37  H   UNL     1      -3.859   5.812 -31.859  1.00  0.00     0.163 HD
HETATM   38  O   UNL     1      -3.847   2.659 -32.270  1.00  0.00    -0.268 OA
BRANCH  36  39
HETATM   39  C   UNL     1      -2.015   4.774 -31.844  1.00  0.00     0.084 C 
HETATM   40  C   UNL     1      -1.249   4.963 -33.158  1.00  0.00     0.025 C 
HETATM   41  C   UNL     1      -1.225   6.414 -33.635  1.00  0.00     0.002 C 
HETATM   42  C   UNL     1      -0.719   7.356 -32.548  1.00  0.00     0.000 C 
HETATM   43  C   UNL     1      -1.519   7.208 -31.257  1.00  0.00     0.002 C 
HETATM   44  C   UNL     1      -1.538   5.760 -30.767  1.00  0.00     0.025 C 
ENDBRANCH  36  39
ENDBRANCH  11  35
TORSDOF 7
ENDMDL
