MODEL 1
REMARK VINA RESULT:      -8.8      0.000      0.000
REMARK  8 active torsions:
REMARK  status: ('A' for Active; 'I' for Inactive)
REMARK    1  A    between atoms: N_4  and  C_6 
REMARK    2  A    between atoms: C_6  and  C_7 
REMARK       I    between atoms: C_7  and  N_8 
REMARK    3  A    between atoms: N_8  and  C_9 
REMARK    4  A    between atoms: C_15  and  C_16 
REMARK    5  A    between atoms: C_21  and  C_22 
REMARK       I    between atoms: C_22  and  N_23 
REMARK    6  A    between atoms: N_23  and  C_24 
REMARK    7  A    between atoms: C_25  and  O_26 
REMARK    8  A    between atoms: C_29  and  O_30 
ROOT
HETATM    1  C   UNL     1      -8.706   4.451 -32.769  1.00  0.00     0.093 C 
HETATM    2  S   UNL     1      -9.820   5.459 -33.556  1.00  0.00    -0.075 SA
HETATM    3  C   UNL     1     -11.008   4.258 -33.547  1.00  0.00    -0.008 C 
HETATM    4  C   UNL     1     -10.554   3.052 -33.043  1.00  0.00    -0.026 C 
HETATM    5  C   UNL     1     -11.454   1.849 -33.072  1.00  0.00     0.041 C 
HETATM    6  C   UNL     1     -12.754   2.071 -33.853  1.00  0.00     0.010 C 
HETATM    7  C   UNL     1     -13.407   3.460 -33.659  1.00  0.00    -0.002 C 
HETATM    8  C   UNL     1     -12.381   4.544 -34.078  1.00  0.00     0.052 C 
HETATM    9  C   UNL     1      -9.215   3.184 -32.476  1.00  0.00     0.073 C 
ENDROOT
BRANCH   9  10
HETATM   10  C   UNL     1      -8.421   2.262 -31.628  1.00  0.00     0.259 C 
HETATM   11  N   UNL     1      -8.509   0.925 -31.904  1.00  0.00    -0.320 N 
HETATM   12  H   UNL     1      -8.759   0.352 -31.103  1.00  0.00     0.169 HD
HETATM   13  O   UNL     1      -7.962   2.641 -30.547  1.00  0.00    -0.267 OA
BRANCH  11  14
HETATM   14  C   UNL     1      -7.716   0.178 -32.805  1.00  0.00     0.068 A 
HETATM   15  C   UNL     1      -6.597  -0.481 -32.255  1.00  0.00     0.097 A 
HETATM   16  C   UNL     1      -5.825  -1.334 -33.049  1.00  0.00     0.075 A 
HETATM   17  C   UNL     1      -6.163  -1.532 -34.388  1.00  0.00     0.070 A 
HETATM   18  C   UNL     1      -7.242  -0.833 -34.939  1.00  0.00     0.039 A 
HETATM   19  C   UNL     1      -8.014   0.032 -34.157  1.00  0.00     0.035 A 
BRANCH  15  20
HETATM   20  O   UNL     1      -6.356  -0.218 -30.925  1.00  0.00    -0.354 OA
HETATM   21  C   UNL     1      -5.117   0.409 -30.618  1.00  0.00     0.210 C 
ENDBRANCH  15  20
BRANCH  17  22
HETATM   22  O   UNL     1      -5.524  -2.372 -35.260  1.00  0.00    -0.356 OA
HETATM   23  C   UNL     1      -5.754  -3.768 -35.107  1.00  0.00     0.210 C 
ENDBRANCH  17  22
ENDBRANCH  11  14
ENDBRANCH   9  10
BRANCH   1  24
HETATM   24  N   UNL     1      -7.487   4.980 -32.355  1.00  0.00    -0.319 N 
HETATM   25  C   UNL     1      -6.433   5.292 -33.183  1.00  0.00     0.248 C 
HETATM   26  O   UNL     1      -6.227   4.889 -34.329  1.00  0.00    -0.271 OA
HETATM   27  H   UNL     1      -7.359   4.982 -31.340  1.00  0.00     0.169 HD
BRANCH  25  28
HETATM   28  C   UNL     1      -5.438   6.296 -32.592  1.00  0.00     0.337 C 
BRANCH  28  29
HETATM   29  N   UNL     1      -4.037   5.662 -32.541  1.00  0.00    -0.062 N 
HETATM   30  C   UNL     1      -3.203   5.988 -33.762  1.00  0.00     0.239 C 
HETATM   31  C   UNL     1      -1.949   5.111 -33.751  1.00  0.00     0.007 C 
HETATM   32  C   UNL     1      -1.077   5.402 -34.971  1.00  0.00     0.011 C 
HETATM   33  C   UNL     1      -1.158   5.315 -32.453  1.00  0.00     0.007 C 
HETATM   34  C   UNL     1      -2.035   5.080 -31.226  1.00  0.00     0.028 C 
HETATM   35  C   UNL     1      -3.307   5.917 -31.258  1.00  0.00     0.235 C 
HETATM   36  H   UNL     1      -4.242   4.648 -32.615  1.00  0.00     0.280 HD
ENDBRANCH  28  29
ENDBRANCH  25  28
ENDBRANCH   1  24
BRANCH   7  37
HETATM   37  C   UNL     1     -14.150   3.698 -32.287  1.00  0.00    -0.047 C 
HETATM   38  C   UNL     1     -13.231   3.930 -31.075  1.00  0.00     0.015 C 
HETATM   39  C   UNL     1     -15.068   4.939 -32.406  1.00  0.00     0.015 C 
HETATM   40  C   UNL     1     -15.062   2.491 -31.967  1.00  0.00     0.015 C 
ENDBRANCH   7  37
TORSDOF 8
ENDMDL
MODEL 2
REMARK VINA RESULT:      -8.7      2.172      7.353
REMARK  8 active torsions:
REMARK  status: ('A' for Active; 'I' for Inactive)
REMARK    1  A    between atoms: N_4  and  C_6 
REMARK    2  A    between atoms: C_6  and  C_7 
REMARK       I    between atoms: C_7  and  N_8 
REMARK    3  A    between atoms: N_8  and  C_9 
REMARK    4  A    between atoms: C_15  and  C_16 
REMARK    5  A    between atoms: C_21  and  C_22 
REMARK       I    between atoms: C_22  and  N_23 
REMARK    6  A    between atoms: N_23  and  C_24 
REMARK    7  A    between atoms: C_25  and  O_26 
REMARK    8  A    between atoms: C_29  and  O_30 
ROOT
HETATM    1  C   UNL     1      -7.842   5.673 -31.802  1.00  0.00     0.093 C 
HETATM    2  S   UNL     1      -6.962   7.022 -32.333  1.00  0.00    -0.075 SA
HETATM    3  C   UNL     1      -5.487   6.260 -32.023  1.00  0.00    -0.008 C 
HETATM    4  C   UNL     1      -5.633   5.022 -31.424  1.00  0.00    -0.026 C 
HETATM    5  C   UNL     1      -4.415   4.264 -30.979  1.00  0.00     0.041 C 
HETATM    6  C   UNL     1      -3.115   5.069 -31.085  1.00  0.00     0.010 C 
HETATM    7  C   UNL     1      -2.995   5.958 -32.344  1.00  0.00    -0.002 C 
HETATM    8  C   UNL     1      -4.194   6.939 -32.365  1.00  0.00     0.052 C 
HETATM    9  C   UNL     1      -7.034   4.612 -31.385  1.00  0.00     0.073 C 
ENDROOT
BRANCH   9  10
HETATM   10  C   UNL     1      -7.659   3.305 -31.070  1.00  0.00     0.259 C 
HETATM   11  N   UNL     1      -7.438   2.278 -31.944  1.00  0.00    -0.320 N 
HETATM   12  H   UNL     1      -8.286   1.831 -32.281  1.00  0.00     0.169 HD
HETATM   13  O   UNL     1      -8.577   3.231 -30.247  1.00  0.00    -0.267 OA
BRANCH  11  14
HETATM   14  C   UNL     1      -6.373   1.348 -31.928  1.00  0.00     0.068 A 
HETATM   15  C   UNL     1      -5.890   0.930 -33.186  1.00  0.00     0.097 A 
HETATM   16  C   UNL     1      -4.765   0.104 -33.266  1.00  0.00     0.075 A 
HETATM   17  C   UNL     1      -4.121  -0.308 -32.099  1.00  0.00     0.070 A 
HETATM   18  C   UNL     1      -4.639   0.068 -30.855  1.00  0.00     0.039 A 
HETATM   19  C   UNL     1      -5.770   0.885 -30.762  1.00  0.00     0.035 A 
BRANCH  15  20
HETATM   20  O   UNL     1      -6.597   1.396 -34.272  1.00  0.00    -0.354 OA
HETATM   21  C   UNL     1      -7.106   0.414 -35.165  1.00  0.00     0.210 C 
ENDBRANCH  15  20
BRANCH  17  22
HETATM   22  O   UNL     1      -2.989  -1.074 -32.036  1.00  0.00    -0.356 OA
HETATM   23  C   UNL     1      -3.161  -2.485 -31.960  1.00  0.00     0.210 C 
ENDBRANCH  17  22
ENDBRANCH  11  14
ENDBRANCH   9  10
BRANCH   1  24
HETATM   24  N   UNL     1      -9.225   5.661 -31.957  1.00  0.00    -0.319 N 
HETATM   25  C   UNL     1      -9.892   5.346 -33.119  1.00  0.00     0.248 C 
HETATM   26  O   UNL     1      -9.447   5.343 -34.268  1.00  0.00    -0.271 OA
HETATM   27  H   UNL     1      -9.735   6.061 -31.166  1.00  0.00     0.169 HD
BRANCH  25  28
HETATM   28  C   UNL     1     -11.349   4.916 -32.918  1.00  0.00     0.337 C 
BRANCH  28  29
HETATM   29  N   UNL     1     -11.568   3.530 -33.548  1.00  0.00    -0.062 N 
HETATM   30  C   UNL     1     -10.840   2.430 -32.807  1.00  0.00     0.239 C 
HETATM   31  C   UNL     1     -10.894   1.151 -33.646  1.00  0.00     0.007 C 
HETATM   32  C   UNL     1     -10.164   0.010 -32.938  1.00  0.00     0.011 C 
HETATM   33  C   UNL     1     -12.346   0.764 -33.950  1.00  0.00     0.007 C 
HETATM   34  C   UNL     1     -13.100   1.917 -34.608  1.00  0.00     0.028 C 
HETATM   35  C   UNL     1     -13.008   3.203 -33.798  1.00  0.00     0.235 C 
HETATM   36  H   UNL     1     -11.080   3.613 -34.459  1.00  0.00     0.280 HD
ENDBRANCH  28  29
ENDBRANCH  25  28
ENDBRANCH   1  24
BRANCH   7  37
HETATM   37  C   UNL     1      -2.683   5.211 -33.700  1.00  0.00    -0.047 C 
HETATM   38  C   UNL     1      -3.759   5.355 -34.790  1.00  0.00     0.015 C 
HETATM   39  C   UNL     1      -1.359   5.751 -34.293  1.00  0.00     0.015 C 
HETATM   40  C   UNL     1      -2.476   3.703 -33.433  1.00  0.00     0.015 C 
ENDBRANCH   7  37
TORSDOF 8
ENDMDL
MODEL 3
REMARK VINA RESULT:      -8.7      3.102      8.606
REMARK  8 active torsions:
REMARK  status: ('A' for Active; 'I' for Inactive)
REMARK    1  A    between atoms: N_4  and  C_6 
REMARK    2  A    between atoms: C_6  and  C_7 
REMARK       I    between atoms: C_7  and  N_8 
REMARK    3  A    between atoms: N_8  and  C_9 
REMARK    4  A    between atoms: C_15  and  C_16 
REMARK    5  A    between atoms: C_21  and  C_22 
REMARK       I    between atoms: C_22  and  N_23 
REMARK    6  A    between atoms: N_23  and  C_24 
REMARK    7  A    between atoms: C_25  and  O_26 
REMARK    8  A    between atoms: C_29  and  O_30 
ROOT
HETATM    1  C   UNL     1      -3.862   3.874 -31.527  1.00  0.00     0.093 C 
HETATM    2  S   UNL     1      -2.276   4.035 -32.104  1.00  0.00    -0.075 SA
HETATM    3  C   UNL     1      -2.089   5.538 -31.357  1.00  0.00    -0.008 C 
HETATM    4  C   UNL     1      -3.248   5.987 -30.748  1.00  0.00    -0.026 C 
HETATM    5  C   UNL     1      -3.283   7.359 -30.138  1.00  0.00     0.041 C 
HETATM    6  C   UNL     1      -2.035   8.198 -30.435  1.00  0.00     0.010 C 
HETATM    7  C   UNL     1      -0.698   7.421 -30.396  1.00  0.00    -0.002 C 
HETATM    8  C   UNL     1      -0.778   6.262 -31.422  1.00  0.00     0.052 C 
HETATM    9  C   UNL     1      -4.282   4.956 -30.749  1.00  0.00     0.073 C 
ENDROOT
BRANCH   9  10
HETATM   10  C   UNL     1      -5.575   4.871 -30.027  1.00  0.00     0.259 C 
HETATM   11  N   UNL     1      -6.700   5.238 -30.711  1.00  0.00    -0.320 N 
HETATM   12  H   UNL     1      -7.262   5.940 -30.240  1.00  0.00     0.169 HD
HETATM   13  O   UNL     1      -5.601   4.783 -28.795  1.00  0.00    -0.267 OA
BRANCH  11  14
HETATM   14  C   UNL     1      -7.524   4.416 -31.515  1.00  0.00     0.068 A 
HETATM   15  C   UNL     1      -7.391   4.572 -32.911  1.00  0.00     0.097 A 
HETATM   16  C   UNL     1      -8.080   3.723 -33.781  1.00  0.00     0.075 A 
HETATM   17  C   UNL     1      -8.901   2.719 -33.266  1.00  0.00     0.070 A 
HETATM   18  C   UNL     1      -9.068   2.606 -31.881  1.00  0.00     0.039 A 
HETATM   19  C   UNL     1      -8.393   3.457 -31.002  1.00  0.00     0.035 A 
BRANCH  15  20
HETATM   20  O   UNL     1      -6.555   5.591 -33.311  1.00  0.00    -0.354 OA
HETATM   21  C   UNL     1      -5.470   5.224 -34.156  1.00  0.00     0.210 C 
ENDBRANCH  15  20
BRANCH  17  22
HETATM   22  O   UNL     1      -9.592   1.793 -34.000  1.00  0.00    -0.356 OA
HETATM   23  C   UNL     1     -10.368   0.840 -33.282  1.00  0.00     0.210 C 
ENDBRANCH  17  22
ENDBRANCH  11  14
ENDBRANCH   9  10
BRANCH   1  24
HETATM   24  N   UNL     1      -4.539   2.675 -31.727  1.00  0.00    -0.319 N 
HETATM   25  C   UNL     1      -4.082   1.431 -31.354  1.00  0.00     0.248 C 
HETATM   26  O   UNL     1      -2.925   1.098 -31.095  1.00  0.00    -0.271 OA
HETATM   27  H   UNL     1      -5.363   2.759 -32.328  1.00  0.00     0.169 HD
BRANCH  25  28
HETATM   28  C   UNL     1      -5.177   0.368 -31.217  1.00  0.00     0.337 C 
BRANCH  28  29
HETATM   29  N   UNL     1      -5.422  -0.298 -32.582  1.00  0.00    -0.062 N 
HETATM   30  C   UNL     1      -4.752  -1.650 -32.701  1.00  0.00     0.239 C 
HETATM   31  C   UNL     1      -4.822  -2.109 -34.159  1.00  0.00     0.007 C 
HETATM   32  C   UNL     1      -4.152  -3.470 -34.329  1.00  0.00     0.011 C 
HETATM   33  C   UNL     1      -6.277  -2.152 -34.643  1.00  0.00     0.007 C 
HETATM   34  C   UNL     1      -6.974  -0.811 -34.427  1.00  0.00     0.028 C 
HETATM   35  C   UNL     1      -6.864  -0.331 -32.985  1.00  0.00     0.235 C 
HETATM   36  H   UNL     1      -4.905   0.320 -33.234  1.00  0.00     0.280 HD
ENDBRANCH  28  29
ENDBRANCH  25  28
ENDBRANCH   1  24
BRANCH   7  37
HETATM   37  C   UNL     1      -0.148   7.047 -28.965  1.00  0.00    -0.047 C 
HETATM   38  C   UNL     1      -1.195   7.050 -27.838  1.00  0.00     0.015 C 
HETATM   39  C   UNL     1       0.474   5.630 -29.005  1.00  0.00     0.015 C 
HETATM   40  C   UNL     1       0.982   8.024 -28.565  1.00  0.00     0.015 C 
ENDBRANCH   7  37
TORSDOF 8
ENDMDL
MODEL 4
REMARK VINA RESULT:      -8.5      3.917      7.616
REMARK  8 active torsions:
REMARK  status: ('A' for Active; 'I' for Inactive)
REMARK    1  A    between atoms: N_4  and  C_6 
REMARK    2  A    between atoms: C_6  and  C_7 
REMARK       I    between atoms: C_7  and  N_8 
REMARK    3  A    between atoms: N_8  and  C_9 
REMARK    4  A    between atoms: C_15  and  C_16 
REMARK    5  A    between atoms: C_21  and  C_22 
REMARK       I    between atoms: C_22  and  N_23 
REMARK    6  A    between atoms: N_23  and  C_24 
REMARK    7  A    between atoms: C_25  and  O_26 
REMARK    8  A    between atoms: C_29  and  O_30 
ROOT
HETATM    1  C   UNL     1      -3.765   3.312 -31.317  1.00  0.00     0.093 C 
HETATM    2  S   UNL     1      -3.670   1.621 -31.380  1.00  0.00    -0.075 SA
HETATM    3  C   UNL     1      -5.339   1.472 -31.594  1.00  0.00    -0.008 C 
HETATM    4  C   UNL     1      -6.004   2.684 -31.522  1.00  0.00    -0.026 C 
HETATM    5  C   UNL     1      -7.504   2.713 -31.578  1.00  0.00     0.041 C 
HETATM    6  C   UNL     1      -8.150   1.323 -31.526  1.00  0.00     0.010 C 
HETATM    7  C   UNL     1      -7.415   0.228 -32.333  1.00  0.00    -0.002 C 
HETATM    8  C   UNL     1      -5.962   0.125 -31.805  1.00  0.00     0.052 C 
HETATM    9  C   UNL     1      -5.065   3.802 -31.465  1.00  0.00     0.073 C 
ENDROOT
BRANCH   9  10
HETATM   10  C   UNL     1      -5.278   5.261 -31.614  1.00  0.00     0.259 C 
HETATM   11  N   UNL     1      -6.082   5.875 -30.694  1.00  0.00    -0.320 N 
HETATM   12  H   UNL     1      -6.842   6.413 -31.100  1.00  0.00     0.169 HD
HETATM   13  O   UNL     1      -5.011   5.829 -32.678  1.00  0.00    -0.267 OA
BRANCH  11  14
HETATM   14  C   UNL     1      -5.697   6.438 -29.455  1.00  0.00     0.068 A 
HETATM   15  C   UNL     1      -5.871   7.831 -29.321  1.00  0.00     0.097 A 
HETATM   16  C   UNL     1      -5.627   8.454 -28.094  1.00  0.00     0.075 A 
HETATM   17  C   UNL     1      -5.208   7.695 -27.000  1.00  0.00     0.070 A 
HETATM   18  C   UNL     1      -4.986   6.322 -27.157  1.00  0.00     0.039 A 
HETATM   19  C   UNL     1      -5.217   5.690 -28.383  1.00  0.00     0.035 A 
BRANCH  15  20
HETATM   20  O   UNL     1      -6.289   8.483 -30.459  1.00  0.00    -0.354 OA
HETATM   21  C   UNL     1      -6.556   9.875 -30.331  1.00  0.00     0.210 C 
ENDBRANCH  15  20
BRANCH  17  22
HETATM   22  O   UNL     1      -4.979   8.167 -25.736  1.00  0.00    -0.356 OA
HETATM   23  C   UNL     1      -5.326   9.523 -25.476  1.00  0.00     0.210 C 
ENDBRANCH  17  22
ENDBRANCH  11  14
ENDBRANCH   9  10
BRANCH   1  24
HETATM   24  N   UNL     1      -2.590   4.057 -31.281  1.00  0.00    -0.319 N 
HETATM   25  C   UNL     1      -1.930   4.555 -32.381  1.00  0.00     0.248 C 
HETATM   26  O   UNL     1      -2.036   4.192 -33.554  1.00  0.00    -0.271 OA
HETATM   27  H   UNL     1      -2.145   4.087 -30.360  1.00  0.00     0.169 HD
BRANCH  25  28
HETATM   28  C   UNL     1      -0.990   5.726 -32.081  1.00  0.00     0.337 C 
BRANCH  28  29
HETATM   29  N   UNL     1      -1.740   6.793 -31.264  1.00  0.00    -0.062 N 
HETATM   30  C   UNL     1      -1.122   7.027 -29.902  1.00  0.00     0.239 C 
HETATM   31  C   UNL     1      -2.073   7.889 -29.070  1.00  0.00     0.007 C 
HETATM   32  C   UNL     1      -1.493   8.148 -27.681  1.00  0.00     0.011 C 
HETATM   33  C   UNL     1      -2.376   9.210 -29.789  1.00  0.00     0.007 C 
HETATM   34  C   UNL     1      -2.906   8.963 -31.200  1.00  0.00     0.028 C 
HETATM   35  C   UNL     1      -1.982   8.066 -32.014  1.00  0.00     0.235 C 
HETATM   36  H   UNL     1      -2.651   6.336 -31.074  1.00  0.00     0.280 HD
ENDBRANCH  28  29
ENDBRANCH  25  28
ENDBRANCH   1  24
BRANCH   7  37
HETATM   37  C   UNL     1      -7.584   0.285 -33.902  1.00  0.00    -0.047 C 
HETATM   38  C   UNL     1      -6.664   1.283 -34.625  1.00  0.00     0.015 C 
HETATM   39  C   UNL     1      -7.299  -1.114 -34.502  1.00  0.00     0.015 C 
HETATM   40  C   UNL     1      -9.045   0.640 -34.261  1.00  0.00     0.015 C 
ENDBRANCH   7  37
TORSDOF 8
ENDMDL
MODEL 5
REMARK VINA RESULT:      -8.5      2.810      6.148
REMARK  8 active torsions:
REMARK  status: ('A' for Active; 'I' for Inactive)
REMARK    1  A    between atoms: N_4  and  C_6 
REMARK    2  A    between atoms: C_6  and  C_7 
REMARK       I    between atoms: C_7  and  N_8 
REMARK    3  A    between atoms: N_8  and  C_9 
REMARK    4  A    between atoms: C_15  and  C_16 
REMARK    5  A    between atoms: C_21  and  C_22 
REMARK       I    between atoms: C_22  and  N_23 
REMARK    6  A    between atoms: N_23  and  C_24 
REMARK    7  A    between atoms: C_25  and  O_26 
REMARK    8  A    between atoms: C_29  and  O_30 
ROOT
HETATM    1  C   UNL     1      -5.145   4.080 -31.795  1.00  0.00     0.093 C 
HETATM    2  S   UNL     1      -3.938   2.925 -32.083  1.00  0.00    -0.075 SA
HETATM    3  C   UNL     1      -5.035   1.649 -31.938  1.00  0.00    -0.008 C 
HETATM    4  C   UNL     1      -6.304   2.066 -31.573  1.00  0.00    -0.026 C 
HETATM    5  C   UNL     1      -7.368   1.045 -31.290  1.00  0.00     0.041 C 
HETATM    6  C   UNL     1      -6.848  -0.397 -31.265  1.00  0.00     0.010 C 
HETATM    7  C   UNL     1      -5.791  -0.732 -32.343  1.00  0.00    -0.002 C 
HETATM    8  C   UNL     1      -4.593   0.235 -32.168  1.00  0.00     0.052 C 
HETATM    9  C   UNL     1      -6.410   3.522 -31.590  1.00  0.00     0.073 C 
ENDROOT
BRANCH   9  10
HETATM   10  C   UNL     1      -7.591   4.414 -31.510  1.00  0.00     0.259 C 
HETATM   11  N   UNL     1      -8.267   4.664 -32.671  1.00  0.00    -0.320 N 
HETATM   12  H   UNL     1      -8.389   5.652 -32.876  1.00  0.00     0.169 HD
HETATM   13  O   UNL     1      -7.766   5.138 -30.524  1.00  0.00    -0.267 OA
BRANCH  11  14
HETATM   14  C   UNL     1      -9.336   3.919 -33.222  1.00  0.00     0.068 A 
HETATM   15  C   UNL     1      -9.831   4.363 -34.466  1.00  0.00     0.097 A 
HETATM   16  C   UNL     1     -10.806   3.621 -35.139  1.00  0.00     0.075 A 
HETATM   17  C   UNL     1     -11.291   2.440 -34.576  1.00  0.00     0.070 A 
HETATM   18  C   UNL     1     -10.833   2.036 -33.317  1.00  0.00     0.039 A 
HETATM   19  C   UNL     1      -9.866   2.776 -32.630  1.00  0.00     0.035 A 
BRANCH  15  20
HETATM   20  O   UNL     1      -9.282   5.537 -34.932  1.00  0.00    -0.354 OA
HETATM   21  C   UNL     1     -10.195   6.513 -35.420  1.00  0.00     0.210 C 
ENDBRANCH  15  20
BRANCH  17  22
HETATM   22  O   UNL     1     -12.207   1.597 -35.146  1.00  0.00    -0.356 OA
HETATM   23  C   UNL     1     -13.319   1.209 -34.348  1.00  0.00     0.210 C 
ENDBRANCH  17  22
ENDBRANCH  11  14
ENDBRANCH   9  10
BRANCH   1  24
HETATM   24  N   UNL     1      -4.838   5.431 -31.931  1.00  0.00    -0.319 N 
HETATM   25  C   UNL     1      -4.409   6.255 -30.916  1.00  0.00     0.248 C 
HETATM   26  O   UNL     1      -4.521   6.079 -29.702  1.00  0.00    -0.271 OA
HETATM   27  H   UNL     1      -5.106   5.828 -32.835  1.00  0.00     0.169 HD
BRANCH  25  28
HETATM   28  C   UNL     1      -3.672   7.512 -31.388  1.00  0.00     0.337 C 
BRANCH  28  29
HETATM   29  N   UNL     1      -2.153   7.272 -31.328  1.00  0.00    -0.062 N 
HETATM   30  C   UNL     1      -1.573   7.551 -29.958  1.00  0.00     0.239 C 
HETATM   31  C   UNL     1      -0.046   7.548 -30.059  1.00  0.00     0.007 C 
HETATM   32  C   UNL     1       0.586   7.831 -28.698  1.00  0.00     0.011 C 
HETATM   33  C   UNL     1       0.456   6.215 -30.628  1.00  0.00     0.007 C 
HETATM   34  C   UNL     1      -0.210   5.896 -31.964  1.00  0.00     0.028 C 
HETATM   35  C   UNL     1      -1.731   5.944 -31.875  1.00  0.00     0.235 C 
HETATM   36  H   UNL     1      -1.779   8.022 -31.938  1.00  0.00     0.280 HD
ENDBRANCH  28  29
ENDBRANCH  25  28
ENDBRANCH   1  24
BRANCH   7  37
HETATM   37  C   UNL     1      -6.328  -0.915 -33.816  1.00  0.00    -0.047 C 
HETATM   38  C   UNL     1      -6.382   0.370 -34.659  1.00  0.00     0.015 C 
HETATM   39  C   UNL     1      -5.425  -1.919 -34.573  1.00  0.00     0.015 C 
HETATM   40  C   UNL     1      -7.749  -1.523 -33.785  1.00  0.00     0.015 C 
ENDBRANCH   7  37
TORSDOF 8
ENDMDL
MODEL 6
REMARK VINA RESULT:      -8.4      2.945      6.472
REMARK  8 active torsions:
REMARK  status: ('A' for Active; 'I' for Inactive)
REMARK    1  A    between atoms: N_4  and  C_6 
REMARK    2  A    between atoms: C_6  and  C_7 
REMARK       I    between atoms: C_7  and  N_8 
REMARK    3  A    between atoms: N_8  and  C_9 
REMARK    4  A    between atoms: C_15  and  C_16 
REMARK    5  A    between atoms: C_21  and  C_22 
REMARK       I    between atoms: C_22  and  N_23 
REMARK    6  A    between atoms: N_23  and  C_24 
REMARK    7  A    between atoms: C_25  and  O_26 
REMARK    8  A    between atoms: C_29  and  O_30 
ROOT
HETATM    1  C   UNL     1      -4.000   3.767 -31.100  1.00  0.00     0.093 C 
HETATM    2  S   UNL     1      -3.207   2.585 -32.022  1.00  0.00    -0.075 SA
HETATM    3  C   UNL     1      -4.488   1.498 -31.844  1.00  0.00    -0.008 C 
HETATM    4  C   UNL     1      -5.485   1.969 -31.008  1.00  0.00    -0.026 C 
HETATM    5  C   UNL     1      -6.640   1.077 -30.654  1.00  0.00     0.041 C 
HETATM    6  C   UNL     1      -6.475  -0.368 -31.138  1.00  0.00     0.010 C 
HETATM    7  C   UNL     1      -5.845  -0.520 -32.543  1.00  0.00    -0.002 C 
HETATM    8  C   UNL     1      -4.456   0.166 -32.532  1.00  0.00     0.052 C 
HETATM    9  C   UNL     1      -5.257   3.365 -30.644  1.00  0.00     0.073 C 
ENDROOT
BRANCH   9  10
HETATM   10  C   UNL     1      -6.141   4.356 -29.983  1.00  0.00     0.259 C 
HETATM   11  N   UNL     1      -7.049   5.008 -30.770  1.00  0.00    -0.320 N 
HETATM   12  H   UNL     1      -7.004   6.021 -30.704  1.00  0.00     0.169 HD
HETATM   13  O   UNL     1      -5.863   4.797 -28.864  1.00  0.00    -0.267 OA
BRANCH  11  14
HETATM   14  C   UNL     1      -8.366   4.601 -31.082  1.00  0.00     0.068 A 
HETATM   15  C   UNL     1      -9.399   5.186 -30.319  1.00  0.00     0.097 A 
HETATM   16  C   UNL     1     -10.736   4.930 -30.635  1.00  0.00     0.075 A 
HETATM   17  C   UNL     1     -11.049   4.094 -31.707  1.00  0.00     0.070 A 
HETATM   18  C   UNL     1     -10.019   3.476 -32.424  1.00  0.00     0.039 A 
HETATM   19  C   UNL     1      -8.678   3.715 -32.110  1.00  0.00     0.035 A 
BRANCH  15  20
HETATM   20  O   UNL     1      -8.979   5.996 -29.287  1.00  0.00    -0.354 OA
HETATM   21  C   UNL     1      -9.548   7.299 -29.234  1.00  0.00     0.210 C 
ENDBRANCH  15  20
BRANCH  17  22
HETATM   22  O   UNL     1     -12.309   3.798 -32.151  1.00  0.00    -0.356 OA
HETATM   23  C   UNL     1     -12.430   2.775 -33.133  1.00  0.00     0.210 C 
ENDBRANCH  17  22
ENDBRANCH  11  14
ENDBRANCH   9  10
BRANCH   1  24
HETATM   24  N   UNL     1      -3.441   5.038 -31.001  1.00  0.00    -0.319 N 
HETATM   25  C   UNL     1      -3.703   6.090 -31.848  1.00  0.00     0.248 C 
HETATM   26  O   UNL     1      -4.181   6.046 -32.983  1.00  0.00    -0.271 OA
HETATM   27  H   UNL     1      -2.678   5.104 -30.322  1.00  0.00     0.169 HD
BRANCH  25  28
HETATM   28  C   UNL     1      -3.386   7.470 -31.263  1.00  0.00     0.337 C 
BRANCH  28  29
HETATM   29  N   UNL     1      -2.687   7.304 -29.903  1.00  0.00    -0.062 N 
HETATM   30  C   UNL     1      -1.274   7.847 -29.903  1.00  0.00     0.239 C 
HETATM   31  C   UNL     1      -0.575   7.403 -28.616  1.00  0.00     0.007 C 
HETATM   32  C   UNL     1       0.860   7.924 -28.574  1.00  0.00     0.011 C 
HETATM   33  C   UNL     1      -1.361   7.871 -27.385  1.00  0.00     0.007 C 
HETATM   34  C   UNL     1      -2.813   7.401 -27.443  1.00  0.00     0.028 C 
HETATM   35  C   UNL     1      -3.496   7.802 -28.745  1.00  0.00     0.235 C 
HETATM   36  H   UNL     1      -2.583   6.276 -29.823  1.00  0.00     0.280 HD
ENDBRANCH  28  29
ENDBRANCH  25  28
ENDBRANCH   1  24
BRANCH   7  37
HETATM   37  C   UNL     1      -6.780  -0.180 -33.769  1.00  0.00    -0.047 C 
HETATM   38  C   UNL     1      -6.565   1.210 -34.391  1.00  0.00     0.015 C 
HETATM   39  C   UNL     1      -6.556  -1.222 -34.892  1.00  0.00     0.015 C 
HETATM   40  C   UNL     1      -8.262  -0.287 -33.344  1.00  0.00     0.015 C 
ENDBRANCH   7  37
TORSDOF 8
ENDMDL
MODEL 7
REMARK VINA RESULT:      -8.4      3.805      7.085
REMARK  8 active torsions:
REMARK  status: ('A' for Active; 'I' for Inactive)
REMARK    1  A    between atoms: N_4  and  C_6 
REMARK    2  A    between atoms: C_6  and  C_7 
REMARK       I    between atoms: C_7  and  N_8 
REMARK    3  A    between atoms: N_8  and  C_9 
REMARK    4  A    between atoms: C_15  and  C_16 
REMARK    5  A    between atoms: C_21  and  C_22 
REMARK       I    between atoms: C_22  and  N_23 
REMARK    6  A    between atoms: N_23  and  C_24 
REMARK    7  A    between atoms: C_25  and  O_26 
REMARK    8  A    between atoms: C_29  and  O_30 
ROOT
HETATM    1  C   UNL     1      -4.498   3.367 -31.905  1.00  0.00     0.093 C 
HETATM    2  S   UNL     1      -4.069   1.839 -31.306  1.00  0.00    -0.075 SA
HETATM    3  C   UNL     1      -5.483   1.137 -31.909  1.00  0.00    -0.008 C 
HETATM    4  C   UNL     1      -6.343   2.059 -32.480  1.00  0.00    -0.026 C 
HETATM    5  C   UNL     1      -7.695   1.615 -32.960  1.00  0.00     0.041 C 
HETATM    6  C   UNL     1      -8.040   0.170 -32.579  1.00  0.00     0.010 C 
HETATM    7  C   UNL     1      -6.869  -0.833 -32.683  1.00  0.00    -0.002 C 
HETATM    8  C   UNL     1      -5.719  -0.337 -31.770  1.00  0.00     0.052 C 
HETATM    9  C   UNL     1      -5.720   3.376 -32.581  1.00  0.00     0.073 C 
ENDROOT
BRANCH   9  10
HETATM   10  C   UNL     1      -6.134   4.596 -33.315  1.00  0.00     0.259 C 
HETATM   11  N   UNL     1      -7.253   5.245 -32.871  1.00  0.00    -0.320 N 
HETATM   12  H   UNL     1      -7.954   5.401 -33.589  1.00  0.00     0.169 HD
HETATM   13  O   UNL     1      -5.688   4.832 -34.442  1.00  0.00    -0.267 OA
BRANCH  11  14
HETATM   14  C   UNL     1      -7.325   6.263 -31.892  1.00  0.00     0.068 A 
HETATM   15  C   UNL     1      -7.811   5.878 -30.625  1.00  0.00     0.097 A 
HETATM   16  C   UNL     1      -7.808   6.790 -29.566  1.00  0.00     0.075 A 
HETATM   17  C   UNL     1      -7.324   8.084 -29.764  1.00  0.00     0.070 A 
HETATM   18  C   UNL     1      -6.894   8.472 -31.037  1.00  0.00     0.039 A 
HETATM   19  C   UNL     1      -6.903   7.572 -32.107  1.00  0.00     0.035 A 
BRANCH  15  20
HETATM   20  O   UNL     1      -8.262   4.580 -30.538  1.00  0.00    -0.354 OA
HETATM   21  C   UNL     1      -7.679   3.774 -29.520  1.00  0.00     0.210 C 
ENDBRANCH  15  20
BRANCH  17  22
HETATM   22  O   UNL     1      -7.221   9.057 -28.807  1.00  0.00    -0.356 OA
HETATM   23  C   UNL     1      -5.954   9.685 -28.651  1.00  0.00     0.210 C 
ENDBRANCH  17  22
ENDBRANCH  11  14
ENDBRANCH   9  10
BRANCH   1  24
HETATM   24  N   UNL     1      -3.580   4.411 -31.820  1.00  0.00    -0.319 N 
HETATM   25  C   UNL     1      -2.666   4.746 -32.793  1.00  0.00     0.248 C 
HETATM   26  O   UNL     1      -2.260   4.046 -33.722  1.00  0.00    -0.271 OA
HETATM   27  H   UNL     1      -3.522   4.838 -30.893  1.00  0.00     0.169 HD
BRANCH  25  28
HETATM   28  C   UNL     1      -2.140   6.181 -32.700  1.00  0.00     0.337 C 
BRANCH  28  29
HETATM   29  N   UNL     1      -1.534   6.420 -31.306  1.00  0.00    -0.062 N 
HETATM   30  C   UNL     1      -0.335   5.538 -31.032  1.00  0.00     0.239 C 
HETATM   31  C   UNL     1       0.030   5.647 -29.550  1.00  0.00     0.007 C 
HETATM   32  C   UNL     1       1.235   4.767 -29.224  1.00  0.00     0.011 C 
HETATM   33  C   UNL     1       0.301   7.107 -29.166  1.00  0.00     0.007 C 
HETATM   34  C   UNL     1      -0.877   8.005 -29.538  1.00  0.00     0.028 C 
HETATM   35  C   UNL     1      -1.271   7.862 -31.002  1.00  0.00     0.235 C 
HETATM   36  H   UNL     1      -2.277   6.072 -30.672  1.00  0.00     0.280 HD
ENDBRANCH  28  29
ENDBRANCH  25  28
ENDBRANCH   1  24
BRANCH   7  37
HETATM   37  C   UNL     1      -6.457  -1.280 -34.140  1.00  0.00    -0.047 C 
HETATM   38  C   UNL     1      -6.896  -0.330 -35.266  1.00  0.00     0.015 C 
HETATM   39  C   UNL     1      -4.916  -1.406 -34.225  1.00  0.00     0.015 C 
HETATM   40  C   UNL     1      -7.041  -2.679 -34.444  1.00  0.00     0.015 C 
ENDBRANCH   7  37
TORSDOF 8
ENDMDL
MODEL 8
REMARK VINA RESULT:      -8.4      2.830      5.191
REMARK  8 active torsions:
REMARK  status: ('A' for Active; 'I' for Inactive)
REMARK    1  A    between atoms: N_4  and  C_6 
REMARK    2  A    between atoms: C_6  and  C_7 
REMARK       I    between atoms: C_7  and  N_8 
REMARK    3  A    between atoms: N_8  and  C_9 
REMARK    4  A    between atoms: C_15  and  C_16 
REMARK    5  A    between atoms: C_21  and  C_22 
REMARK       I    between atoms: C_22  and  N_23 
REMARK    6  A    between atoms: N_23  and  C_24 
REMARK    7  A    between atoms: C_25  and  O_26 
REMARK    8  A    between atoms: C_29  and  O_30 
ROOT
HETATM    1  C   UNL     1      -8.319   5.536 -31.425  1.00  0.00     0.093 C 
HETATM    2  S   UNL     1      -8.944   6.258 -30.024  1.00  0.00    -0.075 SA
HETATM    3  C   UNL     1     -10.432   6.557 -30.765  1.00  0.00    -0.008 C 
HETATM    4  C   UNL     1     -10.447   6.209 -32.105  1.00  0.00    -0.026 C 
HETATM    5  C   UNL     1     -11.659   6.517 -32.938  1.00  0.00     0.041 C 
HETATM    6  C   UNL     1     -12.702   7.376 -32.214  1.00  0.00     0.010 C 
HETATM    7  C   UNL     1     -12.917   7.029 -30.723  1.00  0.00    -0.002 C 
HETATM    8  C   UNL     1     -11.560   7.167 -29.988  1.00  0.00     0.052 C 
HETATM    9  C   UNL     1      -9.229   5.500 -32.484  1.00  0.00     0.073 C 
ENDROOT
BRANCH   9  10
HETATM   10  C   UNL     1      -8.887   4.736 -33.708  1.00  0.00     0.259 C 
HETATM   11  N   UNL     1      -9.232   3.414 -33.739  1.00  0.00    -0.320 N 
HETATM   12  H   UNL     1      -8.461   2.789 -33.957  1.00  0.00     0.169 HD
HETATM   13  O   UNL     1      -8.063   5.179 -34.514  1.00  0.00    -0.267 OA
BRANCH  11  14
HETATM   14  C   UNL     1     -10.452   2.853 -34.183  1.00  0.00     0.068 A 
HETATM   15  C   UNL     1     -10.827   1.626 -33.595  1.00  0.00     0.097 A 
HETATM   16  C   UNL     1     -12.070   1.059 -33.888  1.00  0.00     0.075 A 
HETATM   17  C   UNL     1     -12.940   1.708 -34.765  1.00  0.00     0.070 A 
HETATM   18  C   UNL     1     -12.539   2.896 -35.384  1.00  0.00     0.039 A 
HETATM   19  C   UNL     1     -11.293   3.467 -35.107  1.00  0.00     0.035 A 
BRANCH  15  20
HETATM   20  O   UNL     1      -9.896   1.074 -32.744  1.00  0.00    -0.354 OA
HETATM   21  C   UNL     1      -9.971  -0.333 -32.549  1.00  0.00     0.210 C 
ENDBRANCH  15  20
BRANCH  17  22
HETATM   22  O   UNL     1     -14.199   1.288 -35.100  1.00  0.00    -0.356 OA
HETATM   23  C   UNL     1     -15.072   0.928 -34.035  1.00  0.00     0.210 C 
ENDBRANCH  17  22
ENDBRANCH  11  14
ENDBRANCH   9  10
BRANCH   1  24
HETATM   24  N   UNL     1      -7.069   4.926 -31.374  1.00  0.00    -0.319 N 
HETATM   25  C   UNL     1      -6.837   3.615 -31.024  1.00  0.00     0.248 C 
HETATM   26  O   UNL     1      -7.582   2.856 -30.401  1.00  0.00    -0.271 OA
HETATM   27  H   UNL     1      -6.285   5.576 -31.471  1.00  0.00     0.169 HD
BRANCH  25  28
HETATM   28  C   UNL     1      -5.501   3.053 -31.519  1.00  0.00     0.337 C 
BRANCH  28  29
HETATM   29  N   UNL     1      -5.723   1.660 -32.133  1.00  0.00    -0.062 N 
HETATM   30  C   UNL     1      -6.254   1.724 -33.549  1.00  0.00     0.239 C 
HETATM   31  C   UNL     1      -6.693   0.322 -33.976  1.00  0.00     0.007 C 
HETATM   32  C   UNL     1      -7.243   0.339 -35.401  1.00  0.00     0.011 C 
HETATM   33  C   UNL     1      -5.531  -0.671 -33.851  1.00  0.00     0.007 C 
HETATM   34  C   UNL     1      -4.938  -0.656 -32.444  1.00  0.00     0.028 C 
HETATM   35  C   UNL     1      -4.543   0.748 -32.000  1.00  0.00     0.235 C 
HETATM   36  H   UNL     1      -6.506   1.283 -31.567  1.00  0.00     0.280 HD
ENDBRANCH  28  29
ENDBRANCH  25  28
ENDBRANCH   1  24
BRANCH   7  37
HETATM   37  C   UNL     1     -13.740   5.715 -30.422  1.00  0.00    -0.047 C 
HETATM   38  C   UNL     1     -12.907   4.425 -30.332  1.00  0.00     0.015 C 
HETATM   39  C   UNL     1     -14.486   5.871 -29.074  1.00  0.00     0.015 C 
HETATM   40  C   UNL     1     -14.817   5.510 -31.512  1.00  0.00     0.015 C 
ENDBRANCH   7  37
TORSDOF 8
ENDMDL
MODEL 9
REMARK VINA RESULT:      -8.2     17.140     19.210
REMARK  8 active torsions:
REMARK  status: ('A' for Active; 'I' for Inactive)
REMARK    1  A    between atoms: N_4  and  C_6 
REMARK    2  A    between atoms: C_6  and  C_7 
REMARK       I    between atoms: C_7  and  N_8 
REMARK    3  A    between atoms: N_8  and  C_9 
REMARK    4  A    between atoms: C_15  and  C_16 
REMARK    5  A    between atoms: C_21  and  C_22 
REMARK       I    between atoms: C_22  and  N_23 
REMARK    6  A    between atoms: N_23  and  C_24 
REMARK    7  A    between atoms: C_25  and  O_26 
REMARK    8  A    between atoms: C_29  and  O_30 
ROOT
HETATM    1  C   UNL     1      -5.415 -13.429 -36.850  1.00  0.00     0.093 C 
HETATM    2  S   UNL     1      -6.977 -13.776 -36.291  1.00  0.00    -0.075 SA
HETATM    3  C   UNL     1      -7.665 -13.392 -37.785  1.00  0.00    -0.008 C 
HETATM    4  C   UNL     1      -6.744 -12.902 -38.695  1.00  0.00    -0.026 C 
HETATM    5  C   UNL     1      -7.213 -12.407 -40.033  1.00  0.00     0.041 C 
HETATM    6  C   UNL     1      -8.739 -12.335 -40.163  1.00  0.00     0.010 C 
HETATM    7  C   UNL     1      -9.509 -13.508 -39.515  1.00  0.00    -0.002 C 
HETATM    8  C   UNL     1      -9.138 -13.564 -38.011  1.00  0.00     0.052 C 
HETATM    9  C   UNL     1      -5.380 -13.021 -38.186  1.00  0.00     0.073 C 
ENDROOT
BRANCH   9  10
HETATM   10  C   UNL     1      -4.071 -12.862 -38.862  1.00  0.00     0.259 C 
HETATM   11  N   UNL     1      -3.542 -13.965 -39.472  1.00  0.00    -0.320 N 
HETATM   12  H   UNL     1      -2.594 -14.186 -39.180  1.00  0.00     0.169 HD
HETATM   13  O   UNL     1      -3.354 -11.885 -38.621  1.00  0.00    -0.267 OA
BRANCH  11  14
HETATM   14  C   UNL     1      -3.753 -14.398 -40.801  1.00  0.00     0.068 A 
HETATM   15  C   UNL     1      -3.233 -15.666 -41.136  1.00  0.00     0.097 A 
HETATM   16  C   UNL     1      -3.494 -16.223 -42.391  1.00  0.00     0.075 A 
HETATM   17  C   UNL     1      -4.270 -15.521 -43.314  1.00  0.00     0.070 A 
HETATM   18  C   UNL     1      -4.737 -14.242 -42.994  1.00  0.00     0.039 A 
HETATM   19  C   UNL     1      -4.472 -13.670 -41.745  1.00  0.00     0.035 A 
BRANCH  15  20
HETATM   20  O   UNL     1      -2.484 -16.272 -40.152  1.00  0.00    -0.354 OA
HETATM   21  C   UNL     1      -2.905 -17.568 -39.743  1.00  0.00     0.210 C 
ENDBRANCH  15  20
BRANCH  17  22
HETATM   22  O   UNL     1      -4.640 -15.967 -44.554  1.00  0.00    -0.356 OA
HETATM   23  C   UNL     1      -5.945 -16.520 -44.686  1.00  0.00     0.210 C 
ENDBRANCH  17  22
ENDBRANCH  11  14
ENDBRANCH   9  10
BRANCH   1  24
HETATM   24  N   UNL     1      -4.323 -13.709 -36.033  1.00  0.00    -0.319 N 
HETATM   25  C   UNL     1      -3.490 -14.796 -36.164  1.00  0.00     0.248 C 
HETATM   26  O   UNL     1      -3.710 -15.849 -36.764  1.00  0.00    -0.271 OA
HETATM   27  H   UNL     1      -4.264 -13.115 -35.202  1.00  0.00     0.169 HD
BRANCH  25  28
HETATM   28  C   UNL     1      -2.117 -14.626 -35.505  1.00  0.00     0.337 C 
BRANCH  28  29
HETATM   29  N   UNL     1      -1.050 -15.350 -36.344  1.00  0.00    -0.062 N 
HETATM   30  C   UNL     1      -0.618 -14.551 -37.556  1.00  0.00     0.239 C 
HETATM   31  C   UNL     1       0.229 -15.447 -38.461  1.00  0.00     0.007 C 
HETATM   32  C   UNL     1       0.684 -14.683 -39.703  1.00  0.00     0.011 C 
HETATM   33  C   UNL     1       1.433 -16.009 -37.694  1.00  0.00     0.007 C 
HETATM   34  C   UNL     1       0.992 -16.728 -36.421  1.00  0.00     0.028 C 
HETATM   35  C   UNL     1       0.110 -15.852 -35.541  1.00  0.00     0.235 C 
HETATM   36  H   UNL     1      -1.571 -16.161 -36.726  1.00  0.00     0.280 HD
ENDBRANCH  28  29
ENDBRANCH  25  28
ENDBRANCH   1  24
BRANCH   7  37
HETATM   37  C   UNL     1      -9.473 -14.882 -40.292  1.00  0.00    -0.047 C 
HETATM   38  C   UNL     1      -8.211 -15.126 -41.137  1.00  0.00     0.015 C 
HETATM   39  C   UNL     1      -9.577 -16.050 -39.280  1.00  0.00     0.015 C 
HETATM   40  C   UNL     1     -10.699 -14.987 -41.228  1.00  0.00     0.015 C 
ENDBRANCH   7  37
TORSDOF 8
ENDMDL
MODEL 10
REMARK VINA RESULT:      -8.2      3.551      7.297
REMARK  8 active torsions:
REMARK  status: ('A' for Active; 'I' for Inactive)
REMARK    1  A    between atoms: N_4  and  C_6 
REMARK    2  A    between atoms: C_6  and  C_7 
REMARK       I    between atoms: C_7  and  N_8 
REMARK    3  A    between atoms: N_8  and  C_9 
REMARK    4  A    between atoms: C_15  and  C_16 
REMARK    5  A    between atoms: C_21  and  C_22 
REMARK       I    between atoms: C_22  and  N_23 
REMARK    6  A    between atoms: N_23  and  C_24 
REMARK    7  A    between atoms: C_25  and  O_26 
REMARK    8  A    between atoms: C_29  and  O_30 
ROOT
HETATM    1  C   UNL     1      -3.903   3.106 -32.287  1.00  0.00     0.093 C 
HETATM    2  S   UNL     1      -3.628   1.606 -31.545  1.00  0.00    -0.075 SA
HETATM    3  C   UNL     1      -5.108   0.997 -32.085  1.00  0.00    -0.008 C 
HETATM    4  C   UNL     1      -5.874   1.943 -32.744  1.00  0.00    -0.026 C 
HETATM    5  C   UNL     1      -7.266   1.594 -33.187  1.00  0.00     0.041 C 
HETATM    6  C   UNL     1      -7.753   0.234 -32.673  1.00  0.00     0.010 C 
HETATM    7  C   UNL     1      -6.689  -0.888 -32.676  1.00  0.00    -0.002 C 
HETATM    8  C   UNL     1      -5.491  -0.426 -31.809  1.00  0.00     0.052 C 
HETATM    9  C   UNL     1      -5.122   3.175 -32.966  1.00  0.00     0.073 C 
ENDROOT
BRANCH   9  10
HETATM   10  C   UNL     1      -5.414   4.356 -33.813  1.00  0.00     0.259 C 
HETATM   11  N   UNL     1      -6.724   4.728 -33.938  1.00  0.00    -0.320 N 
HETATM   12  H   UNL     1      -7.041   4.814 -34.899  1.00  0.00     0.169 HD
HETATM   13  O   UNL     1      -4.572   4.782 -34.609  1.00  0.00    -0.267 OA
BRANCH  11  14
HETATM   14  C   UNL     1      -7.450   5.613 -33.108  1.00  0.00     0.068 A 
HETATM   15  C   UNL     1      -8.753   5.945 -33.534  1.00  0.00     0.097 A 
HETATM   16  C   UNL     1      -9.583   6.718 -32.719  1.00  0.00     0.075 A 
HETATM   17  C   UNL     1      -9.120   7.165 -31.481  1.00  0.00     0.070 A 
HETATM   18  C   UNL     1      -7.808   6.877 -31.089  1.00  0.00     0.039 A 
HETATM   19  C   UNL     1      -6.965   6.113 -31.902  1.00  0.00     0.035 A 
BRANCH  15  20
HETATM   20  O   UNL     1      -9.109   5.450 -34.770  1.00  0.00    -0.354 OA
HETATM   21  C   UNL     1     -10.261   6.026 -35.374  1.00  0.00     0.210 C 
ENDBRANCH  15  20
BRANCH  17  22
HETATM   22  O   UNL     1      -9.841   7.887 -30.568  1.00  0.00    -0.356 OA
HETATM   23  C   UNL     1     -11.136   7.402 -30.231  1.00  0.00     0.210 C 
ENDBRANCH  17  22
ENDBRANCH  11  14
ENDBRANCH   9  10
BRANCH   1  24
HETATM   24  N   UNL     1      -2.885   4.055 -32.297  1.00  0.00    -0.319 N 
HETATM   25  C   UNL     1      -2.760   5.097 -31.406  1.00  0.00     0.248 C 
HETATM   26  O   UNL     1      -3.630   5.579 -30.679  1.00  0.00    -0.271 OA
HETATM   27  H   UNL     1      -2.293   4.021 -33.131  1.00  0.00     0.169 HD
BRANCH  25  28
HETATM   28  C   UNL     1      -1.345   5.676 -31.302  1.00  0.00     0.337 C 
BRANCH  28  29
HETATM   29  N   UNL     1      -1.266   6.630 -30.097  1.00  0.00    -0.062 N 
HETATM   30  C   UNL     1       0.000   6.447 -29.289  1.00  0.00     0.239 C 
HETATM   31  C   UNL     1      -0.130   7.233 -27.983  1.00  0.00     0.007 C 
HETATM   32  C   UNL     1       1.126   7.073 -27.129  1.00  0.00     0.011 C 
HETATM   33  C   UNL     1      -0.411   8.713 -28.268  1.00  0.00     0.007 C 
HETATM   34  C   UNL     1      -1.634   8.882 -29.166  1.00  0.00     0.028 C 
HETATM   35  C   UNL     1      -1.527   8.063 -30.446  1.00  0.00     0.235 C 
HETATM   36  H   UNL     1      -2.031   6.289 -29.485  1.00  0.00     0.280 HD
ENDBRANCH  28  29
ENDBRANCH  25  28
ENDBRANCH   1  24
BRANCH   7  37
HETATM   37  C   UNL     1      -6.332  -1.509 -34.083  1.00  0.00    -0.047 C 
HETATM   38  C   UNL     1      -6.984  -2.869 -34.384  1.00  0.00     0.015 C 
HETATM   39  C   UNL     1      -6.771  -0.536 -35.204  1.00  0.00     0.015 C 
HETATM   40  C   UNL     1      -4.801  -1.679 -34.208  1.00  0.00     0.015 C 
ENDBRANCH   7  37
TORSDOF 8
ENDMDL
