MODEL 1
REMARK VINA RESULT:      -8.2      0.000      0.000
REMARK  3 active torsions:
REMARK  status: ('A' for Active; 'I' for Inactive)
REMARK    1  A    between atoms: C_2  and  C_3 
REMARK    2  A    between atoms: C_7  and  N_8 
REMARK       I    between atoms: N_8  and  C_9 
REMARK    3  A    between atoms: C_9  and  C_10 
ROOT
HETATM    1  N   UNL     1      -8.954   0.947 -34.042  1.00  0.00    -0.309 N 
HETATM    2  C   UNL     1      -7.987   0.865 -33.066  1.00  0.00     0.234 C 
HETATM    3  O   UNL     1      -8.181   0.838 -31.856  1.00  0.00    -0.272 OA
HETATM    4  H   UNL     1      -8.689   1.142 -34.998  1.00  0.00     0.170 HD
ENDROOT
BRANCH   2   5
HETATM    5  C   UNL     1      -6.587   0.828 -33.657  1.00  0.00     0.138 C 
HETATM    6  C   UNL     1      -6.028  -0.543 -33.839  1.00  0.00    -0.008 A 
HETATM    7  C   UNL     1      -4.714  -0.555 -33.394  1.00  0.00     0.076 A 
HETATM    8  C   UNL     1      -6.587  -1.677 -34.410  1.00  0.00     0.030 A 
HETATM    9  C   UNL     1      -3.910  -1.672 -33.496  1.00  0.00     0.039 A 
HETATM   10  O   UNL     1      -4.295   0.640 -32.873  1.00  0.00    -0.349 OA
HETATM   11  C   UNL     1      -4.462  -2.825 -34.055  1.00  0.00     0.022 A 
HETATM   12  C   UNL     1      -5.791  -2.823 -34.505  1.00  0.00     0.011 A 
HETATM   13 BR   UNL     1      -6.516  -4.396 -35.266  1.00  0.00    -0.051 Br
HETATM   14  C   UNL     1      -5.526   1.384 -32.697  1.00  0.00     0.194 C 
ENDBRANCH   2   5
BRANCH   1  15
HETATM   15  C   UNL     1     -10.317   1.017 -33.885  1.00  0.00     0.158 A 
HETATM   16  N   UNL     1     -10.869   0.018 -33.190  1.00  0.00    -0.156 NA
HETATM   17  N   UNL     1     -12.181   0.267 -33.229  1.00  0.00    -0.280 N 
HETATM   18  C   UNL     1     -12.501   1.420 -33.882  1.00  0.00     0.037 A 
HETATM   19  H   UNL     1     -12.810  -0.393 -32.782  1.00  0.00     0.189 HD
HETATM   20  C   UNL     1     -11.296   1.967 -34.299  1.00  0.00     0.010 A 
HETATM   21  C   UNL     1     -11.125   3.267 -34.994  1.00  0.00     0.054 C 
BRANCH  18  22
HETATM   22  C   UNL     1     -13.913   1.873 -34.030  1.00  0.00     0.055 C 
HETATM   23  C   UNL     1     -14.856   0.710 -34.288  1.00  0.00     0.011 C 
ENDBRANCH  18  22
ENDBRANCH   1  15
TORSDOF 3
ENDMDL
MODEL 2
REMARK VINA RESULT:      -7.6      4.050      7.178
REMARK  3 active torsions:
REMARK  status: ('A' for Active; 'I' for Inactive)
REMARK    1  A    between atoms: C_2  and  C_3 
REMARK    2  A    between atoms: C_7  and  N_8 
REMARK       I    between atoms: N_8  and  C_9 
REMARK    3  A    between atoms: C_9  and  C_10 
ROOT
HETATM    1  N   UNL     1      -5.483   3.625 -33.794  1.00  0.00    -0.309 N 
HETATM    2  C   UNL     1      -6.238   3.528 -32.648  1.00  0.00     0.234 C 
HETATM    3  O   UNL     1      -6.053   4.145 -31.605  1.00  0.00    -0.272 OA
HETATM    4  H   UNL     1      -5.604   2.949 -34.537  1.00  0.00     0.170 HD
ENDROOT
BRANCH   2   5
HETATM    5  C   UNL     1      -7.368   2.522 -32.798  1.00  0.00     0.138 C 
HETATM    6  C   UNL     1      -6.973   1.240 -33.450  1.00  0.00    -0.008 A 
HETATM    7  C   UNL     1      -7.939   0.896 -34.385  1.00  0.00     0.076 A 
HETATM    8  C   UNL     1      -5.899   0.397 -33.207  1.00  0.00     0.030 A 
HETATM    9  C   UNL     1      -7.883  -0.279 -35.107  1.00  0.00     0.039 A 
HETATM   10  O   UNL     1      -8.948   1.815 -34.502  1.00  0.00    -0.349 OA
HETATM   11  C   UNL     1      -6.800  -1.131 -34.884  1.00  0.00     0.022 A 
HETATM   12  C   UNL     1      -5.818  -0.790 -33.942  1.00  0.00     0.011 A 
HETATM   13 BR   UNL     1      -4.362  -1.964 -33.652  1.00  0.00    -0.051 Br
HETATM   14  C   UNL     1      -8.433   2.976 -33.806  1.00  0.00     0.194 C 
ENDBRANCH   2   5
BRANCH   1  15
HETATM   15  C   UNL     1      -4.379   4.411 -34.021  1.00  0.00     0.158 A 
HETATM   16  N   UNL     1      -4.464   5.234 -35.072  1.00  0.00    -0.156 NA
HETATM   17  N   UNL     1      -3.271   5.832 -35.126  1.00  0.00    -0.280 N 
HETATM   18  C   UNL     1      -2.428   5.467 -34.119  1.00  0.00     0.037 A 
HETATM   19  H   UNL     1      -3.096   6.491 -35.879  1.00  0.00     0.189 HD
HETATM   20  C   UNL     1      -3.133   4.558 -33.344  1.00  0.00     0.010 A 
HETATM   21  C   UNL     1      -2.655   3.930 -32.087  1.00  0.00     0.054 C 
BRANCH  18  22
HETATM   22  C   UNL     1      -1.052   6.028 -34.004  1.00  0.00     0.055 C 
HETATM   23  C   UNL     1      -1.001   7.213 -33.054  1.00  0.00     0.011 C 
ENDBRANCH  18  22
ENDBRANCH   1  15
TORSDOF 3
ENDMDL
MODEL 3
REMARK VINA RESULT:      -7.6      2.709      6.768
REMARK  3 active torsions:
REMARK  status: ('A' for Active; 'I' for Inactive)
REMARK    1  A    between atoms: C_2  and  C_3 
REMARK    2  A    between atoms: C_7  and  N_8 
REMARK       I    between atoms: N_8  and  C_9 
REMARK    3  A    between atoms: C_9  and  C_10 
ROOT
HETATM    1  N   UNL     1      -6.991   0.044 -33.608  1.00  0.00    -0.309 N 
HETATM    2  C   UNL     1      -7.346   0.492 -32.356  1.00  0.00     0.234 C 
HETATM    3  O   UNL     1      -7.118  -0.075 -31.293  1.00  0.00    -0.272 OA
HETATM    4  H   UNL     1      -7.377   0.488 -34.430  1.00  0.00     0.170 HD
ENDROOT
BRANCH   2   5
HETATM    5  C   UNL     1      -8.099   1.811 -32.419  1.00  0.00     0.138 C 
HETATM    6  C   UNL     1      -9.403   1.746 -33.140  1.00  0.00    -0.008 A 
HETATM    7  C   UNL     1      -9.505   2.843 -33.983  1.00  0.00     0.076 A 
HETATM    8  C   UNL     1     -10.453   0.847 -33.027  1.00  0.00     0.030 A 
HETATM    9  C   UNL     1     -10.634   3.093 -34.737  1.00  0.00     0.039 A 
HETATM   10  O   UNL     1      -8.400   3.652 -33.976  1.00  0.00    -0.349 OA
HETATM   11  C   UNL     1     -11.694   2.189 -34.645  1.00  0.00     0.022 A 
HETATM   12  C   UNL     1     -11.598   1.075 -33.797  1.00  0.00     0.011 A 
HETATM   13 BR   UNL     1     -13.050  -0.133 -33.683  1.00  0.00    -0.051 Br
HETATM   14  C   UNL     1      -7.397   2.850 -33.304  1.00  0.00     0.194 C 
ENDBRANCH   2   5
BRANCH   1  15
HETATM   15  C   UNL     1      -6.323  -1.109 -33.940  1.00  0.00     0.158 A 
HETATM   16  N   UNL     1      -7.059  -2.049 -34.542  1.00  0.00    -0.156 NA
HETATM   17  N   UNL     1      -6.223  -3.079 -34.702  1.00  0.00    -0.280 N 
HETATM   18  C   UNL     1      -4.954  -2.827 -34.271  1.00  0.00     0.037 A 
HETATM   19  H   UNL     1      -6.583  -3.931 -35.121  1.00  0.00     0.189 HD
HETATM   20  C   UNL     1      -4.967  -1.524 -33.795  1.00  0.00     0.010 A 
HETATM   21  C   UNL     1      -3.793  -0.773 -33.284  1.00  0.00     0.054 C 
BRANCH  18  22
HETATM   22  C   UNL     1      -3.875  -3.850 -34.367  1.00  0.00     0.055 C 
HETATM   23  C   UNL     1      -3.540  -4.447 -33.009  1.00  0.00     0.011 C 
ENDBRANCH  18  22
ENDBRANCH   1  15
TORSDOF 3
ENDMDL
MODEL 4
REMARK VINA RESULT:      -7.5      4.388      7.190
REMARK  3 active torsions:
REMARK  status: ('A' for Active; 'I' for Inactive)
REMARK    1  A    between atoms: C_2  and  C_3 
REMARK    2  A    between atoms: C_7  and  N_8 
REMARK       I    between atoms: N_8  and  C_9 
REMARK    3  A    between atoms: C_9  and  C_10 
ROOT
HETATM    1  N   UNL     1      -4.237   2.758 -32.355  1.00  0.00    -0.309 N 
HETATM    2  C   UNL     1      -4.099   1.466 -31.900  1.00  0.00     0.234 C 
HETATM    3  O   UNL     1      -3.053   0.929 -31.552  1.00  0.00    -0.272 OA
HETATM    4  H   UNL     1      -5.104   3.051 -32.784  1.00  0.00     0.170 HD
ENDROOT
BRANCH   2   5
HETATM    5  C   UNL     1      -5.426   0.726 -31.885  1.00  0.00     0.138 C 
HETATM    6  C   UNL     1      -5.485  -0.461 -32.786  1.00  0.00    -0.008 A 
HETATM    7  C   UNL     1      -6.690  -0.443 -33.474  1.00  0.00     0.076 A 
HETATM    8  C   UNL     1      -4.597  -1.513 -32.952  1.00  0.00     0.030 A 
HETATM    9  C   UNL     1      -7.061  -1.453 -34.339  1.00  0.00     0.039 A 
HETATM   10  O   UNL     1      -7.470   0.647 -33.197  1.00  0.00    -0.349 OA
HETATM   11  C   UNL     1      -6.172  -2.513 -34.526  1.00  0.00     0.022 A 
HETATM   12  C   UNL     1      -4.950  -2.537 -33.837  1.00  0.00     0.011 A 
HETATM   13 BR   UNL     1      -3.763  -3.986 -34.101  1.00  0.00    -0.051 Br
HETATM   14  C   UNL     1      -6.566   1.545 -32.507  1.00  0.00     0.194 C 
ENDBRANCH   2   5
BRANCH   1  15
HETATM   15  C   UNL     1      -3.260   3.710 -32.520  1.00  0.00     0.158 A 
HETATM   16  N   UNL     1      -2.286   3.700 -31.605  1.00  0.00    -0.156 NA
HETATM   17  N   UNL     1      -1.509   4.736 -31.932  1.00  0.00    -0.280 N 
HETATM   18  C   UNL     1      -1.912   5.391 -33.057  1.00  0.00     0.037 A 
HETATM   19  H   UNL     1      -0.707   4.941 -31.343  1.00  0.00     0.189 HD
HETATM   20  C   UNL     1      -3.045   4.723 -33.500  1.00  0.00     0.010 A 
HETATM   21  C   UNL     1      -3.806   5.025 -34.737  1.00  0.00     0.054 C 
BRANCH  18  22
HETATM   22  C   UNL     1      -1.174   6.573 -33.586  1.00  0.00     0.055 C 
HETATM   23  C   UNL     1      -1.471   7.830 -32.785  1.00  0.00     0.011 C 
ENDBRANCH  18  22
ENDBRANCH   1  15
TORSDOF 3
ENDMDL
MODEL 5
REMARK VINA RESULT:      -7.4      4.765      6.628
REMARK  3 active torsions:
REMARK  status: ('A' for Active; 'I' for Inactive)
REMARK    1  A    between atoms: C_2  and  C_3 
REMARK    2  A    between atoms: C_7  and  N_8 
REMARK       I    between atoms: N_8  and  C_9 
REMARK    3  A    between atoms: C_9  and  C_10 
ROOT
HETATM    1  N   UNL     1      -4.540   0.331 -32.563  1.00  0.00    -0.309 N 
HETATM    2  C   UNL     1      -5.193   0.796 -31.444  1.00  0.00     0.234 C 
HETATM    3  O   UNL     1      -6.030   0.185 -30.789  1.00  0.00    -0.272 OA
HETATM    4  H   UNL     1      -4.003   0.969 -33.135  1.00  0.00     0.170 HD
ENDROOT
BRANCH   2   5
HETATM    5  C   UNL     1      -4.772   2.213 -31.090  1.00  0.00     0.138 C 
HETATM    6  C   UNL     1      -5.314   3.265 -31.997  1.00  0.00    -0.008 A 
HETATM    7  C   UNL     1      -4.296   4.154 -32.312  1.00  0.00     0.076 A 
HETATM    8  C   UNL     1      -6.603   3.480 -32.461  1.00  0.00     0.030 A 
HETATM    9  C   UNL     1      -4.510   5.277 -33.086  1.00  0.00     0.039 A 
HETATM   10  O   UNL     1      -3.083   3.823 -31.769  1.00  0.00    -0.349 OA
HETATM   11  C   UNL     1      -5.799   5.500 -33.572  1.00  0.00     0.022 A 
HETATM   12  C   UNL     1      -6.833   4.605 -33.260  1.00  0.00     0.011 A 
HETATM   13 BR   UNL     1      -8.575   4.930 -33.924  1.00  0.00    -0.051 Br
HETATM   14  C   UNL     1      -3.274   2.458 -31.320  1.00  0.00     0.194 C 
ENDBRANCH   2   5
BRANCH   1  15
HETATM   15  C   UNL     1      -4.677  -0.887 -33.183  1.00  0.00     0.158 A 
HETATM   16  N   UNL     1      -3.802  -1.826 -32.807  1.00  0.00    -0.156 NA
HETATM   17  N   UNL     1      -4.087  -2.878 -33.580  1.00  0.00    -0.280 N 
HETATM   18  C   UNL     1      -5.149  -2.677 -34.411  1.00  0.00     0.037 A 
HETATM   19  H   UNL     1      -3.517  -3.713 -33.485  1.00  0.00     0.189 HD
HETATM   20  C   UNL     1      -5.592  -1.387 -34.155  1.00  0.00     0.010 A 
HETATM   21  C   UNL     1      -6.776  -0.736 -34.768  1.00  0.00     0.054 C 
BRANCH  18  22
HETATM   22  C   UNL     1      -5.624  -3.733 -35.349  1.00  0.00     0.055 C 
HETATM   23  C   UNL     1      -6.849  -4.455 -34.812  1.00  0.00     0.011 C 
ENDBRANCH  18  22
ENDBRANCH   1  15
TORSDOF 3
ENDMDL
MODEL 6
REMARK VINA RESULT:      -7.2      5.454      7.390
REMARK  3 active torsions:
REMARK  status: ('A' for Active; 'I' for Inactive)
REMARK    1  A    between atoms: C_2  and  C_3 
REMARK    2  A    between atoms: C_7  and  N_8 
REMARK       I    between atoms: N_8  and  C_9 
REMARK    3  A    between atoms: C_9  and  C_10 
ROOT
HETATM    1  N   UNL     1      -4.669   3.456 -32.942  1.00  0.00    -0.309 N 
HETATM    2  C   UNL     1      -3.369   3.192 -32.575  1.00  0.00     0.234 C 
HETATM    3  O   UNL     1      -3.002   2.342 -31.771  1.00  0.00    -0.272 OA
HETATM    4  H   UNL     1      -4.884   4.289 -33.473  1.00  0.00     0.170 HD
ENDROOT
BRANCH   2   5
HETATM    5  C   UNL     1      -2.384   4.109 -33.282  1.00  0.00     0.138 C 
HETATM    6  C   UNL     1      -1.722   5.109 -32.395  1.00  0.00    -0.008 A 
HETATM    7  C   UNL     1      -1.726   6.343 -33.029  1.00  0.00     0.076 A 
HETATM    8  C   UNL     1      -1.102   4.953 -31.164  1.00  0.00     0.030 A 
HETATM    9  C   UNL     1      -1.122   7.457 -32.479  1.00  0.00     0.039 A 
HETATM   10  O   UNL     1      -2.357   6.341 -34.243  1.00  0.00    -0.349 OA
HETATM   11  C   UNL     1      -0.506   7.319 -31.235  1.00  0.00     0.022 A 
HETATM   12  C   UNL     1      -0.500   6.075 -30.586  1.00  0.00     0.011 A 
HETATM   13 BR   UNL     1       0.347   5.910 -28.902  1.00  0.00    -0.051 Br
HETATM   14  C   UNL     1      -3.073   5.081 -34.251  1.00  0.00     0.194 C 
ENDBRANCH   2   5
BRANCH   1  15
HETATM   15  C   UNL     1      -5.818   2.846 -32.499  1.00  0.00     0.158 A 
HETATM   16  N   UNL     1      -6.589   3.584 -31.695  1.00  0.00    -0.156 NA
HETATM   17  N   UNL     1      -7.590   2.769 -31.349  1.00  0.00    -0.280 N 
HETATM   18  C   UNL     1      -7.526   1.542 -31.939  1.00  0.00     0.037 A 
HETATM   19  H   UNL     1      -8.294   3.117 -30.706  1.00  0.00     0.189 HD
HETATM   20  C   UNL     1      -6.391   1.562 -32.737  1.00  0.00     0.010 A 
HETATM   21  C   UNL     1      -5.938   0.471 -33.635  1.00  0.00     0.054 C 
BRANCH  18  22
HETATM   22  C   UNL     1      -8.553   0.493 -31.683  1.00  0.00     0.055 C 
HETATM   23  C   UNL     1      -9.605   0.452 -32.780  1.00  0.00     0.011 C 
ENDBRANCH  18  22
ENDBRANCH   1  15
TORSDOF 3
ENDMDL
MODEL 7
REMARK VINA RESULT:      -7.1      4.581      6.669
REMARK  3 active torsions:
REMARK  status: ('A' for Active; 'I' for Inactive)
REMARK    1  A    between atoms: C_2  and  C_3 
REMARK    2  A    between atoms: C_7  and  N_8 
REMARK       I    between atoms: N_8  and  C_9 
REMARK    3  A    between atoms: C_9  and  C_10 
ROOT
HETATM    1  N   UNL     1      -6.198   1.299 -33.029  1.00  0.00    -0.309 N 
HETATM    2  C   UNL     1      -5.753   1.640 -31.772  1.00  0.00     0.234 C 
HETATM    3  O   UNL     1      -5.275   0.875 -30.941  1.00  0.00    -0.272 OA
HETATM    4  H   UNL     1      -6.737   1.962 -33.570  1.00  0.00     0.170 HD
ENDROOT
BRANCH   2   5
HETATM    5  C   UNL     1      -5.934   3.122 -31.490  1.00  0.00     0.138 C 
HETATM    6  C   UNL     1      -4.765   3.971 -31.863  1.00  0.00    -0.008 A 
HETATM    7  C   UNL     1      -4.517   4.869 -30.834  1.00  0.00     0.076 A 
HETATM    8  C   UNL     1      -4.015   4.012 -33.028  1.00  0.00     0.030 A 
HETATM    9  C   UNL     1      -3.532   5.833 -30.918  1.00  0.00     0.039 A 
HETATM   10  O   UNL     1      -5.348   4.721 -29.756  1.00  0.00    -0.349 OA
HETATM   11  C   UNL     1      -2.760   5.879 -32.079  1.00  0.00     0.022 A 
HETATM   12  C   UNL     1      -3.002   4.972 -33.122  1.00  0.00     0.011 A 
HETATM   13 BR   UNL     1      -1.947   5.057 -34.691  1.00  0.00    -0.051 Br
HETATM   14  C   UNL     1      -5.978   3.437 -29.988  1.00  0.00     0.194 C 
ENDBRANCH   2   5
BRANCH   1  15
HETATM   15  C   UNL     1      -6.211   0.058 -33.619  1.00  0.00     0.158 A 
HETATM   16  N   UNL     1      -7.375  -0.308 -34.165  1.00  0.00    -0.156 NA
HETATM   17  N   UNL     1      -7.161  -1.551 -34.606  1.00  0.00    -0.280 N 
HETATM   18  C   UNL     1      -5.885  -1.991 -34.413  1.00  0.00     0.037 A 
HETATM   19  H   UNL     1      -7.934  -2.048 -35.040  1.00  0.00     0.189 HD
HETATM   20  C   UNL     1      -5.213  -0.945 -33.797  1.00  0.00     0.010 A 
HETATM   21  C   UNL     1      -3.771  -0.923 -33.448  1.00  0.00     0.054 C 
BRANCH  18  22
HETATM   22  C   UNL     1      -5.449  -3.350 -34.839  1.00  0.00     0.055 C 
HETATM   23  C   UNL     1      -6.632  -4.274 -35.079  1.00  0.00     0.011 C 
ENDBRANCH  18  22
ENDBRANCH   1  15
TORSDOF 3
ENDMDL
MODEL 8
REMARK VINA RESULT:      -7.0      4.787      7.951
REMARK  3 active torsions:
REMARK  status: ('A' for Active; 'I' for Inactive)
REMARK    1  A    between atoms: C_2  and  C_3 
REMARK    2  A    between atoms: C_7  and  N_8 
REMARK       I    between atoms: N_8  and  C_9 
REMARK    3  A    between atoms: C_9  and  C_10 
ROOT
HETATM    1  N   UNL     1      -3.652   2.690 -32.912  1.00  0.00    -0.309 N 
HETATM    2  C   UNL     1      -4.926   2.455 -32.447  1.00  0.00     0.234 C 
HETATM    3  O   UNL     1      -5.518   3.107 -31.595  1.00  0.00    -0.272 OA
HETATM    4  H   UNL     1      -3.187   1.996 -33.481  1.00  0.00     0.170 HD
ENDROOT
BRANCH   2   5
HETATM    5  C   UNL     1      -5.555   1.240 -33.111  1.00  0.00     0.138 C 
HETATM    6  C   UNL     1      -7.032   1.331 -33.297  1.00  0.00    -0.008 A 
HETATM    7  C   UNL     1      -7.607   0.125 -32.921  1.00  0.00     0.076 A 
HETATM    8  C   UNL     1      -7.815   2.351 -33.816  1.00  0.00     0.030 A 
HETATM    9  C   UNL     1      -8.960  -0.118 -33.044  1.00  0.00     0.039 A 
HETATM   10  O   UNL     1      -6.708  -0.793 -32.446  1.00  0.00    -0.349 OA
HETATM   11  C   UNL     1      -9.764   0.904 -33.552  1.00  0.00     0.022 A 
HETATM   12  C   UNL     1      -9.191   2.127 -33.931  1.00  0.00     0.011 A 
HETATM   13 BR   UNL     1     -10.299   3.496 -34.623  1.00  0.00    -0.051 Br
HETATM   14  C   UNL     1      -5.511  -0.009 -32.219  1.00  0.00     0.194 C 
ENDBRANCH   2   5
BRANCH   1  15
HETATM   15  C   UNL     1      -2.778   3.680 -32.532  1.00  0.00     0.158 A 
HETATM   16  N   UNL     1      -2.356   3.621 -31.265  1.00  0.00    -0.156 NA
HETATM   17  N   UNL     1      -1.587   4.703 -31.117  1.00  0.00    -0.280 N 
HETATM   18  C   UNL     1      -1.452   5.440 -32.257  1.00  0.00     0.037 A 
HETATM   19  H   UNL     1      -1.174   4.880 -30.207  1.00  0.00     0.189 HD
HETATM   20  C   UNL     1      -2.193   4.779 -33.226  1.00  0.00     0.010 A 
HETATM   21  C   UNL     1      -2.295   5.164 -34.656  1.00  0.00     0.054 C 
BRANCH  18  22
HETATM   22  C   UNL     1      -0.631   6.683 -32.296  1.00  0.00     0.055 C 
HETATM   23  C   UNL     1      -1.495   7.933 -32.252  1.00  0.00     0.011 C 
ENDBRANCH  18  22
ENDBRANCH   1  15
TORSDOF 3
ENDMDL
MODEL 9
REMARK VINA RESULT:      -7.0     14.847     17.216
REMARK  3 active torsions:
REMARK  status: ('A' for Active; 'I' for Inactive)
REMARK    1  A    between atoms: C_2  and  C_3 
REMARK    2  A    between atoms: C_7  and  N_8 
REMARK       I    between atoms: N_8  and  C_9 
REMARK    3  A    between atoms: C_9  and  C_10 
ROOT
HETATM    1  N   UNL     1      -2.740 -13.175 -39.723  1.00  0.00    -0.309 N 
HETATM    2  C   UNL     1      -3.867 -13.828 -40.170  1.00  0.00     0.234 C 
HETATM    3  O   UNL     1      -3.940 -15.007 -40.495  1.00  0.00    -0.272 OA
HETATM    4  H   UNL     1      -2.737 -12.167 -39.650  1.00  0.00     0.170 HD
ENDROOT
BRANCH   2   5
HETATM    5  C   UNL     1      -5.068 -12.898 -40.241  1.00  0.00     0.138 C 
HETATM    6  C   UNL     1      -6.096 -13.132 -39.185  1.00  0.00    -0.008 A 
HETATM    7  C   UNL     1      -7.354 -13.105 -39.770  1.00  0.00     0.076 A 
HETATM    8  C   UNL     1      -5.962 -13.287 -37.814  1.00  0.00     0.030 A 
HETATM    9  C   UNL     1      -8.514 -13.227 -39.032  1.00  0.00     0.039 A 
HETATM   10  O   UNL     1      -7.330 -12.927 -41.128  1.00  0.00    -0.349 OA
HETATM   11  C   UNL     1      -8.395 -13.398 -37.652  1.00  0.00     0.022 A 
HETATM   12  C   UNL     1      -7.127 -13.429 -37.053  1.00  0.00     0.011 A 
HETATM   13 BR   UNL     1      -6.990 -13.655 -35.179  1.00  0.00    -0.051 Br
HETATM   14  C   UNL     1      -5.942 -13.156 -41.476  1.00  0.00     0.194 C 
ENDBRANCH   2   5
BRANCH   1  15
HETATM   15  C   UNL     1      -1.476 -13.685 -39.550  1.00  0.00     0.158 A 
HETATM   16  N   UNL     1      -0.750 -13.814 -40.665  1.00  0.00    -0.156 NA
HETATM   17  N   UNL     1       0.391 -14.380 -40.259  1.00  0.00    -0.280 N 
HETATM   18  C   UNL     1       0.455 -14.578 -38.912  1.00  0.00     0.037 A 
HETATM   19  H   UNL     1       1.094 -14.601 -40.957  1.00  0.00     0.189 HD
HETATM   20  C   UNL     1      -0.743 -14.098 -38.400  1.00  0.00     0.010 A 
HETATM   21  C   UNL     1      -1.112 -14.034 -36.964  1.00  0.00     0.054 C 
BRANCH  18  22
HETATM   22  C   UNL     1       1.647 -15.194 -38.264  1.00  0.00     0.055 C 
HETATM   23  C   UNL     1       1.469 -16.690 -38.061  1.00  0.00     0.011 C 
ENDBRANCH  18  22
ENDBRANCH   1  15
TORSDOF 3
ENDMDL
MODEL 10
REMARK VINA RESULT:      -6.9      4.064      6.931
REMARK  3 active torsions:
REMARK  status: ('A' for Active; 'I' for Inactive)
REMARK    1  A    between atoms: C_2  and  C_3 
REMARK    2  A    between atoms: C_7  and  N_8 
REMARK       I    between atoms: N_8  and  C_9 
REMARK    3  A    between atoms: C_9  and  C_10 
ROOT
HETATM    1  N   UNL     1      -6.619   0.311 -31.734  1.00  0.00    -0.309 N 
HETATM    2  C   UNL     1      -6.184   1.617 -31.709  1.00  0.00     0.234 C 
HETATM    3  O   UNL     1      -5.634   2.214 -32.627  1.00  0.00    -0.272 OA
HETATM    4  H   UNL     1      -6.897  -0.144 -30.875  1.00  0.00     0.170 HD
ENDROOT
BRANCH   2   5
HETATM    5  C   UNL     1      -6.446   2.275 -30.364  1.00  0.00     0.138 C 
HETATM    6  C   UNL     1      -7.575   3.249 -30.360  1.00  0.00    -0.008 A 
HETATM    7  C   UNL     1      -7.184   4.387 -29.668  1.00  0.00     0.076 A 
HETATM    8  C   UNL     1      -8.865   3.137 -30.856  1.00  0.00     0.030 A 
HETATM    9  C   UNL     1      -8.043   5.443 -29.440  1.00  0.00     0.039 A 
HETATM   10  O   UNL     1      -5.890   4.347 -29.223  1.00  0.00    -0.349 OA
HETATM   11  C   UNL     1      -9.341   5.351 -29.945  1.00  0.00     0.022 A 
HETATM   12  C   UNL     1      -9.743   4.206 -30.648  1.00  0.00     0.011 A 
HETATM   13 BR   UNL     1     -11.510   4.100 -31.318  1.00  0.00    -0.051 Br
HETATM   14  C   UNL     1      -5.318   3.227 -29.943  1.00  0.00     0.194 C 
ENDBRANCH   2   5
BRANCH   1  15
HETATM   15  C   UNL     1      -6.535  -0.593 -32.765  1.00  0.00     0.158 A 
HETATM   16  N   UNL     1      -7.644  -0.737 -33.496  1.00  0.00    -0.156 NA
HETATM   17  N   UNL     1      -7.344  -1.697 -34.376  1.00  0.00    -0.280 N 
HETATM   18  C   UNL     1      -6.062  -2.150 -34.277  1.00  0.00     0.037 A 
HETATM   19  H   UNL     1      -8.064  -1.997 -35.026  1.00  0.00     0.189 HD
HETATM   20  C   UNL     1      -5.480  -1.420 -33.250  1.00  0.00     0.010 A 
HETATM   21  C   UNL     1      -4.064  -1.508 -32.814  1.00  0.00     0.054 C 
BRANCH  18  22
HETATM   22  C   UNL     1      -5.534  -3.218 -35.172  1.00  0.00     0.055 C 
HETATM   23  C   UNL     1      -6.466  -4.417 -35.231  1.00  0.00     0.011 C 
ENDBRANCH  18  22
ENDBRANCH   1  15
TORSDOF 3
ENDMDL
