MODEL 1
REMARK VINA RESULT:      -7.8      0.000      0.000
REMARK  7 active torsions:
REMARK  status: ('A' for Active; 'I' for Inactive)
REMARK    1  A    between atoms: C_2  and  C_3 
REMARK    2  A    between atoms: C_3  and  N_4 
REMARK    3  A    between atoms: C_3  and  C_15 
REMARK       I    between atoms: N_4  and  C_5 
REMARK    4  A    between atoms: C_5  and  C_6 
REMARK    5  A    between atoms: C_9  and  O_10 
REMARK    6  A    between atoms: C_15  and  N_16 
REMARK    7  A    between atoms: C_18  and  C_19 
ROOT
HETATM    1  C   UNL     1      -4.383  -1.211 -32.172  1.00  0.00     0.107 C 
ENDROOT
BRANCH   1   2
HETATM    2  C   UNL     1      -3.506  -2.298 -32.851  1.00  0.00     0.002 C 
HETATM    3  C   UNL     1      -4.233  -3.063 -33.962  1.00  0.00     0.011 C 
HETATM    4  C   UNL     1      -2.931  -3.294 -31.838  1.00  0.00     0.011 C 
ENDBRANCH   1   2
BRANCH   1   5
HETATM    5  N   UNL     1      -4.986  -0.300 -33.151  1.00  0.00    -0.354 N 
HETATM    6  C   UNL     1      -6.340  -0.254 -33.404  1.00  0.00     0.222 C 
HETATM    7  O   UNL     1      -7.141  -1.035 -32.903  1.00  0.00    -0.273 OA
HETATM    8  H   UNL     1      -4.427   0.499 -33.445  1.00  0.00     0.162 HD
BRANCH   6   9
HETATM    9  C   UNL     1      -6.746   0.884 -34.345  1.00  0.00     0.078 C 
HETATM   10  C   UNL     1      -8.090   0.611 -35.034  1.00  0.00     0.016 C 
HETATM   11  C   UNL     1      -9.287   0.837 -34.106  1.00  0.00     0.033 C 
HETATM   12  C   UNL     1      -9.277   2.237 -33.485  1.00  0.00     0.120 C 
HETATM   13  C   UNL     1      -7.961   2.467 -32.738  1.00  0.00     0.033 C 
HETATM   14  C   UNL     1      -6.742   2.248 -33.637  1.00  0.00     0.016 C 
BRANCH  12  15
HETATM   15  O   UNL     1      -9.452   3.178 -34.553  1.00  0.00    -0.391 OA
HETATM   16  C   UNL     1     -10.809   3.383 -34.918  1.00  0.00     0.202 C 
ENDBRANCH  12  15
ENDBRANCH   6   9
ENDBRANCH   1   5
BRANCH   1  17
HETATM   17  C   UNL     1      -3.570  -0.422 -31.115  1.00  0.00     0.180 C 
BRANCH  17  18
HETATM   18  N   UNL     1      -3.987   0.977 -31.014  1.00  0.00    -0.232 N 
HETATM   19  N   UNL     1      -3.158   1.899 -31.613  1.00  0.00    -0.168 NA
HETATM   20  C   UNL     1      -3.446   3.165 -31.510  1.00  0.00     0.094 A 
HETATM   21  C   UNL     1      -4.636   3.652 -30.767  1.00  0.00     0.040 A 
HETATM   22  C   UNL     1      -5.420   2.746 -30.180  1.00  0.00     0.078 A 
HETATM   23  C   UNL     1      -5.107   1.308 -30.266  1.00  0.00     0.263 A 
HETATM   24  O   UNL     1      -5.823   0.499 -29.678  1.00  0.00    -0.267 OA
BRANCH  20  25
HETATM   25  C   UNL     1      -2.535   4.106 -32.163  1.00  0.00     0.035 A 
HETATM   26  S   UNL     1      -1.453   5.114 -31.293  1.00  0.00    -0.100 SA
HETATM   27  C   UNL     1      -0.835   5.824 -32.717  1.00  0.00     0.050 A 
HETATM   28  C   UNL     1      -1.434   5.315 -33.846  1.00  0.00     0.008 A 
HETATM   29  C   UNL     1      -2.412   4.329 -33.527  1.00  0.00     0.022 A 
ENDBRANCH  20  25
ENDBRANCH  17  18
ENDBRANCH   1  17
TORSDOF 7
ENDMDL
MODEL 2
REMARK VINA RESULT:      -7.5      2.686      5.212
REMARK  7 active torsions:
REMARK  status: ('A' for Active; 'I' for Inactive)
REMARK    1  A    between atoms: C_2  and  C_3 
REMARK    2  A    between atoms: C_3  and  N_4 
REMARK    3  A    between atoms: C_3  and  C_15 
REMARK       I    between atoms: N_4  and  C_5 
REMARK    4  A    between atoms: C_5  and  C_6 
REMARK    5  A    between atoms: C_9  and  O_10 
REMARK    6  A    between atoms: C_15  and  N_16 
REMARK    7  A    between atoms: C_18  and  C_19 
ROOT
HETATM    1  C   UNL     1      -4.528   3.315 -32.534  1.00  0.00     0.107 C 
ENDROOT
BRANCH   1   2
HETATM    2  C   UNL     1      -4.778   4.376 -31.428  1.00  0.00     0.002 C 
HETATM    3  C   UNL     1      -5.477   3.811 -30.187  1.00  0.00     0.011 C 
HETATM    4  C   UNL     1      -5.563   5.583 -31.952  1.00  0.00     0.011 C 
ENDBRANCH   1   2
BRANCH   1   5
HETATM    5  N   UNL     1      -5.254   2.067 -32.273  1.00  0.00    -0.354 N 
HETATM    6  C   UNL     1      -6.336   1.654 -33.019  1.00  0.00     0.222 C 
HETATM    7  O   UNL     1      -6.842   2.339 -33.901  1.00  0.00    -0.273 OA
HETATM    8  H   UNL     1      -4.778   1.365 -31.708  1.00  0.00     0.162 HD
BRANCH   6   9
HETATM    9  C   UNL     1      -6.823   0.247 -32.660  1.00  0.00     0.078 C 
HETATM   10  C   UNL     1      -7.882  -0.266 -33.645  1.00  0.00     0.016 C 
HETATM   11  C   UNL     1      -7.279  -0.722 -34.977  1.00  0.00     0.033 C 
HETATM   12  C   UNL     1      -6.178  -1.768 -34.780  1.00  0.00     0.120 C 
HETATM   13  C   UNL     1      -5.091  -1.215 -33.855  1.00  0.00     0.033 C 
HETATM   14  C   UNL     1      -5.661  -0.747 -32.513  1.00  0.00     0.016 C 
BRANCH  12  15
HETATM   15  O   UNL     1      -6.795  -2.940 -34.231  1.00  0.00    -0.391 OA
HETATM   16  C   UNL     1      -6.612  -4.107 -35.020  1.00  0.00     0.202 C 
ENDBRANCH  12  15
ENDBRANCH   6   9
ENDBRANCH   1   5
BRANCH   1  17
HETATM   17  C   UNL     1      -3.013   3.043 -32.711  1.00  0.00     0.180 C 
BRANCH  17  18
HETATM   18  N   UNL     1      -2.218   4.272 -32.720  1.00  0.00    -0.232 N 
HETATM   19  N   UNL     1      -1.677   4.649 -31.511  1.00  0.00    -0.168 NA
HETATM   20  C   UNL     1      -1.007   5.764 -31.442  1.00  0.00     0.094 A 
HETATM   21  C   UNL     1      -0.806   6.645 -32.620  1.00  0.00     0.040 A 
HETATM   22  C   UNL     1      -1.350   6.271 -33.779  1.00  0.00     0.078 A 
HETATM   23  C   UNL     1      -2.128   5.024 -33.881  1.00  0.00     0.263 A 
HETATM   24  O   UNL     1      -2.655   4.727 -34.952  1.00  0.00    -0.267 OA
BRANCH  20  25
HETATM   25  C   UNL     1      -0.452   6.122 -30.136  1.00  0.00     0.035 A 
HETATM   26  S   UNL     1      -0.797   7.607 -29.350  1.00  0.00    -0.100 SA
HETATM   27  C   UNL     1       0.182   7.223 -28.007  1.00  0.00     0.050 A 
HETATM   28  C   UNL     1       0.772   5.988 -28.139  1.00  0.00     0.008 A 
HETATM   29  C   UNL     1       0.409   5.357 -29.363  1.00  0.00     0.022 A 
ENDBRANCH  20  25
ENDBRANCH  17  18
ENDBRANCH   1  17
TORSDOF 7
ENDMDL
MODEL 3
REMARK VINA RESULT:      -7.5      2.392      5.220
REMARK  7 active torsions:
REMARK  status: ('A' for Active; 'I' for Inactive)
REMARK    1  A    between atoms: C_2  and  C_3 
REMARK    2  A    between atoms: C_3  and  N_4 
REMARK    3  A    between atoms: C_3  and  C_15 
REMARK       I    between atoms: N_4  and  C_5 
REMARK    4  A    between atoms: C_5  and  C_6 
REMARK    5  A    between atoms: C_9  and  O_10 
REMARK    6  A    between atoms: C_15  and  N_16 
REMARK    7  A    between atoms: C_18  and  C_19 
ROOT
HETATM    1  C   UNL     1      -9.499   2.356 -34.038  1.00  0.00     0.107 C 
ENDROOT
BRANCH   1   2
HETATM    2  C   UNL     1     -11.007   2.136 -34.340  1.00  0.00     0.002 C 
HETATM    3  C   UNL     1     -11.881   3.347 -33.997  1.00  0.00     0.011 C 
HETATM    4  C   UNL     1     -11.561   0.891 -33.641  1.00  0.00     0.011 C 
ENDBRANCH   1   2
BRANCH   1   5
HETATM    5  N   UNL     1      -8.887   1.181 -33.407  1.00  0.00    -0.354 N 
HETATM    6  C   UNL     1      -8.065   0.305 -34.082  1.00  0.00     0.222 C 
HETATM    7  O   UNL     1      -7.853   0.380 -35.287  1.00  0.00    -0.273 OA
HETATM    8  H   UNL     1      -8.848   1.170 -32.389  1.00  0.00     0.162 HD
BRANCH   6   9
HETATM    9  C   UNL     1      -7.420  -0.747 -33.175  1.00  0.00     0.078 C 
HETATM   10  C   UNL     1      -6.912  -1.958 -33.969  1.00  0.00     0.016 C 
HETATM   11  C   UNL     1      -5.603  -1.672 -34.710  1.00  0.00     0.033 C 
HETATM   12  C   UNL     1      -4.512  -1.150 -33.770  1.00  0.00     0.120 C 
HETATM   13  C   UNL     1      -5.006   0.101 -33.042  1.00  0.00     0.033 C 
HETATM   14  C   UNL     1      -6.316  -0.149 -32.290  1.00  0.00     0.016 C 
BRANCH  12  15
HETATM   15  O   UNL     1      -4.197  -2.207 -32.855  1.00  0.00    -0.391 OA
HETATM   16  C   UNL     1      -3.153  -1.886 -31.947  1.00  0.00     0.202 C 
ENDBRANCH  12  15
ENDBRANCH   6   9
ENDBRANCH   1   5
BRANCH   1  17
HETATM   17  C   UNL     1      -9.286   3.621 -33.168  1.00  0.00     0.180 C 
BRANCH  17  18
HETATM   18  N   UNL     1      -8.102   3.522 -32.313  1.00  0.00    -0.232 N 
HETATM   19  N   UNL     1      -6.902   3.851 -32.904  1.00  0.00    -0.168 NA
HETATM   20  C   UNL     1      -5.806   3.730 -32.211  1.00  0.00     0.094 A 
HETATM   21  C   UNL     1      -5.802   3.247 -30.807  1.00  0.00     0.040 A 
HETATM   22  C   UNL     1      -6.972   2.919 -30.256  1.00  0.00     0.078 A 
HETATM   23  C   UNL     1      -8.225   3.030 -31.023  1.00  0.00     0.263 A 
HETATM   24  O   UNL     1      -9.283   2.678 -30.504  1.00  0.00    -0.267 OA
BRANCH  20  25
HETATM   25  C   UNL     1      -4.557   4.092 -32.882  1.00  0.00     0.035 A 
HETATM   26  S   UNL     1      -4.500   5.100 -34.269  1.00  0.00    -0.100 SA
HETATM   27  C   UNL     1      -2.800   4.998 -34.378  1.00  0.00     0.050 A 
HETATM   28  C   UNL     1      -2.268   4.211 -33.384  1.00  0.00     0.008 A 
HETATM   29  C   UNL     1      -3.278   3.689 -32.526  1.00  0.00     0.022 A 
ENDBRANCH  20  25
ENDBRANCH  17  18
ENDBRANCH   1  17
TORSDOF 7
ENDMDL
MODEL 4
REMARK VINA RESULT:      -7.5      2.790      6.565
REMARK  7 active torsions:
REMARK  status: ('A' for Active; 'I' for Inactive)
REMARK    1  A    between atoms: C_2  and  C_3 
REMARK    2  A    between atoms: C_3  and  N_4 
REMARK    3  A    between atoms: C_3  and  C_15 
REMARK       I    between atoms: N_4  and  C_5 
REMARK    4  A    between atoms: C_5  and  C_6 
REMARK    5  A    between atoms: C_9  and  O_10 
REMARK    6  A    between atoms: C_15  and  N_16 
REMARK    7  A    between atoms: C_18  and  C_19 
ROOT
HETATM    1  C   UNL     1      -8.781   3.248 -33.299  1.00  0.00     0.107 C 
ENDROOT
BRANCH   1   2
HETATM    2  C   UNL     1      -9.750   2.914 -34.466  1.00  0.00     0.002 C 
HETATM    3  C   UNL     1     -10.558   4.122 -34.953  1.00  0.00     0.011 C 
HETATM    4  C   UNL     1     -10.705   1.769 -34.114  1.00  0.00     0.011 C 
ENDBRANCH   1   2
BRANCH   1   5
HETATM    5  N   UNL     1      -7.378   3.237 -33.727  1.00  0.00    -0.354 N 
HETATM    6  C   UNL     1      -6.593   4.368 -33.769  1.00  0.00     0.222 C 
HETATM    7  O   UNL     1      -7.026   5.492 -33.543  1.00  0.00    -0.273 OA
HETATM    8  H   UNL     1      -6.903   2.335 -33.730  1.00  0.00     0.162 HD
BRANCH   6   9
HETATM    9  C   UNL     1      -5.124   4.079 -34.093  1.00  0.00     0.078 C 
HETATM   10  C   UNL     1      -4.305   5.367 -34.254  1.00  0.00     0.016 C 
HETATM   11  C   UNL     1      -3.968   6.025 -32.913  1.00  0.00     0.033 C 
HETATM   12  C   UNL     1      -3.262   5.056 -31.959  1.00  0.00     0.120 C 
HETATM   13  C   UNL     1      -4.125   3.810 -31.749  1.00  0.00     0.033 C 
HETATM   14  C   UNL     1      -4.483   3.127 -33.072  1.00  0.00     0.016 C 
BRANCH  12  15
HETATM   15  O   UNL     1      -1.994   4.730 -32.543  1.00  0.00    -0.391 OA
HETATM   16  C   UNL     1      -0.883   5.242 -31.820  1.00  0.00     0.202 C 
ENDBRANCH  12  15
ENDBRANCH   6   9
ENDBRANCH   1   5
BRANCH   1  17
HETATM   17  C   UNL     1      -8.998   2.287 -32.103  1.00  0.00     0.180 C 
BRANCH  17  18
HETATM   18  N   UNL     1      -7.786   1.549 -31.747  1.00  0.00    -0.232 N 
HETATM   19  N   UNL     1      -7.427   0.529 -32.600  1.00  0.00    -0.168 NA
HETATM   20  C   UNL     1      -6.389  -0.200 -32.307  1.00  0.00     0.094 A 
HETATM   21  C   UNL     1      -5.578   0.026 -31.084  1.00  0.00     0.040 A 
HETATM   22  C   UNL     1      -5.948   1.008 -30.261  1.00  0.00     0.078 A 
HETATM   23  C   UNL     1      -7.129   1.838 -30.560  1.00  0.00     0.263 A 
HETATM   24  O   UNL     1      -7.474   2.707 -29.761  1.00  0.00    -0.267 OA
BRANCH  20  25
HETATM   25  C   UNL     1      -6.048  -1.271 -33.244  1.00  0.00     0.035 A 
HETATM   26  S   UNL     1      -4.445  -1.843 -33.465  1.00  0.00    -0.100 SA
HETATM   27  C   UNL     1      -4.924  -2.987 -34.638  1.00  0.00     0.050 A 
HETATM   28  C   UNL     1      -6.279  -2.946 -34.871  1.00  0.00     0.008 A 
HETATM   29  C   UNL     1      -6.923  -1.959 -34.071  1.00  0.00     0.022 A 
ENDBRANCH  20  25
ENDBRANCH  17  18
ENDBRANCH   1  17
TORSDOF 7
ENDMDL
MODEL 5
REMARK VINA RESULT:      -7.4      2.208      4.769
REMARK  7 active torsions:
REMARK  status: ('A' for Active; 'I' for Inactive)
REMARK    1  A    between atoms: C_2  and  C_3 
REMARK    2  A    between atoms: C_3  and  N_4 
REMARK    3  A    between atoms: C_3  and  C_15 
REMARK       I    between atoms: N_4  and  C_5 
REMARK    4  A    between atoms: C_5  and  C_6 
REMARK    5  A    between atoms: C_9  and  O_10 
REMARK    6  A    between atoms: C_15  and  N_16 
REMARK    7  A    between atoms: C_18  and  C_19 
ROOT
HETATM    1  C   UNL     1      -8.261   3.432 -30.983  1.00  0.00     0.107 C 
ENDROOT
BRANCH   1   2
HETATM    2  C   UNL     1      -9.491   4.116 -30.327  1.00  0.00     0.002 C 
HETATM    3  C   UNL     1     -10.748   4.080 -31.202  1.00  0.00     0.011 C 
HETATM    4  C   UNL     1      -9.197   5.562 -29.915  1.00  0.00     0.011 C 
ENDBRANCH   1   2
BRANCH   1   5
HETATM    5  N   UNL     1      -8.633   2.219 -31.718  1.00  0.00    -0.354 N 
HETATM    6  C   UNL     1      -8.417   2.060 -33.070  1.00  0.00     0.222 C 
HETATM    7  O   UNL     1      -7.983   2.954 -33.788  1.00  0.00    -0.273 OA
HETATM    8  H   UNL     1      -8.800   1.377 -31.168  1.00  0.00     0.162 HD
BRANCH   6   9
HETATM    9  C   UNL     1      -8.741   0.651 -33.578  1.00  0.00     0.078 C 
HETATM   10  C   UNL     1      -8.309   0.452 -35.037  1.00  0.00     0.016 C 
HETATM   11  C   UNL     1      -6.798   0.249 -35.185  1.00  0.00     0.033 C 
HETATM   12  C   UNL     1      -6.284  -0.898 -34.311  1.00  0.00     0.120 C 
HETATM   13  C   UNL     1      -6.656  -0.648 -32.848  1.00  0.00     0.033 C 
HETATM   14  C   UNL     1      -8.162  -0.440 -32.664  1.00  0.00     0.016 C 
BRANCH  12  15
HETATM   15  O   UNL     1      -6.871  -2.108 -34.808  1.00  0.00    -0.391 OA
HETATM   16  C   UNL     1      -5.937  -3.161 -34.998  1.00  0.00     0.202 C 
ENDBRANCH  12  15
ENDBRANCH   6   9
ENDBRANCH   1   5
BRANCH   1  17
HETATM   17  C   UNL     1      -7.169   3.122 -29.928  1.00  0.00     0.180 C 
BRANCH  17  18
HETATM   18  N   UNL     1      -5.922   2.649 -30.531  1.00  0.00    -0.232 N 
HETATM   19  N   UNL     1      -5.387   3.448 -31.517  1.00  0.00    -0.168 NA
HETATM   20  C   UNL     1      -4.309   3.053 -32.130  1.00  0.00     0.094 A 
HETATM   21  C   UNL     1      -3.635   1.770 -31.808  1.00  0.00     0.040 A 
HETATM   22  C   UNL     1      -4.175   1.002 -30.861  1.00  0.00     0.078 A 
HETATM   23  C   UNL     1      -5.405   1.416 -30.162  1.00  0.00     0.263 A 
HETATM   24  O   UNL     1      -5.905   0.667 -29.325  1.00  0.00    -0.267 OA
BRANCH  20  25
HETATM   25  C   UNL     1      -3.779   3.936 -33.170  1.00  0.00     0.035 A 
HETATM   26  S   UNL     1      -4.782   4.808 -34.255  1.00  0.00    -0.100 SA
HETATM   27  C   UNL     1      -3.450   5.511 -35.057  1.00  0.00     0.050 A 
HETATM   28  C   UNL     1      -2.252   5.098 -34.521  1.00  0.00     0.008 A 
HETATM   29  C   UNL     1      -2.442   4.192 -33.439  1.00  0.00     0.022 A 
ENDBRANCH  20  25
ENDBRANCH  17  18
ENDBRANCH   1  17
TORSDOF 7
ENDMDL
MODEL 6
REMARK VINA RESULT:      -7.3      3.838      8.245
REMARK  7 active torsions:
REMARK  status: ('A' for Active; 'I' for Inactive)
REMARK    1  A    between atoms: C_2  and  C_3 
REMARK    2  A    between atoms: C_3  and  N_4 
REMARK    3  A    between atoms: C_3  and  C_15 
REMARK       I    between atoms: N_4  and  C_5 
REMARK    4  A    between atoms: C_5  and  C_6 
REMARK    5  A    between atoms: C_9  and  O_10 
REMARK    6  A    between atoms: C_15  and  N_16 
REMARK    7  A    between atoms: C_18  and  C_19 
ROOT
HETATM    1  C   UNL     1      -2.883   4.837 -32.380  1.00  0.00     0.107 C 
ENDROOT
BRANCH   1   2
HETATM    2  C   UNL     1      -2.809   4.653 -33.921  1.00  0.00     0.002 C 
HETATM    3  C   UNL     1      -1.566   5.290 -34.552  1.00  0.00     0.011 C 
HETATM    4  C   UNL     1      -4.065   5.173 -34.627  1.00  0.00     0.011 C 
ENDBRANCH   1   2
BRANCH   1   5
HETATM    5  N   UNL     1      -1.854   5.758 -31.886  1.00  0.00    -0.354 N 
HETATM    6  C   UNL     1      -2.119   6.783 -31.004  1.00  0.00     0.222 C 
HETATM    7  O   UNL     1      -3.252   7.070 -30.633  1.00  0.00    -0.273 OA
HETATM    8  H   UNL     1      -0.884   5.462 -31.983  1.00  0.00     0.162 HD
BRANCH   6   9
HETATM    9  C   UNL     1      -0.861   7.504 -30.511  1.00  0.00     0.078 C 
HETATM   10  C   UNL     1      -1.083   8.188 -29.155  1.00  0.00     0.016 C 
HETATM   11  C   UNL     1      -1.078   7.199 -27.986  1.00  0.00     0.033 C 
HETATM   12  C   UNL     1       0.197   6.351 -27.956  1.00  0.00     0.120 C 
HETATM   13  C   UNL     1       0.365   5.615 -29.288  1.00  0.00     0.033 C 
HETATM   14  C   UNL     1       0.363   6.576 -30.480  1.00  0.00     0.016 C 
BRANCH  12  15
HETATM   15  O   UNL     1       1.293   7.237 -27.698  1.00  0.00    -0.391 OA
HETATM   16  C   UNL     1       1.374   7.670 -26.347  1.00  0.00     0.202 C 
ENDBRANCH  12  15
ENDBRANCH   6   9
ENDBRANCH   1   5
BRANCH   1  17
HETATM   17  C   UNL     1      -2.796   3.472 -31.652  1.00  0.00     0.180 C 
BRANCH  17  18
HETATM   18  N   UNL     1      -4.086   2.784 -31.590  1.00  0.00    -0.232 N 
HETATM   19  N   UNL     1      -4.199   1.644 -32.355  1.00  0.00    -0.168 NA
HETATM   20  C   UNL     1      -5.341   1.019 -32.386  1.00  0.00     0.094 A 
HETATM   21  C   UNL     1      -6.527   1.490 -31.628  1.00  0.00     0.040 A 
HETATM   22  C   UNL     1      -6.404   2.604 -30.904  1.00  0.00     0.078 A 
HETATM   23  C   UNL     1      -5.128   3.342 -30.866  1.00  0.00     0.263 A 
HETATM   24  O   UNL     1      -5.057   4.390 -30.226  1.00  0.00    -0.267 OA
BRANCH  20  25
HETATM   25  C   UNL     1      -5.412  -0.187 -33.212  1.00  0.00     0.035 A 
HETATM   26  S   UNL     1      -4.197  -1.399 -33.202  1.00  0.00    -0.100 SA
HETATM   27  C   UNL     1      -5.016  -2.349 -34.359  1.00  0.00     0.050 A 
HETATM   28  C   UNL     1      -6.195  -1.767 -34.760  1.00  0.00     0.008 A 
HETATM   29  C   UNL     1      -6.421  -0.524 -34.102  1.00  0.00     0.022 A 
ENDBRANCH  20  25
ENDBRANCH  17  18
ENDBRANCH   1  17
TORSDOF 7
ENDMDL
MODEL 7
REMARK VINA RESULT:      -7.3      2.861      6.671
REMARK  7 active torsions:
REMARK  status: ('A' for Active; 'I' for Inactive)
REMARK    1  A    between atoms: C_2  and  C_3 
REMARK    2  A    between atoms: C_3  and  N_4 
REMARK    3  A    between atoms: C_3  and  C_15 
REMARK       I    between atoms: N_4  and  C_5 
REMARK    4  A    between atoms: C_5  and  C_6 
REMARK    5  A    between atoms: C_9  and  O_10 
REMARK    6  A    between atoms: C_15  and  N_16 
REMARK    7  A    between atoms: C_18  and  C_19 
ROOT
HETATM    1  C   UNL     1      -7.782   3.140 -30.559  1.00  0.00     0.107 C 
ENDROOT
BRANCH   1   2
HETATM    2  C   UNL     1      -8.438   4.517 -30.261  1.00  0.00     0.002 C 
HETATM    3  C   UNL     1      -8.580   5.406 -31.501  1.00  0.00     0.011 C 
HETATM    4  C   UNL     1      -7.696   5.286 -29.164  1.00  0.00     0.011 C 
ENDBRANCH   1   2
BRANCH   1   5
HETATM    5  N   UNL     1      -6.830   3.214 -31.673  1.00  0.00    -0.354 N 
HETATM    6  C   UNL     1      -5.467   3.109 -31.508  1.00  0.00     0.222 C 
HETATM    7  O   UNL     1      -4.929   3.040 -30.408  1.00  0.00    -0.273 OA
HETATM    8  H   UNL     1      -7.202   3.064 -32.609  1.00  0.00     0.162 HD
BRANCH   6   9
HETATM    9  C   UNL     1      -4.695   3.053 -32.830  1.00  0.00     0.078 C 
HETATM   10  C   UNL     1      -5.264   4.027 -33.870  1.00  0.00     0.016 C 
HETATM   11  C   UNL     1      -4.865   5.481 -33.601  1.00  0.00     0.033 C 
HETATM   12  C   UNL     1      -3.347   5.648 -33.483  1.00  0.00     0.120 C 
HETATM   13  C   UNL     1      -2.804   4.725 -32.389  1.00  0.00     0.033 C 
HETATM   14  C   UNL     1      -3.186   3.262 -32.627  1.00  0.00     0.016 C 
BRANCH  12  15
HETATM   15  O   UNL     1      -2.783   5.339 -34.764  1.00  0.00    -0.391 OA
HETATM   16  C   UNL     1      -1.370   5.467 -34.814  1.00  0.00     0.202 C 
ENDBRANCH  12  15
ENDBRANCH   6   9
ENDBRANCH   1   5
BRANCH   1  17
HETATM   17  C   UNL     1      -8.859   2.058 -30.826  1.00  0.00     0.180 C 
BRANCH  17  18
HETATM   18  N   UNL     1      -8.763   1.490 -32.171  1.00  0.00    -0.232 N 
HETATM   19  N   UNL     1      -7.752   0.576 -32.370  1.00  0.00    -0.168 NA
HETATM   20  C   UNL     1      -7.580   0.077 -33.560  1.00  0.00     0.094 A 
HETATM   21  C   UNL     1      -8.434   0.458 -34.713  1.00  0.00     0.040 A 
HETATM   22  C   UNL     1      -9.399   1.356 -34.506  1.00  0.00     0.078 A 
HETATM   23  C   UNL     1      -9.604   1.950 -33.173  1.00  0.00     0.263 A 
HETATM   24  O   UNL     1     -10.472   2.808 -33.022  1.00  0.00    -0.267 OA
BRANCH  20  25
HETATM   25  C   UNL     1      -6.493  -0.889 -33.721  1.00  0.00     0.035 A 
HETATM   26  S   UNL     1      -5.085  -0.882 -32.741  1.00  0.00    -0.100 SA
HETATM   27  C   UNL     1      -4.411  -2.224 -33.551  1.00  0.00     0.050 A 
HETATM   28  C   UNL     1      -5.231  -2.682 -34.556  1.00  0.00     0.008 A 
HETATM   29  C   UNL     1      -6.426  -1.914 -34.654  1.00  0.00     0.022 A 
ENDBRANCH  20  25
ENDBRANCH  17  18
ENDBRANCH   1  17
TORSDOF 7
ENDMDL
MODEL 8
REMARK VINA RESULT:      -7.2      2.466      5.178
REMARK  7 active torsions:
REMARK  status: ('A' for Active; 'I' for Inactive)
REMARK    1  A    between atoms: C_2  and  C_3 
REMARK    2  A    between atoms: C_3  and  N_4 
REMARK    3  A    between atoms: C_3  and  C_15 
REMARK       I    between atoms: N_4  and  C_5 
REMARK    4  A    between atoms: C_5  and  C_6 
REMARK    5  A    between atoms: C_9  and  O_10 
REMARK    6  A    between atoms: C_15  and  N_16 
REMARK    7  A    between atoms: C_18  and  C_19 
ROOT
HETATM    1  C   UNL     1      -4.316   3.817 -33.191  1.00  0.00     0.107 C 
ENDROOT
BRANCH   1   2
HETATM    2  C   UNL     1      -3.364   4.981 -33.581  1.00  0.00     0.002 C 
HETATM    3  C   UNL     1      -3.394   5.319 -35.076  1.00  0.00     0.011 C 
HETATM    4  C   UNL     1      -1.919   4.716 -33.146  1.00  0.00     0.011 C 
ENDBRANCH   1   2
BRANCH   1   5
HETATM    5  N   UNL     1      -5.685   4.284 -32.947  1.00  0.00    -0.354 N 
HETATM    6  C   UNL     1      -6.792   3.723 -33.545  1.00  0.00     0.222 C 
HETATM    7  O   UNL     1      -6.718   2.850 -34.403  1.00  0.00    -0.273 OA
HETATM    8  H   UNL     1      -5.839   4.849 -32.113  1.00  0.00     0.162 HD
BRANCH   6   9
HETATM    9  C   UNL     1      -8.118   4.272 -33.011  1.00  0.00     0.078 C 
HETATM   10  C   UNL     1      -9.215   4.274 -34.085  1.00  0.00     0.016 C 
HETATM   11  C   UNL     1      -9.797   2.881 -34.340  1.00  0.00     0.033 C 
HETATM   12  C   UNL     1     -10.308   2.228 -33.052  1.00  0.00     0.120 C 
HETATM   13  C   UNL     1      -9.182   2.163 -32.018  1.00  0.00     0.033 C 
HETATM   14  C   UNL     1      -8.576   3.541 -31.739  1.00  0.00     0.016 C 
BRANCH  12  15
HETATM   15  O   UNL     1     -11.413   3.012 -32.586  1.00  0.00    -0.391 OA
HETATM   16  C   UNL     1     -12.650   2.683 -33.202  1.00  0.00     0.202 C 
ENDBRANCH  12  15
ENDBRANCH   6   9
ENDBRANCH   1   5
BRANCH   1  17
HETATM   17  C   UNL     1      -3.772   3.041 -31.965  1.00  0.00     0.180 C 
BRANCH  17  18
HETATM   18  N   UNL     1      -4.655   1.948 -31.555  1.00  0.00    -0.232 N 
HETATM   19  N   UNL     1      -4.794   0.914 -32.454  1.00  0.00    -0.168 NA
HETATM   20  C   UNL     1      -5.609  -0.060 -32.170  1.00  0.00     0.094 A 
HETATM   21  C   UNL     1      -6.397  -0.098 -30.912  1.00  0.00     0.040 A 
HETATM   22  C   UNL     1      -6.262   0.919 -30.060  1.00  0.00     0.078 A 
HETATM   23  C   UNL     1      -5.359   2.044 -30.364  1.00  0.00     0.263 A 
HETATM   24  O   UNL     1      -5.288   2.989 -29.580  1.00  0.00    -0.267 OA
BRANCH  20  25
HETATM   25  C   UNL     1      -5.723  -1.135 -33.156  1.00  0.00     0.035 A 
HETATM   26  S   UNL     1      -4.381  -2.069 -33.678  1.00  0.00    -0.100 SA
HETATM   27  C   UNL     1      -5.336  -3.003 -34.741  1.00  0.00     0.050 A 
HETATM   28  C   UNL     1      -6.657  -2.621 -34.714  1.00  0.00     0.008 A 
HETATM   29  C   UNL     1      -6.878  -1.547 -33.804  1.00  0.00     0.022 A 
ENDBRANCH  20  25
ENDBRANCH  17  18
ENDBRANCH   1  17
TORSDOF 7
ENDMDL
MODEL 9
REMARK VINA RESULT:      -7.1      3.374      6.686
REMARK  7 active torsions:
REMARK  status: ('A' for Active; 'I' for Inactive)
REMARK    1  A    between atoms: C_2  and  C_3 
REMARK    2  A    between atoms: C_3  and  N_4 
REMARK    3  A    between atoms: C_3  and  C_15 
REMARK       I    between atoms: N_4  and  C_5 
REMARK    4  A    between atoms: C_5  and  C_6 
REMARK    5  A    between atoms: C_9  and  O_10 
REMARK    6  A    between atoms: C_15  and  N_16 
REMARK    7  A    between atoms: C_18  and  C_19 
ROOT
HETATM    1  C   UNL     1      -6.106   0.791 -32.563  1.00  0.00     0.107 C 
ENDROOT
BRANCH   1   2
HETATM    2  C   UNL     1      -5.085  -0.375 -32.664  1.00  0.00     0.002 C 
HETATM    3  C   UNL     1      -3.626   0.092 -32.699  1.00  0.00     0.011 C 
HETATM    4  C   UNL     1      -5.360  -1.282 -33.868  1.00  0.00     0.011 C 
ENDBRANCH   1   2
BRANCH   1   5
HETATM    5  N   UNL     1      -5.448   2.078 -32.315  1.00  0.00    -0.354 N 
HETATM    6  C   UNL     1      -5.656   3.194 -33.096  1.00  0.00     0.222 C 
HETATM    7  O   UNL     1      -6.334   3.179 -34.118  1.00  0.00    -0.273 OA
HETATM    8  H   UNL     1      -5.046   2.222 -31.390  1.00  0.00     0.162 HD
BRANCH   6   9
HETATM    9  C   UNL     1      -4.986   4.457 -32.546  1.00  0.00     0.078 C 
HETATM   10  C   UNL     1      -3.689   4.139 -31.789  1.00  0.00     0.016 C 
HETATM   11  C   UNL     1      -2.520   3.825 -32.726  1.00  0.00     0.033 C 
HETATM   12  C   UNL     1      -2.285   4.942 -33.747  1.00  0.00     0.120 C 
HETATM   13  C   UNL     1      -3.565   5.196 -34.546  1.00  0.00     0.033 C 
HETATM   14  C   UNL     1      -4.757   5.513 -33.638  1.00  0.00     0.016 C 
BRANCH  12  15
HETATM   15  O   UNL     1      -1.875   6.106 -33.018  1.00  0.00    -0.391 OA
HETATM   16  C   UNL     1      -1.497   7.196 -33.846  1.00  0.00     0.202 C 
ENDBRANCH  12  15
ENDBRANCH   6   9
ENDBRANCH   1   5
BRANCH   1  17
HETATM   17  C   UNL     1      -7.175   0.502 -31.479  1.00  0.00     0.180 C 
BRANCH  17  18
HETATM   18  N   UNL     1      -8.195   1.548 -31.402  1.00  0.00    -0.232 N 
HETATM   19  N   UNL     1      -9.219   1.460 -32.318  1.00  0.00    -0.168 NA
HETATM   20  C   UNL     1     -10.128   2.393 -32.337  1.00  0.00     0.094 A 
HETATM   21  C   UNL     1     -10.099   3.550 -31.407  1.00  0.00     0.040 A 
HETATM   22  C   UNL     1      -9.091   3.627 -30.536  1.00  0.00     0.078 A 
HETATM   23  C   UNL     1      -8.040   2.595 -30.505  1.00  0.00     0.263 A 
HETATM   24  O   UNL     1      -7.099   2.714 -29.723  1.00  0.00    -0.267 OA
BRANCH  20  25
HETATM   25  C   UNL     1     -11.196   2.256 -33.328  1.00  0.00     0.035 A 
HETATM   26  S   UNL     1     -12.016   3.601 -34.009  1.00  0.00    -0.100 SA
HETATM   27  C   UNL     1     -13.014   2.611 -34.976  1.00  0.00     0.050 A 
HETATM   28  C   UNL     1     -12.742   1.275 -34.795  1.00  0.00     0.008 A 
HETATM   29  C   UNL     1     -11.699   1.072 -33.846  1.00  0.00     0.022 A 
ENDBRANCH  20  25
ENDBRANCH  17  18
ENDBRANCH   1  17
TORSDOF 7
ENDMDL
MODEL 10
REMARK VINA RESULT:      -6.9     15.520     17.527
REMARK  7 active torsions:
REMARK  status: ('A' for Active; 'I' for Inactive)
REMARK    1  A    between atoms: C_2  and  C_3 
REMARK    2  A    between atoms: C_3  and  N_4 
REMARK    3  A    between atoms: C_3  and  C_15 
REMARK       I    between atoms: N_4  and  C_5 
REMARK    4  A    between atoms: C_5  and  C_6 
REMARK    5  A    between atoms: C_9  and  O_10 
REMARK    6  A    between atoms: C_15  and  N_16 
REMARK    7  A    between atoms: C_18  and  C_19 
ROOT
HETATM    1  C   UNL     1      -6.359 -13.170 -38.636  1.00  0.00     0.107 C 
ENDROOT
BRANCH   1   2
HETATM    2  C   UNL     1      -7.812 -12.620 -38.668  1.00  0.00     0.002 C 
HETATM    3  C   UNL     1      -8.831 -13.550 -38.001  1.00  0.00     0.011 C 
HETATM    4  C   UNL     1      -8.275 -12.291 -40.091  1.00  0.00     0.011 C 
ENDBRANCH   1   2
BRANCH   1   5
HETATM    5  N   UNL     1      -5.795 -13.156 -37.282  1.00  0.00    -0.354 N 
HETATM    6  C   UNL     1      -5.258 -14.271 -36.677  1.00  0.00     0.222 C 
HETATM    7  O   UNL     1      -5.293 -15.388 -37.182  1.00  0.00    -0.273 OA
HETATM    8  H   UNL     1      -5.548 -12.247 -36.894  1.00  0.00     0.162 HD
BRANCH   6   9
HETATM    9  C   UNL     1      -4.588 -13.973 -35.333  1.00  0.00     0.078 C 
HETATM   10  C   UNL     1      -5.453 -13.066 -34.446  1.00  0.00     0.016 C 
HETATM   11  C   UNL     1      -6.619 -13.814 -33.795  1.00  0.00     0.033 C 
HETATM   12  C   UNL     1      -6.148 -15.042 -33.009  1.00  0.00     0.120 C 
HETATM   13  C   UNL     1      -5.351 -15.973 -33.925  1.00  0.00     0.033 C 
HETATM   14  C   UNL     1      -4.176 -15.256 -34.595  1.00  0.00     0.016 C 
BRANCH  12  15
HETATM   15  O   UNL     1      -5.353 -14.567 -31.915  1.00  0.00    -0.391 OA
HETATM   16  C   UNL     1      -5.237 -15.496 -30.846  1.00  0.00     0.202 C 
ENDBRANCH  12  15
ENDBRANCH   6   9
ENDBRANCH   1   5
BRANCH   1  17
HETATM   17  C   UNL     1      -5.449 -12.391 -39.620  1.00  0.00     0.180 C 
BRANCH  17  18
HETATM   18  N   UNL     1      -4.493 -13.260 -40.308  1.00  0.00    -0.232 N 
HETATM   19  N   UNL     1      -3.334 -13.546 -39.621  1.00  0.00    -0.168 NA
HETATM   20  C   UNL     1      -2.420 -14.268 -40.203  1.00  0.00     0.094 A 
HETATM   21  C   UNL     1      -2.579 -14.793 -41.582  1.00  0.00     0.040 A 
HETATM   22  C   UNL     1      -3.701 -14.493 -42.239  1.00  0.00     0.078 A 
HETATM   23  C   UNL     1      -4.745 -13.663 -41.611  1.00  0.00     0.263 A 
HETATM   24  O   UNL     1      -5.749 -13.366 -42.256  1.00  0.00    -0.267 OA
BRANCH  20  25
HETATM   25  C   UNL     1      -1.207 -14.545 -39.433  1.00  0.00     0.035 A 
HETATM   26  S   UNL     1      -1.238 -15.107 -37.812  1.00  0.00    -0.100 SA
HETATM   27  C   UNL     1       0.464 -15.153 -37.704  1.00  0.00     0.050 A 
HETATM   28  C   UNL     1       1.063 -14.747 -38.874  1.00  0.00     0.008 A 
HETATM   29  C   UNL     1       0.103 -14.397 -39.866  1.00  0.00     0.022 A 
ENDBRANCH  20  25
ENDBRANCH  17  18
ENDBRANCH   1  17
TORSDOF 7
ENDMDL
