MODEL 1
REMARK VINA RESULT:     -10.1      0.000      0.000
REMARK  5 active torsions:
REMARK  status: ('A' for Active; 'I' for Inactive)
REMARK    1  A    between atoms: C_7  and  N_8 
REMARK       I    between atoms: N_8  and  C_9 
REMARK       I    between atoms: C_9  and  N_10 
REMARK    2  A    between atoms: N_10  and  C_11 
REMARK    3  A    between atoms: C_18  and  C_19 
REMARK       I    between atoms: C_19  and  N_20 
REMARK    4  A    between atoms: N_20  and  C_21 
REMARK    5  A    between atoms: C_21  and  C_22 
ROOT
HETATM    1  C   UNL     1      -5.411   3.520 -31.022  1.00  0.00     0.104 C 
HETATM    2  C   UNL     1      -6.003   2.679 -29.858  1.00  0.00     0.150 C 
HETATM    3  N   UNL     1      -6.513   1.390 -30.314  1.00  0.00    -0.354 N 
HETATM    4  C   UNL     1      -5.634   0.244 -30.134  1.00  0.00     0.152 C 
HETATM    5  C   UNL     1      -7.718   1.227 -30.967  1.00  0.00     0.220 C 
HETATM    6  O   UNL     1      -8.093   0.139 -31.415  1.00  0.00    -0.273 OA
HETATM    7  C   UNL     1      -8.604   2.439 -31.184  1.00  0.00     0.117 C 
HETATM    8  C   UNL     1      -8.502   3.162 -32.537  1.00  0.00     0.086 C 
HETATM    9  C   UNL     1      -8.279   4.690 -32.359  1.00  0.00     0.014 C 
HETATM   10  C   UNL     1      -6.863   5.282 -32.239  1.00  0.00     0.003 C 
HETATM   11  C   UNL     1      -6.015   4.940 -31.009  1.00  0.00     0.027 C 
ENDROOT
BRANCH   1  12
HETATM   12  N   UNL     1      -3.944   3.517 -30.919  1.00  0.00    -0.337 N 
HETATM   13  C   UNL     1      -2.976   4.262 -31.520  1.00  0.00     0.321 C 
HETATM   14  N   UNL     1      -3.395   5.280 -32.317  1.00  0.00    -0.305 N 
HETATM   15  O   UNL     1      -1.818   3.961 -31.255  1.00  0.00    -0.247 OA
HETATM   16  H   UNL     1      -4.353   5.257 -32.624  1.00  0.00     0.171 HD
HETATM   17  H   UNL     1      -3.504   2.782 -30.376  1.00  0.00     0.164 HD
BRANCH  14  18
HETATM   18  C   UNL     1      -2.618   6.309 -32.837  1.00  0.00     0.094 A 
HETATM   19  C   UNL     1      -2.548   7.633 -32.304  1.00  0.00     0.087 A 
HETATM   20  C   UNL     1      -3.243   8.194 -31.124  1.00  0.00     0.075 C 
HETATM   21  N   UNL     1      -1.697   8.400 -32.993  1.00  0.00    -0.131 NA
HETATM   22  O   UNL     1      -1.195   7.593 -33.988  1.00  0.00    -0.216 OA
HETATM   23  C   UNL     1      -1.733   6.344 -33.896  1.00  0.00     0.103 A 
HETATM   24  C   UNL     1      -1.240   5.401 -34.918  1.00  0.00     0.081 C 
ENDBRANCH  14  18
ENDBRANCH   1  12
BRANCH   8  25
HETATM   25  C   UNL     1      -7.657   2.557 -33.670  1.00  0.00     0.222 C 
HETATM   26  N   UNL     1      -8.014   1.302 -34.094  1.00  0.00    -0.356 N 
HETATM   27  H   UNL     1      -8.632   0.725 -33.528  1.00  0.00     0.162 HD
HETATM   28  O   UNL     1      -6.773   3.202 -34.234  1.00  0.00    -0.273 OA
BRANCH  26  29
HETATM   29  C   UNL     1      -7.331   0.634 -35.179  1.00  0.00     0.161 C 
BRANCH  29  30
HETATM   30  C   UNL     1      -6.449  -0.492 -34.702  1.00  0.00    -0.035 A 
HETATM   31  C   UNL     1      -5.346  -0.248 -33.874  1.00  0.00     0.051 A 
HETATM   32  C   UNL     1      -4.538  -1.307 -33.459  1.00  0.00     0.119 A 
HETATM   33  F   UNL     1      -3.482  -1.057 -32.674  1.00  0.00    -0.206 F 
HETATM   34  C   UNL     1      -4.801  -2.612 -33.852  1.00  0.00     0.084 A 
HETATM   35  C   UNL     1      -5.889  -2.852 -34.676  1.00  0.00     0.119 A 
HETATM   36  F   UNL     1      -6.160  -4.103 -35.067  1.00  0.00    -0.206 F 
HETATM   37  C   UNL     1      -6.710  -1.811 -35.104  1.00  0.00     0.051 A 
ENDBRANCH  29  30
ENDBRANCH  26  29
ENDBRANCH   8  25
TORSDOF 5
ENDMDL
MODEL 2
REMARK VINA RESULT:      -9.8      3.023      6.451
REMARK  5 active torsions:
REMARK  status: ('A' for Active; 'I' for Inactive)
REMARK    1  A    between atoms: C_7  and  N_8 
REMARK       I    between atoms: N_8  and  C_9 
REMARK       I    between atoms: C_9  and  N_10 
REMARK    2  A    between atoms: N_10  and  C_11 
REMARK    3  A    between atoms: C_18  and  C_19 
REMARK       I    between atoms: C_19  and  N_20 
REMARK    4  A    between atoms: N_20  and  C_21 
REMARK    5  A    between atoms: C_21  and  C_22 
ROOT
HETATM    1  C   UNL     1      -8.258   3.602 -31.078  1.00  0.00     0.104 C 
HETATM    2  C   UNL     1      -7.694   4.997 -31.463  1.00  0.00     0.150 C 
HETATM    3  N   UNL     1      -7.291   5.059 -32.865  1.00  0.00    -0.354 N 
HETATM    4  C   UNL     1      -8.246   5.657 -33.788  1.00  0.00     0.152 C 
HETATM    5  C   UNL     1      -6.121   4.515 -33.354  1.00  0.00     0.220 C 
HETATM    6  O   UNL     1      -5.838   4.509 -34.556  1.00  0.00    -0.273 OA
HETATM    7  C   UNL     1      -5.157   3.859 -32.385  1.00  0.00     0.117 C 
HETATM    8  C   UNL     1      -5.246   2.333 -32.216  1.00  0.00     0.086 C 
HETATM    9  C   UNL     1      -5.354   1.923 -30.721  1.00  0.00     0.014 C 
HETATM   10  C   UNL     1      -6.719   1.811 -30.018  1.00  0.00     0.003 C 
HETATM   11  C   UNL     1      -7.554   3.079 -29.807  1.00  0.00     0.027 C 
ENDROOT
BRANCH   1  12
HETATM   12  N   UNL     1      -9.717   3.698 -30.928  1.00  0.00    -0.337 N 
HETATM   13  C   UNL     1     -10.748   3.513 -31.797  1.00  0.00     0.321 C 
HETATM   14  N   UNL     1     -10.427   3.067 -33.039  1.00  0.00    -0.305 N 
HETATM   15  O   UNL     1     -11.872   3.734 -31.361  1.00  0.00    -0.247 OA
HETATM   16  H   UNL     1      -9.466   3.157 -33.325  1.00  0.00     0.171 HD
HETATM   17  H   UNL     1     -10.086   4.052 -30.051  1.00  0.00     0.164 HD
BRANCH  14  18
HETATM   18  C   UNL     1     -11.301   2.582 -34.007  1.00  0.00     0.094 A 
HETATM   19  C   UNL     1     -11.747   3.313 -35.149  1.00  0.00     0.087 A 
HETATM   20  C   UNL     1     -11.397   4.692 -35.561  1.00  0.00     0.075 C 
HETATM   21  N   UNL     1     -12.560   2.583 -35.919  1.00  0.00    -0.131 NA
HETATM   22  O   UNL     1     -12.659   1.360 -35.296  1.00  0.00    -0.216 OA
HETATM   23  C   UNL     1     -11.904   1.350 -34.160  1.00  0.00     0.103 A 
HETATM   24  C   UNL     1     -11.938   0.068 -33.430  1.00  0.00     0.081 C 
ENDBRANCH  14  18
ENDBRANCH   1  12
BRANCH   8  25
HETATM   25  C   UNL     1      -6.165   1.511 -33.134  1.00  0.00     0.222 C 
HETATM   26  N   UNL     1      -5.599   0.420 -33.744  1.00  0.00    -0.356 N 
HETATM   27  H   UNL     1      -4.587   0.317 -33.778  1.00  0.00     0.162 HD
HETATM   28  O   UNL     1      -7.366   1.757 -33.237  1.00  0.00    -0.273 OA
BRANCH  26  29
HETATM   29  C   UNL     1      -6.361  -0.464 -34.600  1.00  0.00     0.161 C 
BRANCH  29  30
HETATM   30  C   UNL     1      -5.886  -1.892 -34.526  1.00  0.00    -0.035 A 
HETATM   31  C   UNL     1      -4.698  -2.228 -33.863  1.00  0.00     0.051 A 
HETATM   32  C   UNL     1      -4.274  -3.557 -33.823  1.00  0.00     0.119 A 
HETATM   33  F   UNL     1      -3.133  -3.861 -33.192  1.00  0.00    -0.206 F 
HETATM   34  C   UNL     1      -5.006  -4.567 -34.433  1.00  0.00     0.084 A 
HETATM   35  C   UNL     1      -6.178  -4.233 -35.094  1.00  0.00     0.119 A 
HETATM   36  F   UNL     1      -6.898  -5.190 -35.689  1.00  0.00    -0.206 F 
HETATM   37  C   UNL     1      -6.621  -2.913 -35.148  1.00  0.00     0.051 A 
ENDBRANCH  29  30
ENDBRANCH  26  29
ENDBRANCH   8  25
TORSDOF 5
ENDMDL
MODEL 3
REMARK VINA RESULT:      -9.4      2.797      6.419
REMARK  5 active torsions:
REMARK  status: ('A' for Active; 'I' for Inactive)
REMARK    1  A    between atoms: C_7  and  N_8 
REMARK       I    between atoms: N_8  and  C_9 
REMARK       I    between atoms: C_9  and  N_10 
REMARK    2  A    between atoms: N_10  and  C_11 
REMARK    3  A    between atoms: C_18  and  C_19 
REMARK       I    between atoms: C_19  and  N_20 
REMARK    4  A    between atoms: N_20  and  C_21 
REMARK    5  A    between atoms: C_21  and  C_22 
ROOT
HETATM    1  C   UNL     1      -7.802   5.712 -32.584  1.00  0.00     0.104 C 
HETATM    2  C   UNL     1      -6.302   6.089 -32.720  1.00  0.00     0.150 C 
HETATM    3  N   UNL     1      -5.448   4.912 -32.844  1.00  0.00    -0.354 N 
HETATM    4  C   UNL     1      -5.043   4.542 -34.193  1.00  0.00     0.152 C 
HETATM    5  C   UNL     1      -5.089   4.107 -31.781  1.00  0.00     0.220 C 
HETATM    6  O   UNL     1      -4.431   3.071 -31.920  1.00  0.00    -0.273 OA
HETATM    7  C   UNL     1      -5.554   4.482 -30.388  1.00  0.00     0.117 C 
HETATM    8  C   UNL     1      -6.833   3.811 -29.859  1.00  0.00     0.086 C 
HETATM    9  C   UNL     1      -7.852   4.853 -29.322  1.00  0.00     0.014 C 
HETATM   10  C   UNL     1      -8.897   5.502 -30.248  1.00  0.00     0.003 C 
HETATM   11  C   UNL     1      -8.421   6.434 -31.369  1.00  0.00     0.027 C 
ENDROOT
BRANCH   1  12
HETATM   12  N   UNL     1      -8.491   6.017 -33.847  1.00  0.00    -0.337 N 
HETATM   13  C   UNL     1      -9.402   5.331 -34.590  1.00  0.00     0.321 C 
HETATM   14  N   UNL     1      -9.866   4.167 -34.065  1.00  0.00    -0.305 N 
HETATM   15  O   UNL     1      -9.741   5.850 -35.647  1.00  0.00    -0.247 OA
HETATM   16  H   UNL     1      -9.331   3.755 -33.318  1.00  0.00     0.171 HD
HETATM   17  H   UNL     1      -8.209   6.847 -34.357  1.00  0.00     0.164 HD
BRANCH  14  18
HETATM   18  C   UNL     1     -10.955   3.423 -34.509  1.00  0.00     0.094 A 
HETATM   19  C   UNL     1     -10.997   1.998 -34.587  1.00  0.00     0.087 A 
HETATM   20  C   UNL     1      -9.948   1.019 -34.222  1.00  0.00     0.075 C 
HETATM   21  N   UNL     1     -12.182   1.560 -35.023  1.00  0.00    -0.131 NA
HETATM   22  O   UNL     1     -12.937   2.690 -35.238  1.00  0.00    -0.216 OA
HETATM   23  C   UNL     1     -12.214   3.804 -34.926  1.00  0.00     0.103 A 
HETATM   24  C   UNL     1     -12.951   5.069 -35.112  1.00  0.00     0.081 C 
ENDBRANCH  14  18
ENDBRANCH   1  12
BRANCH   8  25
HETATM   25  C   UNL     1      -7.495   2.680 -30.662  1.00  0.00     0.222 C 
HETATM   26  N   UNL     1      -6.867   1.460 -30.629  1.00  0.00    -0.356 N 
HETATM   27  H   UNL     1      -5.907   1.385 -30.302  1.00  0.00     0.162 HD
HETATM   28  O   UNL     1      -8.580   2.831 -31.221  1.00  0.00    -0.273 OA
BRANCH  26  29
HETATM   29  C   UNL     1      -7.404   0.300 -31.306  1.00  0.00     0.161 C 
BRANCH  29  30
HETATM   30  C   UNL     1      -6.368  -0.420 -32.130  1.00  0.00    -0.035 A 
HETATM   31  C   UNL     1      -6.678  -0.936 -33.396  1.00  0.00     0.051 A 
HETATM   32  C   UNL     1      -5.703  -1.612 -34.131  1.00  0.00     0.119 A 
HETATM   33  F   UNL     1      -6.017  -2.105 -35.336  1.00  0.00    -0.206 F 
HETATM   34  C   UNL     1      -4.420  -1.791 -33.634  1.00  0.00     0.084 A 
HETATM   35  C   UNL     1      -4.115  -1.286 -32.380  1.00  0.00     0.119 A 
HETATM   36  F   UNL     1      -2.884  -1.448 -31.881  1.00  0.00    -0.206 F 
HETATM   37  C   UNL     1      -5.072  -0.609 -31.626  1.00  0.00     0.051 A 
ENDBRANCH  29  30
ENDBRANCH  26  29
ENDBRANCH   8  25
TORSDOF 5
ENDMDL
MODEL 4
REMARK VINA RESULT:      -9.4      3.027      6.646
REMARK  5 active torsions:
REMARK  status: ('A' for Active; 'I' for Inactive)
REMARK    1  A    between atoms: C_7  and  N_8 
REMARK       I    between atoms: N_8  and  C_9 
REMARK       I    between atoms: C_9  and  N_10 
REMARK    2  A    between atoms: N_10  and  C_11 
REMARK    3  A    between atoms: C_18  and  C_19 
REMARK       I    between atoms: C_19  and  N_20 
REMARK    4  A    between atoms: N_20  and  C_21 
REMARK    5  A    between atoms: C_21  and  C_22 
ROOT
HETATM    1  C   UNL     1      -8.249   3.846 -30.969  1.00  0.00     0.104 C 
HETATM    2  C   UNL     1      -7.656   5.141 -31.587  1.00  0.00     0.150 C 
HETATM    3  N   UNL     1      -7.296   4.965 -32.991  1.00  0.00    -0.354 N 
HETATM    4  C   UNL     1      -8.260   5.441 -33.973  1.00  0.00     0.152 C 
HETATM    5  C   UNL     1      -6.158   4.309 -33.417  1.00  0.00     0.220 C 
HETATM    6  O   UNL     1      -5.913   4.102 -34.609  1.00  0.00    -0.273 OA
HETATM    7  C   UNL     1      -5.185   3.782 -32.380  1.00  0.00     0.117 C 
HETATM    8  C   UNL     1      -5.315   2.307 -31.967  1.00  0.00     0.086 C 
HETATM    9  C   UNL     1      -5.388   2.144 -30.423  1.00  0.00     0.014 C 
HETATM   10  C   UNL     1      -6.733   2.193 -29.677  1.00  0.00     0.003 C 
HETATM   11  C   UNL     1      -7.522   3.508 -29.649  1.00  0.00     0.027 C 
ENDROOT
BRANCH   1  12
HETATM   12  N   UNL     1      -9.700   4.016 -30.798  1.00  0.00    -0.337 N 
HETATM   13  C   UNL     1     -10.759   3.790 -31.623  1.00  0.00     0.321 C 
HETATM   14  N   UNL     1     -10.486   3.213 -32.822  1.00  0.00    -0.305 N 
HETATM   15  O   UNL     1     -11.861   4.098 -31.186  1.00  0.00    -0.247 OA
HETATM   16  H   UNL     1      -9.530   3.236 -33.135  1.00  0.00     0.171 HD
HETATM   17  H   UNL     1     -10.032   4.468 -29.953  1.00  0.00     0.164 HD
BRANCH  14  18
HETATM   18  C   UNL     1     -11.402   2.673 -33.719  1.00  0.00     0.094 A 
HETATM   19  C   UNL     1     -11.638   1.277 -33.908  1.00  0.00     0.087 A 
HETATM   20  C   UNL     1     -11.003   0.129 -33.223  1.00  0.00     0.075 C 
HETATM   21  N   UNL     1     -12.595   1.055 -34.815  1.00  0.00    -0.131 NA
HETATM   22  O   UNL     1     -13.003   2.300 -35.234  1.00  0.00    -0.216 OA
HETATM   23  C   UNL     1     -12.302   3.269 -34.579  1.00  0.00     0.103 A 
HETATM   24  C   UNL     1     -12.684   4.644 -34.956  1.00  0.00     0.081 C 
ENDBRANCH  14  18
ENDBRANCH   1  12
BRANCH   8  25
HETATM   25  C   UNL     1      -6.287   1.382 -32.717  1.00  0.00     0.222 C 
HETATM   26  N   UNL     1      -5.788   0.738 -33.821  1.00  0.00    -0.356 N 
HETATM   27  H   UNL     1      -4.918   1.050 -34.247  1.00  0.00     0.162 HD
HETATM   28  O   UNL     1      -7.419   1.152 -32.294  1.00  0.00    -0.273 OA
BRANCH  26  29
HETATM   29  C   UNL     1      -6.581  -0.192 -34.594  1.00  0.00     0.161 C 
BRANCH  29  30
HETATM   30  C   UNL     1      -6.040  -1.597 -34.541  1.00  0.00    -0.035 A 
HETATM   31  C   UNL     1      -6.716  -2.659 -35.156  1.00  0.00     0.051 A 
HETATM   32  C   UNL     1      -6.200  -3.953 -35.078  1.00  0.00     0.119 A 
HETATM   33  F   UNL     1      -6.863  -4.958 -35.665  1.00  0.00    -0.206 F 
HETATM   34  C   UNL     1      -5.021  -4.220 -34.396  1.00  0.00     0.084 A 
HETATM   35  C   UNL     1      -4.355  -3.170 -33.783  1.00  0.00     0.119 A 
HETATM   36  F   UNL     1      -3.217  -3.405 -33.119  1.00  0.00    -0.206 F 
HETATM   37  C   UNL     1      -4.852  -1.870 -33.846  1.00  0.00     0.051 A 
ENDBRANCH  29  30
ENDBRANCH  26  29
ENDBRANCH   8  25
TORSDOF 5
ENDMDL
MODEL 5
REMARK VINA RESULT:      -9.2      1.805      2.542
REMARK  5 active torsions:
REMARK  status: ('A' for Active; 'I' for Inactive)
REMARK    1  A    between atoms: C_7  and  N_8 
REMARK       I    between atoms: N_8  and  C_9 
REMARK       I    between atoms: C_9  and  N_10 
REMARK    2  A    between atoms: N_10  and  C_11 
REMARK    3  A    between atoms: C_18  and  C_19 
REMARK       I    between atoms: C_19  and  N_20 
REMARK    4  A    between atoms: N_20  and  C_21 
REMARK    5  A    between atoms: C_21  and  C_22 
ROOT
HETATM    1  C   UNL     1      -4.634   3.408 -32.291  1.00  0.00     0.104 C 
HETATM    2  C   UNL     1      -4.494   2.794 -30.872  1.00  0.00     0.150 C 
HETATM    3  N   UNL     1      -4.713   1.351 -30.873  1.00  0.00    -0.354 N 
HETATM    4  C   UNL     1      -3.522   0.514 -30.894  1.00  0.00     0.152 C 
HETATM    5  C   UNL     1      -5.960   0.763 -30.942  1.00  0.00     0.220 C 
HETATM    6  O   UNL     1      -6.118  -0.459 -31.022  1.00  0.00    -0.273 OA
HETATM    7  C   UNL     1      -7.189   1.650 -30.962  1.00  0.00     0.117 C 
HETATM    8  C   UNL     1      -7.794   1.998 -32.332  1.00  0.00     0.086 C 
HETATM    9  C   UNL     1      -7.998   3.529 -32.502  1.00  0.00     0.014 C 
HETATM   10  C   UNL     1      -6.883   4.428 -33.065  1.00  0.00     0.003 C 
HETATM   11  C   UNL     1      -5.596   4.615 -32.254  1.00  0.00     0.027 C 
ENDROOT
BRANCH   1  12
HETATM   12  N   UNL     1      -3.298   3.754 -32.800  1.00  0.00    -0.337 N 
HETATM   13  C   UNL     1      -2.383   4.690 -32.426  1.00  0.00     0.321 C 
HETATM   14  N   UNL     1      -2.672   5.419 -31.316  1.00  0.00    -0.305 N 
HETATM   15  O   UNL     1      -1.368   4.759 -33.110  1.00  0.00    -0.247 OA
HETATM   16  H   UNL     1      -3.629   5.418 -31.004  1.00  0.00     0.171 HD
HETATM   17  H   UNL     1      -2.977   3.301 -33.648  1.00  0.00     0.164 HD
BRANCH  14  18
HETATM   18  C   UNL     1      -1.807   6.248 -30.611  1.00  0.00     0.094 A 
HETATM   19  C   UNL     1      -2.086   7.600 -30.242  1.00  0.00     0.087 A 
HETATM   20  C   UNL     1      -3.305   8.398 -30.502  1.00  0.00     0.075 C 
HETATM   21  N   UNL     1      -1.082   8.140 -29.544  1.00  0.00    -0.131 NA
HETATM   22  O   UNL     1      -0.129   7.153 -29.443  1.00  0.00    -0.216 OA
HETATM   23  C   UNL     1      -0.558   6.020 -30.069  1.00  0.00     0.103 A 
HETATM   24  C   UNL     1       0.397   4.897 -29.999  1.00  0.00     0.081 C 
ENDBRANCH  14  18
ENDBRANCH   1  12
BRANCH   8  25
HETATM   25  C   UNL     1      -7.259   1.318 -33.603  1.00  0.00     0.222 C 
HETATM   26  N   UNL     1      -7.572  -0.009 -33.763  1.00  0.00    -0.356 N 
HETATM   27  H   UNL     1      -7.918  -0.553 -32.976  1.00  0.00     0.162 HD
HETATM   28  O   UNL     1      -6.668   1.951 -34.477  1.00  0.00    -0.273 OA
BRANCH  26  29
HETATM   29  C   UNL     1      -7.168  -0.759 -34.932  1.00  0.00     0.161 C 
BRANCH  29  30
HETATM   30  C   UNL     1      -6.164  -1.835 -34.610  1.00  0.00    -0.035 A 
HETATM   31  C   UNL     1      -6.315  -3.139 -35.099  1.00  0.00     0.051 A 
HETATM   32  C   UNL     1      -5.377  -4.120 -34.773  1.00  0.00     0.119 A 
HETATM   33  F   UNL     1      -5.540  -5.363 -35.243  1.00  0.00    -0.206 F 
HETATM   34  C   UNL     1      -4.286  -3.835 -33.964  1.00  0.00     0.084 A 
HETATM   35  C   UNL     1      -4.140  -2.546 -33.475  1.00  0.00     0.119 A 
HETATM   36  F   UNL     1      -3.096  -2.249 -32.692  1.00  0.00    -0.206 F 
HETATM   37  C   UNL     1      -5.064  -1.550 -33.786  1.00  0.00     0.051 A 
ENDBRANCH  29  30
ENDBRANCH  26  29
ENDBRANCH   8  25
TORSDOF 5
ENDMDL
MODEL 6
REMARK VINA RESULT:      -9.2      2.665      6.279
REMARK  5 active torsions:
REMARK  status: ('A' for Active; 'I' for Inactive)
REMARK    1  A    between atoms: C_7  and  N_8 
REMARK       I    between atoms: N_8  and  C_9 
REMARK       I    between atoms: C_9  and  N_10 
REMARK    2  A    between atoms: N_10  and  C_11 
REMARK    3  A    between atoms: C_18  and  C_19 
REMARK       I    between atoms: C_19  and  N_20 
REMARK    4  A    between atoms: N_20  and  C_21 
REMARK    5  A    between atoms: C_21  and  C_22 
ROOT
HETATM    1  C   UNL     1      -7.124   4.578 -32.502  1.00  0.00     0.104 C 
HETATM    2  C   UNL     1      -5.805   5.385 -32.356  1.00  0.00     0.150 C 
HETATM    3  N   UNL     1      -4.659   4.669 -32.908  1.00  0.00    -0.354 N 
HETATM    4  C   UNL     1      -4.246   5.045 -34.253  1.00  0.00     0.152 C 
HETATM    5  C   UNL     1      -4.023   3.625 -32.268  1.00  0.00     0.220 C 
HETATM    6  O   UNL     1      -3.106   2.982 -32.788  1.00  0.00    -0.273 OA
HETATM    7  C   UNL     1      -4.493   3.218 -30.885  1.00  0.00     0.117 C 
HETATM    8  C   UNL     1      -5.493   2.054 -30.787  1.00  0.00     0.086 C 
HETATM    9  C   UNL     1      -6.734   2.430 -29.931  1.00  0.00     0.014 C 
HETATM   10  C   UNL     1      -7.973   3.087 -30.564  1.00  0.00     0.003 C 
HETATM   11  C   UNL     1      -7.851   4.502 -31.142  1.00  0.00     0.027 C 
ENDROOT
BRANCH   1  12
HETATM   12  N   UNL     1      -7.945   5.187 -33.560  1.00  0.00    -0.337 N 
HETATM   13  C   UNL     1      -9.033   4.748 -34.249  1.00  0.00     0.321 C 
HETATM   14  N   UNL     1      -9.560   3.556 -33.866  1.00  0.00    -0.305 N 
HETATM   15  O   UNL     1      -9.454   5.492 -35.128  1.00  0.00    -0.247 OA
HETATM   16  H   UNL     1      -8.979   2.958 -33.302  1.00  0.00     0.171 HD
HETATM   17  H   UNL     1      -7.637   6.068 -33.956  1.00  0.00     0.164 HD
BRANCH  14  18
HETATM   18  C   UNL     1     -10.787   3.022 -34.246  1.00  0.00     0.094 A 
HETATM   19  C   UNL     1     -11.188   1.666 -34.046  1.00  0.00     0.087 A 
HETATM   20  C   UNL     1     -10.434   0.561 -33.408  1.00  0.00     0.075 C 
HETATM   21  N   UNL     1     -12.430   1.446 -34.486  1.00  0.00    -0.131 NA
HETATM   22  O   UNL     1     -12.866   2.653 -34.982  1.00  0.00    -0.216 OA
HETATM   23  C   UNL     1     -11.894   3.599 -34.835  1.00  0.00     0.103 A 
HETATM   24  C   UNL     1     -12.278   4.935 -35.327  1.00  0.00     0.081 C 
ENDBRANCH  14  18
ENDBRANCH   1  12
BRANCH   8  25
HETATM   25  C   UNL     1      -5.850   1.240 -32.041  1.00  0.00     0.222 C 
HETATM   26  N   UNL     1      -4.877   0.399 -32.521  1.00  0.00    -0.356 N 
HETATM   27  H   UNL     1      -3.913   0.501 -32.212  1.00  0.00     0.162 HD
HETATM   28  O   UNL     1      -6.979   1.265 -32.530  1.00  0.00    -0.273 OA
BRANCH  26  29
HETATM   29  C   UNL     1      -5.095  -0.454 -33.668  1.00  0.00     0.161 C 
BRANCH  29  30
HETATM   30  C   UNL     1      -4.571  -1.851 -33.458  1.00  0.00    -0.035 A 
HETATM   31  C   UNL     1      -3.660  -2.138 -32.432  1.00  0.00     0.051 A 
HETATM   32  C   UNL     1      -3.180  -3.438 -32.270  1.00  0.00     0.119 A 
HETATM   33  F   UNL     1      -2.304  -3.695 -31.290  1.00  0.00    -0.206 F 
HETATM   34  C   UNL     1      -3.584  -4.467 -33.109  1.00  0.00     0.084 A 
HETATM   35  C   UNL     1      -4.481  -4.182 -34.127  1.00  0.00     0.119 A 
HETATM   36  F   UNL     1      -4.883  -5.158 -34.949  1.00  0.00    -0.206 F 
HETATM   37  C   UNL     1      -4.973  -2.891 -34.310  1.00  0.00     0.051 A 
ENDBRANCH  29  30
ENDBRANCH  26  29
ENDBRANCH   8  25
TORSDOF 5
ENDMDL
MODEL 7
REMARK VINA RESULT:      -8.9      2.527      6.214
REMARK  5 active torsions:
REMARK  status: ('A' for Active; 'I' for Inactive)
REMARK    1  A    between atoms: C_7  and  N_8 
REMARK       I    between atoms: N_8  and  C_9 
REMARK       I    between atoms: C_9  and  N_10 
REMARK    2  A    between atoms: N_10  and  C_11 
REMARK    3  A    between atoms: C_18  and  C_19 
REMARK       I    between atoms: C_19  and  N_20 
REMARK    4  A    between atoms: N_20  and  C_21 
REMARK    5  A    between atoms: C_21  and  C_22 
ROOT
HETATM    1  C   UNL     1      -7.181   5.868 -32.411  1.00  0.00     0.104 C 
HETATM    2  C   UNL     1      -5.749   6.278 -32.850  1.00  0.00     0.150 C 
HETATM    3  N   UNL     1      -4.835   5.140 -32.877  1.00  0.00    -0.354 N 
HETATM    4  C   UNL     1      -4.602   4.525 -34.176  1.00  0.00     0.152 C 
HETATM    5  C   UNL     1      -4.267   4.584 -31.749  1.00  0.00     0.220 C 
HETATM    6  O   UNL     1      -3.559   3.573 -31.787  1.00  0.00    -0.273 OA
HETATM    7  C   UNL     1      -4.554   5.212 -30.399  1.00  0.00     0.117 C 
HETATM    8  C   UNL     1      -5.687   4.603 -29.557  1.00  0.00     0.086 C 
HETATM    9  C   UNL     1      -6.695   5.685 -29.078  1.00  0.00     0.014 C 
HETATM   10  C   UNL     1      -7.909   6.084 -29.937  1.00  0.00     0.003 C 
HETATM   11  C   UNL     1      -7.672   6.792 -31.277  1.00  0.00     0.027 C 
ENDROOT
BRANCH   1  12
HETATM   12  N   UNL     1      -8.067   5.879 -33.586  1.00  0.00    -0.337 N 
HETATM   13  C   UNL     1      -9.042   5.032 -34.014  1.00  0.00     0.321 C 
HETATM   14  N   UNL     1      -9.362   4.002 -33.188  1.00  0.00    -0.305 N 
HETATM   15  O   UNL     1      -9.562   5.304 -35.090  1.00  0.00    -0.247 OA
HETATM   16  H   UNL     1      -8.702   3.772 -32.465  1.00  0.00     0.171 HD
HETATM   17  H   UNL     1      -7.907   6.584 -34.298  1.00  0.00     0.164 HD
BRANCH  14  18
HETATM   18  C   UNL     1     -10.466   3.161 -33.288  1.00  0.00     0.094 A 
HETATM   19  C   UNL     1     -11.815   3.544 -33.016  1.00  0.00     0.087 A 
HETATM   20  C   UNL     1     -12.336   4.864 -32.594  1.00  0.00     0.075 C 
HETATM   21  N   UNL     1     -12.668   2.536 -33.224  1.00  0.00    -0.131 NA
HETATM   22  O   UNL     1     -11.893   1.476 -33.636  1.00  0.00    -0.216 OA
HETATM   23  C   UNL     1     -10.581   1.844 -33.685  1.00  0.00     0.103 A 
HETATM   24  C   UNL     1      -9.673   0.771 -34.132  1.00  0.00     0.081 C 
ENDBRANCH  14  18
ENDBRANCH   1  12
BRANCH   8  25
HETATM   25  C   UNL     1      -6.370   3.304 -30.013  1.00  0.00     0.222 C 
HETATM   26  N   UNL     1      -5.766   2.131 -29.636  1.00  0.00    -0.356 N 
HETATM   27  H   UNL     1      -4.806   2.135 -29.296  1.00  0.00     0.162 HD
HETATM   28  O   UNL     1      -7.453   3.312 -30.598  1.00  0.00    -0.273 OA
BRANCH  26  29
HETATM   29  C   UNL     1      -6.324   0.838 -29.962  1.00  0.00     0.161 C 
BRANCH  29  30
HETATM   30  C   UNL     1      -5.746   0.261 -31.229  1.00  0.00    -0.035 A 
HETATM   31  C   UNL     1      -4.361   0.199 -31.432  1.00  0.00     0.051 A 
HETATM   32  C   UNL     1      -3.854  -0.327 -32.621  1.00  0.00     0.119 A 
HETATM   33  F   UNL     1      -2.528  -0.372 -32.803  1.00  0.00    -0.206 F 
HETATM   34  C   UNL     1      -4.696  -0.794 -33.621  1.00  0.00     0.084 A 
HETATM   35  C   UNL     1      -6.066  -0.727 -33.422  1.00  0.00     0.119 A 
HETATM   36  F   UNL     1      -6.896  -1.170 -34.373  1.00  0.00    -0.206 F 
HETATM   37  C   UNL     1      -6.596  -0.205 -32.244  1.00  0.00     0.051 A 
ENDBRANCH  29  30
ENDBRANCH  26  29
ENDBRANCH   8  25
TORSDOF 5
ENDMDL
MODEL 8
REMARK VINA RESULT:      -8.9     16.517     18.720
REMARK  5 active torsions:
REMARK  status: ('A' for Active; 'I' for Inactive)
REMARK    1  A    between atoms: C_7  and  N_8 
REMARK       I    between atoms: N_8  and  C_9 
REMARK       I    between atoms: C_9  and  N_10 
REMARK    2  A    between atoms: N_10  and  C_11 
REMARK    3  A    between atoms: C_18  and  C_19 
REMARK       I    between atoms: C_19  and  N_20 
REMARK    4  A    between atoms: N_20  and  C_21 
REMARK    5  A    between atoms: C_21  and  C_22 
ROOT
HETATM    1  C   UNL     1      -4.426 -13.866 -35.937  1.00  0.00     0.104 C 
HETATM    2  C   UNL     1      -3.310 -14.744 -35.309  1.00  0.00     0.150 C 
HETATM    3  N   UNL     1      -3.193 -16.041 -35.968  1.00  0.00    -0.354 N 
HETATM    4  C   UNL     1      -2.145 -16.167 -36.971  1.00  0.00     0.152 C 
HETATM    5  C   UNL     1      -4.060 -17.093 -35.755  1.00  0.00     0.220 C 
HETATM    6  O   UNL     1      -3.991 -18.154 -36.382  1.00  0.00    -0.273 OA
HETATM    7  C   UNL     1      -5.173 -16.930 -34.737  1.00  0.00     0.117 C 
HETATM    8  C   UNL     1      -6.557 -16.507 -35.257  1.00  0.00     0.086 C 
HETATM    9  C   UNL     1      -7.117 -15.284 -34.478  1.00  0.00     0.014 C 
HETATM   10  C   UNL     1      -6.806 -13.843 -34.921  1.00  0.00     0.003 C 
HETATM   11  C   UNL     1      -5.363 -13.331 -34.833  1.00  0.00     0.027 C 
ENDROOT
BRANCH   1  12
HETATM   12  N   UNL     1      -3.806 -12.795 -36.732  1.00  0.00    -0.337 N 
HETATM   13  C   UNL     1      -3.462 -12.703 -38.045  1.00  0.00     0.321 C 
HETATM   14  N   UNL     1      -3.818 -13.742 -38.844  1.00  0.00    -0.305 N 
HETATM   15  O   UNL     1      -2.895 -11.671 -38.386  1.00  0.00    -0.247 OA
HETATM   16  H   UNL     1      -4.060 -14.607 -38.391  1.00  0.00     0.171 HD
HETATM   17  H   UNL     1      -3.465 -11.973 -36.244  1.00  0.00     0.164 HD
BRANCH  14  18
HETATM   18  C   UNL     1      -3.794 -13.775 -40.235  1.00  0.00     0.094 A 
HETATM   19  C   UNL     1      -2.724 -14.295 -41.025  1.00  0.00     0.087 A 
HETATM   20  C   UNL     1      -1.450 -14.901 -40.574  1.00  0.00     0.075 C 
HETATM   21  N   UNL     1      -2.991 -14.221 -42.332  1.00  0.00    -0.131 NA
HETATM   22  O   UNL     1      -4.241 -13.654 -42.422  1.00  0.00    -0.216 OA
HETATM   23  C   UNL     1      -4.729 -13.393 -41.176  1.00  0.00     0.103 A 
HETATM   24  C   UNL     1      -6.078 -12.794 -41.173  1.00  0.00     0.081 C 
ENDBRANCH  14  18
ENDBRANCH   1  12
BRANCH   8  25
HETATM   25  C   UNL     1      -6.818 -16.428 -36.770  1.00  0.00     0.222 C 
HETATM   26  N   UNL     1      -8.114 -16.624 -37.177  1.00  0.00    -0.356 N 
HETATM   27  H   UNL     1      -8.794 -17.036 -36.542  1.00  0.00     0.162 HD
HETATM   28  O   UNL     1      -5.934 -16.108 -37.564  1.00  0.00    -0.273 OA
BRANCH  26  29
HETATM   29  C   UNL     1      -8.506 -16.536 -38.566  1.00  0.00     0.161 C 
BRANCH  29  30
HETATM   30  C   UNL     1      -8.987 -15.159 -38.945  1.00  0.00    -0.035 A 
HETATM   31  C   UNL     1     -10.083 -14.983 -39.800  1.00  0.00     0.051 A 
HETATM   32  C   UNL     1     -10.498 -13.697 -40.147  1.00  0.00     0.119 A 
HETATM   33  F   UNL     1     -11.543 -13.546 -40.971  1.00  0.00    -0.206 F 
HETATM   34  C   UNL     1      -9.843 -12.573 -39.663  1.00  0.00     0.084 A 
HETATM   35  C   UNL     1      -8.755 -12.747 -38.822  1.00  0.00     0.119 A 
HETATM   36  F   UNL     1      -8.108 -11.677 -38.346  1.00  0.00    -0.206 F 
HETATM   37  C   UNL     1      -8.321 -14.021 -38.463  1.00  0.00     0.051 A 
ENDBRANCH  29  30
ENDBRANCH  26  29
ENDBRANCH   8  25
TORSDOF 5
ENDMDL
MODEL 9
REMARK VINA RESULT:      -8.8      2.867      6.438
REMARK  5 active torsions:
REMARK  status: ('A' for Active; 'I' for Inactive)
REMARK    1  A    between atoms: C_7  and  N_8 
REMARK       I    between atoms: N_8  and  C_9 
REMARK       I    between atoms: C_9  and  N_10 
REMARK    2  A    between atoms: N_10  and  C_11 
REMARK    3  A    between atoms: C_18  and  C_19 
REMARK       I    between atoms: C_19  and  N_20 
REMARK    4  A    between atoms: N_20  and  C_21 
REMARK    5  A    between atoms: C_21  and  C_22 
ROOT
HETATM    1  C   UNL     1      -7.363   4.322 -32.019  1.00  0.00     0.104 C 
HETATM    2  C   UNL     1      -6.010   5.084 -32.006  1.00  0.00     0.150 C 
HETATM    3  N   UNL     1      -5.011   4.446 -32.857  1.00  0.00    -0.354 N 
HETATM    4  C   UNL     1      -4.835   5.012 -34.187  1.00  0.00     0.152 C 
HETATM    5  C   UNL     1      -4.309   3.312 -32.502  1.00  0.00     0.220 C 
HETATM    6  O   UNL     1      -3.526   2.743 -33.270  1.00  0.00    -0.273 OA
HETATM    7  C   UNL     1      -4.535   2.711 -31.129  1.00  0.00     0.117 C 
HETATM    8  C   UNL     1      -5.543   1.555 -31.015  1.00  0.00     0.086 C 
HETATM    9  C   UNL     1      -6.593   1.813 -29.899  1.00  0.00     0.014 C 
HETATM   10  C   UNL     1      -7.901   2.571 -30.191  1.00  0.00     0.003 C 
HETATM   11  C   UNL     1      -7.833   4.054 -30.573  1.00  0.00     0.027 C 
ENDROOT
BRANCH   1  12
HETATM   12  N   UNL     1      -8.339   5.088 -32.808  1.00  0.00    -0.337 N 
HETATM   13  C   UNL     1      -9.609   4.820 -33.216  1.00  0.00     0.321 C 
HETATM   14  N   UNL     1     -10.166   3.668 -32.761  1.00  0.00    -0.305 N 
HETATM   15  O   UNL     1     -10.139   5.665 -33.928  1.00  0.00    -0.247 OA
HETATM   16  H   UNL     1      -9.542   2.973 -32.387  1.00  0.00     0.171 HD
HETATM   17  H   UNL     1      -8.033   5.957 -33.233  1.00  0.00     0.164 HD
BRANCH  14  18
HETATM   18  C   UNL     1     -11.505   3.298 -32.838  1.00  0.00     0.094 A 
HETATM   19  C   UNL     1     -12.515   3.674 -31.901  1.00  0.00     0.087 A 
HETATM   20  C   UNL     1     -12.387   4.513 -30.688  1.00  0.00     0.075 C 
HETATM   21  N   UNL     1     -13.714   3.196 -32.246  1.00  0.00    -0.131 NA
HETATM   22  O   UNL     1     -13.512   2.500 -33.416  1.00  0.00    -0.216 OA
HETATM   23  C   UNL     1     -12.199   2.563 -33.779  1.00  0.00     0.103 A 
HETATM   24  C   UNL     1     -11.889   1.854 -35.035  1.00  0.00     0.081 C 
ENDBRANCH  14  18
ENDBRANCH   1  12
BRANCH   8  25
HETATM   25  C   UNL     1      -6.152   0.939 -32.285  1.00  0.00     0.222 C 
HETATM   26  N   UNL     1      -5.291   0.256 -33.105  1.00  0.00    -0.356 N 
HETATM   27  H   UNL     1      -4.285   0.368 -33.001  1.00  0.00     0.162 HD
HETATM   28  O   UNL     1      -7.363   0.970 -32.503  1.00  0.00    -0.273 OA
BRANCH  26  29
HETATM   29  C   UNL     1      -5.739  -0.407 -34.310  1.00  0.00     0.161 C 
BRANCH  29  30
HETATM   30  C   UNL     1      -5.428  -1.882 -34.308  1.00  0.00    -0.035 A 
HETATM   31  C   UNL     1      -6.252  -2.798 -34.976  1.00  0.00     0.051 A 
HETATM   32  C   UNL     1      -5.949  -4.160 -34.945  1.00  0.00     0.119 A 
HETATM   33  F   UNL     1      -6.750  -5.023 -35.582  1.00  0.00    -0.206 F 
HETATM   34  C   UNL     1      -4.840  -4.637 -34.260  1.00  0.00     0.084 A 
HETATM   35  C   UNL     1      -4.028  -3.731 -33.595  1.00  0.00     0.119 A 
HETATM   36  F   UNL     1      -2.955  -4.170 -32.927  1.00  0.00    -0.206 F 
HETATM   37  C   UNL     1      -4.311  -2.367 -33.610  1.00  0.00     0.051 A 
ENDBRANCH  29  30
ENDBRANCH  26  29
ENDBRANCH   8  25
TORSDOF 5
ENDMDL
MODEL 10
REMARK VINA RESULT:      -8.8     16.511     18.906
REMARK  5 active torsions:
REMARK  status: ('A' for Active; 'I' for Inactive)
REMARK    1  A    between atoms: C_7  and  N_8 
REMARK       I    between atoms: N_8  and  C_9 
REMARK       I    between atoms: C_9  and  N_10 
REMARK    2  A    between atoms: N_10  and  C_11 
REMARK    3  A    between atoms: C_18  and  C_19 
REMARK       I    between atoms: C_19  and  N_20 
REMARK    4  A    between atoms: N_20  and  C_21 
REMARK    5  A    between atoms: C_21  and  C_22 
ROOT
HETATM    1  C   UNL     1      -7.521 -15.035 -39.049  1.00  0.00     0.104 C 
HETATM    2  C   UNL     1      -7.058 -15.948 -40.217  1.00  0.00     0.150 C 
HETATM    3  N   UNL     1      -5.609 -15.930 -40.389  1.00  0.00    -0.354 N 
HETATM    4  C   UNL     1      -4.870 -17.033 -39.792  1.00  0.00     0.152 C 
HETATM    5  C   UNL     1      -4.921 -14.901 -40.999  1.00  0.00     0.220 C 
HETATM    6  O   UNL     1      -3.688 -14.868 -41.063  1.00  0.00    -0.273 OA
HETATM    7  C   UNL     1      -5.703 -13.738 -41.579  1.00  0.00     0.117 C 
HETATM    8  C   UNL     1      -5.868 -12.484 -40.705  1.00  0.00     0.086 C 
HETATM    9  C   UNL     1      -7.355 -12.045 -40.601  1.00  0.00     0.014 C 
HETATM   10  C   UNL     1      -8.281 -12.603 -39.506  1.00  0.00     0.003 C 
HETATM   11  C   UNL     1      -8.646 -14.093 -39.528  1.00  0.00     0.027 C 
ENDROOT
BRANCH   1  12
HETATM   12  N   UNL     1      -7.921 -15.875 -37.910  1.00  0.00    -0.337 N 
HETATM   13  C   UNL     1      -7.368 -16.092 -36.685  1.00  0.00     0.321 C 
HETATM   14  N   UNL     1      -6.279 -15.346 -36.365  1.00  0.00    -0.305 N 
HETATM   15  O   UNL     1      -7.931 -16.917 -35.975  1.00  0.00    -0.247 OA
HETATM   16  H   UNL     1      -5.796 -14.891 -37.122  1.00  0.00     0.171 HD
HETATM   17  H   UNL     1      -8.705 -16.507 -38.034  1.00  0.00     0.164 HD
BRANCH  14  18
HETATM   18  C   UNL     1      -5.695 -15.213 -35.110  1.00  0.00     0.094 A 
HETATM   19  C   UNL     1      -6.061 -14.236 -34.135  1.00  0.00     0.087 A 
HETATM   20  C   UNL     1      -7.105 -13.189 -34.219  1.00  0.00     0.075 C 
HETATM   21  N   UNL     1      -5.348 -14.365 -33.012  1.00  0.00    -0.131 NA
HETATM   22  O   UNL     1      -4.503 -15.429 -33.231  1.00  0.00    -0.216 OA
HETATM   23  C   UNL     1      -4.710 -15.944 -34.476  1.00  0.00     0.103 A 
HETATM   24  C   UNL     1      -3.855 -17.103 -34.796  1.00  0.00     0.081 C 
ENDBRANCH  14  18
ENDBRANCH   1  12
BRANCH   8  25
HETATM   25  C   UNL     1      -5.113 -12.374 -39.370  1.00  0.00     0.222 C 
HETATM   26  N   UNL     1      -3.753 -12.212 -39.450  1.00  0.00    -0.356 N 
HETATM   27  H   UNL     1      -3.264 -12.405 -40.321  1.00  0.00     0.162 HD
HETATM   28  O   UNL     1      -5.706 -12.330 -38.292  1.00  0.00    -0.273 OA
BRANCH  26  29
HETATM   29  C   UNL     1      -2.927 -12.054 -38.273  1.00  0.00     0.161 C 
BRANCH  29  30
HETATM   30  C   UNL     1      -1.871 -13.123 -38.160  1.00  0.00    -0.035 A 
HETATM   31  C   UNL     1      -1.710 -13.861 -36.980  1.00  0.00     0.051 A 
HETATM   32  C   UNL     1      -0.714 -14.835 -36.897  1.00  0.00     0.119 A 
HETATM   33  F   UNL     1      -0.568 -15.527 -35.760  1.00  0.00    -0.206 F 
HETATM   34  C   UNL     1       0.134 -15.093 -37.966  1.00  0.00     0.084 A 
HETATM   35  C   UNL     1      -0.021 -14.357 -39.131  1.00  0.00     0.119 A 
HETATM   36  F   UNL     1       0.786 -14.589 -40.172  1.00  0.00    -0.206 F 
HETATM   37  C   UNL     1      -1.008 -13.379 -39.236  1.00  0.00     0.051 A 
ENDBRANCH  29  30
ENDBRANCH  26  29
ENDBRANCH   8  25
TORSDOF 5
ENDMDL
