MODEL 1
REMARK VINA RESULT:      -7.0      0.000      0.000
REMARK  5 active torsions:
REMARK  status: ('A' for Active; 'I' for Inactive)
REMARK    1  A    between atoms: C_2  and  O_3 
REMARK    2  A    between atoms: C_4  and  C_5 
REMARK    3  A    between atoms: C_5  and  O_6 
REMARK    4  A    between atoms: C_9  and  C_10 
REMARK    5  A    between atoms: C_22  and  O_23 
ROOT
HETATM    1  C   UNL     1     -10.141   0.326 -32.786  1.00  0.00     0.047 C 
HETATM    2  C   UNL     1      -8.945   0.814 -33.628  1.00  0.00     0.073 C 
HETATM    3  C   UNL     1      -7.737  -0.179 -33.458  1.00  0.00     0.133 C 
HETATM    4  C   UNL     1      -6.971  -0.073 -32.095  1.00  0.00     0.074 C 
HETATM    5  C   UNL     1      -7.185   1.236 -31.404  1.00  0.00     0.030 A 
HETATM    6  C   UNL     1      -7.899   2.285 -31.941  1.00  0.00     0.042 A 
HETATM    7  N   UNL     1      -7.906   3.285 -31.012  1.00  0.00    -0.279 N 
HETATM    8  H   UNL     1      -8.335   4.203 -31.068  1.00  0.00     0.189 HD
HETATM    9  N   UNL     1      -7.284   2.932 -29.866  1.00  0.00    -0.149 NA
HETATM   10  C   UNL     1      -6.870   1.698 -30.125  1.00  0.00     0.190 A 
HETATM   11  C   UNL     1      -8.589   2.283 -33.247  1.00  0.00     0.097 C 
ENDROOT
BRANCH   4  12
HETATM   12  C   UNL     1      -5.460  -0.267 -32.150  1.00  0.00    -0.047 A 
HETATM   13  C   UNL     1      -4.852  -1.528 -31.975  1.00  0.00     0.027 A 
HETATM   14  C   UNL     1      -3.464  -1.658 -32.001  1.00  0.00     0.011 A 
HETATM   15 BR   UNL     1      -2.680  -3.361 -31.753  1.00  0.00    -0.051 Br
HETATM   16  C   UNL     1      -2.653  -0.545 -32.198  1.00  0.00     0.019 A 
HETATM   17  C   UNL     1      -3.236   0.709 -32.371  1.00  0.00     0.002 A 
HETATM   18  C   UNL     1      -4.627   0.847 -32.345  1.00  0.00     0.008 A 
ENDBRANCH   4  12
BRANCH   3  19
HETATM   19  C   UNL     1      -6.822  -0.092 -34.663  1.00  0.00     0.266 C 
HETATM   20  O   UNL     1      -6.628   0.926 -35.317  1.00  0.00    -0.265 OA
BRANCH  19  21
HETATM   21  O   UNL     1      -6.289  -1.316 -34.942  1.00  0.00    -0.326 OA
HETATM   22  C   UNL     1      -7.157  -2.416 -34.671  1.00  0.00     0.213 C 
ENDBRANCH  19  21
ENDBRANCH   3  19
BRANCH   2  23
HETATM   23  O   UNL     1      -9.428   0.796 -34.982  1.00  0.00    -0.389 OA
HETATM   24  H   UNL     1      -9.902  -0.050 -35.120  1.00  0.00     0.210 HD
ENDBRANCH   2  23
BRANCH  10  25
HETATM   25  O   UNL     1      -6.252   1.082 -29.123  1.00  0.00    -0.343 OA
HETATM   26  H   UNL     1      -6.913   1.053 -28.411  1.00  0.00     0.219 HD
ENDBRANCH  10  25
TORSDOF 5
ENDMDL
MODEL 2
REMARK VINA RESULT:      -7.0      1.889      2.200
REMARK  5 active torsions:
REMARK  status: ('A' for Active; 'I' for Inactive)
REMARK    1  A    between atoms: C_2  and  O_3 
REMARK    2  A    between atoms: C_4  and  C_5 
REMARK    3  A    between atoms: C_5  and  O_6 
REMARK    4  A    between atoms: C_9  and  C_10 
REMARK    5  A    between atoms: C_22  and  O_23 
ROOT
HETATM    1  C   UNL     1     -10.384   0.504 -33.024  1.00  0.00     0.047 C 
HETATM    2  C   UNL     1      -9.159   1.059 -33.779  1.00  0.00     0.073 C 
HETATM    3  C   UNL     1      -7.849   0.381 -33.233  1.00  0.00     0.133 C 
HETATM    4  C   UNL     1      -7.366   0.894 -31.834  1.00  0.00     0.074 C 
HETATM    5  C   UNL     1      -7.918   2.237 -31.479  1.00  0.00     0.030 A 
HETATM    6  C   UNL     1      -8.695   3.000 -32.324  1.00  0.00     0.042 A 
HETATM    7  N   UNL     1      -9.036   4.133 -31.643  1.00  0.00    -0.279 N 
HETATM    8  H   UNL     1      -9.599   4.918 -31.956  1.00  0.00     0.189 HD
HETATM    9  N   UNL     1      -8.575   4.134 -30.374  1.00  0.00    -0.149 NA
HETATM   10  C   UNL     1      -7.918   2.984 -30.300  1.00  0.00     0.190 A 
HETATM   11  C   UNL     1      -9.133   2.614 -33.681  1.00  0.00     0.097 C 
ENDROOT
BRANCH   4  12
HETATM   12  C   UNL     1      -5.857   1.005 -31.636  1.00  0.00    -0.047 A 
HETATM   13  C   UNL     1      -5.137   2.174 -31.955  1.00  0.00     0.027 A 
HETATM   14  C   UNL     1      -3.753   2.225 -31.789  1.00  0.00     0.011 A 
HETATM   15 BR   UNL     1      -2.814   3.804 -32.236  1.00  0.00    -0.051 Br
HETATM   16  C   UNL     1      -3.058   1.120 -31.307  1.00  0.00     0.019 A 
HETATM   17  C   UNL     1      -3.754  -0.044 -30.988  1.00  0.00     0.002 A 
HETATM   18  C   UNL     1      -5.141  -0.103 -31.153  1.00  0.00     0.008 A 
ENDBRANCH   4  12
BRANCH   3  19
HETATM   19  C   UNL     1      -6.764   0.426 -34.290  1.00  0.00     0.266 C 
HETATM   20  O   UNL     1      -6.521   1.399 -34.996  1.00  0.00    -0.265 OA
BRANCH  19  21
HETATM   21  O   UNL     1      -6.136  -0.781 -34.376  1.00  0.00    -0.326 OA
HETATM   22  C   UNL     1      -6.993  -1.909 -34.194  1.00  0.00     0.213 C 
ENDBRANCH  19  21
ENDBRANCH   3  19
BRANCH   2  23
HETATM   23  O   UNL     1      -9.386   0.691 -35.151  1.00  0.00    -0.389 OA
HETATM   24  H   UNL     1      -8.533   0.389 -35.525  1.00  0.00     0.210 HD
ENDBRANCH   2  23
BRANCH  10  25
HETATM   25  O   UNL     1      -7.390   2.705 -29.113  1.00  0.00    -0.343 OA
HETATM   26  H   UNL     1      -6.587   2.197 -29.317  1.00  0.00     0.219 HD
ENDBRANCH  10  25
TORSDOF 5
ENDMDL
MODEL 3
REMARK VINA RESULT:      -6.9     14.375     15.916
REMARK  5 active torsions:
REMARK  status: ('A' for Active; 'I' for Inactive)
REMARK    1  A    between atoms: C_2  and  O_3 
REMARK    2  A    between atoms: C_4  and  C_5 
REMARK    3  A    between atoms: C_5  and  O_6 
REMARK    4  A    between atoms: C_9  and  C_10 
REMARK    5  A    between atoms: C_22  and  O_23 
ROOT
HETATM    1  C   UNL     1      -1.871 -11.983 -38.223  1.00  0.00     0.047 C 
HETATM    2  C   UNL     1      -2.538 -13.245 -38.805  1.00  0.00     0.073 C 
HETATM    3  C   UNL     1      -4.009 -12.910 -39.248  1.00  0.00     0.133 C 
HETATM    4  C   UNL     1      -5.042 -12.761 -38.080  1.00  0.00     0.074 C 
HETATM    5  C   UNL     1      -4.594 -13.423 -36.816  1.00  0.00     0.030 A 
HETATM    6  C   UNL     1      -3.443 -14.171 -36.702  1.00  0.00     0.042 A 
HETATM    7  N   UNL     1      -3.354 -14.577 -35.402  1.00  0.00    -0.279 N 
HETATM    8  H   UNL     1      -2.638 -15.146 -34.960  1.00  0.00     0.189 HD
HETATM    9  N   UNL     1      -4.354 -14.091 -34.637  1.00  0.00    -0.149 NA
HETATM   10  C   UNL     1      -5.077 -13.395 -35.506  1.00  0.00     0.190 A 
HETATM   11  C   UNL     1      -2.458 -14.413 -37.776  1.00  0.00     0.097 C 
ENDROOT
BRANCH   4  12
HETATM   12  C   UNL     1      -6.448 -13.290 -38.345  1.00  0.00    -0.047 A 
HETATM   13  C   UNL     1      -7.423 -12.534 -39.028  1.00  0.00     0.027 A 
HETATM   14  C   UNL     1      -8.708 -13.041 -39.223  1.00  0.00     0.011 A 
HETATM   15 BR   UNL     1      -9.997 -11.999 -40.134  1.00  0.00    -0.051 Br
HETATM   16  C   UNL     1      -9.050 -14.302 -38.745  1.00  0.00     0.019 A 
HETATM   17  C   UNL     1      -8.099 -15.062 -38.066  1.00  0.00     0.002 A 
HETATM   18  C   UNL     1      -6.810 -14.559 -37.866  1.00  0.00     0.008 A 
ENDBRANCH   4  12
BRANCH   3  19
HETATM   19  C   UNL     1      -4.461 -13.881 -40.321  1.00  0.00     0.266 C 
HETATM   20  O   UNL     1      -4.389 -15.102 -40.228  1.00  0.00    -0.265 OA
BRANCH  19  21
HETATM   21  O   UNL     1      -4.910 -13.204 -41.415  1.00  0.00    -0.326 OA
HETATM   22  C   UNL     1      -5.290 -14.035 -42.512  1.00  0.00     0.213 C 
ENDBRANCH  19  21
ENDBRANCH   3  19
BRANCH   2  23
HETATM   23  O   UNL     1      -1.731 -13.584 -39.946  1.00  0.00    -0.389 OA
HETATM   24  H   UNL     1      -1.456 -12.749 -40.377  1.00  0.00     0.210 HD
ENDBRANCH   2  23
BRANCH  10  25
HETATM   25  O   UNL     1      -6.124 -12.757 -34.995  1.00  0.00    -0.343 OA
HETATM   26  H   UNL     1      -6.712 -13.466 -34.682  1.00  0.00     0.219 HD
ENDBRANCH  10  25
TORSDOF 5
ENDMDL
MODEL 4
REMARK VINA RESULT:      -6.9      2.861      4.345
REMARK  5 active torsions:
REMARK  status: ('A' for Active; 'I' for Inactive)
REMARK    1  A    between atoms: C_2  and  O_3 
REMARK    2  A    between atoms: C_4  and  C_5 
REMARK    3  A    between atoms: C_5  and  O_6 
REMARK    4  A    between atoms: C_9  and  C_10 
REMARK    5  A    between atoms: C_22  and  O_23 
ROOT
HETATM    1  C   UNL     1      -7.033  -3.247 -34.286  1.00  0.00     0.047 C 
HETATM    2  C   UNL     1      -5.990  -2.113 -34.359  1.00  0.00     0.073 C 
HETATM    3  C   UNL     1      -5.704  -1.565 -32.913  1.00  0.00     0.133 C 
HETATM    4  C   UNL     1      -6.826  -0.652 -32.310  1.00  0.00     0.074 C 
HETATM    5  C   UNL     1      -7.726  -0.066 -33.350  1.00  0.00     0.030 A 
HETATM    6  C   UNL     1      -7.543  -0.224 -34.707  1.00  0.00     0.042 A 
HETATM    7  N   UNL     1      -8.574   0.417 -35.329  1.00  0.00    -0.279 N 
HETATM    8  H   UNL     1      -8.760   0.509 -36.324  1.00  0.00     0.189 HD
HETATM    9  N   UNL     1      -9.461   0.942 -34.457  1.00  0.00    -0.149 NA
HETATM   10  C   UNL     1      -8.934   0.630 -33.279  1.00  0.00     0.190 A 
HETATM   11  C   UNL     1      -6.470  -1.010 -35.350  1.00  0.00     0.097 C 
ENDROOT
BRANCH   4  12
HETATM   12  C   UNL     1      -6.360   0.525 -31.460  1.00  0.00    -0.047 A 
HETATM   13  C   UNL     1      -6.023   1.775 -32.019  1.00  0.00     0.027 A 
HETATM   14  C   UNL     1      -5.570   2.817 -31.210  1.00  0.00     0.011 A 
HETATM   15 BR   UNL     1      -5.118   4.479 -31.992  1.00  0.00    -0.051 Br
HETATM   16  C   UNL     1      -5.441   2.641 -29.837  1.00  0.00     0.019 A 
HETATM   17  C   UNL     1      -5.768   1.412 -29.267  1.00  0.00     0.002 A 
HETATM   18  C   UNL     1      -6.221   0.362 -30.072  1.00  0.00     0.008 A 
ENDBRANCH   4  12
BRANCH   3  19
HETATM   19  C   UNL     1      -4.329  -0.927 -32.864  1.00  0.00     0.266 C 
HETATM   20  O   UNL     1      -3.878  -0.182 -33.726  1.00  0.00    -0.265 OA
BRANCH  19  21
HETATM   21  O   UNL     1      -3.654  -1.341 -31.754  1.00  0.00    -0.326 OA
HETATM   22  C   UNL     1      -3.057  -2.633 -31.871  1.00  0.00     0.213 C 
ENDBRANCH  19  21
ENDBRANCH   3  19
BRANCH   2  23
HETATM   23  O   UNL     1      -4.816  -2.740 -34.904  1.00  0.00    -0.389 OA
HETATM   24  H   UNL     1      -4.691  -3.594 -34.443  1.00  0.00     0.210 HD
ENDBRANCH   2  23
BRANCH  10  25
HETATM   25  O   UNL     1      -9.647   0.996 -32.221  1.00  0.00    -0.343 OA
HETATM   26  H   UNL     1     -10.407   0.390 -32.218  1.00  0.00     0.219 HD
ENDBRANCH  10  25
TORSDOF 5
ENDMDL
MODEL 5
REMARK VINA RESULT:      -6.8     14.473     15.525
REMARK  5 active torsions:
REMARK  status: ('A' for Active; 'I' for Inactive)
REMARK    1  A    between atoms: C_2  and  O_3 
REMARK    2  A    between atoms: C_4  and  C_5 
REMARK    3  A    between atoms: C_5  and  O_6 
REMARK    4  A    between atoms: C_9  and  C_10 
REMARK    5  A    between atoms: C_22  and  O_23 
ROOT
HETATM    1  C   UNL     1      -8.338 -14.849 -39.479  1.00  0.00     0.047 C 
HETATM    2  C   UNL     1      -7.538 -13.542 -39.658  1.00  0.00     0.073 C 
HETATM    3  C   UNL     1      -6.044 -13.881 -40.013  1.00  0.00     0.133 C 
HETATM    4  C   UNL     1      -5.171 -14.389 -38.816  1.00  0.00     0.074 C 
HETATM    5  C   UNL     1      -5.732 -14.014 -37.482  1.00  0.00     0.030 A 
HETATM    6  C   UNL     1      -6.847 -13.224 -37.308  1.00  0.00     0.042 A 
HETATM    7  N   UNL     1      -7.072 -13.134 -35.965  1.00  0.00    -0.279 N 
HETATM    8  H   UNL     1      -7.805 -12.631 -35.474  1.00  0.00     0.189 HD
HETATM    9  N   UNL     1      -6.200 -13.870 -35.243  1.00  0.00    -0.149 NA
HETATM   10  C   UNL     1      -5.415 -14.394 -36.176  1.00  0.00     0.190 A 
HETATM   11  C   UNL     1      -7.679 -12.652 -38.387  1.00  0.00     0.097 C 
ENDROOT
BRANCH   4  12
HETATM   12  C   UNL     1      -3.717 -13.929 -38.793  1.00  0.00    -0.047 A 
HETATM   13  C   UNL     1      -2.674 -14.692 -39.358  1.00  0.00     0.027 A 
HETATM   14  C   UNL     1      -1.352 -14.252 -39.289  1.00  0.00     0.011 A 
HETATM   15 BR   UNL     1       0.025 -15.302 -40.047  1.00  0.00    -0.051 Br
HETATM   16  C   UNL     1      -1.039 -13.051 -38.660  1.00  0.00     0.019 A 
HETATM   17  C   UNL     1      -2.058 -12.285 -38.095  1.00  0.00     0.002 A 
HETATM   18  C   UNL     1      -3.385 -12.721 -38.159  1.00  0.00     0.008 A 
ENDBRANCH   4  12
BRANCH   3  19
HETATM   19  C   UNL     1      -5.414 -12.722 -40.759  1.00  0.00     0.266 C 
HETATM   20  O   UNL     1      -5.581 -11.541 -40.477  1.00  0.00    -0.265 OA
BRANCH  19  21
HETATM   21  O   UNL     1      -4.679 -13.179 -41.813  1.00  0.00    -0.326 OA
HETATM   22  C   UNL     1      -5.305 -14.221 -42.563  1.00  0.00     0.213 C 
ENDBRANCH  19  21
ENDBRANCH   3  19
BRANCH   2  23
HETATM   23  O   UNL     1      -8.182 -12.876 -40.758  1.00  0.00    -0.389 OA
HETATM   24  H   UNL     1      -7.566 -12.193 -41.096  1.00  0.00     0.210 HD
ENDBRANCH   2  23
BRANCH  10  25
HETATM   25  O   UNL     1      -4.474 -15.219 -35.732  1.00  0.00    -0.343 OA
HETATM   26  H   UNL     1      -4.529 -15.152 -34.763  1.00  0.00     0.219 HD
ENDBRANCH  10  25
TORSDOF 5
ENDMDL
MODEL 6
REMARK VINA RESULT:      -6.6     14.776     16.818
REMARK  5 active torsions:
REMARK  status: ('A' for Active; 'I' for Inactive)
REMARK    1  A    between atoms: C_2  and  O_3 
REMARK    2  A    between atoms: C_4  and  C_5 
REMARK    3  A    between atoms: C_5  and  O_6 
REMARK    4  A    between atoms: C_9  and  C_10 
REMARK    5  A    between atoms: C_22  and  O_23 
ROOT
HETATM    1  C   UNL     1      -0.283 -13.990 -39.341  1.00  0.00     0.047 C 
HETATM    2  C   UNL     1      -1.448 -14.889 -39.802  1.00  0.00     0.073 C 
HETATM    3  C   UNL     1      -2.604 -13.998 -40.388  1.00  0.00     0.133 C 
HETATM    4  C   UNL     1      -3.461 -13.232 -39.324  1.00  0.00     0.074 C 
HETATM    5  C   UNL     1      -3.370 -13.830 -37.957  1.00  0.00     0.030 A 
HETATM    6  C   UNL     1      -2.684 -14.990 -37.666  1.00  0.00     0.042 A 
HETATM    7  N   UNL     1      -2.796 -15.197 -36.321  1.00  0.00    -0.279 N 
HETATM    8  H   UNL     1      -2.418 -15.955 -35.760  1.00  0.00     0.189 HD
HETATM    9  N   UNL     1      -3.469 -14.206 -35.698  1.00  0.00    -0.149 NA
HETATM   10  C   UNL     1      -3.793 -13.397 -36.699  1.00  0.00     0.190 A 
HETATM   11  C   UNL     1      -1.912 -15.803 -38.628  1.00  0.00     0.097 C 
ENDROOT
BRANCH   4  12
HETATM   12  C   UNL     1      -4.953 -13.106 -39.618  1.00  0.00    -0.047 A 
HETATM   13  C   UNL     1      -5.899 -14.035 -39.139  1.00  0.00     0.027 A 
HETATM   14  C   UNL     1      -7.251 -13.902 -39.456  1.00  0.00     0.011 A 
HETATM   15 BR   UNL     1      -8.494 -15.171 -38.807  1.00  0.00    -0.051 Br
HETATM   16  C   UNL     1      -7.689 -12.849 -40.253  1.00  0.00     0.019 A 
HETATM   17  C   UNL     1      -6.767 -11.922 -40.736  1.00  0.00     0.002 A 
HETATM   18  C   UNL     1      -5.411 -12.050 -40.423  1.00  0.00     0.008 A 
ENDBRANCH   4  12
BRANCH   3  19
HETATM   19  C   UNL     1      -3.443 -14.809 -41.355  1.00  0.00     0.266 C 
HETATM   20  O   UNL     1      -3.879 -15.932 -41.125  1.00  0.00    -0.265 OA
BRANCH  19  21
HETATM   21  O   UNL     1      -3.598 -14.134 -42.529  1.00  0.00    -0.326 OA
HETATM   22  C   UNL     1      -4.786 -14.462 -43.249  1.00  0.00     0.213 C 
ENDBRANCH  19  21
ENDBRANCH   3  19
BRANCH   2  23
HETATM   23  O   UNL     1      -0.877 -15.718 -40.829  1.00  0.00    -0.389 OA
HETATM   24  H   UNL     1      -1.072 -15.301 -41.693  1.00  0.00     0.210 HD
ENDBRANCH   2  23
BRANCH  10  25
HETATM   25  O   UNL     1      -4.438 -12.290 -36.350  1.00  0.00    -0.343 OA
HETATM   26  H   UNL     1      -3.795 -11.576 -36.500  1.00  0.00     0.219 HD
ENDBRANCH  10  25
TORSDOF 5
ENDMDL
MODEL 7
REMARK VINA RESULT:      -6.5      3.660      5.526
REMARK  5 active torsions:
REMARK  status: ('A' for Active; 'I' for Inactive)
REMARK    1  A    between atoms: C_2  and  O_3 
REMARK    2  A    between atoms: C_4  and  C_5 
REMARK    3  A    between atoms: C_5  and  O_6 
REMARK    4  A    between atoms: C_9  and  C_10 
REMARK    5  A    between atoms: C_22  and  O_23 
ROOT
HETATM    1  C   UNL     1      -4.602   5.106 -30.446  1.00  0.00     0.047 C 
HETATM    2  C   UNL     1      -4.566   4.794 -31.955  1.00  0.00     0.073 C 
HETATM    3  C   UNL     1      -5.991   4.330 -32.434  1.00  0.00     0.133 C 
HETATM    4  C   UNL     1      -6.392   2.873 -32.023  1.00  0.00     0.074 C 
HETATM    5  C   UNL     1      -5.215   2.014 -31.686  1.00  0.00     0.030 A 
HETATM    6  C   UNL     1      -3.904   2.419 -31.812  1.00  0.00     0.042 A 
HETATM    7  N   UNL     1      -3.121   1.387 -31.379  1.00  0.00    -0.279 N 
HETATM    8  H   UNL     1      -2.108   1.333 -31.332  1.00  0.00     0.189 HD
HETATM    9  N   UNL     1      -3.845   0.344 -30.920  1.00  0.00    -0.149 NA
HETATM   10  C   UNL     1      -5.095   0.750 -31.107  1.00  0.00     0.190 A 
HETATM   11  C   UNL     1      -3.448   3.751 -32.258  1.00  0.00     0.097 C 
ENDROOT
BRANCH   4  12
HETATM   12  C   UNL     1      -7.201   2.078 -33.043  1.00  0.00    -0.047 A 
HETATM   13  C   UNL     1      -8.608   2.001 -32.998  1.00  0.00     0.027 A 
HETATM   14  C   UNL     1      -9.309   1.239 -33.932  1.00  0.00     0.011 A 
HETATM   15 BR   UNL     1     -11.196   1.148 -33.838  1.00  0.00    -0.051 Br
HETATM   16  C   UNL     1      -8.632   0.538 -34.924  1.00  0.00     0.019 A 
HETATM   17  C   UNL     1      -7.240   0.602 -34.983  1.00  0.00     0.002 A 
HETATM   18  C   UNL     1      -6.531   1.363 -34.049  1.00  0.00     0.008 A 
ENDBRANCH   4  12
BRANCH   3  19
HETATM   19  C   UNL     1      -6.150   4.595 -33.918  1.00  0.00     0.266 C 
HETATM   20  O   UNL     1      -5.269   4.425 -34.753  1.00  0.00    -0.265 OA
BRANCH  19  21
HETATM   21  O   UNL     1      -7.391   5.094 -34.179  1.00  0.00    -0.326 OA
HETATM   22  C   UNL     1      -7.959   5.858 -33.115  1.00  0.00     0.213 C 
ENDBRANCH  19  21
ENDBRANCH   3  19
BRANCH   2  23
HETATM   23  O   UNL     1      -4.207   6.043 -32.571  1.00  0.00    -0.389 OA
HETATM   24  H   UNL     1      -4.009   5.866 -33.514  1.00  0.00     0.210 HD
ENDBRANCH   2  23
BRANCH  10  25
HETATM   25  O   UNL     1      -6.035  -0.090 -30.688  1.00  0.00    -0.343 OA
HETATM   26  H   UNL     1      -5.960  -0.855 -31.282  1.00  0.00     0.219 HD
ENDBRANCH  10  25
TORSDOF 5
ENDMDL
MODEL 8
REMARK VINA RESULT:      -6.5      2.664      4.058
REMARK  5 active torsions:
REMARK  status: ('A' for Active; 'I' for Inactive)
REMARK    1  A    between atoms: C_2  and  O_3 
REMARK    2  A    between atoms: C_4  and  C_5 
REMARK    3  A    between atoms: C_5  and  O_6 
REMARK    4  A    between atoms: C_9  and  C_10 
REMARK    5  A    between atoms: C_22  and  O_23 
ROOT
HETATM    1  C   UNL     1      -8.307   4.270 -29.873  1.00  0.00     0.047 C 
HETATM    2  C   UNL     1      -9.089   3.539 -30.983  1.00  0.00     0.073 C 
HETATM    3  C   UNL     1      -8.391   2.167 -31.307  1.00  0.00     0.133 C 
HETATM    4  C   UNL     1      -7.070   2.270 -32.144  1.00  0.00     0.074 C 
HETATM    5  C   UNL     1      -6.953   3.558 -32.895  1.00  0.00     0.030 A 
HETATM    6  C   UNL     1      -7.937   4.521 -32.935  1.00  0.00     0.042 A 
HETATM    7  N   UNL     1      -7.457   5.557 -33.683  1.00  0.00    -0.279 N 
HETATM    8  H   UNL     1      -7.911   6.432 -33.924  1.00  0.00     0.189 HD
HETATM    9  N   UNL     1      -6.186   5.355 -34.092  1.00  0.00    -0.149 NA
HETATM   10  C   UNL     1      -5.906   4.155 -33.599  1.00  0.00     0.190 A 
HETATM   11  C   UNL     1      -9.234   4.463 -32.230  1.00  0.00     0.097 C 
ENDROOT
BRANCH   4  12
HETATM   12  C   UNL     1      -6.832   1.170 -33.173  1.00  0.00    -0.047 A 
HETATM   13  C   UNL     1      -5.925   0.113 -32.953  1.00  0.00     0.027 A 
HETATM   14  C   UNL     1      -5.712  -0.857 -33.932  1.00  0.00     0.011 A 
HETATM   15 BR   UNL     1      -4.482  -2.257 -33.610  1.00  0.00    -0.051 Br
HETATM   16  C   UNL     1      -6.389  -0.797 -35.146  1.00  0.00     0.019 A 
HETATM   17  C   UNL     1      -7.288   0.242 -35.381  1.00  0.00     0.002 A 
HETATM   18  C   UNL     1      -7.506   1.219 -34.404  1.00  0.00     0.008 A 
ENDBRANCH   4  12
BRANCH   3  19
HETATM   19  C   UNL     1      -9.397   1.202 -31.901  1.00  0.00     0.266 C 
HETATM   20  O   UNL     1      -9.414  -0.005 -31.686  1.00  0.00    -0.265 OA
BRANCH  19  21
HETATM   21  O   UNL     1     -10.245   1.859 -32.743  1.00  0.00    -0.326 OA
HETATM   22  C   UNL     1     -11.076   1.007 -33.530  1.00  0.00     0.213 C 
ENDBRANCH  19  21
ENDBRANCH   3  19
BRANCH   2  23
HETATM   23  O   UNL     1     -10.394   3.322 -30.419  1.00  0.00    -0.389 OA
HETATM   24  H   UNL     1     -10.590   2.365 -30.477  1.00  0.00     0.210 HD
ENDBRANCH   2  23
BRANCH  10  25
HETATM   25  O   UNL     1      -4.670   3.723 -33.820  1.00  0.00    -0.343 OA
HETATM   26  H   UNL     1      -4.181   3.958 -33.013  1.00  0.00     0.219 HD
ENDBRANCH  10  25
TORSDOF 5
ENDMDL
MODEL 9
REMARK VINA RESULT:      -6.4      4.049      5.323
REMARK  5 active torsions:
REMARK  status: ('A' for Active; 'I' for Inactive)
REMARK    1  A    between atoms: C_2  and  O_3 
REMARK    2  A    between atoms: C_4  and  C_5 
REMARK    3  A    between atoms: C_5  and  O_6 
REMARK    4  A    between atoms: C_9  and  C_10 
REMARK    5  A    between atoms: C_22  and  O_23 
ROOT
HETATM    1  C   UNL     1      -7.164   2.407 -30.059  1.00  0.00     0.047 C 
HETATM    2  C   UNL     1      -6.143   1.860 -31.077  1.00  0.00     0.073 C 
HETATM    3  C   UNL     1      -4.787   2.646 -30.940  1.00  0.00     0.133 C 
HETATM    4  C   UNL     1      -4.789   4.092 -31.542  1.00  0.00     0.074 C 
HETATM    5  C   UNL     1      -5.873   4.305 -32.549  1.00  0.00     0.030 A 
HETATM    6  C   UNL     1      -6.728   3.316 -32.984  1.00  0.00     0.042 A 
HETATM    7  N   UNL     1      -7.595   3.893 -33.866  1.00  0.00    -0.279 N 
HETATM    8  H   UNL     1      -8.357   3.464 -34.383  1.00  0.00     0.189 HD
HETATM    9  N   UNL     1      -7.397   5.223 -33.995  1.00  0.00    -0.149 NA
HETATM   10  C   UNL     1      -6.366   5.445 -33.188  1.00  0.00     0.190 A 
HETATM   11  C   UNL     1      -6.741   1.916 -32.515  1.00  0.00     0.097 C 
ENDROOT
BRANCH   4  12
HETATM   12  C   UNL     1      -3.501   4.546 -32.222  1.00  0.00    -0.047 A 
HETATM   13  C   UNL     1      -2.459   5.185 -31.519  1.00  0.00     0.027 A 
HETATM   14  C   UNL     1      -1.310   5.613 -32.183  1.00  0.00     0.011 A 
HETATM   15 BR   UNL     1       0.065   6.477 -31.213  1.00  0.00    -0.051 Br
HETATM   16  C   UNL     1      -1.173   5.418 -33.554  1.00  0.00     0.019 A 
HETATM   17  C   UNL     1      -2.193   4.789 -34.265  1.00  0.00     0.002 A 
HETATM   18  C   UNL     1      -3.349   4.359 -33.605  1.00  0.00     0.008 A 
ENDBRANCH   4  12
BRANCH   3  19
HETATM   19  C   UNL     1      -3.641   1.793 -31.446  1.00  0.00     0.266 C 
HETATM   20  O   UNL     1      -2.539   1.722 -30.914  1.00  0.00    -0.265 OA
BRANCH  19  21
HETATM   21  O   UNL     1      -3.996   1.159 -32.599  1.00  0.00    -0.326 OA
HETATM   22  C   UNL     1      -3.339  -0.090 -32.816  1.00  0.00     0.213 C 
ENDBRANCH  19  21
ENDBRANCH   3  19
BRANCH   2  23
HETATM   23  O   UNL     1      -5.969   0.482 -30.706  1.00  0.00    -0.389 OA
HETATM   24  H   UNL     1      -5.572   0.460 -29.811  1.00  0.00     0.210 HD
ENDBRANCH   2  23
BRANCH  10  25
HETATM   25  O   UNL     1      -5.984   6.713 -33.088  1.00  0.00    -0.343 OA
HETATM   26  H   UNL     1      -5.776   6.830 -32.145  1.00  0.00     0.219 HD
ENDBRANCH  10  25
TORSDOF 5
ENDMDL
MODEL 10
REMARK VINA RESULT:      -6.4      3.309      4.942
REMARK  5 active torsions:
REMARK  status: ('A' for Active; 'I' for Inactive)
REMARK    1  A    between atoms: C_2  and  O_3 
REMARK    2  A    between atoms: C_4  and  C_5 
REMARK    3  A    between atoms: C_5  and  O_6 
REMARK    4  A    between atoms: C_9  and  C_10 
REMARK    5  A    between atoms: C_22  and  O_23 
ROOT
HETATM    1  C   UNL     1      -5.619  -1.183 -34.458  1.00  0.00     0.047 C 
HETATM    2  C   UNL     1      -6.584  -0.623 -33.395  1.00  0.00     0.073 C 
HETATM    3  C   UNL     1      -6.887   0.890 -33.700  1.00  0.00     0.133 C 
HETATM    4  C   UNL     1      -5.732   1.887 -33.346  1.00  0.00     0.074 C 
HETATM    5  C   UNL     1      -4.760   1.330 -32.357  1.00  0.00     0.030 A 
HETATM    6  C   UNL     1      -4.903   0.107 -31.739  1.00  0.00     0.042 A 
HETATM    7  N   UNL     1      -3.811  -0.071 -30.939  1.00  0.00    -0.279 N 
HETATM    8  H   UNL     1      -3.584  -0.856 -30.336  1.00  0.00     0.189 HD
HETATM    9  N   UNL     1      -2.925   0.943 -31.039  1.00  0.00    -0.149 NA
HETATM   10  C   UNL     1      -3.513   1.763 -31.901  1.00  0.00     0.190 A 
HETATM   11  C   UNL     1      -6.000  -0.856 -31.969  1.00  0.00     0.097 C 
ENDROOT
BRANCH   4  12
HETATM   12  C   UNL     1      -6.153   3.243 -32.789  1.00  0.00    -0.047 A 
HETATM   13  C   UNL     1      -6.415   3.450 -31.419  1.00  0.00     0.027 A 
HETATM   14  C   UNL     1      -6.829   4.698 -30.954  1.00  0.00     0.011 A 
HETATM   15 BR   UNL     1      -7.182   4.940 -29.112  1.00  0.00    -0.051 Br
HETATM   16  C   UNL     1      -6.992   5.762 -31.835  1.00  0.00     0.019 A 
HETATM   17  C   UNL     1      -6.739   5.576 -33.193  1.00  0.00     0.002 A 
HETATM   18  C   UNL     1      -6.325   4.327 -33.666  1.00  0.00     0.008 A 
ENDBRANCH   4  12
BRANCH   3  19
HETATM   19  C   UNL     1      -8.219   1.284 -33.093  1.00  0.00     0.266 C 
HETATM   20  O   UNL     1      -8.593   0.965 -31.970  1.00  0.00    -0.265 OA
BRANCH  19  21
HETATM   21  O   UNL     1      -8.957   1.996 -33.992  1.00  0.00    -0.326 OA
HETATM   22  C   UNL     1      -9.826   2.967 -33.408  1.00  0.00     0.213 C 
ENDBRANCH  19  21
ENDBRANCH   3  19
BRANCH   2  23
HETATM   23  O   UNL     1      -7.775  -1.416 -33.537  1.00  0.00    -0.389 OA
HETATM   24  H   UNL     1      -7.571  -2.157 -34.144  1.00  0.00     0.210 HD
ENDBRANCH   2  23
BRANCH  10  25
HETATM   25  O   UNL     1      -2.817   2.848 -32.222  1.00  0.00    -0.343 OA
HETATM   26  H   UNL     1      -2.067   2.511 -32.742  1.00  0.00     0.219 HD
ENDBRANCH  10  25
TORSDOF 5
ENDMDL
