MODEL 1
REMARK VINA RESULT:      -8.3      0.000      0.000
REMARK  7 active torsions:
REMARK  status: ('A' for Active; 'I' for Inactive)
REMARK    1  A    between atoms: C_2  and  N_3 
REMARK    2  A    between atoms: C_2  and  C_17 
REMARK       I    between atoms: N_3  and  C_4 
REMARK    3  A    between atoms: C_4  and  C_5 
REMARK    4  A    between atoms: C_7  and  N_8 
REMARK    5  A    between atoms: C_17  and  O_18 
REMARK    6  A    between atoms: C_17  and  C_19 
REMARK    7  A    between atoms: C_22  and  O_23 
ROOT
HETATM    1  N   UNL     1      -4.746   2.516 -32.404  1.00  0.00    -0.349 N 
HETATM    2  C   UNL     1      -3.454   2.453 -31.933  1.00  0.00     0.270 C 
HETATM    3  O   UNL     1      -2.998   1.504 -31.306  1.00  0.00    -0.266 OA
HETATM    4  H   UNL     1      -5.047   3.408 -32.791  1.00  0.00     0.163 HD
ENDROOT
BRANCH   1   5
HETATM    5  C   UNL     1      -5.769   1.514 -32.098  1.00  0.00     0.114 C 
HETATM    6  C   UNL     1      -6.796   2.120 -31.138  1.00  0.00     0.035 C 
BRANCH   5   7
HETATM    7  C   UNL     1      -6.390   0.993 -33.423  1.00  0.00     0.173 C 
BRANCH   7   8
HETATM    8  O   UNL     1      -7.815   1.157 -33.408  1.00  0.00    -0.389 OA
HETATM    9  H   UNL     1      -8.006   1.862 -32.763  1.00  0.00     0.210 HD
ENDBRANCH   7   8
BRANCH   7  10
HETATM   10  C   UNL     1      -6.017  -0.435 -33.773  1.00  0.00    -0.028 A 
HETATM   11  C   UNL     1      -4.721  -0.898 -33.513  1.00  0.00     0.012 A 
HETATM   12  C   UNL     1      -4.361  -2.211 -33.825  1.00  0.00     0.037 A 
HETATM   13  C   UNL     1      -5.286  -3.091 -34.390  1.00  0.00     0.068 A 
HETATM   14  C   UNL     1      -6.579  -2.640 -34.649  1.00  0.00     0.037 A 
HETATM   15  C   UNL     1      -6.941  -1.322 -34.345  1.00  0.00     0.012 A 
BRANCH  13  16
HETATM   16  O   UNL     1      -4.804  -4.345 -34.639  1.00  0.00    -0.356 OA
HETATM   17  C   UNL     1      -3.738  -4.800 -33.815  1.00  0.00     0.210 C 
ENDBRANCH  13  16
ENDBRANCH   7  10
ENDBRANCH   5   7
ENDBRANCH   1   5
BRANCH   2  18
HETATM   18  C   UNL     1      -2.624   3.663 -32.238  1.00  0.00     0.126 A 
HETATM   19  N   UNL     1      -1.929   4.196 -31.194  1.00  0.00    -0.224 NA
HETATM   20  C   UNL     1      -1.185   5.305 -31.457  1.00  0.00     0.151 A 
HETATM   21  C   UNL     1      -1.101   5.875 -32.727  1.00  0.00     0.052 A 
HETATM   22  C   UNL     1      -1.816   5.297 -33.774  1.00  0.00     0.006 A 
HETATM   23  C   UNL     1      -2.598   4.174 -33.528  1.00  0.00     0.037 A 
BRANCH  20  24
HETATM   24  N   UNL     1      -0.478   5.914 -30.375  1.00  0.00    -0.227 N 
HETATM   25  N   UNL     1       0.197   5.187 -29.441  1.00  0.00    -0.179 NA
HETATM   26  C   UNL     1       0.729   6.103 -28.630  1.00  0.00     0.141 A 
HETATM   27  C   UNL     1       0.413   7.415 -29.013  1.00  0.00     0.040 A 
HETATM   28  C   UNL     1      -0.366   7.267 -30.134  1.00  0.00     0.122 A 
ENDBRANCH  20  24
ENDBRANCH   2  18
TORSDOF 7
ENDMDL
MODEL 2
REMARK VINA RESULT:      -7.9      2.993      9.191
REMARK  7 active torsions:
REMARK  status: ('A' for Active; 'I' for Inactive)
REMARK    1  A    between atoms: C_2  and  N_3 
REMARK    2  A    between atoms: C_2  and  C_17 
REMARK       I    between atoms: N_3  and  C_4 
REMARK    3  A    between atoms: C_4  and  C_5 
REMARK    4  A    between atoms: C_7  and  N_8 
REMARK    5  A    between atoms: C_17  and  O_18 
REMARK    6  A    between atoms: C_17  and  C_19 
REMARK    7  A    between atoms: C_22  and  O_23 
ROOT
HETATM    1  N   UNL     1      -3.103   4.610 -32.940  1.00  0.00    -0.349 N 
HETATM    2  C   UNL     1      -3.051   3.729 -31.883  1.00  0.00     0.270 C 
HETATM    3  O   UNL     1      -2.053   3.535 -31.200  1.00  0.00    -0.266 OA
HETATM    4  H   UNL     1      -3.943   4.585 -33.514  1.00  0.00     0.163 HD
ENDROOT
BRANCH   1   5
HETATM    5  C   UNL     1      -1.933   5.323 -33.456  1.00  0.00     0.114 C 
HETATM    6  C   UNL     1      -1.884   5.173 -34.979  1.00  0.00     0.035 C 
BRANCH   5   7
HETATM    7  C   UNL     1      -1.980   6.801 -32.980  1.00  0.00     0.173 C 
BRANCH   7   8
HETATM    8  O   UNL     1      -1.466   7.673 -33.996  1.00  0.00    -0.389 OA
HETATM    9  H   UNL     1      -2.217   7.896 -34.575  1.00  0.00     0.210 HD
ENDBRANCH   7   8
BRANCH   7  10
HETATM   10  C   UNL     1      -1.290   7.055 -31.653  1.00  0.00    -0.028 A 
HETATM   11  C   UNL     1      -1.963   7.752 -30.642  1.00  0.00     0.012 A 
HETATM   12  C   UNL     1      -1.345   7.991 -29.412  1.00  0.00     0.037 A 
HETATM   13  C   UNL     1      -0.051   7.531 -29.162  1.00  0.00     0.068 A 
HETATM   14  C   UNL     1       0.626   6.834 -30.162  1.00  0.00     0.037 A 
HETATM   15  C   UNL     1       0.012   6.600 -31.398  1.00  0.00     0.012 A 
BRANCH  13  16
HETATM   16  O   UNL     1       0.431   7.829 -27.918  1.00  0.00    -0.356 OA
HETATM   17  C   UNL     1       1.569   8.680 -27.857  1.00  0.00     0.210 C 
ENDBRANCH  13  16
ENDBRANCH   7  10
ENDBRANCH   5   7
ENDBRANCH   1   5
BRANCH   2  18
HETATM   18  C   UNL     1      -4.332   2.994 -31.626  1.00  0.00     0.126 A 
HETATM   19  N   UNL     1      -4.756   2.158 -32.615  1.00  0.00    -0.224 NA
HETATM   20  C   UNL     1      -5.927   1.499 -32.399  1.00  0.00     0.151 A 
HETATM   21  C   UNL     1      -6.665   1.635 -31.223  1.00  0.00     0.052 A 
HETATM   22  C   UNL     1      -6.196   2.491 -30.228  1.00  0.00     0.006 A 
HETATM   23  C   UNL     1      -5.011   3.190 -30.432  1.00  0.00     0.037 A 
BRANCH  20  24
HETATM   24  N   UNL     1      -6.422   0.647 -33.433  1.00  0.00    -0.227 N 
HETATM   25  N   UNL     1      -6.832   1.125 -34.641  1.00  0.00    -0.179 NA
HETATM   26  C   UNL     1      -7.194   0.036 -35.322  1.00  0.00     0.141 A 
HETATM   27  C   UNL     1      -7.032  -1.145 -34.582  1.00  0.00     0.040 A 
HETATM   28  C   UNL     1      -6.538  -0.726 -33.371  1.00  0.00     0.122 A 
ENDBRANCH  20  24
ENDBRANCH   2  18
TORSDOF 7
ENDMDL
MODEL 3
REMARK VINA RESULT:      -7.8      1.519      2.072
REMARK  7 active torsions:
REMARK  status: ('A' for Active; 'I' for Inactive)
REMARK    1  A    between atoms: C_2  and  N_3 
REMARK    2  A    between atoms: C_2  and  C_17 
REMARK       I    between atoms: N_3  and  C_4 
REMARK    3  A    between atoms: C_4  and  C_5 
REMARK    4  A    between atoms: C_7  and  N_8 
REMARK    5  A    between atoms: C_17  and  O_18 
REMARK    6  A    between atoms: C_17  and  C_19 
REMARK    7  A    between atoms: C_22  and  O_23 
ROOT
HETATM    1  N   UNL     1      -5.192   2.986 -32.870  1.00  0.00    -0.349 N 
HETATM    2  C   UNL     1      -5.046   4.340 -33.071  1.00  0.00     0.270 C 
HETATM    3  O   UNL     1      -5.977   5.136 -33.083  1.00  0.00    -0.266 OA
HETATM    4  H   UNL     1      -4.365   2.411 -33.016  1.00  0.00     0.163 HD
ENDROOT
BRANCH   1   5
HETATM    5  C   UNL     1      -6.492   2.317 -32.778  1.00  0.00     0.114 C 
HETATM    6  C   UNL     1      -7.067   2.140 -34.186  1.00  0.00     0.035 C 
BRANCH   5   7
HETATM    7  C   UNL     1      -6.329   0.981 -32.003  1.00  0.00     0.173 C 
BRANCH   7   8
HETATM    8  O   UNL     1      -5.333   1.112 -30.979  1.00  0.00    -0.389 OA
HETATM    9  H   UNL     1      -4.713   1.800 -31.283  1.00  0.00     0.210 HD
ENDBRANCH   7   8
BRANCH   7  10
HETATM   10  C   UNL     1      -6.045  -0.223 -32.880  1.00  0.00    -0.028 A 
HETATM   11  C   UNL     1      -7.109  -0.958 -33.417  1.00  0.00     0.012 A 
HETATM   12  C   UNL     1      -6.865  -2.068 -34.230  1.00  0.00     0.037 A 
HETATM   13  C   UNL     1      -5.560  -2.459 -34.533  1.00  0.00     0.068 A 
HETATM   14  C   UNL     1      -4.494  -1.732 -34.005  1.00  0.00     0.037 A 
HETATM   15  C   UNL     1      -4.735  -0.624 -33.183  1.00  0.00     0.012 A 
BRANCH  13  16
HETATM   16  O   UNL     1      -5.464  -3.556 -35.342  1.00  0.00    -0.356 OA
HETATM   17  C   UNL     1      -6.427  -4.584 -35.147  1.00  0.00     0.210 C 
ENDBRANCH  13  16
ENDBRANCH   7  10
ENDBRANCH   5   7
ENDBRANCH   1   5
BRANCH   2  18
HETATM   18  C   UNL     1      -3.631   4.784 -33.291  1.00  0.00     0.126 A 
HETATM   19  N   UNL     1      -2.866   4.934 -32.174  1.00  0.00    -0.224 NA
HETATM   20  C   UNL     1      -1.585   5.353 -32.362  1.00  0.00     0.151 A 
HETATM   21  C   UNL     1      -1.048   5.601 -33.626  1.00  0.00     0.052 A 
HETATM   22  C   UNL     1      -1.856   5.426 -34.747  1.00  0.00     0.006 A 
HETATM   23  C   UNL     1      -3.175   5.016 -34.581  1.00  0.00     0.037 A 
BRANCH  20  24
HETATM   24  N   UNL     1      -0.768   5.561 -31.209  1.00  0.00    -0.227 N 
HETATM   25  N   UNL     1      -0.085   4.550 -30.603  1.00  0.00    -0.179 NA
HETATM   26  C   UNL     1       0.561   5.143 -29.598  1.00  0.00     0.141 A 
HETATM   27  C   UNL     1       0.312   6.522 -29.531  1.00  0.00     0.040 A 
HETATM   28  C   UNL     1      -0.547   6.766 -30.574  1.00  0.00     0.122 A 
ENDBRANCH  20  24
ENDBRANCH   2  18
TORSDOF 7
ENDMDL
MODEL 4
REMARK VINA RESULT:      -7.4      4.506      7.729
REMARK  7 active torsions:
REMARK  status: ('A' for Active; 'I' for Inactive)
REMARK    1  A    between atoms: C_2  and  N_3 
REMARK    2  A    between atoms: C_2  and  C_17 
REMARK       I    between atoms: N_3  and  C_4 
REMARK    3  A    between atoms: C_4  and  C_5 
REMARK    4  A    between atoms: C_7  and  N_8 
REMARK    5  A    between atoms: C_17  and  O_18 
REMARK    6  A    between atoms: C_17  and  C_19 
REMARK    7  A    between atoms: C_22  and  O_23 
ROOT
HETATM    1  N   UNL     1      -6.316   1.903 -32.242  1.00  0.00    -0.349 N 
HETATM    2  C   UNL     1      -4.944   1.861 -32.344  1.00  0.00     0.270 C 
HETATM    3  O   UNL     1      -4.231   2.856 -32.403  1.00  0.00    -0.266 OA
HETATM    4  H   UNL     1      -6.808   1.016 -32.337  1.00  0.00     0.163 HD
ENDROOT
BRANCH   1   5
HETATM    5  C   UNL     1      -7.097   3.139 -32.324  1.00  0.00     0.114 C 
HETATM    6  C   UNL     1      -7.355   3.475 -33.796  1.00  0.00     0.035 C 
BRANCH   5   7
HETATM    7  C   UNL     1      -8.396   2.983 -31.487  1.00  0.00     0.173 C 
BRANCH   7   8
HETATM    8  O   UNL     1      -8.148   2.195 -30.315  1.00  0.00    -0.389 OA
HETATM    9  H   UNL     1      -7.428   2.639 -29.830  1.00  0.00     0.210 HD
ENDBRANCH   7   8
BRANCH   7  10
HETATM   10  C   UNL     1      -9.580   2.436 -32.262  1.00  0.00    -0.028 A 
HETATM   11  C   UNL     1      -9.626   1.076 -32.592  1.00  0.00     0.012 A 
HETATM   12  C   UNL     1     -10.710   0.554 -33.302  1.00  0.00     0.037 A 
HETATM   13  C   UNL     1     -11.773   1.373 -33.686  1.00  0.00     0.068 A 
HETATM   14  C   UNL     1     -11.738   2.728 -33.360  1.00  0.00     0.037 A 
HETATM   15  C   UNL     1     -10.648   3.255 -32.655  1.00  0.00     0.012 A 
BRANCH  13  16
HETATM   16  O   UNL     1     -12.770   0.734 -34.369  1.00  0.00    -0.356 OA
HETATM   17  C   UNL     1     -13.519  -0.239 -33.652  1.00  0.00     0.210 C 
ENDBRANCH  13  16
ENDBRANCH   7  10
ENDBRANCH   5   7
ENDBRANCH   1   5
BRANCH   2  18
HETATM   18  C   UNL     1      -4.368   0.479 -32.392  1.00  0.00     0.126 A 
HETATM   19  N   UNL     1      -5.038  -0.428 -33.158  1.00  0.00    -0.224 NA
HETATM   20  C   UNL     1      -4.532  -1.691 -33.194  1.00  0.00     0.151 A 
HETATM   21  C   UNL     1      -3.374  -2.061 -32.511  1.00  0.00     0.052 A 
HETATM   22  C   UNL     1      -2.708  -1.105 -31.747  1.00  0.00     0.006 A 
HETATM   23  C   UNL     1      -3.214   0.188 -31.677  1.00  0.00     0.037 A 
BRANCH  20  24
HETATM   24  N   UNL     1      -5.235  -2.676 -33.954  1.00  0.00    -0.227 N 
HETATM   25  N   UNL     1      -4.672  -3.864 -34.309  1.00  0.00    -0.179 NA
HETATM   26  C   UNL     1      -5.635  -4.500 -34.977  1.00  0.00     0.141 A 
HETATM   27  C   UNL     1      -6.818  -3.750 -35.070  1.00  0.00     0.040 A 
HETATM   28  C   UNL     1      -6.534  -2.580 -34.408  1.00  0.00     0.122 A 
ENDBRANCH  20  24
ENDBRANCH   2  18
TORSDOF 7
ENDMDL
MODEL 5
REMARK VINA RESULT:      -7.4      2.978      9.716
REMARK  7 active torsions:
REMARK  status: ('A' for Active; 'I' for Inactive)
REMARK    1  A    between atoms: C_2  and  N_3 
REMARK    2  A    between atoms: C_2  and  C_17 
REMARK       I    between atoms: N_3  and  C_4 
REMARK    3  A    between atoms: C_4  and  C_5 
REMARK    4  A    between atoms: C_7  and  N_8 
REMARK    5  A    between atoms: C_17  and  O_18 
REMARK    6  A    between atoms: C_17  and  C_19 
REMARK    7  A    between atoms: C_22  and  O_23 
ROOT
HETATM    1  N   UNL     1      -1.585   4.854 -30.868  1.00  0.00    -0.349 N 
HETATM    2  C   UNL     1      -2.216   4.285 -31.950  1.00  0.00     0.270 C 
HETATM    3  O   UNL     1      -1.936   4.535 -33.117  1.00  0.00    -0.266 OA
HETATM    4  H   UNL     1      -1.993   4.671 -29.953  1.00  0.00     0.163 HD
ENDROOT
BRANCH   1   5
HETATM    5  C   UNL     1      -0.592   5.925 -30.980  1.00  0.00     0.114 C 
HETATM    6  C   UNL     1      -1.293   7.278 -30.835  1.00  0.00     0.035 C 
BRANCH   5   7
HETATM    7  C   UNL     1       0.534   5.694 -29.936  1.00  0.00     0.173 C 
BRANCH   7   8
HETATM    8  O   UNL     1       0.576   4.317 -29.537  1.00  0.00    -0.389 OA
HETATM    9  H   UNL     1       0.257   4.285 -28.617  1.00  0.00     0.210 HD
ENDBRANCH   7   8
BRANCH   7  10
HETATM   10  C   UNL     1       0.461   6.603 -28.724  1.00  0.00    -0.028 A 
HETATM   11  C   UNL     1      -0.225   6.181 -27.578  1.00  0.00     0.012 A 
HETATM   12  C   UNL     1      -0.298   7.003 -26.451  1.00  0.00     0.037 A 
HETATM   13  C   UNL     1       0.318   8.256 -26.440  1.00  0.00     0.068 A 
HETATM   14  C   UNL     1       1.005   8.684 -27.575  1.00  0.00     0.037 A 
HETATM   15  C   UNL     1       1.074   7.865 -28.708  1.00  0.00     0.012 A 
BRANCH  13  16
HETATM   16  O   UNL     1       0.173   8.954 -25.274  1.00  0.00    -0.356 OA
HETATM   17  C   UNL     1      -1.156   9.243 -24.859  1.00  0.00     0.210 C 
ENDBRANCH  13  16
ENDBRANCH   7  10
ENDBRANCH   5   7
ENDBRANCH   1   5
BRANCH   2  18
HETATM   18  C   UNL     1      -3.307   3.321 -31.595  1.00  0.00     0.126 A 
HETATM   19  N   UNL     1      -3.145   2.039 -32.029  1.00  0.00    -0.224 NA
HETATM   20  C   UNL     1      -4.138   1.160 -31.726  1.00  0.00     0.151 A 
HETATM   21  C   UNL     1      -5.266   1.519 -30.988  1.00  0.00     0.052 A 
HETATM   22  C   UNL     1      -5.394   2.836 -30.550  1.00  0.00     0.006 A 
HETATM   23  C   UNL     1      -4.402   3.758 -30.862  1.00  0.00     0.037 A 
BRANCH  20  24
HETATM   24  N   UNL     1      -4.020  -0.181 -32.203  1.00  0.00    -0.227 N 
HETATM   25  N   UNL     1      -3.284  -1.126 -31.554  1.00  0.00    -0.179 NA
HETATM   26  C   UNL     1      -3.439  -2.229 -32.288  1.00  0.00     0.141 A 
HETATM   27  C   UNL     1      -4.260  -2.023 -33.408  1.00  0.00     0.040 A 
HETATM   28  C   UNL     1      -4.618  -0.699 -33.333  1.00  0.00     0.122 A 
ENDBRANCH  20  24
ENDBRANCH   2  18
TORSDOF 7
ENDMDL
MODEL 6
REMARK VINA RESULT:      -7.4      3.357      8.830
REMARK  7 active torsions:
REMARK  status: ('A' for Active; 'I' for Inactive)
REMARK    1  A    between atoms: C_2  and  N_3 
REMARK    2  A    between atoms: C_2  and  C_17 
REMARK       I    between atoms: N_3  and  C_4 
REMARK    3  A    between atoms: C_4  and  C_5 
REMARK    4  A    between atoms: C_7  and  N_8 
REMARK    5  A    between atoms: C_17  and  O_18 
REMARK    6  A    between atoms: C_17  and  C_19 
REMARK    7  A    between atoms: C_22  and  O_23 
ROOT
HETATM    1  N   UNL     1      -2.657   4.440 -33.190  1.00  0.00    -0.349 N 
HETATM    2  C   UNL     1      -2.683   3.638 -32.072  1.00  0.00     0.270 C 
HETATM    3  O   UNL     1      -1.848   3.683 -31.176  1.00  0.00    -0.266 OA
HETATM    4  H   UNL     1      -3.325   4.219 -33.926  1.00  0.00     0.163 HD
ENDROOT
BRANCH   1   5
HETATM    5  C   UNL     1      -1.556   5.353 -33.506  1.00  0.00     0.114 C 
HETATM    6  C   UNL     1      -1.273   5.296 -35.010  1.00  0.00     0.035 C 
BRANCH   5   7
HETATM    7  C   UNL     1      -1.905   6.777 -32.994  1.00  0.00     0.173 C 
BRANCH   7   8
HETATM    8  O   UNL     1      -1.593   7.760 -33.991  1.00  0.00    -0.389 OA
HETATM    9  H   UNL     1      -2.067   7.495 -34.800  1.00  0.00     0.210 HD
ENDBRANCH   7   8
BRANCH   7  10
HETATM   10  C   UNL     1      -1.271   7.138 -31.664  1.00  0.00    -0.028 A 
HETATM   11  C   UNL     1      -1.972   7.941 -30.755  1.00  0.00     0.012 A 
HETATM   12  C   UNL     1      -1.406   8.280 -29.524  1.00  0.00     0.037 A 
HETATM   13  C   UNL     1      -0.137   7.818 -29.170  1.00  0.00     0.068 A 
HETATM   14  C   UNL     1       0.567   7.016 -30.067  1.00  0.00     0.037 A 
HETATM   15  C   UNL     1       0.005   6.681 -31.305  1.00  0.00     0.012 A 
BRANCH  13  16
HETATM   16  O   UNL     1       0.295   8.219 -27.937  1.00  0.00    -0.356 OA
HETATM   17  C   UNL     1       1.055   7.281 -27.186  1.00  0.00     0.210 C 
ENDBRANCH  13  16
ENDBRANCH   7  10
ENDBRANCH   5   7
ENDBRANCH   1   5
BRANCH   2  18
HETATM   18  C   UNL     1      -3.827   2.671 -32.030  1.00  0.00     0.126 A 
HETATM   19  N   UNL     1      -5.029   3.175 -31.630  1.00  0.00    -0.224 NA
HETATM   20  C   UNL     1      -6.070   2.301 -31.572  1.00  0.00     0.151 A 
HETATM   21  C   UNL     1      -5.949   0.956 -31.922  1.00  0.00     0.052 A 
HETATM   22  C   UNL     1      -4.708   0.477 -32.337  1.00  0.00     0.006 A 
HETATM   23  C   UNL     1      -3.623   1.345 -32.387  1.00  0.00     0.037 A 
BRANCH  20  24
HETATM   24  N   UNL     1      -7.333   2.788 -31.117  1.00  0.00    -0.227 N 
HETATM   25  N   UNL     1      -7.445   3.820 -30.234  1.00  0.00    -0.179 NA
HETATM   26  C   UNL     1      -8.760   3.983 -30.081  1.00  0.00     0.141 A 
HETATM   27  C   UNL     1      -9.512   3.076 -30.843  1.00  0.00     0.040 A 
HETATM   28  C   UNL     1      -8.573   2.317 -31.497  1.00  0.00     0.122 A 
ENDBRANCH  20  24
ENDBRANCH   2  18
TORSDOF 7
ENDMDL
MODEL 7
REMARK VINA RESULT:      -7.3      3.532      7.513
REMARK  7 active torsions:
REMARK  status: ('A' for Active; 'I' for Inactive)
REMARK    1  A    between atoms: C_2  and  N_3 
REMARK    2  A    between atoms: C_2  and  C_17 
REMARK       I    between atoms: N_3  and  C_4 
REMARK    3  A    between atoms: C_4  and  C_5 
REMARK    4  A    between atoms: C_7  and  N_8 
REMARK    5  A    between atoms: C_17  and  O_18 
REMARK    6  A    between atoms: C_17  and  C_19 
REMARK    7  A    between atoms: C_22  and  O_23 
ROOT
HETATM    1  N   UNL     1      -5.576   1.531 -31.986  1.00  0.00    -0.349 N 
HETATM    2  C   UNL     1      -6.489   1.847 -32.967  1.00  0.00     0.270 C 
HETATM    3  O   UNL     1      -6.258   1.772 -34.168  1.00  0.00    -0.266 OA
HETATM    4  H   UNL     1      -5.837   1.761 -31.030  1.00  0.00     0.163 HD
ENDROOT
BRANCH   1   5
HETATM    5  C   UNL     1      -4.178   1.193 -32.260  1.00  0.00     0.114 C 
HETATM    6  C   UNL     1      -3.293   2.394 -31.915  1.00  0.00     0.035 C 
BRANCH   5   7
HETATM    7  C   UNL     1      -3.799  -0.099 -31.485  1.00  0.00     0.173 C 
BRANCH   7   8
HETATM    8  O   UNL     1      -2.470   0.005 -30.954  1.00  0.00    -0.389 OA
HETATM    9  H   UNL     1      -2.470  -0.484 -30.112  1.00  0.00     0.210 HD
ENDBRANCH   7   8
BRANCH   7  10
HETATM   10  C   UNL     1      -3.963  -1.379 -32.281  1.00  0.00    -0.028 A 
HETATM   11  C   UNL     1      -4.849  -1.415 -33.365  1.00  0.00     0.012 A 
HETATM   12  C   UNL     1      -5.008  -2.585 -34.113  1.00  0.00     0.037 A 
HETATM   13  C   UNL     1      -4.282  -3.736 -33.802  1.00  0.00     0.068 A 
HETATM   14  C   UNL     1      -3.396  -3.709 -32.726  1.00  0.00     0.037 A 
HETATM   15  C   UNL     1      -3.240  -2.540 -31.971  1.00  0.00     0.012 A 
BRANCH  13  16
HETATM   16  O   UNL     1      -4.531  -4.806 -34.615  1.00  0.00    -0.356 OA
HETATM   17  C   UNL     1      -5.817  -4.868 -35.220  1.00  0.00     0.210 C 
ENDBRANCH  13  16
ENDBRANCH   7  10
ENDBRANCH   5   7
ENDBRANCH   1   5
BRANCH   2  18
HETATM   18  C   UNL     1      -7.816   2.313 -32.451  1.00  0.00     0.126 A 
HETATM   19  N   UNL     1      -8.857   2.261 -33.330  1.00  0.00    -0.224 NA
HETATM   20  C   UNL     1     -10.063   2.698 -32.876  1.00  0.00     0.151 A 
HETATM   21  C   UNL     1     -10.259   3.158 -31.573  1.00  0.00     0.052 A 
HETATM   22  C   UNL     1      -9.175   3.186 -30.698  1.00  0.00     0.006 A 
HETATM   23  C   UNL     1      -7.928   2.763 -31.142  1.00  0.00     0.037 A 
BRANCH  20  24
HETATM   24  N   UNL     1     -11.165   2.697 -33.784  1.00  0.00    -0.227 N 
HETATM   25  N   UNL     1     -11.137   3.369 -34.969  1.00  0.00    -0.179 NA
HETATM   26  C   UNL     1     -12.321   3.108 -35.525  1.00  0.00     0.141 A 
HETATM   27  C   UNL     1     -13.125   2.281 -34.727  1.00  0.00     0.040 A 
HETATM   28  C   UNL     1     -12.362   2.033 -33.612  1.00  0.00     0.122 A 
ENDBRANCH  20  24
ENDBRANCH   2  18
TORSDOF 7
ENDMDL
MODEL 8
REMARK VINA RESULT:      -7.3      2.877      8.531
REMARK  7 active torsions:
REMARK  status: ('A' for Active; 'I' for Inactive)
REMARK    1  A    between atoms: C_2  and  N_3 
REMARK    2  A    between atoms: C_2  and  C_17 
REMARK       I    between atoms: N_3  and  C_4 
REMARK    3  A    between atoms: C_4  and  C_5 
REMARK    4  A    between atoms: C_7  and  N_8 
REMARK    5  A    between atoms: C_17  and  O_18 
REMARK    6  A    between atoms: C_17  and  C_19 
REMARK    7  A    between atoms: C_22  and  O_23 
ROOT
HETATM    1  N   UNL     1      -4.686   3.887 -33.379  1.00  0.00    -0.349 N 
HETATM    2  C   UNL     1      -5.664   2.924 -33.273  1.00  0.00     0.270 C 
HETATM    3  O   UNL     1      -6.843   3.111 -33.550  1.00  0.00    -0.266 OA
HETATM    4  H   UNL     1      -3.774   3.655 -32.993  1.00  0.00     0.163 HD
ENDROOT
BRANCH   1   5
HETATM    5  C   UNL     1      -4.962   5.287 -33.709  1.00  0.00     0.114 C 
HETATM    6  C   UNL     1      -5.511   5.998 -32.469  1.00  0.00     0.035 C 
BRANCH   5   7
HETATM    7  C   UNL     1      -3.675   5.943 -34.281  1.00  0.00     0.173 C 
BRANCH   7   8
HETATM    8  O   UNL     1      -3.238   5.249 -35.458  1.00  0.00    -0.389 OA
HETATM    9  H   UNL     1      -2.500   4.675 -35.183  1.00  0.00     0.210 HD
ENDBRANCH   7   8
BRANCH   7  10
HETATM   10  C   UNL     1      -2.542   6.077 -33.283  1.00  0.00    -0.028 A 
HETATM   11  C   UNL     1      -1.908   4.928 -32.792  1.00  0.00     0.012 A 
HETATM   12  C   UNL     1      -0.859   5.032 -31.876  1.00  0.00     0.037 A 
HETATM   13  C   UNL     1      -0.415   6.281 -31.438  1.00  0.00     0.068 A 
HETATM   14  C   UNL     1      -1.037   7.431 -31.923  1.00  0.00     0.037 A 
HETATM   15  C   UNL     1      -2.094   7.328 -32.836  1.00  0.00     0.012 A 
BRANCH  13  16
HETATM   16  O   UNL     1       0.620   6.240 -30.546  1.00  0.00    -0.356 OA
HETATM   17  C   UNL     1       0.695   5.098 -29.702  1.00  0.00     0.210 C 
ENDBRANCH  13  16
ENDBRANCH   7  10
ENDBRANCH   5   7
ENDBRANCH   1   5
BRANCH   2  18
HETATM   18  C   UNL     1      -5.176   1.599 -32.771  1.00  0.00     0.126 A 
HETATM   19  N   UNL     1      -5.537   0.507 -33.503  1.00  0.00    -0.224 NA
HETATM   20  C   UNL     1      -5.113  -0.703 -33.045  1.00  0.00     0.151 A 
HETATM   21  C   UNL     1      -4.327  -0.846 -31.902  1.00  0.00     0.052 A 
HETATM   22  C   UNL     1      -3.967   0.293 -31.185  1.00  0.00     0.006 A 
HETATM   23  C   UNL     1      -4.403   1.540 -31.620  1.00  0.00     0.037 A 
BRANCH  20  24
HETATM   24  N   UNL     1      -5.510  -1.871 -33.765  1.00  0.00    -0.227 N 
HETATM   25  N   UNL     1      -4.630  -2.852 -34.110  1.00  0.00    -0.179 NA
HETATM   26  C   UNL     1      -5.377  -3.761 -34.739  1.00  0.00     0.141 A 
HETATM   27  C   UNL     1      -6.729  -3.393 -34.816  1.00  0.00     0.040 A 
HETATM   28  C   UNL     1      -6.788  -2.173 -34.186  1.00  0.00     0.122 A 
ENDBRANCH  20  24
ENDBRANCH   2  18
TORSDOF 7
ENDMDL
MODEL 9
REMARK VINA RESULT:      -7.3      6.206      9.761
REMARK  7 active torsions:
REMARK  status: ('A' for Active; 'I' for Inactive)
REMARK    1  A    between atoms: C_2  and  N_3 
REMARK    2  A    between atoms: C_2  and  C_17 
REMARK       I    between atoms: N_3  and  C_4 
REMARK    3  A    between atoms: C_4  and  C_5 
REMARK    4  A    between atoms: C_7  and  N_8 
REMARK    5  A    between atoms: C_17  and  O_18 
REMARK    6  A    between atoms: C_17  and  C_19 
REMARK    7  A    between atoms: C_22  and  O_23 
ROOT
HETATM    1  N   UNL     1     -11.019   0.852 -33.080  1.00  0.00    -0.349 N 
HETATM    2  C   UNL     1      -9.826   1.315 -33.588  1.00  0.00     0.270 C 
HETATM    3  O   UNL     1      -9.738   2.131 -34.497  1.00  0.00    -0.266 OA
HETATM    4  H   UNL     1     -10.964   0.079 -32.421  1.00  0.00     0.163 HD
ENDROOT
BRANCH   1   5
HETATM    5  C   UNL     1     -12.325   1.181 -33.654  1.00  0.00     0.114 C 
HETATM    6  C   UNL     1     -13.187  -0.084 -33.701  1.00  0.00     0.035 C 
BRANCH   5   7
HETATM    7  C   UNL     1     -12.967   2.339 -32.842  1.00  0.00     0.173 C 
BRANCH   7   8
HETATM    8  O   UNL     1     -14.229   1.930 -32.296  1.00  0.00    -0.389 OA
HETATM    9  H   UNL     1     -14.050   1.619 -31.390  1.00  0.00     0.210 HD
ENDBRANCH   7   8
BRANCH   7  10
HETATM   10  C   UNL     1     -13.109   3.640 -33.609  1.00  0.00    -0.028 A 
HETATM   11  C   UNL     1     -12.700   3.706 -34.947  1.00  0.00     0.012 A 
HETATM   12  C   UNL     1     -12.828   4.895 -35.670  1.00  0.00     0.037 A 
HETATM   13  C   UNL     1     -13.374   6.035 -35.078  1.00  0.00     0.068 A 
HETATM   14  C   UNL     1     -13.785   5.978 -33.748  1.00  0.00     0.037 A 
HETATM   15  C   UNL     1     -13.652   4.790 -33.019  1.00  0.00     0.012 A 
BRANCH  13  16
HETATM   16  O   UNL     1     -13.445   7.127 -35.898  1.00  0.00    -0.356 OA
HETATM   17  C   UNL     1     -14.057   6.937 -37.168  1.00  0.00     0.210 C 
ENDBRANCH  13  16
ENDBRANCH   7  10
ENDBRANCH   5   7
ENDBRANCH   1   5
BRANCH   2  18
HETATM   18  C   UNL     1      -8.608   0.727 -32.942  1.00  0.00     0.126 A 
HETATM   19  N   UNL     1      -7.932  -0.208 -33.668  1.00  0.00    -0.224 NA
HETATM   20  C   UNL     1      -6.835  -0.760 -33.083  1.00  0.00     0.151 A 
HETATM   21  C   UNL     1      -6.386  -0.390 -31.815  1.00  0.00     0.052 A 
HETATM   22  C   UNL     1      -7.095   0.578 -31.106  1.00  0.00     0.006 A 
HETATM   23  C   UNL     1      -8.231   1.145 -31.673  1.00  0.00     0.037 A 
BRANCH  20  24
HETATM   24  N   UNL     1      -6.128  -1.774 -33.800  1.00  0.00    -0.227 N 
HETATM   25  N   UNL     1      -6.764  -2.719 -34.548  1.00  0.00    -0.179 NA
HETATM   26  C   UNL     1      -5.776  -3.453 -35.063  1.00  0.00     0.141 A 
HETATM   27  C   UNL     1      -4.506  -3.008 -34.665  1.00  0.00     0.040 A 
HETATM   28  C   UNL     1      -4.759  -1.931 -33.851  1.00  0.00     0.122 A 
ENDBRANCH  20  24
ENDBRANCH   2  18
TORSDOF 7
ENDMDL
MODEL 10
REMARK VINA RESULT:      -7.2      3.165      8.269
REMARK  7 active torsions:
REMARK  status: ('A' for Active; 'I' for Inactive)
REMARK    1  A    between atoms: C_2  and  N_3 
REMARK    2  A    between atoms: C_2  and  C_17 
REMARK       I    between atoms: N_3  and  C_4 
REMARK    3  A    between atoms: C_4  and  C_5 
REMARK    4  A    between atoms: C_7  and  N_8 
REMARK    5  A    between atoms: C_17  and  O_18 
REMARK    6  A    between atoms: C_17  and  C_19 
REMARK    7  A    between atoms: C_22  and  O_23 
ROOT
HETATM    1  N   UNL     1      -4.466   2.818 -32.714  1.00  0.00    -0.349 N 
HETATM    2  C   UNL     1      -4.751   1.525 -32.338  1.00  0.00     0.270 C 
HETATM    3  O   UNL     1      -4.368   1.015 -31.292  1.00  0.00    -0.266 OA
HETATM    4  H   UNL     1      -4.723   3.084 -33.663  1.00  0.00     0.163 HD
ENDROOT
BRANCH   1   5
HETATM    5  C   UNL     1      -3.563   3.698 -31.970  1.00  0.00     0.114 C 
HETATM    6  C   UNL     1      -2.445   4.176 -32.901  1.00  0.00     0.035 C 
BRANCH   5   7
HETATM    7  C   UNL     1      -4.380   4.856 -31.335  1.00  0.00     0.173 C 
BRANCH   7   8
HETATM    8  O   UNL     1      -3.745   5.320 -30.135  1.00  0.00    -0.389 OA
HETATM    9  H   UNL     1      -4.430   5.321 -29.442  1.00  0.00     0.210 HD
ENDBRANCH   7   8
BRANCH   7  10
HETATM   10  C   UNL     1      -5.838   4.529 -31.080  1.00  0.00    -0.028 A 
HETATM   11  C   UNL     1      -6.206   3.858 -29.907  1.00  0.00     0.012 A 
HETATM   12  C   UNL     1      -7.545   3.552 -29.655  1.00  0.00     0.037 A 
HETATM   13  C   UNL     1      -8.545   3.919 -30.558  1.00  0.00     0.068 A 
HETATM   14  C   UNL     1      -8.189   4.590 -31.727  1.00  0.00     0.037 A 
HETATM   15  C   UNL     1      -6.846   4.891 -31.986  1.00  0.00     0.012 A 
BRANCH  13  16
HETATM   16  O   UNL     1      -9.811   3.564 -30.185  1.00  0.00    -0.356 OA
HETATM   17  C   UNL     1     -10.880   4.087 -30.964  1.00  0.00     0.210 C 
ENDBRANCH  13  16
ENDBRANCH   7  10
ENDBRANCH   5   7
ENDBRANCH   1   5
BRANCH   2  18
HETATM   18  C   UNL     1      -5.573   0.758 -33.329  1.00  0.00     0.126 A 
HETATM   19  N   UNL     1      -5.319  -0.578 -33.418  1.00  0.00    -0.224 NA
HETATM   20  C   UNL     1      -6.049  -1.280 -34.328  1.00  0.00     0.151 A 
HETATM   21  C   UNL     1      -7.031  -0.692 -35.125  1.00  0.00     0.052 A 
HETATM   22  C   UNL     1      -7.272   0.674 -34.999  1.00  0.00     0.006 A 
HETATM   23  C   UNL     1      -6.527   1.419 -34.091  1.00  0.00     0.037 A 
BRANCH  20  24
HETATM   24  N   UNL     1      -5.778  -2.675 -34.476  1.00  0.00    -0.227 N 
HETATM   25  N   UNL     1      -4.571  -3.224 -34.161  1.00  0.00    -0.179 NA
HETATM   26  C   UNL     1      -4.723  -4.524 -34.414  1.00  0.00     0.141 A 
HETATM   27  C   UNL     1      -6.005  -4.838 -34.892  1.00  0.00     0.040 A 
HETATM   28  C   UNL     1      -6.662  -3.632 -34.926  1.00  0.00     0.122 A 
ENDBRANCH  20  24
ENDBRANCH   2  18
TORSDOF 7
ENDMDL
