MODEL 1
REMARK VINA RESULT:      -7.5      0.000      0.000
REMARK  9 active torsions:
REMARK  status: ('A' for Active; 'I' for Inactive)
REMARK    1  A    between atoms: C_2  and  O_3 
REMARK    2  A    between atoms: O_3  and  C_4 
REMARK    3  A    between atoms: C_4  and  C_5 
REMARK    4  A    between atoms: C_7  and  C_8 
REMARK       I    between atoms: C_8  and  N_9 
REMARK    5  A    between atoms: N_9  and  N_10 
REMARK    6  A    between atoms: N_10  and  C_11 
REMARK    7  A    between atoms: C_11  and  N_12 
REMARK    8  A    between atoms: N_12  and  C_13 
REMARK    9  A    between atoms: C_13  and  C_14 
ROOT
HETATM    1  C   UNL     1      -5.024   3.505 -30.393  1.00  0.00     0.293 C 
HETATM    2  N   UNL     1      -3.758   3.715 -30.922  1.00  0.00    -0.262 N 
HETATM    3  O   UNL     1      -5.443   4.364 -29.615  1.00  0.00    -0.264 OA
HETATM    4  H   UNL     1      -3.421   4.648 -30.679  1.00  0.00     0.190 HD
ENDROOT
BRANCH   1   5
HETATM    5  C   UNL     1      -5.761   2.292 -30.697  1.00  0.00     0.145 A 
HETATM    6  O   UNL     1      -6.270   2.188 -31.971  1.00  0.00    -0.307 OA
HETATM    7  C   UNL     1      -6.995   1.040 -32.051  1.00  0.00     0.078 A 
HETATM    8  C   UNL     1      -6.944   0.373 -30.847  1.00  0.00     0.038 A 
HETATM    9  C   UNL     1      -6.156   1.175 -29.982  1.00  0.00     0.045 A 
BRANCH   7  10
HETATM   10  C   UNL     1      -7.661   0.765 -33.350  1.00  0.00     0.240 C 
BRANCH  10  11
HETATM   11  O   UNL     1      -6.620   0.501 -34.292  1.00  0.00    -0.345 OA
BRANCH  11  12
HETATM   12  C   UNL     1      -6.039  -0.735 -34.246  1.00  0.00     0.069 A 
HETATM   13  C   UNL     1      -6.599  -1.924 -34.717  1.00  0.00     0.038 A 
HETATM   14  C   UNL     1      -5.885  -3.124 -34.618  1.00  0.00     0.022 A 
HETATM   15  C   UNL     1      -4.612  -3.133 -34.049  1.00  0.00     0.011 A 
HETATM   16  C   UNL     1      -4.046  -1.953 -33.576  1.00  0.00     0.022 A 
HETATM   17 BR   UNL     1      -3.652  -4.755 -33.920  1.00  0.00    -0.051 Br
HETATM   18  C   UNL     1      -4.761  -0.757 -33.679  1.00  0.00     0.038 A 
ENDBRANCH  11  12
ENDBRANCH  10  11
ENDBRANCH   7  10
ENDBRANCH   1   5
BRANCH   2  19
HETATM   19  N   UNL     1      -3.369   3.293 -32.220  1.00  0.00    -0.274 N 
HETATM   20  H   UNL     1      -2.753   2.478 -32.230  1.00  0.00     0.189 HD
BRANCH  19  21
HETATM   21  C   UNL     1      -3.129   4.261 -33.165  1.00  0.00     0.186 C 
HETATM   22  S   UNL     1      -4.301   4.995 -34.111  1.00  0.00    -0.040 SA
BRANCH  21  23
HETATM   23  N   UNL     1      -1.845   4.661 -33.356  1.00  0.00    -0.364 N 
HETATM   24  H   UNL     1      -1.274   3.940 -33.785  1.00  0.00     0.162 HD
BRANCH  23  25
HETATM   25  C   UNL     1      -1.135   5.847 -32.884  1.00  0.00     0.154 C 
BRANCH  25  26
HETATM   26  C   UNL     1      -1.116   6.004 -31.358  1.00  0.00     0.139 C 
HETATM   27  O   UNL     1      -0.779   4.728 -30.759  1.00  0.00    -0.384 OA
HETATM   28  C   UNL     1       0.412   4.902 -29.977  1.00  0.00     0.168 C 
HETATM   29  C   UNL     1       0.447   6.366 -29.611  1.00  0.00     0.029 C 
HETATM   30  C   UNL     1      -0.068   7.002 -30.877  1.00  0.00     0.035 C 
ENDBRANCH  25  26
ENDBRANCH  23  25
ENDBRANCH  21  23
ENDBRANCH  19  21
ENDBRANCH   2  19
TORSDOF 9
ENDMDL
MODEL 2
REMARK VINA RESULT:      -7.5      2.531      4.075
REMARK  9 active torsions:
REMARK  status: ('A' for Active; 'I' for Inactive)
REMARK    1  A    between atoms: C_2  and  O_3 
REMARK    2  A    between atoms: O_3  and  C_4 
REMARK    3  A    between atoms: C_4  and  C_5 
REMARK    4  A    between atoms: C_7  and  C_8 
REMARK       I    between atoms: C_8  and  N_9 
REMARK    5  A    between atoms: N_9  and  N_10 
REMARK    6  A    between atoms: N_10  and  C_11 
REMARK    7  A    between atoms: C_11  and  N_12 
REMARK    8  A    between atoms: N_12  and  C_13 
REMARK    9  A    between atoms: C_13  and  C_14 
ROOT
HETATM    1  C   UNL     1      -1.517   5.553 -33.943  1.00  0.00     0.293 C 
HETATM    2  N   UNL     1      -0.694   5.953 -32.899  1.00  0.00    -0.262 N 
HETATM    3  O   UNL     1      -1.142   5.846 -35.080  1.00  0.00    -0.264 OA
HETATM    4  H   UNL     1       0.188   6.318 -33.260  1.00  0.00     0.190 HD
ENDROOT
BRANCH   1   5
HETATM    5  C   UNL     1      -2.783   4.896 -33.677  1.00  0.00     0.145 A 
HETATM    6  O   UNL     1      -2.718   3.673 -33.050  1.00  0.00    -0.307 OA
HETATM    7  C   UNL     1      -3.979   3.170 -32.958  1.00  0.00     0.078 A 
HETATM    8  C   UNL     1      -4.876   4.065 -33.496  1.00  0.00     0.038 A 
HETATM    9  C   UNL     1      -4.111   5.167 -33.956  1.00  0.00     0.045 A 
BRANCH   7  10
HETATM   10  C   UNL     1      -4.114   1.827 -32.337  1.00  0.00     0.240 C 
BRANCH  10  11
HETATM   11  O   UNL     1      -5.415   1.350 -32.681  1.00  0.00    -0.345 OA
BRANCH  11  12
HETATM   12  C   UNL     1      -5.495   0.099 -33.225  1.00  0.00     0.069 A 
HETATM   13  C   UNL     1      -4.522  -0.898 -33.139  1.00  0.00     0.038 A 
HETATM   14  C   UNL     1      -4.740  -2.146 -33.736  1.00  0.00     0.022 A 
HETATM   15  C   UNL     1      -5.930  -2.394 -34.417  1.00  0.00     0.011 A 
HETATM   16  C   UNL     1      -6.906  -1.406 -34.509  1.00  0.00     0.022 A 
HETATM   17 BR   UNL     1      -6.220  -4.080 -35.219  1.00  0.00    -0.051 Br
HETATM   18  C   UNL     1      -6.686  -0.163 -33.910  1.00  0.00     0.038 A 
ENDBRANCH  11  12
ENDBRANCH  10  11
ENDBRANCH   7  10
ENDBRANCH   1   5
BRANCH   2  19
HETATM   19  N   UNL     1      -0.552   5.225 -31.688  1.00  0.00    -0.274 N 
HETATM   20  H   UNL     1      -0.654   4.213 -31.791  1.00  0.00     0.189 HD
BRANCH  19  21
HETATM   21  C   UNL     1      -1.061   5.783 -30.540  1.00  0.00     0.186 C 
HETATM   22  S   UNL     1      -2.252   6.960 -30.489  1.00  0.00    -0.040 SA
BRANCH  21  23
HETATM   23  N   UNL     1      -0.567   5.355 -29.350  1.00  0.00    -0.364 N 
HETATM   24  H   UNL     1      -1.199   4.716 -28.875  1.00  0.00     0.162 HD
BRANCH  23  25
HETATM   25  C   UNL     1       0.595   5.797 -28.584  1.00  0.00     0.154 C 
BRANCH  25  26
HETATM   26  C   UNL     1       0.384   7.114 -27.825  1.00  0.00     0.139 C 
HETATM   27  O   UNL     1       0.797   6.935 -26.448  1.00  0.00    -0.384 OA
HETATM   28  C   UNL     1       1.838   7.882 -26.166  1.00  0.00     0.168 C 
HETATM   29  C   UNL     1       1.634   9.012 -27.145  1.00  0.00     0.029 C 
HETATM   30  C   UNL     1       1.220   8.261 -28.385  1.00  0.00     0.035 C 
ENDBRANCH  25  26
ENDBRANCH  23  25
ENDBRANCH  21  23
ENDBRANCH  19  21
ENDBRANCH   2  19
TORSDOF 9
ENDMDL
MODEL 3
REMARK VINA RESULT:      -7.3      1.957      2.753
REMARK  9 active torsions:
REMARK  status: ('A' for Active; 'I' for Inactive)
REMARK    1  A    between atoms: C_2  and  O_3 
REMARK    2  A    between atoms: O_3  and  C_4 
REMARK    3  A    between atoms: C_4  and  C_5 
REMARK    4  A    between atoms: C_7  and  C_8 
REMARK       I    between atoms: C_8  and  N_9 
REMARK    5  A    between atoms: N_9  and  N_10 
REMARK    6  A    between atoms: N_10  and  C_11 
REMARK    7  A    between atoms: C_11  and  N_12 
REMARK    8  A    between atoms: N_12  and  C_13 
REMARK    9  A    between atoms: C_13  and  C_14 
ROOT
HETATM    1  C   UNL     1      -6.366   4.889 -29.015  1.00  0.00     0.293 C 
HETATM    2  N   UNL     1      -5.098   5.450 -28.946  1.00  0.00    -0.262 N 
HETATM    3  O   UNL     1      -7.240   5.422 -28.327  1.00  0.00    -0.264 OA
HETATM    4  H   UNL     1      -5.125   6.327 -28.425  1.00  0.00     0.190 HD
ENDROOT
BRANCH   1   5
HETATM    5  C   UNL     1      -6.605   3.693 -29.802  1.00  0.00     0.145 A 
HETATM    6  O   UNL     1      -5.492   2.980 -30.184  1.00  0.00    -0.307 OA
HETATM    7  C   UNL     1      -5.894   1.950 -30.976  1.00  0.00     0.078 A 
HETATM    8  C   UNL     1      -7.266   1.964 -31.096  1.00  0.00     0.038 A 
HETATM    9  C   UNL     1      -7.719   3.079 -30.346  1.00  0.00     0.045 A 
BRANCH   7  10
HETATM   10  C   UNL     1      -4.824   1.077 -31.524  1.00  0.00     0.240 C 
BRANCH  10  11
HETATM   11  O   UNL     1      -5.028   1.023 -32.936  1.00  0.00    -0.345 OA
BRANCH  11  12
HETATM   12  C   UNL     1      -5.421  -0.176 -33.461  1.00  0.00     0.069 A 
HETATM   13  C   UNL     1      -6.707  -0.500 -33.896  1.00  0.00     0.038 A 
HETATM   14  C   UNL     1      -6.970  -1.769 -34.428  1.00  0.00     0.022 A 
HETATM   15  C   UNL     1      -5.946  -2.710 -34.524  1.00  0.00     0.011 A 
HETATM   16  C   UNL     1      -4.661  -2.396 -34.093  1.00  0.00     0.022 A 
HETATM   17 BR   UNL     1      -6.306  -4.419 -35.245  1.00  0.00    -0.051 Br
HETATM   18  C   UNL     1      -4.402  -1.128 -33.565  1.00  0.00     0.038 A 
ENDBRANCH  11  12
ENDBRANCH  10  11
ENDBRANCH   7  10
ENDBRANCH   1   5
BRANCH   2  19
HETATM   19  N   UNL     1      -4.186   5.465 -30.034  1.00  0.00    -0.274 N 
HETATM   20  H   UNL     1      -3.875   4.539 -30.335  1.00  0.00     0.189 HD
BRANCH  19  21
HETATM   21  C   UNL     1      -3.254   6.474 -30.076  1.00  0.00     0.186 C 
HETATM   22  S   UNL     1      -3.609   8.111 -30.125  1.00  0.00    -0.040 SA
BRANCH  21  23
HETATM   23  N   UNL     1      -1.940   6.128 -30.080  1.00  0.00    -0.364 N 
HETATM   24  H   UNL     1      -1.632   5.766 -29.183  1.00  0.00     0.162 HD
BRANCH  23  25
HETATM   25  C   UNL     1      -0.894   6.364 -31.072  1.00  0.00     0.154 C 
BRANCH  25  26
HETATM   26  C   UNL     1      -0.830   5.307 -32.182  1.00  0.00     0.139 C 
HETATM   27  O   UNL     1      -1.718   4.214 -31.842  1.00  0.00    -0.384 OA
HETATM   28  C   UNL     1      -2.688   4.082 -32.892  1.00  0.00     0.168 C 
HETATM   29  C   UNL     1      -2.036   4.667 -34.121  1.00  0.00     0.029 C 
HETATM   30  C   UNL     1      -1.290   5.838 -33.535  1.00  0.00     0.035 C 
ENDBRANCH  25  26
ENDBRANCH  23  25
ENDBRANCH  21  23
ENDBRANCH  19  21
ENDBRANCH   2  19
TORSDOF 9
ENDMDL
MODEL 4
REMARK VINA RESULT:      -7.2      2.246      3.141
REMARK  9 active torsions:
REMARK  status: ('A' for Active; 'I' for Inactive)
REMARK    1  A    between atoms: C_2  and  O_3 
REMARK    2  A    between atoms: O_3  and  C_4 
REMARK    3  A    between atoms: C_4  and  C_5 
REMARK    4  A    between atoms: C_7  and  C_8 
REMARK       I    between atoms: C_8  and  N_9 
REMARK    5  A    between atoms: N_9  and  N_10 
REMARK    6  A    between atoms: N_10  and  C_11 
REMARK    7  A    between atoms: C_11  and  N_12 
REMARK    8  A    between atoms: N_12  and  C_13 
REMARK    9  A    between atoms: C_13  and  C_14 
ROOT
HETATM    1  C   UNL     1      -4.303   5.747 -31.056  1.00  0.00     0.293 C 
HETATM    2  N   UNL     1      -3.186   5.246 -30.401  1.00  0.00    -0.262 N 
HETATM    3  O   UNL     1      -4.873   6.698 -30.519  1.00  0.00    -0.264 OA
HETATM    4  H   UNL     1      -2.927   5.855 -29.623  1.00  0.00     0.190 HD
ENDROOT
BRANCH   1   5
HETATM    5  C   UNL     1      -4.796   5.116 -32.266  1.00  0.00     0.145 A 
HETATM    6  O   UNL     1      -5.369   3.874 -32.119  1.00  0.00    -0.307 OA
HETATM    7  C   UNL     1      -5.694   3.403 -33.353  1.00  0.00     0.078 A 
HETATM    8  C   UNL     1      -5.365   4.337 -34.309  1.00  0.00     0.038 A 
HETATM    9  C   UNL     1      -4.790   5.432 -33.614  1.00  0.00     0.045 A 
BRANCH   7  10
HETATM   10  C   UNL     1      -6.297   2.046 -33.408  1.00  0.00     0.240 C 
BRANCH  10  11
HETATM   11  O   UNL     1      -5.232   1.120 -33.188  1.00  0.00    -0.345 OA
BRANCH  11  12
HETATM   12  C   UNL     1      -5.419  -0.159 -33.633  1.00  0.00     0.069 A 
HETATM   13  C   UNL     1      -4.476  -1.187 -33.599  1.00  0.00     0.038 A 
HETATM   14  C   UNL     1      -4.807  -2.460 -34.079  1.00  0.00     0.022 A 
HETATM   15  C   UNL     1      -6.080  -2.702 -34.591  1.00  0.00     0.011 A 
HETATM   16  C   UNL     1      -7.027  -1.684 -34.629  1.00  0.00     0.022 A 
HETATM   17 BR   UNL     1      -6.522  -4.423 -35.236  1.00  0.00    -0.051 Br
HETATM   18  C   UNL     1      -6.694  -0.415 -34.147  1.00  0.00     0.038 A 
ENDBRANCH  11  12
ENDBRANCH  10  11
ENDBRANCH   7  10
ENDBRANCH   1   5
BRANCH   2  19
HETATM   19  N   UNL     1      -2.071   4.679 -31.072  1.00  0.00    -0.274 N 
HETATM   20  H   UNL     1      -1.893   3.700 -30.838  1.00  0.00     0.189 HD
BRANCH  19  21
HETATM   21  C   UNL     1      -0.969   5.476 -31.274  1.00  0.00     0.186 C 
HETATM   22  S   UNL     1      -0.926   6.823 -32.269  1.00  0.00    -0.040 SA
BRANCH  21  23
HETATM   23  N   UNL     1       0.178   5.155 -30.621  1.00  0.00    -0.364 N 
HETATM   24  H   UNL     1       0.828   4.643 -31.209  1.00  0.00     0.162 HD
BRANCH  23  25
HETATM   25  C   UNL     1       0.532   5.256 -29.207  1.00  0.00     0.154 C 
BRANCH  25  26
HETATM   26  C   UNL     1       0.073   6.557 -28.536  1.00  0.00     0.139 C 
HETATM   27  O   UNL     1       0.248   6.433 -27.103  1.00  0.00    -0.384 OA
HETATM   28  C   UNL     1       1.134   7.475 -26.668  1.00  0.00     0.168 C 
HETATM   29  C   UNL     1       1.009   8.570 -27.699  1.00  0.00     0.029 C 
HETATM   30  C   UNL     1       0.891   7.769 -28.971  1.00  0.00     0.035 C 
ENDBRANCH  25  26
ENDBRANCH  23  25
ENDBRANCH  21  23
ENDBRANCH  19  21
ENDBRANCH   2  19
TORSDOF 9
ENDMDL
MODEL 5
REMARK VINA RESULT:      -7.2      2.547      3.269
REMARK  9 active torsions:
REMARK  status: ('A' for Active; 'I' for Inactive)
REMARK    1  A    between atoms: C_2  and  O_3 
REMARK    2  A    between atoms: O_3  and  C_4 
REMARK    3  A    between atoms: C_4  and  C_5 
REMARK    4  A    between atoms: C_7  and  C_8 
REMARK       I    between atoms: C_8  and  N_9 
REMARK    5  A    between atoms: N_9  and  N_10 
REMARK    6  A    between atoms: N_10  and  C_11 
REMARK    7  A    between atoms: C_11  and  N_12 
REMARK    8  A    between atoms: N_12  and  C_13 
REMARK    9  A    between atoms: C_13  and  C_14 
ROOT
HETATM    1  C   UNL     1      -4.047   5.627 -33.846  1.00  0.00     0.293 C 
HETATM    2  N   UNL     1      -3.551   6.434 -32.830  1.00  0.00    -0.262 N 
HETATM    3  O   UNL     1      -3.619   5.850 -34.980  1.00  0.00    -0.264 OA
HETATM    4  H   UNL     1      -2.784   7.011 -33.176  1.00  0.00     0.190 HD
ENDROOT
BRANCH   1   5
HETATM    5  C   UNL     1      -5.069   4.635 -33.572  1.00  0.00     0.145 A 
HETATM    6  O   UNL     1      -4.665   3.514 -32.883  1.00  0.00    -0.307 OA
HETATM    7  C   UNL     1      -5.723   2.664 -32.790  1.00  0.00     0.078 A 
HETATM    8  C   UNL     1      -6.827   3.228 -33.388  1.00  0.00     0.038 A 
HETATM    9  C   UNL     1      -6.408   4.488 -33.888  1.00  0.00     0.045 A 
BRANCH   7  10
HETATM   10  C   UNL     1      -5.475   1.368 -32.106  1.00  0.00     0.240 C 
BRANCH  10  11
HETATM   11  O   UNL     1      -4.599   0.624 -32.953  1.00  0.00    -0.345 OA
BRANCH  11  12
HETATM   12  C   UNL     1      -5.100  -0.515 -33.519  1.00  0.00     0.069 A 
HETATM   13  C   UNL     1      -6.382  -0.673 -34.048  1.00  0.00     0.038 A 
HETATM   14  C   UNL     1      -6.763  -1.897 -34.612  1.00  0.00     0.022 A 
HETATM   15  C   UNL     1      -5.861  -2.960 -34.645  1.00  0.00     0.011 A 
HETATM   16  C   UNL     1      -4.581  -2.811 -34.120  1.00  0.00     0.022 A 
HETATM   17 BR   UNL     1      -6.380  -4.608 -35.409  1.00  0.00    -0.051 Br
HETATM   18  C   UNL     1      -4.204  -1.587 -33.560  1.00  0.00     0.038 A 
ENDBRANCH  11  12
ENDBRANCH  10  11
ENDBRANCH   7  10
ENDBRANCH   1   5
BRANCH   2  19
HETATM   19  N   UNL     1      -3.369   5.990 -31.494  1.00  0.00    -0.274 N 
HETATM   20  H   UNL     1      -4.103   6.288 -30.848  1.00  0.00     0.189 HD
BRANCH  19  21
HETATM   21  C   UNL     1      -2.087   5.954 -30.999  1.00  0.00     0.186 C 
HETATM   22  S   UNL     1      -0.785   5.219 -31.754  1.00  0.00    -0.040 SA
BRANCH  21  23
HETATM   23  N   UNL     1      -1.848   6.557 -29.805  1.00  0.00    -0.364 N 
HETATM   24  H   UNL     1      -2.000   5.933 -29.018  1.00  0.00     0.162 HD
BRANCH  23  25
HETATM   25  C   UNL     1      -1.603   7.958 -29.477  1.00  0.00     0.154 C 
BRANCH  25  26
HETATM   26  C   UNL     1      -0.752   8.169 -28.217  1.00  0.00     0.139 C 
HETATM   27  O   UNL     1      -1.211   7.264 -27.183  1.00  0.00    -0.384 OA
HETATM   28  C   UNL     1      -0.110   6.427 -26.799  1.00  0.00     0.168 C 
HETATM   29  C   UNL     1       1.133   7.209 -27.144  1.00  0.00     0.029 C 
HETATM   30  C   UNL     1       0.725   7.862 -28.441  1.00  0.00     0.035 C 
ENDBRANCH  25  26
ENDBRANCH  23  25
ENDBRANCH  21  23
ENDBRANCH  19  21
ENDBRANCH   2  19
TORSDOF 9
ENDMDL
MODEL 6
REMARK VINA RESULT:      -7.2      2.758      3.658
REMARK  9 active torsions:
REMARK  status: ('A' for Active; 'I' for Inactive)
REMARK    1  A    between atoms: C_2  and  O_3 
REMARK    2  A    between atoms: O_3  and  C_4 
REMARK    3  A    between atoms: C_4  and  C_5 
REMARK    4  A    between atoms: C_7  and  C_8 
REMARK       I    between atoms: C_8  and  N_9 
REMARK    5  A    between atoms: N_9  and  N_10 
REMARK    6  A    between atoms: N_10  and  C_11 
REMARK    7  A    between atoms: C_11  and  N_12 
REMARK    8  A    between atoms: N_12  and  C_13 
REMARK    9  A    between atoms: C_13  and  C_14 
ROOT
HETATM    1  C   UNL     1      -8.902   5.042 -34.410  1.00  0.00     0.293 C 
HETATM    2  N   UNL     1      -7.675   5.510 -33.960  1.00  0.00    -0.262 N 
HETATM    3  O   UNL     1      -9.498   5.757 -35.218  1.00  0.00    -0.264 OA
HETATM    4  H   UNL     1      -7.391   6.333 -34.492  1.00  0.00     0.190 HD
ENDROOT
BRANCH   1   5
HETATM    5  C   UNL     1      -9.464   3.813 -33.884  1.00  0.00     0.145 A 
HETATM    6  O   UNL     1      -8.709   2.674 -34.049  1.00  0.00    -0.307 OA
HETATM    7  C   UNL     1      -9.420   1.615 -33.576  1.00  0.00     0.078 A 
HETATM    8  C   UNL     1     -10.626   2.052 -33.076  1.00  0.00     0.038 A 
HETATM    9  C   UNL     1     -10.654   3.456 -33.274  1.00  0.00     0.045 A 
BRANCH   7  10
HETATM   10  C   UNL     1      -8.782   0.279 -33.700  1.00  0.00     0.240 C 
BRANCH  10  11
HETATM   11  O   UNL     1      -7.486   0.499 -34.259  1.00  0.00    -0.345 OA
BRANCH  11  12
HETATM   12  C   UNL     1      -6.573  -0.509 -34.125  1.00  0.00     0.069 A 
HETATM   13  C   UNL     1      -5.371  -0.440 -33.421  1.00  0.00     0.038 A 
HETATM   14  C   UNL     1      -4.530  -1.559 -33.354  1.00  0.00     0.022 A 
HETATM   15  C   UNL     1      -4.895  -2.743 -33.992  1.00  0.00     0.011 A 
HETATM   16  C   UNL     1      -6.092  -2.821 -34.698  1.00  0.00     0.022 A 
HETATM   17 BR   UNL     1      -3.758  -4.249 -33.898  1.00  0.00    -0.051 Br
HETATM   18  C   UNL     1      -6.929  -1.704 -34.760  1.00  0.00     0.038 A 
ENDBRANCH  11  12
ENDBRANCH  10  11
ENDBRANCH   7  10
ENDBRANCH   1   5
BRANCH   2  19
HETATM   19  N   UNL     1      -6.593   4.662 -33.608  1.00  0.00    -0.274 N 
HETATM   20  H   UNL     1      -6.870   3.803 -33.128  1.00  0.00     0.189 HD
BRANCH  19  21
HETATM   21  C   UNL     1      -5.423   5.252 -33.191  1.00  0.00     0.186 C 
HETATM   22  S   UNL     1      -5.317   6.482 -32.059  1.00  0.00    -0.040 SA
BRANCH  21  23
HETATM   23  N   UNL     1      -4.259   4.812 -33.734  1.00  0.00    -0.364 N 
HETATM   24  H   UNL     1      -3.785   4.138 -33.140  1.00  0.00     0.162 HD
BRANCH  23  25
HETATM   25  C   UNL     1      -3.513   5.278 -34.900  1.00  0.00     0.154 C 
BRANCH  25  26
HETATM   26  C   UNL     1      -2.113   5.818 -34.577  1.00  0.00     0.139 C 
HETATM   27  O   UNL     1      -2.198   7.249 -34.368  1.00  0.00    -0.384 OA
HETATM   28  C   UNL     1      -1.728   7.537 -33.043  1.00  0.00     0.168 C 
HETATM   29  C   UNL     1      -0.808   6.396 -32.683  1.00  0.00     0.029 C 
HETATM   30  C   UNL     1      -1.530   5.225 -33.298  1.00  0.00     0.035 C 
ENDBRANCH  25  26
ENDBRANCH  23  25
ENDBRANCH  21  23
ENDBRANCH  19  21
ENDBRANCH   2  19
TORSDOF 9
ENDMDL
MODEL 7
REMARK VINA RESULT:      -7.1      2.402      3.195
REMARK  9 active torsions:
REMARK  status: ('A' for Active; 'I' for Inactive)
REMARK    1  A    between atoms: C_2  and  O_3 
REMARK    2  A    between atoms: O_3  and  C_4 
REMARK    3  A    between atoms: C_4  and  C_5 
REMARK    4  A    between atoms: C_7  and  C_8 
REMARK       I    between atoms: C_8  and  N_9 
REMARK    5  A    between atoms: N_9  and  N_10 
REMARK    6  A    between atoms: N_10  and  C_11 
REMARK    7  A    between atoms: C_11  and  N_12 
REMARK    8  A    between atoms: N_12  and  C_13 
REMARK    9  A    between atoms: C_13  and  C_14 
ROOT
HETATM    1  C   UNL     1      -4.101   5.779 -32.984  1.00  0.00     0.293 C 
HETATM    2  N   UNL     1      -4.166   6.413 -31.750  1.00  0.00    -0.262 N 
HETATM    3  O   UNL     1      -3.343   6.279 -33.818  1.00  0.00    -0.264 OA
HETATM    4  H   UNL     1      -3.449   7.136 -31.683  1.00  0.00     0.190 HD
ENDROOT
BRANCH   1   5
HETATM    5  C   UNL     1      -4.947   4.637 -33.275  1.00  0.00     0.145 A 
HETATM    6  O   UNL     1      -4.847   3.566 -32.417  1.00  0.00    -0.307 OA
HETATM    7  C   UNL     1      -5.640   2.565 -32.886  1.00  0.00     0.078 A 
HETATM    8  C   UNL     1      -6.282   2.978 -34.031  1.00  0.00     0.038 A 
HETATM    9  C   UNL     1      -5.838   4.302 -34.280  1.00  0.00     0.045 A 
BRANCH   7  10
HETATM   10  C   UNL     1      -5.639   1.299 -32.108  1.00  0.00     0.240 C 
BRANCH  10  11
HETATM   11  O   UNL     1      -4.696   0.434 -32.742  1.00  0.00    -0.345 OA
BRANCH  11  12
HETATM   12  C   UNL     1      -5.189  -0.698 -33.329  1.00  0.00     0.069 A 
HETATM   13  C   UNL     1      -6.537  -1.013 -33.503  1.00  0.00     0.038 A 
HETATM   14  C   UNL     1      -6.903  -2.208 -34.136  1.00  0.00     0.022 A 
HETATM   15  C   UNL     1      -5.920  -3.083 -34.594  1.00  0.00     0.011 A 
HETATM   16  C   UNL     1      -4.573  -2.777 -34.426  1.00  0.00     0.022 A 
HETATM   17 BR   UNL     1      -6.420  -4.692 -35.450  1.00  0.00    -0.051 Br
HETATM   18  C   UNL     1      -4.212  -1.583 -33.795  1.00  0.00     0.038 A 
ENDBRANCH  11  12
ENDBRANCH  10  11
ENDBRANCH   7  10
ENDBRANCH   1   5
BRANCH   2  19
HETATM   19  N   UNL     1      -4.397   5.729 -30.528  1.00  0.00    -0.274 N 
HETATM   20  H   UNL     1      -5.047   4.944 -30.602  1.00  0.00     0.189 HD
BRANCH  19  21
HETATM   21  C   UNL     1      -4.460   6.477 -29.376  1.00  0.00     0.186 C 
HETATM   22  S   UNL     1      -5.815   7.300 -28.836  1.00  0.00    -0.040 SA
BRANCH  21  23
HETATM   23  N   UNL     1      -3.342   6.561 -28.609  1.00  0.00    -0.364 N 
HETATM   24  H   UNL     1      -3.471   6.151 -27.689  1.00  0.00     0.162 HD
BRANCH  23  25
HETATM   25  C   UNL     1      -2.094   7.290 -28.819  1.00  0.00     0.154 C 
BRANCH  25  26
HETATM   26  C   UNL     1      -0.954   6.435 -29.387  1.00  0.00     0.139 C 
HETATM   27  O   UNL     1      -1.417   5.773 -30.589  1.00  0.00    -0.384 OA
HETATM   28  C   UNL     1      -0.568   6.173 -31.676  1.00  0.00     0.168 C 
HETATM   29  C   UNL     1       0.741   6.575 -31.041  1.00  0.00     0.029 C 
HETATM   30  C   UNL     1       0.265   7.261 -29.785  1.00  0.00     0.035 C 
ENDBRANCH  25  26
ENDBRANCH  23  25
ENDBRANCH  21  23
ENDBRANCH  19  21
ENDBRANCH   2  19
TORSDOF 9
ENDMDL
MODEL 8
REMARK VINA RESULT:      -7.1      2.958      4.791
REMARK  9 active torsions:
REMARK  status: ('A' for Active; 'I' for Inactive)
REMARK    1  A    between atoms: C_2  and  O_3 
REMARK    2  A    between atoms: O_3  and  C_4 
REMARK    3  A    between atoms: C_4  and  C_5 
REMARK    4  A    between atoms: C_7  and  C_8 
REMARK       I    between atoms: C_8  and  N_9 
REMARK    5  A    between atoms: N_9  and  N_10 
REMARK    6  A    between atoms: N_10  and  C_11 
REMARK    7  A    between atoms: C_11  and  N_12 
REMARK    8  A    between atoms: N_12  and  C_13 
REMARK    9  A    between atoms: C_13  and  C_14 
ROOT
HETATM    1  C   UNL     1      -0.245   5.091 -30.741  1.00  0.00     0.293 C 
HETATM    2  N   UNL     1      -0.527   6.009 -29.739  1.00  0.00    -0.262 N 
HETATM    3  O   UNL     1       0.857   4.541 -30.686  1.00  0.00    -0.264 OA
HETATM    4  H   UNL     1       0.192   5.980 -29.016  1.00  0.00     0.190 HD
ENDROOT
BRANCH   1   5
HETATM    5  C   UNL     1      -1.183   4.866 -31.825  1.00  0.00     0.145 A 
HETATM    6  O   UNL     1      -2.269   4.071 -31.541  1.00  0.00    -0.307 OA
HETATM    7  C   UNL     1      -2.988   3.902 -32.683  1.00  0.00     0.078 A 
HETATM    8  C   UNL     1      -2.399   4.603 -33.711  1.00  0.00     0.038 A 
HETATM    9  C   UNL     1      -1.244   5.218 -33.163  1.00  0.00     0.045 A 
BRANCH   7  10
HETATM   10  C   UNL     1      -4.191   3.035 -32.588  1.00  0.00     0.240 C 
BRANCH  10  11
HETATM   11  O   UNL     1      -3.740   1.767 -32.113  1.00  0.00    -0.345 OA
BRANCH  11  12
HETATM   12  C   UNL     1      -4.265   0.656 -32.712  1.00  0.00     0.069 A 
HETATM   13  C   UNL     1      -3.589  -0.538 -32.966  1.00  0.00     0.038 A 
HETATM   14  C   UNL     1      -4.255  -1.606 -33.579  1.00  0.00     0.022 A 
HETATM   15  C   UNL     1      -5.597  -1.478 -33.937  1.00  0.00     0.011 A 
HETATM   16  C   UNL     1      -6.279  -0.291 -33.688  1.00  0.00     0.022 A 
HETATM   17 BR   UNL     1      -6.491  -2.923 -34.762  1.00  0.00    -0.051 Br
HETATM   18  C   UNL     1      -5.611   0.772 -33.074  1.00  0.00     0.038 A 
ENDBRANCH  11  12
ENDBRANCH  10  11
ENDBRANCH   7  10
ENDBRANCH   1   5
BRANCH   2  19
HETATM   19  N   UNL     1      -1.832   6.239 -29.230  1.00  0.00    -0.274 N 
HETATM   20  H   UNL     1      -2.551   5.629 -29.625  1.00  0.00     0.189 HD
BRANCH  19  21
HETATM   21  C   UNL     1      -2.200   7.537 -28.967  1.00  0.00     0.186 C 
HETATM   22  S   UNL     1      -2.656   8.660 -30.123  1.00  0.00    -0.040 SA
BRANCH  21  23
HETATM   23  N   UNL     1      -2.195   7.951 -27.673  1.00  0.00    -0.364 N 
HETATM   24  H   UNL     1      -2.573   8.888 -27.565  1.00  0.00     0.162 HD
BRANCH  23  25
HETATM   25  C   UNL     1      -1.581   7.365 -26.486  1.00  0.00     0.154 C 
BRANCH  25  26
HETATM   26  C   UNL     1      -0.131   7.805 -26.245  1.00  0.00     0.139 C 
HETATM   27  O   UNL     1       0.712   7.228 -27.272  1.00  0.00    -0.384 OA
HETATM   28  C   UNL     1       1.360   8.300 -27.973  1.00  0.00     0.168 C 
HETATM   29  C   UNL     1       1.392   9.458 -27.005  1.00  0.00     0.029 C 
HETATM   30  C   UNL     1       0.052   9.317 -26.329  1.00  0.00     0.035 C 
ENDBRANCH  25  26
ENDBRANCH  23  25
ENDBRANCH  21  23
ENDBRANCH  19  21
ENDBRANCH   2  19
TORSDOF 9
ENDMDL
MODEL 9
REMARK VINA RESULT:      -7.1      3.871      9.184
REMARK  9 active torsions:
REMARK  status: ('A' for Active; 'I' for Inactive)
REMARK    1  A    between atoms: C_2  and  O_3 
REMARK    2  A    between atoms: O_3  and  C_4 
REMARK    3  A    between atoms: C_4  and  C_5 
REMARK    4  A    between atoms: C_7  and  C_8 
REMARK       I    between atoms: C_8  and  N_9 
REMARK    5  A    between atoms: N_9  and  N_10 
REMARK    6  A    between atoms: N_10  and  C_11 
REMARK    7  A    between atoms: C_11  and  N_12 
REMARK    8  A    between atoms: N_12  and  C_13 
REMARK    9  A    between atoms: C_13  and  C_14 
ROOT
HETATM    1  C   UNL     1      -3.421   2.406 -31.458  1.00  0.00     0.293 C 
HETATM    2  N   UNL     1      -4.679   2.641 -30.919  1.00  0.00    -0.262 N 
HETATM    3  O   UNL     1      -3.012   1.244 -31.409  1.00  0.00    -0.264 OA
HETATM    4  H   UNL     1      -5.136   1.760 -30.684  1.00  0.00     0.190 HD
ENDROOT
BRANCH   1   5
HETATM    5  C   UNL     1      -2.620   3.500 -31.975  1.00  0.00     0.145 A 
HETATM    6  O   UNL     1      -1.728   4.073 -31.097  1.00  0.00    -0.307 OA
HETATM    7  C   UNL     1      -1.131   5.125 -31.719  1.00  0.00     0.078 A 
HETATM    8  C   UNL     1      -1.602   5.232 -33.008  1.00  0.00     0.038 A 
HETATM    9  C   UNL     1      -2.554   4.193 -33.171  1.00  0.00     0.045 A 
BRANCH   7  10
HETATM   10  C   UNL     1      -0.152   5.902 -30.915  1.00  0.00     0.240 C 
BRANCH  10  11
HETATM   11  O   UNL     1      -0.811   6.246 -29.696  1.00  0.00    -0.345 OA
BRANCH  11  12
HETATM   12  C   UNL     1      -0.059   6.861 -28.735  1.00  0.00     0.069 A 
HETATM   13  C   UNL     1       0.821   7.925 -28.937  1.00  0.00     0.038 A 
HETATM   14  C   UNL     1       1.523   8.471 -27.855  1.00  0.00     0.022 A 
HETATM   15  C   UNL     1       1.343   7.952 -26.574  1.00  0.00     0.011 A 
HETATM   16  C   UNL     1       0.468   6.891 -26.363  1.00  0.00     0.022 A 
HETATM   17 BR   UNL     1       2.292   8.693 -25.118  1.00  0.00    -0.051 Br
HETATM   18  C   UNL     1      -0.232   6.350 -27.445  1.00  0.00     0.038 A 
ENDBRANCH  11  12
ENDBRANCH  10  11
ENDBRANCH   7  10
ENDBRANCH   1   5
BRANCH   2  19
HETATM   19  N   UNL     1      -5.571   3.629 -31.411  1.00  0.00    -0.274 N 
HETATM   20  H   UNL     1      -6.070   4.145 -30.684  1.00  0.00     0.189 HD
BRANCH  19  21
HETATM   21  C   UNL     1      -6.272   3.346 -32.559  1.00  0.00     0.186 C 
HETATM   22  S   UNL     1      -6.699   4.468 -33.727  1.00  0.00    -0.040 SA
BRANCH  21  23
HETATM   23  N   UNL     1      -6.653   2.060 -32.772  1.00  0.00    -0.364 N 
HETATM   24  H   UNL     1      -6.306   1.429 -32.056  1.00  0.00     0.162 HD
BRANCH  23  25
HETATM   25  C   UNL     1      -7.295   1.433 -33.925  1.00  0.00     0.154 C 
BRANCH  25  26
HETATM   26  C   UNL     1      -6.463   0.322 -34.580  1.00  0.00     0.139 C 
HETATM   27  O   UNL     1      -5.300   0.058 -33.758  1.00  0.00    -0.384 OA
HETATM   28  C   UNL     1      -5.336  -1.321 -33.362  1.00  0.00     0.168 C 
HETATM   29  C   UNL     1      -6.157  -2.025 -34.414  1.00  0.00     0.029 C 
HETATM   30  C   UNL     1      -7.222  -0.996 -34.698  1.00  0.00     0.035 C 
ENDBRANCH  25  26
ENDBRANCH  23  25
ENDBRANCH  21  23
ENDBRANCH  19  21
ENDBRANCH   2  19
TORSDOF 9
ENDMDL
MODEL 10
REMARK VINA RESULT:      -7.0      2.936      6.277
REMARK  9 active torsions:
REMARK  status: ('A' for Active; 'I' for Inactive)
REMARK    1  A    between atoms: C_2  and  O_3 
REMARK    2  A    between atoms: O_3  and  C_4 
REMARK    3  A    between atoms: C_4  and  C_5 
REMARK    4  A    between atoms: C_7  and  C_8 
REMARK       I    between atoms: C_8  and  N_9 
REMARK    5  A    between atoms: N_9  and  N_10 
REMARK    6  A    between atoms: N_10  and  C_11 
REMARK    7  A    between atoms: C_11  and  N_12 
REMARK    8  A    between atoms: N_12  and  C_13 
REMARK    9  A    between atoms: C_13  and  C_14 
ROOT
HETATM    1  C   UNL     1      -4.664   5.183 -33.934  1.00  0.00     0.293 C 
HETATM    2  N   UNL     1      -5.989   5.583 -33.819  1.00  0.00    -0.262 N 
HETATM    3  O   UNL     1      -4.016   5.690 -34.852  1.00  0.00    -0.264 OA
HETATM    4  H   UNL     1      -6.182   6.361 -34.450  1.00  0.00     0.190 HD
ENDROOT
BRANCH   1   5
HETATM    5  C   UNL     1      -4.120   4.165 -33.056  1.00  0.00     0.145 A 
HETATM    6  O   UNL     1      -4.924   3.075 -32.809  1.00  0.00    -0.307 OA
HETATM    7  C   UNL     1      -4.294   2.273 -31.909  1.00  0.00     0.078 A 
HETATM    8  C   UNL     1      -3.070   2.811 -31.583  1.00  0.00     0.038 A 
HETATM    9  C   UNL     1      -2.959   4.021 -32.315  1.00  0.00     0.045 A 
BRANCH   7  10
HETATM   10  C   UNL     1      -5.026   1.051 -31.484  1.00  0.00     0.240 C 
BRANCH  10  11
HETATM   11  O   UNL     1      -6.007   0.795 -32.490  1.00  0.00    -0.345 OA
BRANCH  11  12
HETATM   12  C   UNL     1      -5.929  -0.403 -33.143  1.00  0.00     0.069 A 
HETATM   13  C   UNL     1      -4.765  -1.136 -33.378  1.00  0.00     0.038 A 
HETATM   14  C   UNL     1      -4.830  -2.361 -34.053  1.00  0.00     0.022 A 
HETATM   15  C   UNL     1      -6.060  -2.851 -34.490  1.00  0.00     0.011 A 
HETATM   16  C   UNL     1      -7.226  -2.127 -34.261  1.00  0.00     0.022 A 
HETATM   17 BR   UNL     1      -6.143  -4.505 -35.398  1.00  0.00    -0.051 Br
HETATM   18  C   UNL     1      -7.156  -0.905 -33.585  1.00  0.00     0.038 A 
ENDBRANCH  11  12
ENDBRANCH  10  11
ENDBRANCH   7  10
ENDBRANCH   1   5
BRANCH   2  19
HETATM   19  N   UNL     1      -6.677   5.674 -32.581  1.00  0.00    -0.274 N 
HETATM   20  H   UNL     1      -6.066   5.729 -31.763  1.00  0.00     0.189 HD
BRANCH  19  21
HETATM   21  C   UNL     1      -7.838   4.954 -32.437  1.00  0.00     0.186 C 
HETATM   22  S   UNL     1      -9.281   5.563 -31.841  1.00  0.00    -0.040 SA
BRANCH  21  23
HETATM   23  N   UNL     1      -7.827   3.646 -32.803  1.00  0.00    -0.364 N 
HETATM   24  H   UNL     1      -7.101   3.440 -33.483  1.00  0.00     0.162 HD
BRANCH  23  25
HETATM   25  C   UNL     1      -8.776   2.570 -32.530  1.00  0.00     0.154 C 
BRANCH  25  26
HETATM   26  C   UNL     1      -9.482   2.023 -33.779  1.00  0.00     0.139 C 
HETATM   27  O   UNL     1     -10.224   0.834 -33.415  1.00  0.00    -0.384 OA
HETATM   28  C   UNL     1     -11.608   1.057 -33.726  1.00  0.00     0.168 C 
HETATM   29  C   UNL     1     -11.615   2.104 -34.812  1.00  0.00     0.029 C 
HETATM   30  C   UNL     1     -10.491   3.005 -34.366  1.00  0.00     0.035 C 
ENDBRANCH  25  26
ENDBRANCH  23  25
ENDBRANCH  21  23
ENDBRANCH  19  21
ENDBRANCH   2  19
TORSDOF 9
ENDMDL
