MODEL 1
REMARK VINA RESULT:      -8.3      0.000      0.000
REMARK  6 active torsions:
REMARK  status: ('A' for Active; 'I' for Inactive)
REMARK    1  A    between atoms: C_2  and  N_3 
REMARK    2  A    between atoms: C_2  and  C_25 
REMARK    3  A    between atoms: C_7  and  N_8 
REMARK       I    between atoms: N_8  and  C_9 
REMARK       I    between atoms: C_9  and  N_10 
REMARK    4  A    between atoms: N_10  and  C_11 
REMARK    5  A    between atoms: C_11  and  C_12 
REMARK    6  A    between atoms: C_20  and  O_21 
ROOT
HETATM    1  N   UNL     1      -3.195   4.320 -31.205  1.00  0.00    -0.293 N 
HETATM    2  C   UNL     1      -4.493   3.784 -31.126  1.00  0.00     0.322 C 
HETATM    3  N   UNL     1      -5.186   3.586 -32.279  1.00  0.00    -0.337 N 
HETATM    4  O   UNL     1      -4.836   3.473 -29.999  1.00  0.00    -0.247 OA
HETATM    5  H   UNL     1      -2.758   4.296 -30.293  1.00  0.00     0.172 HD
HETATM    6  H   UNL     1      -4.659   3.679 -33.128  1.00  0.00     0.164 HD
ENDROOT
BRANCH   3   7
HETATM    7  C   UNL     1      -6.232   2.584 -32.355  1.00  0.00     0.181 C 
BRANCH   7   8
HETATM    8  C   UNL     1      -5.866   1.314 -33.045  1.00  0.00     0.028 A 
HETATM    9  N   UNL     1      -6.701   0.635 -33.904  1.00  0.00    -0.357 N 
HETATM   10  H   UNL     1      -7.618   0.954 -34.193  1.00  0.00     0.166 HD
HETATM   11  C   UNL     1      -6.220  -0.620 -34.177  1.00  0.00     0.043 A 
HETATM   12  C   UNL     1      -5.007  -0.746 -33.511  1.00  0.00    -0.005 A 
HETATM   13  C   UNL     1      -6.787  -1.653 -34.928  1.00  0.00     0.033 A 
HETATM   14  C   UNL     1      -4.766   0.494 -32.850  1.00  0.00     0.040 A 
HETATM   15  C   UNL     1      -4.335  -1.983 -33.569  1.00  0.00     0.050 A 
HETATM   16  C   UNL     1      -4.913  -3.055 -34.265  1.00  0.00     0.069 A 
HETATM   17  C   UNL     1      -6.111  -2.878 -34.957  1.00  0.00     0.039 A 
BRANCH  16  18
HETATM   18  O   UNL     1      -4.210  -4.230 -34.198  1.00  0.00    -0.356 OA
HETATM   19  C   UNL     1      -3.339  -4.372 -33.080  1.00  0.00     0.210 C 
ENDBRANCH  16  18
ENDBRANCH   7   8
ENDBRANCH   3   7
BRANCH   1  20
HETATM   20  C   UNL     1      -2.445   4.793 -32.259  1.00  0.00     0.129 A 
HETATM   21  N   UNL     1      -1.658   5.930 -32.231  1.00  0.00    -0.249 N 
HETATM   22  N   UNL     1      -1.052   6.170 -33.412  1.00  0.00    -0.183 NA
HETATM   23  C   UNL     1      -1.491   5.198 -34.211  1.00  0.00     0.142 A 
HETATM   24  C   UNL     1      -2.364   4.315 -33.548  1.00  0.00     0.071 A 
BRANCH  21  25
HETATM   25  C   UNL     1      -1.342   6.815 -31.103  1.00  0.00     0.111 C 
HETATM   26  C   UNL     1      -1.862   8.248 -31.288  1.00  0.00     0.035 C 
BRANCH  25  27
HETATM   27  C   UNL     1       0.144   6.708 -30.656  1.00  0.00     0.002 C 
HETATM   28  C   UNL     1       0.480   7.461 -29.365  1.00  0.00     0.011 C 
HETATM   29  C   UNL     1       0.585   5.247 -30.511  1.00  0.00     0.011 C 
ENDBRANCH  25  27
ENDBRANCH  21  25
ENDBRANCH   1  20
TORSDOF 6
ENDMDL
MODEL 2
REMARK VINA RESULT:      -8.3      0.876      1.508
REMARK  6 active torsions:
REMARK  status: ('A' for Active; 'I' for Inactive)
REMARK    1  A    between atoms: C_2  and  N_3 
REMARK    2  A    between atoms: C_2  and  C_25 
REMARK    3  A    between atoms: C_7  and  N_8 
REMARK       I    between atoms: N_8  and  C_9 
REMARK       I    between atoms: C_9  and  N_10 
REMARK    4  A    between atoms: N_10  and  C_11 
REMARK    5  A    between atoms: C_11  and  C_12 
REMARK    6  A    between atoms: C_20  and  O_21 
ROOT
HETATM    1  N   UNL     1      -3.262   4.083 -31.175  1.00  0.00    -0.293 N 
HETATM    2  C   UNL     1      -4.626   3.740 -31.156  1.00  0.00     0.322 C 
HETATM    3  N   UNL     1      -5.351   3.894 -32.295  1.00  0.00    -0.337 N 
HETATM    4  O   UNL     1      -5.003   3.254 -30.105  1.00  0.00    -0.247 OA
HETATM    5  H   UNL     1      -2.825   3.803 -30.306  1.00  0.00     0.172 HD
HETATM    6  H   UNL     1      -4.824   4.085 -33.128  1.00  0.00     0.164 HD
ENDROOT
BRANCH   3   7
HETATM    7  C   UNL     1      -6.539   3.098 -32.534  1.00  0.00     0.181 C 
BRANCH   7   8
HETATM    8  C   UNL     1      -6.306   1.652 -32.812  1.00  0.00     0.028 A 
HETATM    9  N   UNL     1      -5.173   0.967 -32.435  1.00  0.00    -0.357 N 
HETATM   10  H   UNL     1      -4.415   1.358 -31.890  1.00  0.00     0.166 HD
HETATM   11  C   UNL     1      -5.107  -0.260 -33.047  1.00  0.00     0.043 A 
HETATM   12  C   UNL     1      -6.259  -0.397 -33.812  1.00  0.00    -0.005 A 
HETATM   13  C   UNL     1      -4.100  -1.228 -33.005  1.00  0.00     0.033 A 
HETATM   14  C   UNL     1      -7.033   0.783 -33.613  1.00  0.00     0.040 A 
HETATM   15  C   UNL     1      -6.402  -1.552 -34.607  1.00  0.00     0.050 A 
HETATM   16  C   UNL     1      -5.378  -2.510 -34.631  1.00  0.00     0.069 A 
HETATM   17  C   UNL     1      -4.256  -2.358 -33.817  1.00  0.00     0.039 A 
BRANCH  16  18
HETATM   18  O   UNL     1      -5.590  -3.556 -35.491  1.00  0.00    -0.356 OA
HETATM   19  C   UNL     1      -6.660  -4.433 -35.154  1.00  0.00     0.210 C 
ENDBRANCH  16  18
ENDBRANCH   7   8
ENDBRANCH   3   7
BRANCH   1  20
HETATM   20  C   UNL     1      -2.457   4.651 -32.139  1.00  0.00     0.129 A 
HETATM   21  N   UNL     1      -1.656   5.764 -31.955  1.00  0.00    -0.249 N 
HETATM   22  N   UNL     1      -0.993   6.116 -33.076  1.00  0.00    -0.183 NA
HETATM   23  C   UNL     1      -1.409   5.242 -33.992  1.00  0.00     0.142 A 
HETATM   24  C   UNL     1      -2.324   4.310 -33.466  1.00  0.00     0.071 A 
BRANCH  21  25
HETATM   25  C   UNL     1      -1.380   6.518 -30.726  1.00  0.00     0.111 C 
HETATM   26  C   UNL     1      -2.014   7.916 -30.713  1.00  0.00     0.035 C 
BRANCH  25  27
HETATM   27  C   UNL     1       0.121   6.474 -30.321  1.00  0.00     0.002 C 
HETATM   28  C   UNL     1       0.503   7.416 -29.175  1.00  0.00     0.011 C 
HETATM   29  C   UNL     1       0.569   5.051 -29.967  1.00  0.00     0.011 C 
ENDBRANCH  25  27
ENDBRANCH  21  25
ENDBRANCH   1  20
TORSDOF 6
ENDMDL
MODEL 3
REMARK VINA RESULT:      -7.9      2.004      3.155
REMARK  6 active torsions:
REMARK  status: ('A' for Active; 'I' for Inactive)
REMARK    1  A    between atoms: C_2  and  N_3 
REMARK    2  A    between atoms: C_2  and  C_25 
REMARK    3  A    between atoms: C_7  and  N_8 
REMARK       I    between atoms: N_8  and  C_9 
REMARK       I    between atoms: C_9  and  N_10 
REMARK    4  A    between atoms: N_10  and  C_11 
REMARK    5  A    between atoms: C_11  and  C_12 
REMARK    6  A    between atoms: C_20  and  O_21 
ROOT
HETATM    1  N   UNL     1      -5.474   5.987 -32.804  1.00  0.00    -0.293 N 
HETATM    2  C   UNL     1      -6.129   4.807 -33.200  1.00  0.00     0.322 C 
HETATM    3  N   UNL     1      -6.171   3.764 -32.330  1.00  0.00    -0.337 N 
HETATM    4  O   UNL     1      -6.671   4.879 -34.289  1.00  0.00    -0.247 OA
HETATM    5  H   UNL     1      -5.627   6.712 -33.493  1.00  0.00     0.172 HD
HETATM    6  H   UNL     1      -5.877   3.964 -31.391  1.00  0.00     0.164 HD
ENDROOT
BRANCH   3   7
HETATM    7  C   UNL     1      -7.230   2.775 -32.404  1.00  0.00     0.181 C 
BRANCH   7   8
HETATM    8  C   UNL     1      -6.797   1.381 -32.706  1.00  0.00     0.028 A 
HETATM    9  N   UNL     1      -5.529   0.900 -32.470  1.00  0.00    -0.357 N 
HETATM   10  H   UNL     1      -4.785   1.422 -32.024  1.00  0.00     0.166 HD
HETATM   11  C   UNL     1      -5.336  -0.313 -33.082  1.00  0.00     0.043 A 
HETATM   12  C   UNL     1      -6.534  -0.655 -33.698  1.00  0.00    -0.005 A 
HETATM   13  C   UNL     1      -4.185  -1.102 -33.163  1.00  0.00     0.033 A 
HETATM   14  C   UNL     1      -7.462   0.387 -33.407  1.00  0.00     0.040 A 
HETATM   15  C   UNL     1      -6.580  -1.835 -34.466  1.00  0.00     0.050 A 
HETATM   16  C   UNL     1      -5.422  -2.613 -34.615  1.00  0.00     0.069 A 
HETATM   17  C   UNL     1      -4.249  -2.260 -33.946  1.00  0.00     0.039 A 
BRANCH  16  18
HETATM   18  O   UNL     1      -5.561  -3.699 -35.439  1.00  0.00    -0.356 OA
HETATM   19  C   UNL     1      -6.724  -4.494 -35.233  1.00  0.00     0.210 C 
ENDBRANCH  16  18
ENDBRANCH   7   8
ENDBRANCH   3   7
BRANCH   1  20
HETATM   20  C   UNL     1      -4.750   6.319 -31.679  1.00  0.00     0.129 A 
HETATM   21  N   UNL     1      -3.428   5.982 -31.454  1.00  0.00    -0.249 N 
HETATM   22  N   UNL     1      -2.979   6.417 -30.258  1.00  0.00    -0.183 NA
HETATM   23  C   UNL     1      -4.040   7.000 -29.701  1.00  0.00     0.142 A 
HETATM   24  C   UNL     1      -5.171   6.964 -30.538  1.00  0.00     0.071 A 
BRANCH  21  25
HETATM   25  C   UNL     1      -2.470   5.323 -32.350  1.00  0.00     0.111 C 
HETATM   26  C   UNL     1      -1.161   4.923 -31.657  1.00  0.00     0.035 C 
BRANCH  25  27
HETATM   27  C   UNL     1      -2.295   6.078 -33.699  1.00  0.00     0.002 C 
HETATM   28  C   UNL     1      -1.510   7.390 -33.600  1.00  0.00     0.011 C 
HETATM   29  C   UNL     1      -1.645   5.187 -34.764  1.00  0.00     0.011 C 
ENDBRANCH  25  27
ENDBRANCH  21  25
ENDBRANCH   1  20
TORSDOF 6
ENDMDL
MODEL 4
REMARK VINA RESULT:      -7.9      2.566      9.183
REMARK  6 active torsions:
REMARK  status: ('A' for Active; 'I' for Inactive)
REMARK    1  A    between atoms: C_2  and  N_3 
REMARK    2  A    between atoms: C_2  and  C_25 
REMARK    3  A    between atoms: C_7  and  N_8 
REMARK       I    between atoms: N_8  and  C_9 
REMARK       I    between atoms: C_9  and  N_10 
REMARK    4  A    between atoms: N_10  and  C_11 
REMARK    5  A    between atoms: C_11  and  C_12 
REMARK    6  A    between atoms: C_20  and  O_21 
ROOT
HETATM    1  N   UNL     1      -6.069   3.345 -33.816  1.00  0.00    -0.293 N 
HETATM    2  C   UNL     1      -4.952   4.199 -33.860  1.00  0.00     0.322 C 
HETATM    3  N   UNL     1      -4.063   4.158 -32.833  1.00  0.00    -0.337 N 
HETATM    4  O   UNL     1      -4.861   4.848 -34.886  1.00  0.00    -0.247 OA
HETATM    5  H   UNL     1      -6.571   3.392 -34.694  1.00  0.00     0.172 HD
HETATM    6  H   UNL     1      -4.173   3.397 -32.188  1.00  0.00     0.164 HD
ENDROOT
BRANCH   3   7
HETATM    7  C   UNL     1      -2.681   4.553 -33.029  1.00  0.00     0.181 C 
BRANCH   7   8
HETATM    8  C   UNL     1      -2.000   5.147 -31.843  1.00  0.00     0.028 A 
HETATM    9  N   UNL     1      -2.662   5.741 -30.792  1.00  0.00    -0.357 N 
HETATM   10  H   UNL     1      -3.669   5.786 -30.693  1.00  0.00     0.166 HD
HETATM   11  C   UNL     1      -1.794   6.431 -29.984  1.00  0.00     0.043 A 
HETATM   12  C   UNL     1      -0.518   6.241 -30.500  1.00  0.00    -0.005 A 
HETATM   13  C   UNL     1      -2.053   7.231 -28.867  1.00  0.00     0.033 A 
HETATM   14  C   UNL     1      -0.651   5.387 -31.634  1.00  0.00     0.040 A 
HETATM   15  C   UNL     1       0.559   6.913 -29.889  1.00  0.00     0.050 A 
HETATM   16  C   UNL     1       0.318   7.771 -28.805  1.00  0.00     0.069 A 
HETATM   17  C   UNL     1      -0.971   7.902 -28.288  1.00  0.00     0.039 A 
BRANCH  16  18
HETATM   18  O   UNL     1       1.426   8.426 -28.334  1.00  0.00    -0.356 OA
HETATM   19  C   UNL     1       1.710   8.253 -26.949  1.00  0.00     0.210 C 
ENDBRANCH  16  18
ENDBRANCH   7   8
ENDBRANCH   3   7
BRANCH   1  20
HETATM   20  C   UNL     1      -6.536   2.468 -32.861  1.00  0.00     0.129 A 
HETATM   21  N   UNL     1      -6.657   1.100 -33.025  1.00  0.00    -0.249 N 
HETATM   22  N   UNL     1      -7.165   0.491 -31.934  1.00  0.00    -0.183 NA
HETATM   23  C   UNL     1      -7.406   1.488 -31.083  1.00  0.00     0.142 A 
HETATM   24  C   UNL     1      -7.038   2.741 -31.609  1.00  0.00     0.071 A 
BRANCH  21  25
HETATM   25  C   UNL     1      -6.237   0.258 -34.151  1.00  0.00     0.111 C 
HETATM   26  C   UNL     1      -7.187   0.330 -35.355  1.00  0.00     0.035 C 
BRANCH  25  27
HETATM   27  C   UNL     1      -5.846  -1.181 -33.709  1.00  0.00     0.002 C 
HETATM   28  C   UNL     1      -6.421  -2.299 -34.584  1.00  0.00     0.011 C 
HETATM   29  C   UNL     1      -4.325  -1.350 -33.621  1.00  0.00     0.011 C 
ENDBRANCH  25  27
ENDBRANCH  21  25
ENDBRANCH   1  20
TORSDOF 6
ENDMDL
MODEL 5
REMARK VINA RESULT:      -7.8      3.579      6.103
REMARK  6 active torsions:
REMARK  status: ('A' for Active; 'I' for Inactive)
REMARK    1  A    between atoms: C_2  and  N_3 
REMARK    2  A    between atoms: C_2  and  C_25 
REMARK    3  A    between atoms: C_7  and  N_8 
REMARK       I    between atoms: N_8  and  C_9 
REMARK       I    between atoms: C_9  and  N_10 
REMARK    4  A    between atoms: N_10  and  C_11 
REMARK    5  A    between atoms: C_11  and  C_12 
REMARK    6  A    between atoms: C_20  and  O_21 
ROOT
HETATM    1  N   UNL     1      -6.250   3.753 -32.579  1.00  0.00    -0.293 N 
HETATM    2  C   UNL     1      -4.931   3.311 -32.373  1.00  0.00     0.322 C 
HETATM    3  N   UNL     1      -4.695   2.408 -31.385  1.00  0.00    -0.337 N 
HETATM    4  O   UNL     1      -4.129   3.744 -33.181  1.00  0.00    -0.247 OA
HETATM    5  H   UNL     1      -6.296   4.319 -33.417  1.00  0.00     0.172 HD
HETATM    6  H   UNL     1      -5.507   1.985 -30.974  1.00  0.00     0.164 HD
ENDROOT
BRANCH   3   7
HETATM    7  C   UNL     1      -3.551   1.519 -31.448  1.00  0.00     0.181 C 
BRANCH   7   8
HETATM    8  C   UNL     1      -3.844   0.110 -31.838  1.00  0.00     0.028 A 
HETATM    9  N   UNL     1      -3.165  -0.982 -31.348  1.00  0.00    -0.357 N 
HETATM   10  H   UNL     1      -2.441  -0.945 -30.641  1.00  0.00     0.166 HD
HETATM   11  C   UNL     1      -3.454  -2.113 -32.069  1.00  0.00     0.043 A 
HETATM   12  C   UNL     1      -4.390  -1.754 -33.032  1.00  0.00    -0.005 A 
HETATM   13  C   UNL     1      -2.931  -3.404 -31.961  1.00  0.00     0.033 A 
HETATM   14  C   UNL     1      -4.671  -0.370 -32.842  1.00  0.00     0.040 A 
HETATM   15  C   UNL     1      -4.804  -2.729 -33.961  1.00  0.00     0.050 A 
HETATM   16  C   UNL     1      -4.247  -4.016 -33.913  1.00  0.00     0.069 A 
HETATM   17  C   UNL     1      -3.343  -4.351 -32.905  1.00  0.00     0.039 A 
BRANCH  16  18
HETATM   18  O   UNL     1      -4.668  -4.862 -34.906  1.00  0.00    -0.356 OA
HETATM   19  C   UNL     1      -6.038  -4.754 -35.278  1.00  0.00     0.210 C 
ENDBRANCH  16  18
ENDBRANCH   7   8
ENDBRANCH   3   7
BRANCH   1  20
HETATM   20  C   UNL     1      -7.429   3.514 -31.907  1.00  0.00     0.129 A 
HETATM   21  N   UNL     1      -8.597   3.050 -32.484  1.00  0.00    -0.249 N 
HETATM   22  N   UNL     1      -9.603   2.930 -31.593  1.00  0.00    -0.183 NA
HETATM   23  C   UNL     1      -9.080   3.362 -30.447  1.00  0.00     0.142 A 
HETATM   24  C   UNL     1      -7.732   3.743 -30.583  1.00  0.00     0.071 A 
BRANCH  21  25
HETATM   25  C   UNL     1      -8.840   2.604 -33.862  1.00  0.00     0.111 C 
HETATM   26  C   UNL     1     -10.214   3.022 -34.404  1.00  0.00     0.035 C 
BRANCH  25  27
HETATM   27  C   UNL     1      -8.476   1.107 -34.079  1.00  0.00     0.002 C 
HETATM   28  C   UNL     1      -7.239   0.870 -34.951  1.00  0.00     0.011 C 
HETATM   29  C   UNL     1      -8.296   0.371 -32.747  1.00  0.00     0.011 C 
ENDBRANCH  25  27
ENDBRANCH  21  25
ENDBRANCH   1  20
TORSDOF 6
ENDMDL
MODEL 6
REMARK VINA RESULT:      -7.7     17.060     18.476
REMARK  6 active torsions:
REMARK  status: ('A' for Active; 'I' for Inactive)
REMARK    1  A    between atoms: C_2  and  N_3 
REMARK    2  A    between atoms: C_2  and  C_25 
REMARK    3  A    between atoms: C_7  and  N_8 
REMARK       I    between atoms: N_8  and  C_9 
REMARK       I    between atoms: C_9  and  N_10 
REMARK    4  A    between atoms: N_10  and  C_11 
REMARK    5  A    between atoms: C_11  and  C_12 
REMARK    6  A    between atoms: C_20  and  O_21 
ROOT
HETATM    1  N   UNL     1      -3.464 -15.443 -37.291  1.00  0.00    -0.293 N 
HETATM    2  C   UNL     1      -4.651 -15.236 -36.564  1.00  0.00     0.322 C 
HETATM    3  N   UNL     1      -5.104 -13.965 -36.407  1.00  0.00    -0.337 N 
HETATM    4  O   UNL     1      -5.202 -16.263 -36.208  1.00  0.00    -0.247 OA
HETATM    5  H   UNL     1      -3.317 -16.434 -37.433  1.00  0.00     0.172 HD
HETATM    6  H   UNL     1      -4.650 -13.266 -36.967  1.00  0.00     0.164 HD
ENDROOT
BRANCH   3   7
HETATM    7  C   UNL     1      -6.511 -13.699 -36.181  1.00  0.00     0.181 C 
BRANCH   7   8
HETATM    8  C   UNL     1      -7.378 -13.713 -37.394  1.00  0.00     0.028 A 
HETATM    9  N   UNL     1      -7.796 -12.580 -38.056  1.00  0.00    -0.357 N 
HETATM   10  H   UNL     1      -7.517 -11.636 -37.820  1.00  0.00     0.166 HD
HETATM   11  C   UNL     1      -8.788 -12.869 -38.959  1.00  0.00     0.043 A 
HETATM   12  C   UNL     1      -8.989 -14.244 -38.918  1.00  0.00    -0.005 A 
HETATM   13  C   UNL     1      -9.536 -12.014 -39.772  1.00  0.00     0.033 A 
HETATM   14  C   UNL     1      -8.060 -14.771 -37.975  1.00  0.00     0.040 A 
HETATM   15  C   UNL     1     -10.018 -14.795 -39.708  1.00  0.00     0.050 A 
HETATM   16  C   UNL     1     -10.824 -13.950 -40.486  1.00  0.00     0.069 A 
HETATM   17  C   UNL     1     -10.564 -12.581 -40.534  1.00  0.00     0.039 A 
BRANCH  16  18
HETATM   18  O   UNL     1     -11.838 -14.583 -41.158  1.00  0.00    -0.356 OA
HETATM   19  C   UNL     1     -11.439 -15.599 -42.073  1.00  0.00     0.210 C 
ENDBRANCH  16  18
ENDBRANCH   7   8
ENDBRANCH   3   7
BRANCH   1  20
HETATM   20  C   UNL     1      -2.554 -14.576 -37.856  1.00  0.00     0.129 A 
HETATM   21  N   UNL     1      -2.560 -14.162 -39.175  1.00  0.00    -0.249 N 
HETATM   22  N   UNL     1      -1.537 -13.330 -39.462  1.00  0.00    -0.183 NA
HETATM   23  C   UNL     1      -0.852 -13.248 -38.322  1.00  0.00     0.142 A 
HETATM   24  C   UNL     1      -1.436 -14.007 -37.290  1.00  0.00     0.071 A 
BRANCH  21  25
HETATM   25  C   UNL     1      -3.546 -14.429 -40.229  1.00  0.00     0.111 C 
HETATM   26  C   UNL     1      -2.975 -14.296 -41.648  1.00  0.00     0.035 C 
BRANCH  25  27
HETATM   27  C   UNL     1      -4.892 -13.685 -39.992  1.00  0.00     0.002 C 
HETATM   28  C   UNL     1      -4.753 -12.190 -39.691  1.00  0.00     0.011 C 
HETATM   29  C   UNL     1      -5.854 -13.868 -41.172  1.00  0.00     0.011 C 
ENDBRANCH  25  27
ENDBRANCH  21  25
ENDBRANCH   1  20
TORSDOF 6
ENDMDL
MODEL 7
REMARK VINA RESULT:      -7.5      3.442      7.817
REMARK  6 active torsions:
REMARK  status: ('A' for Active; 'I' for Inactive)
REMARK    1  A    between atoms: C_2  and  N_3 
REMARK    2  A    between atoms: C_2  and  C_25 
REMARK    3  A    between atoms: C_7  and  N_8 
REMARK       I    between atoms: N_8  and  C_9 
REMARK       I    between atoms: C_9  and  N_10 
REMARK    4  A    between atoms: N_10  and  C_11 
REMARK    5  A    between atoms: C_11  and  C_12 
REMARK    6  A    between atoms: C_20  and  O_21 
ROOT
HETATM    1  N   UNL     1      -7.390   0.978 -30.686  1.00  0.00    -0.293 N 
HETATM    2  C   UNL     1      -6.003   0.940 -30.457  1.00  0.00     0.322 C 
HETATM    3  N   UNL     1      -5.165   1.219 -31.490  1.00  0.00    -0.337 N 
HETATM    4  O   UNL     1      -5.696   0.729 -29.297  1.00  0.00    -0.247 OA
HETATM    5  H   UNL     1      -7.886   0.875 -29.810  1.00  0.00     0.172 HD
HETATM    6  H   UNL     1      -5.596   1.602 -32.312  1.00  0.00     0.164 HD
ENDROOT
BRANCH   3   7
HETATM    7  C   UNL     1      -3.830   1.730 -31.248  1.00  0.00     0.181 C 
BRANCH   7   8
HETATM    8  C   UNL     1      -3.540   3.083 -31.804  1.00  0.00     0.028 A 
HETATM    9  N   UNL     1      -2.715   3.313 -32.881  1.00  0.00    -0.357 N 
HETATM   10  H   UNL     1      -2.268   2.590 -33.433  1.00  0.00     0.166 HD
HETATM   11  C   UNL     1      -2.419   4.647 -33.005  1.00  0.00     0.043 A 
HETATM   12  C   UNL     1      -3.113   5.314 -32.002  1.00  0.00    -0.005 A 
HETATM   13  C   UNL     1      -1.566   5.296 -33.902  1.00  0.00     0.033 A 
HETATM   14  C   UNL     1      -3.859   4.330 -31.289  1.00  0.00     0.040 A 
HETATM   15  C   UNL     1      -2.920   6.702 -31.863  1.00  0.00     0.050 A 
HETATM   16  C   UNL     1      -2.021   7.367 -32.711  1.00  0.00     0.069 A 
HETATM   17  C   UNL     1      -1.376   6.672 -33.733  1.00  0.00     0.039 A 
BRANCH  16  18
HETATM   18  O   UNL     1      -1.858   8.701 -32.442  1.00  0.00    -0.356 OA
HETATM   19  C   UNL     1      -2.331   9.145 -31.174  1.00  0.00     0.210 C 
ENDBRANCH  16  18
ENDBRANCH   7   8
ENDBRANCH   3   7
BRANCH   1  20
HETATM   20  C   UNL     1      -8.142   1.176 -31.824  1.00  0.00     0.129 A 
HETATM   21  N   UNL     1      -8.350   2.396 -32.440  1.00  0.00    -0.249 N 
HETATM   22  N   UNL     1      -9.147   2.299 -33.525  1.00  0.00    -0.183 NA
HETATM   23  C   UNL     1      -9.481   1.010 -33.574  1.00  0.00     0.142 A 
HETATM   24  C   UNL     1      -8.888   0.264 -32.537  1.00  0.00     0.071 A 
BRANCH  21  25
HETATM   25  C   UNL     1      -7.766   3.707 -32.130  1.00  0.00     0.111 C 
HETATM   26  C   UNL     1      -8.648   4.566 -31.213  1.00  0.00     0.035 C 
BRANCH  25  27
HETATM   27  C   UNL     1      -7.227   4.436 -33.394  1.00  0.00     0.002 C 
HETATM   28  C   UNL     1      -6.668   5.838 -33.134  1.00  0.00     0.011 C 
HETATM   29  C   UNL     1      -6.163   3.601 -34.116  1.00  0.00     0.011 C 
ENDBRANCH  25  27
ENDBRANCH  21  25
ENDBRANCH   1  20
TORSDOF 6
ENDMDL
MODEL 8
REMARK VINA RESULT:      -7.5      5.763      8.505
REMARK  6 active torsions:
REMARK  status: ('A' for Active; 'I' for Inactive)
REMARK    1  A    between atoms: C_2  and  N_3 
REMARK    2  A    between atoms: C_2  and  C_25 
REMARK    3  A    between atoms: C_7  and  N_8 
REMARK       I    between atoms: N_8  and  C_9 
REMARK       I    between atoms: C_9  and  N_10 
REMARK    4  A    between atoms: N_10  and  C_11 
REMARK    5  A    between atoms: C_11  and  C_12 
REMARK    6  A    between atoms: C_20  and  O_21 
ROOT
HETATM    1  N   UNL     1     -11.024   2.089 -34.309  1.00  0.00    -0.293 N 
HETATM    2  C   UNL     1      -9.858   2.223 -33.533  1.00  0.00     0.322 C 
HETATM    3  N   UNL     1      -9.876   1.778 -32.250  1.00  0.00    -0.337 N 
HETATM    4  O   UNL     1      -8.903   2.671 -34.143  1.00  0.00    -0.247 OA
HETATM    5  H   UNL     1     -10.829   2.345 -35.268  1.00  0.00     0.172 HD
HETATM    6  H   UNL     1     -10.673   1.225 -31.989  1.00  0.00     0.164 HD
ENDROOT
BRANCH   3   7
HETATM    7  C   UNL     1      -8.652   1.375 -31.584  1.00  0.00     0.181 C 
BRANCH   7   8
HETATM    8  C   UNL     1      -7.728   0.522 -32.384  1.00  0.00     0.028 A 
HETATM    9  N   UNL     1      -8.142  -0.376 -33.341  1.00  0.00    -0.357 N 
HETATM   10  H   UNL     1      -9.103  -0.509 -33.633  1.00  0.00     0.166 HD
HETATM   11  C   UNL     1      -7.118  -1.206 -33.721  1.00  0.00     0.043 A 
HETATM   12  C   UNL     1      -5.986  -0.803 -33.023  1.00  0.00    -0.005 A 
HETATM   13  C   UNL     1      -7.125  -2.295 -34.597  1.00  0.00     0.033 A 
HETATM   14  C   UNL     1      -6.365   0.318 -32.229  1.00  0.00     0.040 A 
HETATM   15  C   UNL     1      -4.801  -1.549 -33.179  1.00  0.00     0.050 A 
HETATM   16  C   UNL     1      -4.798  -2.684 -34.004  1.00  0.00     0.069 A 
HETATM   17  C   UNL     1      -5.942  -3.031 -34.723  1.00  0.00     0.039 A 
BRANCH  16  18
HETATM   18  O   UNL     1      -3.614  -3.374 -34.029  1.00  0.00    -0.356 OA
HETATM   19  C   UNL     1      -3.708  -4.782 -33.835  1.00  0.00     0.210 C 
ENDBRANCH  16  18
ENDBRANCH   7   8
ENDBRANCH   3   7
BRANCH   1  20
HETATM   20  C   UNL     1     -12.293   1.643 -34.014  1.00  0.00     0.129 A 
HETATM   21  N   UNL     1     -13.200   2.298 -33.200  1.00  0.00    -0.249 N 
HETATM   22  N   UNL     1     -14.359   1.622 -33.066  1.00  0.00    -0.183 NA
HETATM   23  C   UNL     1     -14.172   0.506 -33.770  1.00  0.00     0.142 A 
HETATM   24  C   UNL     1     -12.903   0.464 -34.378  1.00  0.00     0.071 A 
BRANCH  21  25
HETATM   25  C   UNL     1     -13.096   3.619 -32.567  1.00  0.00     0.111 C 
HETATM   26  C   UNL     1     -13.847   3.716 -31.232  1.00  0.00     0.035 C 
BRANCH  25  27
HETATM   27  C   UNL     1     -13.373   4.782 -33.562  1.00  0.00     0.002 C 
HETATM   28  C   UNL     1     -14.353   5.842 -33.050  1.00  0.00     0.011 C 
HETATM   29  C   UNL     1     -12.075   5.472 -33.998  1.00  0.00     0.011 C 
ENDBRANCH  25  27
ENDBRANCH  21  25
ENDBRANCH   1  20
TORSDOF 6
ENDMDL
MODEL 9
REMARK VINA RESULT:      -7.4      4.029      7.327
REMARK  6 active torsions:
REMARK  status: ('A' for Active; 'I' for Inactive)
REMARK    1  A    between atoms: C_2  and  N_3 
REMARK    2  A    between atoms: C_2  and  C_25 
REMARK    3  A    between atoms: C_7  and  N_8 
REMARK       I    between atoms: N_8  and  C_9 
REMARK       I    between atoms: C_9  and  N_10 
REMARK    4  A    between atoms: N_10  and  C_11 
REMARK    5  A    between atoms: C_11  and  C_12 
REMARK    6  A    between atoms: C_20  and  O_21 
ROOT
HETATM    1  N   UNL     1      -8.785   4.648 -33.501  1.00  0.00    -0.293 N 
HETATM    2  C   UNL     1      -7.392   4.497 -33.378  1.00  0.00     0.322 C 
HETATM    3  N   UNL     1      -6.901   3.865 -32.279  1.00  0.00    -0.337 N 
HETATM    4  O   UNL     1      -6.761   4.896 -34.341  1.00  0.00    -0.247 OA
HETATM    5  H   UNL     1      -9.010   5.019 -34.415  1.00  0.00     0.172 HD
HETATM    6  H   UNL     1      -7.577   3.395 -31.705  1.00  0.00     0.164 HD
ENDROOT
BRANCH   3   7
HETATM    7  C   UNL     1      -5.614   3.198 -32.318  1.00  0.00     0.181 C 
BRANCH   7   8
HETATM    8  C   UNL     1      -5.645   1.744 -32.645  1.00  0.00     0.028 A 
HETATM    9  N   UNL     1      -4.688   0.842 -32.239  1.00  0.00    -0.357 N 
HETATM   10  H   UNL     1      -3.902   1.062 -31.639  1.00  0.00     0.166 HD
HETATM   11  C   UNL     1      -4.819  -0.354 -32.898  1.00  0.00     0.043 A 
HETATM   12  C   UNL     1      -5.930  -0.243 -33.727  1.00  0.00    -0.005 A 
HETATM   13  C   UNL     1      -4.020  -1.499 -32.846  1.00  0.00     0.033 A 
HETATM   14  C   UNL     1      -6.475   1.058 -33.518  1.00  0.00     0.040 A 
HETATM   15  C   UNL     1      -6.243  -1.321 -34.577  1.00  0.00     0.050 A 
HETATM   16  C   UNL     1      -5.420  -2.458 -34.589  1.00  0.00     0.069 A 
HETATM   17  C   UNL     1      -4.339  -2.551 -33.712  1.00  0.00     0.039 A 
BRANCH  16  18
HETATM   18  O   UNL     1      -5.776  -3.416 -35.503  1.00  0.00    -0.356 OA
HETATM   19  C   UNL     1      -6.411  -4.576 -34.975  1.00  0.00     0.210 C 
ENDBRANCH  16  18
ENDBRANCH   7   8
ENDBRANCH   3   7
BRANCH   1  20
HETATM   20  C   UNL     1      -9.833   4.343 -32.660  1.00  0.00     0.129 A 
HETATM   21  N   UNL     1     -10.975   3.654 -33.026  1.00  0.00    -0.249 N 
HETATM   22  N   UNL     1     -11.848   3.518 -32.006  1.00  0.00    -0.183 NA
HETATM   23  C   UNL     1     -11.272   4.163 -30.993  1.00  0.00     0.142 A 
HETATM   24  C   UNL     1     -10.019   4.700 -31.343  1.00  0.00     0.071 A 
BRANCH  21  25
HETATM   25  C   UNL     1     -11.299   3.004 -34.302  1.00  0.00     0.111 C 
HETATM   26  C   UNL     1     -12.595   3.524 -34.940  1.00  0.00     0.035 C 
BRANCH  25  27
HETATM   27  C   UNL     1     -11.180   1.454 -34.230  1.00  0.00     0.002 C 
HETATM   28  C   UNL     1     -10.124   0.938 -33.247  1.00  0.00     0.011 C 
HETATM   29  C   UNL     1     -12.527   0.799 -33.905  1.00  0.00     0.011 C 
ENDBRANCH  25  27
ENDBRANCH  21  25
ENDBRANCH   1  20
TORSDOF 6
ENDMDL
MODEL 10
REMARK VINA RESULT:      -7.4      2.612      7.867
REMARK  6 active torsions:
REMARK  status: ('A' for Active; 'I' for Inactive)
REMARK    1  A    between atoms: C_2  and  N_3 
REMARK    2  A    between atoms: C_2  and  C_25 
REMARK    3  A    between atoms: C_7  and  N_8 
REMARK       I    between atoms: N_8  and  C_9 
REMARK       I    between atoms: C_9  and  N_10 
REMARK    4  A    between atoms: N_10  and  C_11 
REMARK    5  A    between atoms: C_11  and  C_12 
REMARK    6  A    between atoms: C_20  and  O_21 
ROOT
HETATM    1  N   UNL     1      -7.566   1.501 -32.865  1.00  0.00    -0.293 N 
HETATM    2  C   UNL     1      -6.896   2.738 -32.863  1.00  0.00     0.322 C 
HETATM    3  N   UNL     1      -5.818   2.895 -33.674  1.00  0.00    -0.337 N 
HETATM    4  O   UNL     1      -7.421   3.587 -32.165  1.00  0.00    -0.247 OA
HETATM    5  H   UNL     1      -8.413   1.568 -32.315  1.00  0.00     0.172 HD
HETATM    6  H   UNL     1      -5.670   2.169 -34.352  1.00  0.00     0.164 HD
ENDROOT
BRANCH   3   7
HETATM    7  C   UNL     1      -5.423   4.210 -34.142  1.00  0.00     0.181 C 
BRANCH   7   8
HETATM    8  C   UNL     1      -4.306   4.857 -33.396  1.00  0.00     0.028 A 
HETATM    9  N   UNL     1      -3.686   6.020 -33.793  1.00  0.00    -0.357 N 
HETATM   10  H   UNL     1      -3.958   6.576 -34.595  1.00  0.00     0.166 HD
HETATM   11  C   UNL     1      -2.533   6.238 -33.082  1.00  0.00     0.043 A 
HETATM   12  C   UNL     1      -2.424   5.206 -32.157  1.00  0.00    -0.005 A 
HETATM   13  C   UNL     1      -1.573   7.244 -33.217  1.00  0.00     0.033 A 
HETATM   14  C   UNL     1      -3.571   4.376 -32.324  1.00  0.00     0.040 A 
HETATM   15  C   UNL     1      -1.276   5.154 -31.342  1.00  0.00     0.050 A 
HETATM   16  C   UNL     1      -0.268   6.118 -31.501  1.00  0.00     0.069 A 
HETATM   17  C   UNL     1      -0.433   7.163 -32.410  1.00  0.00     0.039 A 
BRANCH  16  18
HETATM   18  O   UNL     1       0.834   5.932 -30.707  1.00  0.00    -0.356 OA
HETATM   19  C   UNL     1       0.643   5.118 -29.555  1.00  0.00     0.210 C 
ENDBRANCH  16  18
ENDBRANCH   7   8
ENDBRANCH   3   7
BRANCH   1  20
HETATM   20  C   UNL     1      -7.309   0.304 -33.496  1.00  0.00     0.129 A 
HETATM   21  N   UNL     1      -6.420  -0.658 -33.053  1.00  0.00    -0.249 N 
HETATM   22  N   UNL     1      -6.350  -1.721 -33.880  1.00  0.00    -0.183 NA
HETATM   23  C   UNL     1      -7.175  -1.414 -34.880  1.00  0.00     0.142 A 
HETATM   24  C   UNL     1      -7.795  -0.163 -34.697  1.00  0.00     0.071 A 
BRANCH  21  25
HETATM   25  C   UNL     1      -5.647  -0.703 -31.805  1.00  0.00     0.111 C 
HETATM   26  C   UNL     1      -6.404  -0.135 -30.597  1.00  0.00     0.035 C 
BRANCH  25  27
HETATM   27  C   UNL     1      -4.196  -0.170 -31.981  1.00  0.00     0.002 C 
HETATM   28  C   UNL     1      -3.834   1.012 -31.075  1.00  0.00     0.011 C 
HETATM   29  C   UNL     1      -3.158  -1.282 -31.787  1.00  0.00     0.011 C 
ENDBRANCH  25  27
ENDBRANCH  21  25
ENDBRANCH   1  20
TORSDOF 6
ENDMDL
