MODEL 1
REMARK VINA RESULT:      -9.1      0.000      0.000
REMARK  7 active torsions:
REMARK  status: ('A' for Active; 'I' for Inactive)
REMARK    1  A    between atoms: C_2  and  C_3 
REMARK    2  A    between atoms: C_2  and  C_9 
REMARK    3  A    between atoms: C_9  and  C_10 
REMARK       I    between atoms: C_10  and  N_11 
REMARK    4  A    between atoms: N_11  and  N_12 
REMARK       I    between atoms: N_12  and  C_13 
REMARK    5  A    between atoms: C_13  and  C_14 
REMARK    6  A    between atoms: C_18  and  C_19 
REMARK    7  A    between atoms: C_22  and  O_23 
ROOT
HETATM    1  N   UNL     1      -2.968   3.801 -31.054  1.00  0.00    -0.262 N 
HETATM    2  C   UNL     1      -1.986   4.622 -31.563  1.00  0.00     0.288 C 
HETATM    3  O   UNL     1      -1.770   4.709 -32.771  1.00  0.00    -0.264 OA
HETATM    4  H   UNL     1      -3.180   3.716 -30.063  1.00  0.00     0.190 HD
ENDROOT
BRANCH   2   5
HETATM    5  C   UNL     1      -1.240   5.365 -30.585  1.00  0.00     0.121 A 
HETATM    6  N   UNL     1      -0.181   4.822 -29.915  1.00  0.00    -0.272 N 
HETATM    7  H   UNL     1       0.184   3.879 -30.013  1.00  0.00     0.189 HD
HETATM    8  N   UNL     1       0.414   5.659 -29.055  1.00  0.00    -0.174 NA
HETATM    9  C   UNL     1      -0.279   6.805 -29.153  1.00  0.00     0.089 A 
HETATM   10  C   UNL     1      -1.331   6.657 -30.102  1.00  0.00     0.071 A 
BRANCH   9  11
HETATM   11  C   UNL     1       0.077   7.996 -28.370  1.00  0.00    -0.005 A 
HETATM   12  C   UNL     1      -0.877   8.990 -28.114  1.00  0.00     0.016 A 
HETATM   13  C   UNL     1      -0.550  10.115 -27.350  1.00  0.00     0.037 A 
HETATM   14  C   UNL     1       0.732  10.273 -26.825  1.00  0.00     0.068 A 
HETATM   15  C   UNL     1       1.693   9.297 -27.082  1.00  0.00     0.037 A 
HETATM   16  C   UNL     1       1.368   8.168 -27.849  1.00  0.00     0.016 A 
BRANCH  14  17
HETATM   17  O   UNL     1       0.917  11.410 -26.091  1.00  0.00    -0.356 OA
HETATM   18  C   UNL     1       1.722  11.299 -24.923  1.00  0.00     0.210 C 
ENDBRANCH  14  17
ENDBRANCH   9  11
ENDBRANCH   2   5
BRANCH   1  19
HETATM   19  N   UNL     1      -3.785   3.080 -31.927  1.00  0.00    -0.267 N 
HETATM   20  C   UNL     1      -3.718   1.703 -31.881  1.00  0.00     0.236 C 
HETATM   21  O   UNL     1      -2.915   1.111 -31.163  1.00  0.00    -0.272 OA
HETATM   22  H   UNL     1      -4.472   3.604 -32.465  1.00  0.00     0.190 HD
BRANCH  20  23
HETATM   23  C   UNL     1      -4.710   1.026 -32.804  1.00  0.00     0.113 C 
BRANCH  23  24
HETATM   24  C   UNL     1      -5.362  -0.219 -32.177  1.00  0.00     0.023 C 
HETATM   25  C   UNL     1      -6.728   0.099 -31.554  1.00  0.00     0.015 C 
BRANCH  24  26
HETATM   26  C   UNL     1      -5.493  -1.330 -33.210  1.00  0.00    -0.054 A 
HETATM   27  C   UNL     1      -6.733  -1.677 -33.768  1.00  0.00     0.007 A 
HETATM   28  C   UNL     1      -6.828  -2.702 -34.712  1.00  0.00     0.001 A 
HETATM   29  C   UNL     1      -5.685  -3.391 -35.112  1.00  0.00     0.000 A 
HETATM   30  C   UNL     1      -4.447  -3.056 -34.568  1.00  0.00     0.001 A 
HETATM   31  C   UNL     1      -4.351  -2.033 -33.623  1.00  0.00     0.007 A 
ENDBRANCH  24  26
ENDBRANCH  23  24
ENDBRANCH  20  23
ENDBRANCH   1  19
TORSDOF 7
ENDMDL
MODEL 2
REMARK VINA RESULT:      -9.0      0.223      1.306
REMARK  7 active torsions:
REMARK  status: ('A' for Active; 'I' for Inactive)
REMARK    1  A    between atoms: C_2  and  C_3 
REMARK    2  A    between atoms: C_2  and  C_9 
REMARK    3  A    between atoms: C_9  and  C_10 
REMARK       I    between atoms: C_10  and  N_11 
REMARK    4  A    between atoms: N_11  and  N_12 
REMARK       I    between atoms: N_12  and  C_13 
REMARK    5  A    between atoms: C_13  and  C_14 
REMARK    6  A    between atoms: C_18  and  C_19 
REMARK    7  A    between atoms: C_22  and  O_23 
ROOT
HETATM    1  N   UNL     1      -2.997   3.934 -31.078  1.00  0.00    -0.262 N 
HETATM    2  C   UNL     1      -1.960   4.638 -31.650  1.00  0.00     0.288 C 
HETATM    3  O   UNL     1      -1.731   4.594 -32.858  1.00  0.00    -0.264 OA
HETATM    4  H   UNL     1      -3.222   3.958 -30.087  1.00  0.00     0.190 HD
ENDROOT
BRANCH   2   5
HETATM    5  C   UNL     1      -1.176   5.424 -30.739  1.00  0.00     0.121 A 
HETATM    6  N   UNL     1       0.099   5.075 -30.393  1.00  0.00    -0.272 N 
HETATM    7  H   UNL     1       0.615   4.260 -30.711  1.00  0.00     0.189 HD
HETATM    8  N   UNL     1       0.693   5.929 -29.549  1.00  0.00    -0.174 NA
HETATM    9  C   UNL     1      -0.223   6.884 -29.322  1.00  0.00     0.089 A 
HETATM   10  C   UNL     1      -1.414   6.598 -30.050  1.00  0.00     0.071 A 
BRANCH   9  11
HETATM   11  C   UNL     1       0.055   8.032 -28.449  1.00  0.00    -0.005 A 
HETATM   12  C   UNL     1       1.320   8.196 -27.871  1.00  0.00     0.016 A 
HETATM   13  C   UNL     1       1.598   9.300 -27.056  1.00  0.00     0.037 A 
HETATM   14  C   UNL     1       0.621  10.263 -26.804  1.00  0.00     0.068 A 
HETATM   15  C   UNL     1      -0.645  10.105 -27.364  1.00  0.00     0.037 A 
HETATM   16  C   UNL     1      -0.925   8.999 -28.180  1.00  0.00     0.016 A 
BRANCH  14  17
HETATM   17  O   UNL     1       1.023  11.293 -26.002  1.00  0.00    -0.356 OA
HETATM   18  C   UNL     1       1.870  10.963 -24.907  1.00  0.00     0.210 C 
ENDBRANCH  14  17
ENDBRANCH   9  11
ENDBRANCH   2   5
BRANCH   1  19
HETATM   19  N   UNL     1      -3.852   3.185 -31.888  1.00  0.00    -0.267 N 
HETATM   20  C   UNL     1      -3.743   1.810 -31.841  1.00  0.00     0.236 C 
HETATM   21  O   UNL     1      -2.875   1.246 -31.179  1.00  0.00    -0.272 OA
HETATM   22  H   UNL     1      -4.590   3.686 -32.379  1.00  0.00     0.190 HD
BRANCH  20  23
HETATM   23  C   UNL     1      -4.778   1.100 -32.690  1.00  0.00     0.113 C 
BRANCH  23  24
HETATM   24  C   UNL     1      -5.273  -0.213 -32.060  1.00  0.00     0.023 C 
HETATM   25  C   UNL     1      -6.602  -0.028 -31.315  1.00  0.00     0.015 C 
BRANCH  24  26
HETATM   26  C   UNL     1      -5.403  -1.298 -33.120  1.00  0.00    -0.054 A 
HETATM   27  C   UNL     1      -4.300  -2.061 -33.534  1.00  0.00     0.007 A 
HETATM   28  C   UNL     1      -4.445  -3.050 -34.510  1.00  0.00     0.001 A 
HETATM   29  C   UNL     1      -5.692  -3.289 -35.084  1.00  0.00     0.000 A 
HETATM   30  C   UNL     1      -6.796  -2.539 -34.681  1.00  0.00     0.001 A 
HETATM   31  C   UNL     1      -6.652  -1.551 -33.705  1.00  0.00     0.007 A 
ENDBRANCH  24  26
ENDBRANCH  23  24
ENDBRANCH  20  23
ENDBRANCH   1  19
TORSDOF 7
ENDMDL
MODEL 3
REMARK VINA RESULT:      -8.8      2.243     11.689
REMARK  7 active torsions:
REMARK  status: ('A' for Active; 'I' for Inactive)
REMARK    1  A    between atoms: C_2  and  C_3 
REMARK    2  A    between atoms: C_2  and  C_9 
REMARK    3  A    between atoms: C_9  and  C_10 
REMARK       I    between atoms: C_10  and  N_11 
REMARK    4  A    between atoms: N_11  and  N_12 
REMARK       I    between atoms: N_12  and  C_13 
REMARK    5  A    between atoms: C_13  and  C_14 
REMARK    6  A    between atoms: C_18  and  C_19 
REMARK    7  A    between atoms: C_22  and  O_23 
ROOT
HETATM    1  N   UNL     1      -3.014   4.093 -31.296  1.00  0.00    -0.262 N 
HETATM    2  C   UNL     1      -4.391   4.045 -31.304  1.00  0.00     0.288 C 
HETATM    3  O   UNL     1      -5.076   4.889 -30.726  1.00  0.00    -0.264 OA
HETATM    4  H   UNL     1      -2.420   3.421 -31.773  1.00  0.00     0.190 HD
ENDROOT
BRANCH   2   5
HETATM    5  C   UNL     1      -4.962   2.948 -32.034  1.00  0.00     0.121 A 
HETATM    6  N   UNL     1      -6.126   3.075 -32.739  1.00  0.00    -0.272 N 
HETATM    7  H   UNL     1      -6.701   3.908 -32.821  1.00  0.00     0.189 HD
HETATM    8  N   UNL     1      -6.506   1.961 -33.378  1.00  0.00    -0.174 NA
HETATM    9  C   UNL     1      -5.560   1.055 -33.085  1.00  0.00     0.089 A 
HETATM   10  C   UNL     1      -4.574   1.638 -32.237  1.00  0.00     0.071 A 
BRANCH   9  11
HETATM   11  C   UNL     1      -5.603  -0.313 -33.621  1.00  0.00    -0.005 A 
HETATM   12  C   UNL     1      -4.483  -1.149 -33.527  1.00  0.00     0.016 A 
HETATM   13  C   UNL     1      -4.525  -2.460 -34.015  1.00  0.00     0.037 A 
HETATM   14  C   UNL     1      -5.685  -2.964 -34.604  1.00  0.00     0.068 A 
HETATM   15  C   UNL     1      -6.802  -2.139 -34.713  1.00  0.00     0.037 A 
HETATM   16  C   UNL     1      -6.761  -0.824 -34.226  1.00  0.00     0.016 A 
BRANCH  14  17
HETATM   17  O   UNL     1      -5.596  -4.260 -35.029  1.00  0.00    -0.356 OA
HETATM   18  C   UNL     1      -4.707  -5.111 -34.317  1.00  0.00     0.210 C 
ENDBRANCH  14  17
ENDBRANCH   9  11
ENDBRANCH   2   5
BRANCH   1  19
HETATM   19  N   UNL     1      -2.364   5.153 -30.662  1.00  0.00    -0.267 N 
HETATM   20  C   UNL     1      -1.109   5.502 -31.114  1.00  0.00     0.236 C 
HETATM   21  O   UNL     1      -0.528   4.862 -31.989  1.00  0.00    -0.272 OA
HETATM   22  H   UNL     1      -2.899   5.689 -29.980  1.00  0.00     0.190 HD
BRANCH  20  23
HETATM   23  C   UNL     1      -0.538   6.718 -30.414  1.00  0.00     0.113 C 
BRANCH  23  24
HETATM   24  C   UNL     1      -0.307   6.494 -28.910  1.00  0.00     0.023 C 
HETATM   25  C   UNL     1       0.791   5.454 -28.646  1.00  0.00     0.015 C 
BRANCH  24  26
HETATM   26  C   UNL     1       0.026   7.809 -28.219  1.00  0.00    -0.054 A 
HETATM   27  C   UNL     1      -0.936   8.815 -28.044  1.00  0.00     0.007 A 
HETATM   28  C   UNL     1      -0.605  10.015 -27.408  1.00  0.00     0.001 A 
HETATM   29  C   UNL     1       0.691  10.222 -26.940  1.00  0.00     0.000 A 
HETATM   30  C   UNL     1       1.656   9.231 -27.107  1.00  0.00     0.001 A 
HETATM   31  C   UNL     1       1.326   8.032 -27.742  1.00  0.00     0.007 A 
ENDBRANCH  24  26
ENDBRANCH  23  24
ENDBRANCH  20  23
ENDBRANCH   1  19
TORSDOF 7
ENDMDL
MODEL 4
REMARK VINA RESULT:      -8.4      1.618      2.137
REMARK  7 active torsions:
REMARK  status: ('A' for Active; 'I' for Inactive)
REMARK    1  A    between atoms: C_2  and  C_3 
REMARK    2  A    between atoms: C_2  and  C_9 
REMARK    3  A    between atoms: C_9  and  C_10 
REMARK       I    between atoms: C_10  and  N_11 
REMARK    4  A    between atoms: N_11  and  N_12 
REMARK       I    between atoms: N_12  and  C_13 
REMARK    5  A    between atoms: C_13  and  C_14 
REMARK    6  A    between atoms: C_18  and  C_19 
REMARK    7  A    between atoms: C_22  and  O_23 
ROOT
HETATM    1  N   UNL     1      -3.155   2.741 -31.936  1.00  0.00    -0.262 N 
HETATM    2  C   UNL     1      -3.366   3.951 -32.558  1.00  0.00     0.288 C 
HETATM    3  O   UNL     1      -4.166   4.077 -33.485  1.00  0.00    -0.264 OA
HETATM    4  H   UNL     1      -2.513   2.605 -31.160  1.00  0.00     0.190 HD
ENDROOT
BRANCH   2   5
HETATM    5  C   UNL     1      -2.592   5.048 -32.046  1.00  0.00     0.121 A 
HETATM    6  N   UNL     1      -2.070   6.010 -32.863  1.00  0.00    -0.272 N 
HETATM    7  H   UNL     1      -2.151   6.061 -33.874  1.00  0.00     0.189 HD
HETATM    8  N   UNL     1      -1.393   6.970 -32.219  1.00  0.00    -0.174 NA
HETATM    9  C   UNL     1      -1.465   6.633 -30.922  1.00  0.00     0.089 A 
HETATM   10  C   UNL     1      -2.208   5.426 -30.774  1.00  0.00     0.071 A 
BRANCH   9  11
HETATM   11  C   UNL     1      -0.854   7.458 -29.871  1.00  0.00    -0.005 A 
HETATM   12  C   UNL     1      -1.581   8.490 -29.264  1.00  0.00     0.016 A 
HETATM   13  C   UNL     1      -1.012   9.264 -28.247  1.00  0.00     0.037 A 
HETATM   14  C   UNL     1       0.292   9.025 -27.814  1.00  0.00     0.068 A 
HETATM   15  C   UNL     1       1.030   8.010 -28.419  1.00  0.00     0.037 A 
HETATM   16  C   UNL     1       0.461   7.233 -29.439  1.00  0.00     0.016 A 
BRANCH  14  17
HETATM   17  O   UNL     1       0.724   9.845 -26.810  1.00  0.00    -0.356 OA
HETATM   18  C   UNL     1      -0.267  10.358 -25.928  1.00  0.00     0.210 C 
ENDBRANCH  14  17
ENDBRANCH   9  11
ENDBRANCH   2   5
BRANCH   1  19
HETATM   19  N   UNL     1      -3.901   1.626 -32.324  1.00  0.00    -0.267 N 
HETATM   20  C   UNL     1      -3.573   0.407 -31.768  1.00  0.00     0.236 C 
HETATM   21  O   UNL     1      -2.608   0.269 -31.019  1.00  0.00    -0.272 OA
HETATM   22  H   UNL     1      -4.723   1.791 -32.903  1.00  0.00     0.190 HD
BRANCH  20  23
HETATM   23  C   UNL     1      -4.503  -0.712 -32.191  1.00  0.00     0.113 C 
BRANCH  23  24
HETATM   24  C   UNL     1      -3.770  -1.871 -32.887  1.00  0.00     0.023 C 
HETATM   25  C   UNL     1      -3.041  -2.776 -31.884  1.00  0.00     0.015 C 
BRANCH  24  26
HETATM   26  C   UNL     1      -4.740  -2.685 -33.732  1.00  0.00    -0.054 A 
HETATM   27  C   UNL     1      -5.961  -2.152 -34.174  1.00  0.00     0.007 A 
HETATM   28  C   UNL     1      -6.836  -2.920 -34.946  1.00  0.00     0.001 A 
HETATM   29  C   UNL     1      -6.501  -4.229 -35.287  1.00  0.00     0.000 A 
HETATM   30  C   UNL     1      -5.292  -4.771 -34.856  1.00  0.00     0.001 A 
HETATM   31  C   UNL     1      -4.417  -4.004 -34.084  1.00  0.00     0.007 A 
ENDBRANCH  24  26
ENDBRANCH  23  24
ENDBRANCH  20  23
ENDBRANCH   1  19
TORSDOF 7
ENDMDL
MODEL 5
REMARK VINA RESULT:      -8.3      3.289     11.099
REMARK  7 active torsions:
REMARK  status: ('A' for Active; 'I' for Inactive)
REMARK    1  A    between atoms: C_2  and  C_3 
REMARK    2  A    between atoms: C_2  and  C_9 
REMARK    3  A    between atoms: C_9  and  C_10 
REMARK       I    between atoms: C_10  and  N_11 
REMARK    4  A    between atoms: N_11  and  N_12 
REMARK       I    between atoms: N_12  and  C_13 
REMARK    5  A    between atoms: C_13  and  C_14 
REMARK    6  A    between atoms: C_18  and  C_19 
REMARK    7  A    between atoms: C_22  and  O_23 
ROOT
HETATM    1  N   UNL     1      -4.534   4.445 -30.343  1.00  0.00    -0.262 N 
HETATM    2  C   UNL     1      -5.715   3.853 -29.954  1.00  0.00     0.288 C 
HETATM    3  O   UNL     1      -6.488   4.395 -29.165  1.00  0.00    -0.264 OA
HETATM    4  H   UNL     1      -3.880   4.031 -31.002  1.00  0.00     0.190 HD
ENDROOT
BRANCH   2   5
HETATM    5  C   UNL     1      -5.977   2.566 -30.538  1.00  0.00     0.121 A 
HETATM    6  N   UNL     1      -6.908   1.712 -30.018  1.00  0.00    -0.272 N 
HETATM    7  H   UNL     1      -7.488   1.866 -29.199  1.00  0.00     0.189 HD
HETATM    8  N   UNL     1      -7.040   0.564 -30.698  1.00  0.00    -0.174 NA
HETATM    9  C   UNL     1      -6.161   0.658 -31.708  1.00  0.00     0.089 A 
HETATM   10  C   UNL     1      -5.469   1.902 -31.638  1.00  0.00     0.071 A 
BRANCH   9  11
HETATM   11  C   UNL     1      -6.012  -0.409 -32.707  1.00  0.00    -0.005 A 
HETATM   12  C   UNL     1      -4.766  -1.015 -32.920  1.00  0.00     0.016 A 
HETATM   13  C   UNL     1      -4.623  -2.046 -33.854  1.00  0.00     0.037 A 
HETATM   14  C   UNL     1      -5.717  -2.496 -34.593  1.00  0.00     0.068 A 
HETATM   15  C   UNL     1      -6.958  -1.894 -34.399  1.00  0.00     0.037 A 
HETATM   16  C   UNL     1      -7.104  -0.859 -33.464  1.00  0.00     0.016 A 
BRANCH  14  17
HETATM   17  O   UNL     1      -5.443  -3.514 -35.464  1.00  0.00    -0.356 OA
HETATM   18  C   UNL     1      -6.330  -4.626 -35.452  1.00  0.00     0.210 C 
ENDBRANCH  14  17
ENDBRANCH   9  11
ENDBRANCH   2   5
BRANCH   1  19
HETATM   19  N   UNL     1      -4.215   5.721 -29.874  1.00  0.00    -0.267 N 
HETATM   20  C   UNL     1      -4.457   6.792 -30.709  1.00  0.00     0.236 C 
HETATM   21  O   UNL     1      -4.860   6.645 -31.861  1.00  0.00    -0.272 OA
HETATM   22  H   UNL     1      -3.934   5.805 -28.899  1.00  0.00     0.190 HD
BRANCH  20  23
HETATM   23  C   UNL     1      -4.158   8.131 -30.066  1.00  0.00     0.113 C 
BRANCH  23  24
HETATM   24  C   UNL     1      -3.072   8.927 -30.810  1.00  0.00     0.023 C 
HETATM   25  C   UNL     1      -2.826  10.300 -30.170  1.00  0.00     0.015 C 
BRANCH  24  26
HETATM   26  C   UNL     1      -1.778   8.129 -30.876  1.00  0.00    -0.054 A 
HETATM   27  C   UNL     1      -1.301   7.594 -32.083  1.00  0.00     0.007 A 
HETATM   28  C   UNL     1      -0.110   6.863 -32.117  1.00  0.00     0.001 A 
HETATM   29  C   UNL     1       0.618   6.659 -30.947  1.00  0.00     0.000 A 
HETATM   30  C   UNL     1       0.157   7.186 -29.742  1.00  0.00     0.001 A 
HETATM   31  C   UNL     1      -1.033   7.916 -29.707  1.00  0.00     0.007 A 
ENDBRANCH  24  26
ENDBRANCH  23  24
ENDBRANCH  20  23
ENDBRANCH   1  19
TORSDOF 7
ENDMDL
MODEL 6
REMARK VINA RESULT:      -8.1      3.283     11.352
REMARK  7 active torsions:
REMARK  status: ('A' for Active; 'I' for Inactive)
REMARK    1  A    between atoms: C_2  and  C_3 
REMARK    2  A    between atoms: C_2  and  C_9 
REMARK    3  A    between atoms: C_9  and  C_10 
REMARK       I    between atoms: C_10  and  N_11 
REMARK    4  A    between atoms: N_11  and  N_12 
REMARK       I    between atoms: N_12  and  C_13 
REMARK    5  A    between atoms: C_13  and  C_14 
REMARK    6  A    between atoms: C_18  and  C_19 
REMARK    7  A    between atoms: C_22  and  O_23 
ROOT
HETATM    1  N   UNL     1      -3.905   4.639 -30.919  1.00  0.00    -0.262 N 
HETATM    2  C   UNL     1      -3.713   3.320 -31.266  1.00  0.00     0.288 C 
HETATM    3  O   UNL     1      -2.592   2.817 -31.323  1.00  0.00    -0.264 OA
HETATM    4  H   UNL     1      -4.817   5.082 -30.849  1.00  0.00     0.190 HD
ENDROOT
BRANCH   2   5
HETATM    5  C   UNL     1      -4.912   2.580 -31.549  1.00  0.00     0.121 A 
HETATM    6  N   UNL     1      -5.102   1.307 -31.091  1.00  0.00    -0.272 N 
HETATM    7  H   UNL     1      -4.455   0.755 -30.535  1.00  0.00     0.189 HD
HETATM    8  N   UNL     1      -6.282   0.771 -31.429  1.00  0.00    -0.174 NA
HETATM    9  C   UNL     1      -6.903   1.725 -32.142  1.00  0.00     0.089 A 
HETATM   10  C   UNL     1      -6.068   2.876 -32.244  1.00  0.00     0.071 A 
BRANCH   9  11
HETATM   11  C   UNL     1      -8.253   1.531 -32.687  1.00  0.00    -0.005 A 
HETATM   12  C   UNL     1      -8.965   0.354 -32.420  1.00  0.00     0.016 A 
HETATM   13  C   UNL     1     -10.260   0.172 -32.917  1.00  0.00     0.037 A 
HETATM   14  C   UNL     1     -10.872   1.160 -33.688  1.00  0.00     0.068 A 
HETATM   15  C   UNL     1     -10.170   2.330 -33.970  1.00  0.00     0.037 A 
HETATM   16  C   UNL     1      -8.871   2.513 -33.474  1.00  0.00     0.016 A 
BRANCH  14  17
HETATM   17  O   UNL     1     -12.140   0.862 -34.103  1.00  0.00    -0.356 OA
HETATM   18  C   UNL     1     -12.988   1.960 -34.417  1.00  0.00     0.210 C 
ENDBRANCH  14  17
ENDBRANCH   9  11
ENDBRANCH   2   5
BRANCH   1  19
HETATM   19  N   UNL     1      -2.807   5.427 -30.570  1.00  0.00    -0.267 N 
HETATM   20  C   UNL     1      -2.813   6.750 -30.962  1.00  0.00     0.236 C 
HETATM   21  O   UNL     1      -3.705   7.218 -31.666  1.00  0.00    -0.272 OA
HETATM   22  H   UNL     1      -2.117   5.017 -29.942  1.00  0.00     0.190 HD
BRANCH  20  23
HETATM   23  C   UNL     1      -1.618   7.530 -30.453  1.00  0.00     0.113 C 
BRANCH  23  24
HETATM   24  C   UNL     1      -0.431   6.629 -30.070  1.00  0.00     0.023 C 
HETATM   25  C   UNL     1       0.653   6.613 -31.156  1.00  0.00     0.015 C 
BRANCH  24  26
HETATM   26  C   UNL     1       0.158   7.062 -28.735  1.00  0.00    -0.054 A 
HETATM   27  C   UNL     1      -0.187   6.423 -27.533  1.00  0.00     0.007 A 
HETATM   28  C   UNL     1       0.366   6.841 -26.320  1.00  0.00     0.001 A 
HETATM   29  C   UNL     1       1.270   7.901 -26.293  1.00  0.00     0.000 A 
HETATM   30  C   UNL     1       1.622   8.543 -27.478  1.00  0.00     0.001 A 
HETATM   31  C   UNL     1       1.070   8.127 -28.691  1.00  0.00     0.007 A 
ENDBRANCH  24  26
ENDBRANCH  23  24
ENDBRANCH  20  23
ENDBRANCH   1  19
TORSDOF 7
ENDMDL
MODEL 7
REMARK VINA RESULT:      -7.9      8.332     11.348
REMARK  7 active torsions:
REMARK  status: ('A' for Active; 'I' for Inactive)
REMARK    1  A    between atoms: C_2  and  C_3 
REMARK    2  A    between atoms: C_2  and  C_9 
REMARK    3  A    between atoms: C_9  and  C_10 
REMARK       I    between atoms: C_10  and  N_11 
REMARK    4  A    between atoms: N_11  and  N_12 
REMARK       I    between atoms: N_12  and  C_13 
REMARK    5  A    between atoms: C_13  and  C_14 
REMARK    6  A    between atoms: C_18  and  C_19 
REMARK    7  A    between atoms: C_22  and  O_23 
ROOT
HETATM    1  N   UNL     1      -9.152   1.130 -34.625  1.00  0.00    -0.262 N 
HETATM    2  C   UNL     1     -10.417   1.187 -34.083  1.00  0.00     0.288 C 
HETATM    3  O   UNL     1     -10.791   0.398 -33.216  1.00  0.00    -0.264 OA
HETATM    4  H   UNL     1      -8.807   1.774 -35.332  1.00  0.00     0.190 HD
ENDROOT
BRANCH   2   5
HETATM    5  C   UNL     1     -11.258   2.231 -34.598  1.00  0.00     0.121 A 
HETATM    6  N   UNL     1     -11.951   2.092 -35.768  1.00  0.00    -0.272 N 
HETATM    7  H   UNL     1     -11.950   1.285 -36.385  1.00  0.00     0.189 HD
HETATM    8  N   UNL     1     -12.703   3.152 -36.091  1.00  0.00    -0.174 NA
HETATM    9  C   UNL     1     -12.501   4.034 -35.099  1.00  0.00     0.089 A 
HETATM   10  C   UNL     1     -11.594   3.492 -34.143  1.00  0.00     0.071 A 
BRANCH   9  11
HETATM   11  C   UNL     1     -13.175   5.339 -35.073  1.00  0.00    -0.005 A 
HETATM   12  C   UNL     1     -13.667   5.862 -33.870  1.00  0.00     0.016 A 
HETATM   13  C   UNL     1     -14.290   7.114 -33.835  1.00  0.00     0.037 A 
HETATM   14  C   UNL     1     -14.432   7.872 -34.997  1.00  0.00     0.068 A 
HETATM   15  C   UNL     1     -13.956   7.359 -36.202  1.00  0.00     0.037 A 
HETATM   16  C   UNL     1     -13.333   6.103 -36.239  1.00  0.00     0.016 A 
BRANCH  14  17
HETATM   17  O   UNL     1     -15.048   9.080 -34.824  1.00  0.00    -0.356 OA
HETATM   18  C   UNL     1     -16.437   9.142 -35.127  1.00  0.00     0.210 C 
ENDBRANCH  14  17
ENDBRANCH   9  11
ENDBRANCH   2   5
BRANCH   1  19
HETATM   19  N   UNL     1      -8.239   0.187 -34.149  1.00  0.00    -0.267 N 
HETATM   20  C   UNL     1      -7.243   0.625 -33.302  1.00  0.00     0.236 C 
HETATM   21  O   UNL     1      -7.094   1.814 -33.027  1.00  0.00    -0.272 OA
HETATM   22  H   UNL     1      -8.428  -0.793 -34.356  1.00  0.00     0.190 HD
BRANCH  20  23
HETATM   23  C   UNL     1      -6.368  -0.496 -32.778  1.00  0.00     0.113 C 
BRANCH  23  24
HETATM   24  C   UNL     1      -5.237  -0.878 -33.749  1.00  0.00     0.023 C 
HETATM   25  C   UNL     1      -3.851  -0.557 -33.172  1.00  0.00     0.015 C 
BRANCH  24  26
HETATM   26  C   UNL     1      -5.330  -2.351 -34.123  1.00  0.00    -0.054 A 
HETATM   27  C   UNL     1      -4.252  -3.230 -33.937  1.00  0.00     0.007 A 
HETATM   28  C   UNL     1      -4.362  -4.577 -34.290  1.00  0.00     0.001 A 
HETATM   29  C   UNL     1      -5.550  -5.062 -34.834  1.00  0.00     0.000 A 
HETATM   30  C   UNL     1      -6.628  -4.201 -35.023  1.00  0.00     0.001 A 
HETATM   31  C   UNL     1      -6.520  -2.854 -34.670  1.00  0.00     0.007 A 
ENDBRANCH  24  26
ENDBRANCH  23  24
ENDBRANCH  20  23
ENDBRANCH   1  19
TORSDOF 7
ENDMDL
MODEL 8
REMARK VINA RESULT:      -7.5      7.940     10.628
REMARK  7 active torsions:
REMARK  status: ('A' for Active; 'I' for Inactive)
REMARK    1  A    between atoms: C_2  and  C_3 
REMARK    2  A    between atoms: C_2  and  C_9 
REMARK    3  A    between atoms: C_9  and  C_10 
REMARK       I    between atoms: C_10  and  N_11 
REMARK    4  A    between atoms: N_11  and  N_12 
REMARK       I    between atoms: N_12  and  C_13 
REMARK    5  A    between atoms: C_13  and  C_14 
REMARK    6  A    between atoms: C_18  and  C_19 
REMARK    7  A    between atoms: C_22  and  O_23 
ROOT
HETATM    1  N   UNL     1      -9.073   1.302 -31.155  1.00  0.00    -0.262 N 
HETATM    2  C   UNL     1      -8.982   2.668 -31.002  1.00  0.00     0.288 C 
HETATM    3  O   UNL     1      -7.914   3.227 -30.756  1.00  0.00    -0.264 OA
HETATM    4  H   UNL     1      -9.936   0.810 -31.372  1.00  0.00     0.190 HD
ENDROOT
BRANCH   2   5
HETATM    5  C   UNL     1     -10.218   3.385 -31.153  1.00  0.00     0.121 A 
HETATM    6  N   UNL     1     -11.121   3.495 -30.133  1.00  0.00    -0.272 N 
HETATM    7  H   UNL     1     -11.039   3.099 -29.201  1.00  0.00     0.189 HD
HETATM    8  N   UNL     1     -12.209   4.214 -30.438  1.00  0.00    -0.174 NA
HETATM    9  C   UNL     1     -12.025   4.597 -31.711  1.00  0.00     0.089 A 
HETATM   10  C   UNL     1     -10.785   4.089 -32.197  1.00  0.00     0.071 A 
BRANCH   9  11
HETATM   11  C   UNL     1     -13.004   5.433 -32.419  1.00  0.00    -0.005 A 
HETATM   12  C   UNL     1     -13.993   6.126 -31.708  1.00  0.00     0.016 A 
HETATM   13  C   UNL     1     -14.914   6.941 -32.374  1.00  0.00     0.037 A 
HETATM   14  C   UNL     1     -14.868   7.085 -33.760  1.00  0.00     0.068 A 
HETATM   15  C   UNL     1     -13.896   6.392 -34.480  1.00  0.00     0.037 A 
HETATM   16  C   UNL     1     -12.972   5.573 -33.814  1.00  0.00     0.016 A 
BRANCH  14  17
HETATM   17  O   UNL     1     -15.817   7.916 -34.284  1.00  0.00    -0.356 OA
HETATM   18  C   UNL     1     -15.905   7.978 -35.703  1.00  0.00     0.210 C 
ENDBRANCH  14  17
ENDBRANCH   9  11
ENDBRANCH   2   5
BRANCH   1  19
HETATM   19  N   UNL     1      -7.917   0.521 -31.083  1.00  0.00    -0.267 N 
HETATM   20  C   UNL     1      -7.327   0.134 -32.268  1.00  0.00     0.236 C 
HETATM   21  O   UNL     1      -7.830   0.385 -33.362  1.00  0.00    -0.272 OA
HETATM   22  H   UNL     1      -7.504   0.381 -30.163  1.00  0.00     0.190 HD
BRANCH  20  23
HETATM   23  C   UNL     1      -6.034  -0.631 -32.070  1.00  0.00     0.113 C 
BRANCH  23  24
HETATM   24  C   UNL     1      -5.228  -0.795 -33.370  1.00  0.00     0.023 C 
HETATM   25  C   UNL     1      -3.756  -0.402 -33.187  1.00  0.00     0.015 C 
BRANCH  24  26
HETATM   26  C   UNL     1      -5.338  -2.221 -33.890  1.00  0.00    -0.054 A 
HETATM   27  C   UNL     1      -4.264  -3.122 -33.810  1.00  0.00     0.007 A 
HETATM   28  C   UNL     1      -4.390  -4.425 -34.296  1.00  0.00     0.001 A 
HETATM   29  C   UNL     1      -5.589  -4.846 -34.867  1.00  0.00     0.000 A 
HETATM   30  C   UNL     1      -6.664  -3.963 -34.951  1.00  0.00     0.001 A 
HETATM   31  C   UNL     1      -6.540  -2.660 -34.466  1.00  0.00     0.007 A 
ENDBRANCH  24  26
ENDBRANCH  23  24
ENDBRANCH  20  23
ENDBRANCH   1  19
TORSDOF 7
ENDMDL
MODEL 9
REMARK VINA RESULT:      -7.5      2.541     11.632
REMARK  7 active torsions:
REMARK  status: ('A' for Active; 'I' for Inactive)
REMARK    1  A    between atoms: C_2  and  C_3 
REMARK    2  A    between atoms: C_2  and  C_9 
REMARK    3  A    between atoms: C_9  and  C_10 
REMARK       I    between atoms: C_10  and  N_11 
REMARK    4  A    between atoms: N_11  and  N_12 
REMARK       I    between atoms: N_12  and  C_13 
REMARK    5  A    between atoms: C_13  and  C_14 
REMARK    6  A    between atoms: C_18  and  C_19 
REMARK    7  A    between atoms: C_22  and  O_23 
ROOT
HETATM    1  N   UNL     1      -3.920   5.309 -30.146  1.00  0.00    -0.262 N 
HETATM    2  C   UNL     1      -5.215   4.877 -30.331  1.00  0.00     0.288 C 
HETATM    3  O   UNL     1      -6.147   5.298 -29.648  1.00  0.00    -0.264 OA
HETATM    4  H   UNL     1      -3.130   4.992 -30.702  1.00  0.00     0.190 HD
ENDROOT
BRANCH   2   5
HETATM    5  C   UNL     1      -5.394   3.908 -31.377  1.00  0.00     0.121 A 
HETATM    6  N   UNL     1      -5.510   4.273 -32.689  1.00  0.00    -0.272 N 
HETATM    7  H   UNL     1      -5.493   5.216 -33.064  1.00  0.00     0.189 HD
HETATM    8  N   UNL     1      -5.650   3.243 -33.535  1.00  0.00    -0.174 NA
HETATM    9  C   UNL     1      -5.631   2.150 -32.756  1.00  0.00     0.089 A 
HETATM   10  C   UNL     1      -5.477   2.529 -31.391  1.00  0.00     0.071 A 
BRANCH   9  11
HETATM   11  C   UNL     1      -5.741   0.797 -33.316  1.00  0.00    -0.005 A 
HETATM   12  C   UNL     1      -6.671   0.518 -34.326  1.00  0.00     0.016 A 
HETATM   13  C   UNL     1      -6.765  -0.763 -34.879  1.00  0.00     0.037 A 
HETATM   14  C   UNL     1      -5.934  -1.793 -34.438  1.00  0.00     0.068 A 
HETATM   15  C   UNL     1      -5.012  -1.532 -33.426  1.00  0.00     0.037 A 
HETATM   16  C   UNL     1      -4.918  -0.248 -32.869  1.00  0.00     0.016 A 
BRANCH  14  17
HETATM   17  O   UNL     1      -6.121  -2.992 -35.066  1.00  0.00    -0.356 OA
HETATM   18  C   UNL     1      -5.270  -4.062 -34.675  1.00  0.00     0.210 C 
ENDBRANCH  14  17
ENDBRANCH   9  11
ENDBRANCH   2   5
BRANCH   1  19
HETATM   19  N   UNL     1      -3.651   6.292 -29.192  1.00  0.00    -0.267 N 
HETATM   20  C   UNL     1      -2.808   7.323 -29.551  1.00  0.00     0.236 C 
HETATM   21  O   UNL     1      -2.238   7.353 -30.639  1.00  0.00    -0.272 OA
HETATM   22  H   UNL     1      -4.184   6.260 -28.324  1.00  0.00     0.190 HD
BRANCH  20  23
HETATM   23  C   UNL     1      -2.660   8.376 -28.471  1.00  0.00     0.113 C 
BRANCH  23  24
HETATM   24  C   UNL     1      -1.483   9.334 -28.725  1.00  0.00     0.023 C 
HETATM   25  C   UNL     1      -1.886  10.803 -28.537  1.00  0.00     0.015 C 
BRANCH  24  26
HETATM   26  C   UNL     1      -0.307   8.985 -27.823  1.00  0.00    -0.054 A 
HETATM   27  C   UNL     1       0.459   7.827 -28.024  1.00  0.00     0.007 A 
HETATM   28  C   UNL     1       1.532   7.527 -27.181  1.00  0.00     0.001 A 
HETATM   29  C   UNL     1       1.853   8.381 -26.128  1.00  0.00     0.000 A 
HETATM   30  C   UNL     1       1.101   9.535 -25.917  1.00  0.00     0.001 A 
HETATM   31  C   UNL     1       0.029   9.835 -26.759  1.00  0.00     0.007 A 
ENDBRANCH  24  26
ENDBRANCH  23  24
ENDBRANCH  20  23
ENDBRANCH   1  19
TORSDOF 7
ENDMDL
MODEL 10
REMARK VINA RESULT:      -7.3      7.934     10.106
REMARK  7 active torsions:
REMARK  status: ('A' for Active; 'I' for Inactive)
REMARK    1  A    between atoms: C_2  and  C_3 
REMARK    2  A    between atoms: C_2  and  C_9 
REMARK    3  A    between atoms: C_9  and  C_10 
REMARK       I    between atoms: C_10  and  N_11 
REMARK    4  A    between atoms: N_11  and  N_12 
REMARK       I    between atoms: N_12  and  C_13 
REMARK    5  A    between atoms: C_13  and  C_14 
REMARK    6  A    between atoms: C_18  and  C_19 
REMARK    7  A    between atoms: C_22  and  O_23 
ROOT
HETATM    1  N   UNL     1      -8.990   1.294 -31.137  1.00  0.00    -0.262 N 
HETATM    2  C   UNL     1      -8.895   2.661 -31.000  1.00  0.00     0.288 C 
HETATM    3  O   UNL     1      -7.820   3.222 -30.789  1.00  0.00    -0.264 OA
HETATM    4  H   UNL     1      -9.859   0.800 -31.325  1.00  0.00     0.190 HD
ENDROOT
BRANCH   2   5
HETATM    5  C   UNL     1     -10.134   3.377 -31.125  1.00  0.00     0.121 A 
HETATM    6  N   UNL     1     -11.119   2.976 -31.983  1.00  0.00    -0.272 N 
HETATM    7  H   UNL     1     -11.095   2.176 -32.608  1.00  0.00     0.189 HD
HETATM    8  N   UNL     1     -12.216   3.745 -31.958  1.00  0.00    -0.174 NA
HETATM    9  C   UNL     1     -11.950   4.697 -31.050  1.00  0.00     0.089 A 
HETATM   10  C   UNL     1     -10.647   4.502 -30.508  1.00  0.00     0.071 A 
BRANCH   9  11
HETATM   11  C   UNL     1     -12.927   5.741 -30.713  1.00  0.00    -0.005 A 
HETATM   12  C   UNL     1     -12.878   6.992 -31.342  1.00  0.00     0.016 A 
HETATM   13  C   UNL     1     -13.819   7.982 -31.042  1.00  0.00     0.037 A 
HETATM   14  C   UNL     1     -14.829   7.746 -30.110  1.00  0.00     0.068 A 
HETATM   15  C   UNL     1     -14.883   6.511 -29.469  1.00  0.00     0.037 A 
HETATM   16  C   UNL     1     -13.939   5.517 -29.768  1.00  0.00     0.016 A 
BRANCH  14  17
HETATM   17  O   UNL     1     -15.688   8.792 -29.916  1.00  0.00    -0.356 OA
HETATM   18  C   UNL     1     -16.662   8.642 -28.890  1.00  0.00     0.210 C 
ENDBRANCH  14  17
ENDBRANCH   9  11
ENDBRANCH   2   5
BRANCH   1  19
HETATM   19  N   UNL     1      -7.833   0.514 -31.089  1.00  0.00    -0.267 N 
HETATM   20  C   UNL     1      -7.289   0.094 -32.285  1.00  0.00     0.236 C 
HETATM   21  O   UNL     1      -7.834   0.317 -33.364  1.00  0.00    -0.272 OA
HETATM   22  H   UNL     1      -7.385   0.396 -30.181  1.00  0.00     0.190 HD
BRANCH  20  23
HETATM   23  C   UNL     1      -5.990  -0.667 -32.116  1.00  0.00     0.113 C 
BRANCH  23  24
HETATM   24  C   UNL     1      -5.217  -0.836 -33.436  1.00  0.00     0.023 C 
HETATM   25  C   UNL     1      -3.740  -0.445 -33.291  1.00  0.00     0.015 C 
BRANCH  24  26
HETATM   26  C   UNL     1      -5.343  -2.264 -33.948  1.00  0.00    -0.054 A 
HETATM   27  C   UNL     1      -4.300  -3.193 -33.810  1.00  0.00     0.007 A 
HETATM   28  C   UNL     1      -4.439  -4.497 -34.291  1.00  0.00     0.001 A 
HETATM   29  C   UNL     1      -5.621  -4.890 -34.914  1.00  0.00     0.000 A 
HETATM   30  C   UNL     1      -6.666  -3.979 -35.057  1.00  0.00     0.001 A 
HETATM   31  C   UNL     1      -6.528  -2.675 -34.577  1.00  0.00     0.007 A 
ENDBRANCH  24  26
ENDBRANCH  23  24
ENDBRANCH  20  23
ENDBRANCH   1  19
TORSDOF 7
ENDMDL
