MODEL 1
REMARK VINA RESULT:      -8.1      0.000      0.000
REMARK  9 active torsions:
REMARK  status: ('A' for Active; 'I' for Inactive)
REMARK    1  A    between atoms: C_2  and  C_3 
REMARK    2  A    between atoms: C_3  and  O_4 
REMARK    3  A    between atoms: O_4  and  C_5 
REMARK    4  A    between atoms: C_8  and  C_9 
REMARK    5  A    between atoms: C_13  and  C_14 
REMARK       I    between atoms: C_14  and  N_15 
REMARK    6  A    between atoms: N_15  and  N_16 
REMARK    7  A    between atoms: C_17  and  C_18 
REMARK    8  A    between atoms: C_21  and  O_22 
REMARK    9  A    between atoms: O_22  and  C_23 
ROOT
HETATM    1  C   UNL     1      -1.007   7.173 -29.011  1.00  0.00     0.089 A 
HETATM    2  N   UNL     1      -2.336   7.316 -29.128  1.00  0.00    -0.174 NA
HETATM    3  N   UNL     1      -2.685   6.455 -30.096  1.00  0.00    -0.272 N 
HETATM    4  H   UNL     1      -3.662   6.380 -30.362  1.00  0.00     0.189 HD
HETATM    5  C   UNL     1      -1.644   5.729 -30.603  1.00  0.00     0.121 A 
HETATM    6  C   UNL     1      -0.532   6.196 -29.932  1.00  0.00     0.071 A 
ENDROOT
BRANCH   5   7
HETATM    7  C   UNL     1      -1.862   4.714 -31.605  1.00  0.00     0.289 C 
HETATM    8  N   UNL     1      -2.668   3.662 -31.196  1.00  0.00    -0.242 N 
HETATM    9  H   UNL     1      -3.047   3.641 -30.259  1.00  0.00     0.192 HD
HETATM   10  O   UNL     1      -1.368   4.815 -32.725  1.00  0.00    -0.264 OA
BRANCH   8  11
HETATM   11  N   UNL     1      -3.041   2.696 -32.085  1.00  0.00    -0.184 NA
HETATM   12  C   UNL     1      -3.918   1.846 -31.655  1.00  0.00     0.150 C 
BRANCH  12  13
HETATM   13  C   UNL     1      -4.444   0.770 -32.517  1.00  0.00    -0.017 A 
HETATM   14  C   UNL     1      -5.651   0.927 -33.200  1.00  0.00     0.016 A 
HETATM   15  C   UNL     1      -6.134  -0.114 -33.995  1.00  0.00     0.037 A 
HETATM   16  C   UNL     1      -5.417  -1.309 -34.121  1.00  0.00     0.068 A 
HETATM   17  C   UNL     1      -4.210  -1.458 -33.436  1.00  0.00     0.037 A 
HETATM   18  C   UNL     1      -3.723  -0.420 -32.633  1.00  0.00     0.016 A 
BRANCH  16  19
HETATM   19  O   UNL     1      -6.004  -2.241 -34.930  1.00  0.00    -0.352 OA
BRANCH  19  20
HETATM   20  C   UNL     1      -5.428  -3.546 -34.944  1.00  0.00     0.171 C 
HETATM   21  C   UNL     1      -6.522  -4.535 -35.310  1.00  0.00     0.034 C 
ENDBRANCH  19  20
ENDBRANCH  16  19
ENDBRANCH  12  13
ENDBRANCH   8  11
ENDBRANCH   5   7
BRANCH   1  22
HETATM   22  C   UNL     1      -0.234   7.924 -28.019  1.00  0.00    -0.005 A 
HETATM   23  C   UNL     1      -0.844   8.376 -26.840  1.00  0.00     0.016 A 
HETATM   24  C   UNL     1      -0.107   9.047 -25.856  1.00  0.00     0.037 A 
HETATM   25  C   UNL     1       1.255   9.278 -26.040  1.00  0.00     0.068 A 
HETATM   26  C   UNL     1       1.863   8.862 -27.225  1.00  0.00     0.037 A 
HETATM   27  C   UNL     1       1.129   8.186 -28.207  1.00  0.00     0.016 A 
BRANCH  25  28
HETATM   28  O   UNL     1       2.090   9.900 -25.154  1.00  0.00    -0.351 OA
BRANCH  28  29
HETATM   29  C   UNL     1       1.810   9.709 -23.766  1.00  0.00     0.175 C 
BRANCH  29  30
HETATM   30  C   UNL     1       3.002   8.987 -23.146  1.00  0.00     0.022 C 
HETATM   31  C   UNL     1       4.303   9.341 -23.846  1.00  0.00     0.007 C 
ENDBRANCH  29  30
ENDBRANCH  28  29
ENDBRANCH  25  28
ENDBRANCH   1  22
TORSDOF 9
ENDMDL
MODEL 2
REMARK VINA RESULT:      -7.8      1.098     12.570
REMARK  9 active torsions:
REMARK  status: ('A' for Active; 'I' for Inactive)
REMARK    1  A    between atoms: C_2  and  C_3 
REMARK    2  A    between atoms: C_3  and  O_4 
REMARK    3  A    between atoms: O_4  and  C_5 
REMARK    4  A    between atoms: C_8  and  C_9 
REMARK    5  A    between atoms: C_13  and  C_14 
REMARK       I    between atoms: C_14  and  N_15 
REMARK    6  A    between atoms: N_15  and  N_16 
REMARK    7  A    between atoms: C_17  and  C_18 
REMARK    8  A    between atoms: C_21  and  O_22 
REMARK    9  A    between atoms: O_22  and  C_23 
ROOT
HETATM    1  C   UNL     1      -4.301   2.674 -32.474  1.00  0.00     0.089 A 
HETATM    2  N   UNL     1      -4.733   3.881 -32.868  1.00  0.00    -0.174 NA
HETATM    3  N   UNL     1      -3.820   4.740 -32.390  1.00  0.00    -0.272 N 
HETATM    4  H   UNL     1      -3.933   5.733 -32.570  1.00  0.00     0.189 HD
HETATM    5  C   UNL     1      -2.787   4.146 -31.720  1.00  0.00     0.121 A 
HETATM    6  C   UNL     1      -3.089   2.799 -31.736  1.00  0.00     0.071 A 
ENDROOT
BRANCH   5   7
HETATM    7  C   UNL     1      -1.690   4.926 -31.200  1.00  0.00     0.289 C 
HETATM    8  N   UNL     1      -2.057   5.897 -30.281  1.00  0.00    -0.242 N 
HETATM    9  H   UNL     1      -3.027   6.023 -30.027  1.00  0.00     0.192 HD
HETATM   10  O   UNL     1      -0.535   4.708 -31.556  1.00  0.00    -0.264 OA
BRANCH   8  11
HETATM   11  N   UNL     1      -1.101   6.625 -29.632  1.00  0.00    -0.184 NA
HETATM   12  C   UNL     1      -1.408   7.016 -28.437  1.00  0.00     0.150 C 
BRANCH  12  13
HETATM   13  C   UNL     1      -0.460   7.778 -27.602  1.00  0.00    -0.017 A 
HETATM   14  C   UNL     1      -0.847   8.282 -26.359  1.00  0.00     0.016 A 
HETATM   15  C   UNL     1       0.065   9.014 -25.598  1.00  0.00     0.037 A 
HETATM   16  C   UNL     1       1.365   9.241 -26.062  1.00  0.00     0.068 A 
HETATM   17  C   UNL     1       1.745   8.734 -27.306  1.00  0.00     0.037 A 
HETATM   18  C   UNL     1       0.833   8.003 -28.078  1.00  0.00     0.016 A 
BRANCH  16  19
HETATM   19  O   UNL     1       2.152   9.971 -25.216  1.00  0.00    -0.352 OA
BRANCH  19  20
HETATM   20  C   UNL     1       3.214   9.284 -24.559  1.00  0.00     0.171 C 
HETATM   21  C   UNL     1       3.196   9.687 -23.094  1.00  0.00     0.034 C 
ENDBRANCH  19  20
ENDBRANCH  16  19
ENDBRANCH  12  13
ENDBRANCH   8  11
ENDBRANCH   5   7
BRANCH   1  22
HETATM   22  C   UNL     1      -5.011   1.444 -32.832  1.00  0.00    -0.005 A 
HETATM   23  C   UNL     1      -6.211   1.505 -33.556  1.00  0.00     0.016 A 
HETATM   24  C   UNL     1      -6.874   0.338 -33.955  1.00  0.00     0.037 A 
HETATM   25  C   UNL     1      -6.347  -0.911 -33.631  1.00  0.00     0.068 A 
HETATM   26  C   UNL     1      -5.171  -0.980 -32.882  1.00  0.00     0.037 A 
HETATM   27  C   UNL     1      -4.504   0.185 -32.488  1.00  0.00     0.016 A 
BRANCH  25  28
HETATM   28  O   UNL     1      -6.881  -2.121 -33.975  1.00  0.00    -0.351 OA
BRANCH  28  29
HETATM   29  C   UNL     1      -6.256  -2.813 -35.058  1.00  0.00     0.175 C 
BRANCH  29  30
HETATM   30  C   UNL     1      -6.497  -4.306 -34.857  1.00  0.00     0.022 C 
HETATM   31  C   UNL     1      -5.222  -5.038 -34.479  1.00  0.00     0.007 C 
ENDBRANCH  29  30
ENDBRANCH  28  29
ENDBRANCH  25  28
ENDBRANCH   1  22
TORSDOF 9
ENDMDL
MODEL 3
REMARK VINA RESULT:      -7.4      9.593     13.283
REMARK  9 active torsions:
REMARK  status: ('A' for Active; 'I' for Inactive)
REMARK    1  A    between atoms: C_2  and  C_3 
REMARK    2  A    between atoms: C_3  and  O_4 
REMARK    3  A    between atoms: O_4  and  C_5 
REMARK    4  A    between atoms: C_8  and  C_9 
REMARK    5  A    between atoms: C_13  and  C_14 
REMARK       I    between atoms: C_14  and  N_15 
REMARK    6  A    between atoms: N_15  and  N_16 
REMARK    7  A    between atoms: C_17  and  C_18 
REMARK    8  A    between atoms: C_21  and  O_22 
REMARK    9  A    between atoms: O_22  and  C_23 
ROOT
HETATM    1  C   UNL     1      -9.040   0.303 -33.610  1.00  0.00     0.089 A 
HETATM    2  N   UNL     1     -10.049  -0.065 -32.805  1.00  0.00    -0.174 NA
HETATM    3  N   UNL     1     -11.075   0.718 -33.169  1.00  0.00    -0.272 N 
HETATM    4  H   UNL     1     -11.968   0.617 -32.695  1.00  0.00     0.189 HD
HETATM    5  C   UNL     1     -10.794   1.569 -34.201  1.00  0.00     0.121 A 
HETATM    6  C   UNL     1      -9.464   1.338 -34.491  1.00  0.00     0.071 A 
ENDROOT
BRANCH   5   7
HETATM    7  C   UNL     1     -11.809   2.431 -34.754  1.00  0.00     0.289 C 
HETATM    8  N   UNL     1     -11.789   3.731 -34.270  1.00  0.00    -0.242 N 
HETATM    9  H   UNL     1     -11.105   4.010 -33.579  1.00  0.00     0.192 HD
HETATM   10  O   UNL     1     -12.602   2.017 -35.595  1.00  0.00    -0.264 OA
BRANCH   8  11
HETATM   11  N   UNL     1     -12.625   4.673 -34.796  1.00  0.00    -0.184 NA
HETATM   12  C   UNL     1     -12.047   5.705 -35.322  1.00  0.00     0.150 C 
BRANCH  12  13
HETATM   13  C   UNL     1     -12.821   6.786 -35.963  1.00  0.00    -0.017 A 
HETATM   14  C   UNL     1     -12.218   8.002 -36.287  1.00  0.00     0.016 A 
HETATM   15  C   UNL     1     -12.979   9.013 -36.877  1.00  0.00     0.037 A 
HETATM   16  C   UNL     1     -14.336   8.818 -37.153  1.00  0.00     0.068 A 
HETATM   17  C   UNL     1     -14.932   7.598 -36.827  1.00  0.00     0.037 A 
HETATM   18  C   UNL     1     -14.177   6.582 -36.230  1.00  0.00     0.016 A 
BRANCH  16  19
HETATM   19  O   UNL     1     -14.958   9.889 -37.731  1.00  0.00    -0.352 OA
BRANCH  19  20
HETATM   20  C   UNL     1     -14.407  10.384 -38.950  1.00  0.00     0.171 C 
HETATM   21  C   UNL     1     -14.943   9.529 -40.085  1.00  0.00     0.034 C 
ENDBRANCH  19  20
ENDBRANCH  16  19
ENDBRANCH  12  13
ENDBRANCH   8  11
ENDBRANCH   5   7
BRANCH   1  22
HETATM   22  C   UNL     1      -7.730  -0.350 -33.554  1.00  0.00    -0.005 A 
HETATM   23  C   UNL     1      -7.290  -1.147 -34.621  1.00  0.00     0.016 A 
HETATM   24  C   UNL     1      -6.019  -1.733 -34.609  1.00  0.00     0.037 A 
HETATM   25  C   UNL     1      -5.168  -1.533 -33.524  1.00  0.00     0.068 A 
HETATM   26  C   UNL     1      -5.610  -0.770 -32.443  1.00  0.00     0.037 A 
HETATM   27  C   UNL     1      -6.879  -0.178 -32.456  1.00  0.00     0.016 A 
BRANCH  25  28
HETATM   28  O   UNL     1      -3.900  -2.029 -33.396  1.00  0.00    -0.351 OA
BRANCH  28  29
HETATM   29  C   UNL     1      -3.411  -2.201 -32.065  1.00  0.00     0.175 C 
BRANCH  29  30
HETATM   30  C   UNL     1      -3.005  -3.663 -31.904  1.00  0.00     0.022 C 
HETATM   31  C   UNL     1      -3.381  -4.491 -33.120  1.00  0.00     0.007 C 
ENDBRANCH  29  30
ENDBRANCH  28  29
ENDBRANCH  25  28
ENDBRANCH   1  22
TORSDOF 9
ENDMDL
MODEL 4
REMARK VINA RESULT:      -7.4      1.998     12.401
REMARK  9 active torsions:
REMARK  status: ('A' for Active; 'I' for Inactive)
REMARK    1  A    between atoms: C_2  and  C_3 
REMARK    2  A    between atoms: C_3  and  O_4 
REMARK    3  A    between atoms: O_4  and  C_5 
REMARK    4  A    between atoms: C_8  and  C_9 
REMARK    5  A    between atoms: C_13  and  C_14 
REMARK       I    between atoms: C_14  and  N_15 
REMARK    6  A    between atoms: N_15  and  N_16 
REMARK    7  A    between atoms: C_17  and  C_18 
REMARK    8  A    between atoms: C_21  and  O_22 
REMARK    9  A    between atoms: O_22  and  C_23 
ROOT
HETATM    1  C   UNL     1      -3.205   4.067 -32.559  1.00  0.00     0.089 A 
HETATM    2  N   UNL     1      -2.303   4.371 -33.505  1.00  0.00    -0.174 NA
HETATM    3  N   UNL     1      -1.275   4.911 -32.832  1.00  0.00    -0.272 N 
HETATM    4  H   UNL     1      -0.455   5.220 -33.346  1.00  0.00     0.189 HD
HETATM    5  C   UNL     1      -1.450   4.949 -31.477  1.00  0.00     0.121 A 
HETATM    6  C   UNL     1      -2.712   4.429 -31.272  1.00  0.00     0.071 A 
ENDROOT
BRANCH   5   7
HETATM    7  C   UNL     1      -0.411   5.440 -30.605  1.00  0.00     0.289 C 
HETATM    8  N   UNL     1      -0.491   6.794 -30.317  1.00  0.00    -0.242 N 
HETATM    9  H   UNL     1      -1.230   7.360 -30.711  1.00  0.00     0.192 HD
HETATM   10  O   UNL     1       0.451   4.686 -30.162  1.00  0.00    -0.264 OA
BRANCH   8  11
HETATM   11  N   UNL     1       0.366   7.357 -29.415  1.00  0.00    -0.184 NA
HETATM   12  C   UNL     1      -0.189   7.959 -28.413  1.00  0.00     0.150 C 
BRANCH  12  13
HETATM   13  C   UNL     1       0.611   8.580 -27.340  1.00  0.00    -0.017 A 
HETATM   14  C   UNL     1       1.590   7.851 -26.664  1.00  0.00     0.016 A 
HETATM   15  C   UNL     1       2.320   8.459 -25.642  1.00  0.00     0.037 A 
HETATM   16  C   UNL     1       2.087   9.792 -25.292  1.00  0.00     0.068 A 
HETATM   17  C   UNL     1       1.106  10.516 -25.973  1.00  0.00     0.037 A 
HETATM   18  C   UNL     1       0.366   9.911 -26.996  1.00  0.00     0.016 A 
BRANCH  16  19
HETATM   19  O   UNL     1       2.873  10.260 -24.276  1.00  0.00    -0.352 OA
BRANCH  19  20
HETATM   20  C   UNL     1       3.951   9.430 -23.850  1.00  0.00     0.171 C 
HETATM   21  C   UNL     1       4.195   9.700 -22.376  1.00  0.00     0.034 C 
ENDBRANCH  19  20
ENDBRANCH  16  19
ENDBRANCH  12  13
ENDBRANCH   8  11
ENDBRANCH   5   7
BRANCH   1  22
HETATM   22  C   UNL     1      -4.475   3.415 -32.884  1.00  0.00    -0.005 A 
HETATM   23  C   UNL     1      -4.862   2.245 -32.214  1.00  0.00     0.016 A 
HETATM   24  C   UNL     1      -6.098   1.639 -32.473  1.00  0.00     0.037 A 
HETATM   25  C   UNL     1      -6.965   2.196 -33.411  1.00  0.00     0.068 A 
HETATM   26  C   UNL     1      -6.573   3.340 -34.107  1.00  0.00     0.037 A 
HETATM   27  C   UNL     1      -5.341   3.950 -33.845  1.00  0.00     0.016 A 
BRANCH  25  28
HETATM   28  O   UNL     1      -8.203   1.718 -33.742  1.00  0.00    -0.351 OA
BRANCH  28  29
HETATM   29  C   UNL     1      -8.327   0.302 -33.882  1.00  0.00     0.175 C 
BRANCH  29  30
HETATM   30  C   UNL     1      -7.565  -0.110 -35.138  1.00  0.00     0.022 C 
HETATM   31  C   UNL     1      -6.679  -1.319 -34.889  1.00  0.00     0.007 C 
ENDBRANCH  29  30
ENDBRANCH  28  29
ENDBRANCH  25  28
ENDBRANCH   1  22
TORSDOF 9
ENDMDL
MODEL 5
REMARK VINA RESULT:      -6.9      9.325     13.781
REMARK  9 active torsions:
REMARK  status: ('A' for Active; 'I' for Inactive)
REMARK    1  A    between atoms: C_2  and  C_3 
REMARK    2  A    between atoms: C_3  and  O_4 
REMARK    3  A    between atoms: O_4  and  C_5 
REMARK    4  A    between atoms: C_8  and  C_9 
REMARK    5  A    between atoms: C_13  and  C_14 
REMARK       I    between atoms: C_14  and  N_15 
REMARK    6  A    between atoms: N_15  and  N_16 
REMARK    7  A    between atoms: C_17  and  C_18 
REMARK    8  A    between atoms: C_21  and  O_22 
REMARK    9  A    between atoms: O_22  and  C_23 
ROOT
HETATM    1  C   UNL     1     -14.919   2.788 -32.534  1.00  0.00     0.089 A 
HETATM    2  N   UNL     1     -15.021   1.459 -32.684  1.00  0.00    -0.174 NA
HETATM    3  N   UNL     1     -13.805   1.070 -33.097  1.00  0.00    -0.272 N 
HETATM    4  H   UNL     1     -13.635   0.085 -33.275  1.00  0.00     0.189 HD
HETATM    5  C   UNL     1     -12.896   2.085 -33.198  1.00  0.00     0.121 A 
HETATM    6  C   UNL     1     -13.603   3.223 -32.863  1.00  0.00     0.071 A 
ENDROOT
BRANCH   5   7
HETATM    7  C   UNL     1     -11.526   1.824 -33.567  1.00  0.00     0.289 C 
HETATM    8  N   UNL     1     -10.629   1.843 -32.509  1.00  0.00    -0.242 N 
HETATM    9  H   UNL     1     -10.949   2.036 -31.570  1.00  0.00     0.192 HD
HETATM   10  O   UNL     1     -11.218   1.593 -34.733  1.00  0.00    -0.264 OA
BRANCH   8  11
HETATM   11  N   UNL     1      -9.323   1.500 -32.710  1.00  0.00    -0.184 NA
HETATM   12  C   UNL     1      -9.023   0.266 -32.463  1.00  0.00     0.150 C 
BRANCH  12  13
HETATM   13  C   UNL     1      -7.659  -0.258 -32.670  1.00  0.00    -0.017 A 
HETATM   14  C   UNL     1      -6.668  -0.073 -31.705  1.00  0.00     0.016 A 
HETATM   15  C   UNL     1      -5.381  -0.564 -31.935  1.00  0.00     0.037 A 
HETATM   16  C   UNL     1      -5.077  -1.246 -33.118  1.00  0.00     0.068 A 
HETATM   17  C   UNL     1      -6.074  -1.428 -34.079  1.00  0.00     0.037 A 
HETATM   18  C   UNL     1      -7.365  -0.933 -33.857  1.00  0.00     0.016 A 
BRANCH  16  19
HETATM   19  O   UNL     1      -3.781  -1.672 -33.212  1.00  0.00    -0.352 OA
BRANCH  19  20
HETATM   20  C   UNL     1      -3.107  -1.981 -31.994  1.00  0.00     0.171 C 
HETATM   21  C   UNL     1      -3.014  -3.493 -31.882  1.00  0.00     0.034 C 
ENDBRANCH  19  20
ENDBRANCH  16  19
ENDBRANCH  12  13
ENDBRANCH   8  11
ENDBRANCH   5   7
BRANCH   1  22
HETATM   22  C   UNL     1     -16.039   3.600 -32.053  1.00  0.00    -0.005 A 
HETATM   23  C   UNL     1     -17.334   3.065 -32.012  1.00  0.00     0.016 A 
HETATM   24  C   UNL     1     -18.407   3.807 -31.503  1.00  0.00     0.037 A 
HETATM   25  C   UNL     1     -18.199   5.101 -31.029  1.00  0.00     0.068 A 
HETATM   26  C   UNL     1     -16.919   5.654 -31.099  1.00  0.00     0.037 A 
HETATM   27  C   UNL     1     -15.845   4.911 -31.602  1.00  0.00     0.016 A 
BRANCH  25  28
HETATM   28  O   UNL     1     -19.151   5.922 -30.492  1.00  0.00    -0.351 OA
BRANCH  28  29
HETATM   29  C   UNL     1     -19.388   5.795 -29.089  1.00  0.00     0.175 C 
BRANCH  29  30
HETATM   30  C   UNL     1     -19.123   7.154 -28.447  1.00  0.00     0.022 C 
HETATM   31  C   UNL     1     -17.755   7.211 -27.790  1.00  0.00     0.007 C 
ENDBRANCH  29  30
ENDBRANCH  28  29
ENDBRANCH  25  28
ENDBRANCH   1  22
TORSDOF 9
ENDMDL
MODEL 6
REMARK VINA RESULT:      -6.8      2.709     12.545
REMARK  9 active torsions:
REMARK  status: ('A' for Active; 'I' for Inactive)
REMARK    1  A    between atoms: C_2  and  C_3 
REMARK    2  A    between atoms: C_3  and  O_4 
REMARK    3  A    between atoms: O_4  and  C_5 
REMARK    4  A    between atoms: C_8  and  C_9 
REMARK    5  A    between atoms: C_13  and  C_14 
REMARK       I    between atoms: C_14  and  N_15 
REMARK    6  A    between atoms: N_15  and  N_16 
REMARK    7  A    between atoms: C_17  and  C_18 
REMARK    8  A    between atoms: C_21  and  O_22 
REMARK    9  A    between atoms: O_22  and  C_23 
ROOT
HETATM    1  C   UNL     1      -4.769   3.248 -32.380  1.00  0.00     0.089 A 
HETATM    2  N   UNL     1      -4.098   2.261 -31.767  1.00  0.00    -0.174 NA
HETATM    3  N   UNL     1      -2.975   2.841 -31.319  1.00  0.00    -0.272 N 
HETATM    4  H   UNL     1      -2.299   2.282 -30.808  1.00  0.00     0.189 HD
HETATM    5  C   UNL     1      -2.889   4.179 -31.587  1.00  0.00     0.121 A 
HETATM    6  C   UNL     1      -4.034   4.466 -32.303  1.00  0.00     0.071 A 
ENDROOT
BRANCH   5   7
HETATM    7  C   UNL     1      -1.773   4.962 -31.117  1.00  0.00     0.289 C 
HETATM    8  N   UNL     1      -2.098   5.914 -30.162  1.00  0.00    -0.242 N 
HETATM    9  H   UNL     1      -3.054   6.024 -29.852  1.00  0.00     0.192 HD
HETATM   10  O   UNL     1      -0.638   4.764 -31.540  1.00  0.00    -0.264 OA
BRANCH   8  11
HETATM   11  N   UNL     1      -1.115   6.643 -29.556  1.00  0.00    -0.184 NA
HETATM   12  C   UNL     1      -1.372   7.039 -28.351  1.00  0.00     0.150 C 
BRANCH  12  13
HETATM   13  C   UNL     1      -0.389   7.802 -27.558  1.00  0.00    -0.017 A 
HETATM   14  C   UNL     1      -0.691   8.230 -26.264  1.00  0.00     0.016 A 
HETATM   15  C   UNL     1       0.251   8.965 -25.543  1.00  0.00     0.037 A 
HETATM   16  C   UNL     1       1.497   9.271 -26.099  1.00  0.00     0.068 A 
HETATM   17  C   UNL     1       1.792   8.839 -27.394  1.00  0.00     0.037 A 
HETATM   18  C   UNL     1       0.850   8.106 -28.125  1.00  0.00     0.016 A 
BRANCH  16  19
HETATM   19  O   UNL     1       2.322   9.995 -25.284  1.00  0.00    -0.352 OA
BRANCH  19  20
HETATM   20  C   UNL     1       3.247   9.267 -24.481  1.00  0.00     0.171 C 
HETATM   21  C   UNL     1       3.621  10.137 -23.293  1.00  0.00     0.034 C 
ENDBRANCH  19  20
ENDBRANCH  16  19
ENDBRANCH  12  13
ENDBRANCH   8  11
ENDBRANCH   5   7
BRANCH   1  22
HETATM   22  C   UNL     1      -6.086   3.030 -32.982  1.00  0.00    -0.005 A 
HETATM   23  C   UNL     1      -6.467   1.749 -33.406  1.00  0.00     0.016 A 
HETATM   24  C   UNL     1      -7.743   1.512 -33.932  1.00  0.00     0.037 A 
HETATM   25  C   UNL     1      -8.658   2.557 -34.044  1.00  0.00     0.068 A 
HETATM   26  C   UNL     1      -8.275   3.842 -33.656  1.00  0.00     0.037 A 
HETATM   27  C   UNL     1      -7.002   4.079 -33.124  1.00  0.00     0.016 A 
BRANCH  25  28
HETATM   28  O   UNL     1      -9.936   2.458 -34.519  1.00  0.00    -0.351 OA
BRANCH  28  29
HETATM   29  C   UNL     1     -10.968   2.272 -33.548  1.00  0.00     0.175 C 
BRANCH  29  30
HETATM   30  C   UNL     1     -11.333   0.790 -33.536  1.00  0.00     0.022 C 
HETATM   31  C   UNL     1     -12.818   0.573 -33.773  1.00  0.00     0.007 C 
ENDBRANCH  29  30
ENDBRANCH  28  29
ENDBRANCH  25  28
ENDBRANCH   1  22
TORSDOF 9
ENDMDL
MODEL 7
REMARK VINA RESULT:      -6.8      3.305     12.555
REMARK  9 active torsions:
REMARK  status: ('A' for Active; 'I' for Inactive)
REMARK    1  A    between atoms: C_2  and  C_3 
REMARK    2  A    between atoms: C_3  and  O_4 
REMARK    3  A    between atoms: O_4  and  C_5 
REMARK    4  A    between atoms: C_8  and  C_9 
REMARK    5  A    between atoms: C_13  and  C_14 
REMARK       I    between atoms: C_14  and  N_15 
REMARK    6  A    between atoms: N_15  and  N_16 
REMARK    7  A    between atoms: C_17  and  C_18 
REMARK    8  A    between atoms: C_21  and  O_22 
REMARK    9  A    between atoms: O_22  and  C_23 
ROOT
HETATM    1  C   UNL     1      -6.944   4.382 -29.362  1.00  0.00     0.089 A 
HETATM    2  N   UNL     1      -7.834   5.292 -28.936  1.00  0.00    -0.174 NA
HETATM    3  N   UNL     1      -7.121   6.131 -28.171  1.00  0.00    -0.272 N 
HETATM    4  H   UNL     1      -7.588   6.920 -27.735  1.00  0.00     0.189 HD
HETATM    5  C   UNL     1      -5.790   5.830 -28.096  1.00  0.00     0.121 A 
HETATM    6  C   UNL     1      -5.651   4.676 -28.842  1.00  0.00     0.071 A 
ENDROOT
BRANCH   5   7
HETATM    7  C   UNL     1      -4.875   6.672 -27.365  1.00  0.00     0.289 C 
HETATM    8  N   UNL     1      -3.570   6.649 -27.833  1.00  0.00    -0.242 N 
HETATM    9  H   UNL     1      -3.318   6.068 -28.621  1.00  0.00     0.192 HD
HETATM   10  O   UNL     1      -5.261   7.352 -26.419  1.00  0.00    -0.264 OA
BRANCH   8  11
HETATM   11  N   UNL     1      -2.634   7.486 -27.298  1.00  0.00    -0.184 NA
HETATM   12  C   UNL     1      -1.547   6.920 -26.880  1.00  0.00     0.150 C 
BRANCH  12  13
HETATM   13  C   UNL     1      -0.432   7.703 -26.315  1.00  0.00    -0.017 A 
HETATM   14  C   UNL     1       0.893   7.331 -26.547  1.00  0.00     0.016 A 
HETATM   15  C   UNL     1       1.928   8.079 -25.985  1.00  0.00     0.037 A 
HETATM   16  C   UNL     1       1.653   9.203 -25.199  1.00  0.00     0.068 A 
HETATM   17  C   UNL     1       0.325   9.570 -24.971  1.00  0.00     0.037 A 
HETATM   18  C   UNL     1      -0.718   8.820 -25.528  1.00  0.00     0.016 A 
BRANCH  16  19
HETATM   19  O   UNL     1       2.759   9.842 -24.713  1.00  0.00    -0.352 OA
BRANCH  19  20
HETATM   20  C   UNL     1       3.693   9.059 -23.973  1.00  0.00     0.171 C 
HETATM   21  C   UNL     1       3.141   8.876 -22.570  1.00  0.00     0.034 C 
ENDBRANCH  19  20
ENDBRANCH  16  19
ENDBRANCH  12  13
ENDBRANCH   8  11
ENDBRANCH   5   7
BRANCH   1  22
HETATM   22  C   UNL     1      -7.323   3.295 -30.267  1.00  0.00    -0.005 A 
HETATM   23  C   UNL     1      -6.377   2.335 -30.656  1.00  0.00     0.016 A 
HETATM   24  C   UNL     1      -6.736   1.258 -31.476  1.00  0.00     0.037 A 
HETATM   25  C   UNL     1      -8.049   1.127 -31.922  1.00  0.00     0.068 A 
HETATM   26  C   UNL     1      -8.989   2.097 -31.568  1.00  0.00     0.037 A 
HETATM   27  C   UNL     1      -8.633   3.170 -30.744  1.00  0.00     0.016 A 
BRANCH  25  28
HETATM   28  O   UNL     1      -8.534   0.118 -32.707  1.00  0.00    -0.351 OA
BRANCH  28  29
HETATM   29  C   UNL     1      -8.966   0.478 -34.020  1.00  0.00     0.175 C 
BRANCH  29  30
HETATM   30  C   UNL     1      -7.779   0.306 -34.964  1.00  0.00     0.022 C 
HETATM   31  C   UNL     1      -7.108  -1.045 -34.786  1.00  0.00     0.007 C 
ENDBRANCH  29  30
ENDBRANCH  28  29
ENDBRANCH  25  28
ENDBRANCH   1  22
TORSDOF 9
ENDMDL
MODEL 8
REMARK VINA RESULT:      -6.7      2.727      3.225
REMARK  9 active torsions:
REMARK  status: ('A' for Active; 'I' for Inactive)
REMARK    1  A    between atoms: C_2  and  C_3 
REMARK    2  A    between atoms: C_3  and  O_4 
REMARK    3  A    between atoms: O_4  and  C_5 
REMARK    4  A    between atoms: C_8  and  C_9 
REMARK    5  A    between atoms: C_13  and  C_14 
REMARK       I    between atoms: C_14  and  N_15 
REMARK    6  A    between atoms: N_15  and  N_16 
REMARK    7  A    between atoms: C_17  and  C_18 
REMARK    8  A    between atoms: C_21  and  O_22 
REMARK    9  A    between atoms: O_22  and  C_23 
ROOT
HETATM    1  C   UNL     1      -0.836   6.797 -29.037  1.00  0.00     0.089 A 
HETATM    2  N   UNL     1      -0.185   5.811 -29.673  1.00  0.00    -0.174 NA
HETATM    3  N   UNL     1      -1.101   5.275 -30.494  1.00  0.00    -0.272 N 
HETATM    4  H   UNL     1      -0.835   4.500 -31.093  1.00  0.00     0.189 HD
HETATM    5  C   UNL     1      -2.323   5.886 -30.446  1.00  0.00     0.121 A 
HETATM    6  C   UNL     1      -2.186   6.866 -29.483  1.00  0.00     0.071 A 
ENDROOT
BRANCH   5   7
HETATM    7  C   UNL     1      -3.398   5.471 -31.314  1.00  0.00     0.289 C 
HETATM    8  N   UNL     1      -4.025   4.294 -30.934  1.00  0.00    -0.242 N 
HETATM    9  H   UNL     1      -3.718   3.792 -30.111  1.00  0.00     0.192 HD
HETATM   10  O   UNL     1      -3.713   6.140 -32.294  1.00  0.00    -0.264 OA
BRANCH   8  11
HETATM   11  N   UNL     1      -5.128   3.855 -31.608  1.00  0.00    -0.184 NA
HETATM   12  C   UNL     1      -5.647   2.750 -31.175  1.00  0.00     0.150 C 
BRANCH  12  13
HETATM   13  C   UNL     1      -6.864   2.175 -31.780  1.00  0.00    -0.017 A 
HETATM   14  C   UNL     1      -7.559   2.860 -32.778  1.00  0.00     0.016 A 
HETATM   15  C   UNL     1      -8.716   2.299 -33.320  1.00  0.00     0.037 A 
HETATM   16  C   UNL     1      -9.183   1.057 -32.881  1.00  0.00     0.068 A 
HETATM   17  C   UNL     1      -8.482   0.377 -31.883  1.00  0.00     0.037 A 
HETATM   18  C   UNL     1      -7.323   0.935 -31.331  1.00  0.00     0.016 A 
BRANCH  16  19
HETATM   19  O   UNL     1     -10.325   0.627 -33.497  1.00  0.00    -0.352 OA
BRANCH  19  20
HETATM   20  C   UNL     1     -11.394   1.564 -33.615  1.00  0.00     0.171 C 
HETATM   21  C   UNL     1     -12.680   0.782 -33.816  1.00  0.00     0.034 C 
ENDBRANCH  19  20
ENDBRANCH  16  19
ENDBRANCH  12  13
ENDBRANCH   8  11
ENDBRANCH   5   7
BRANCH   1  22
HETATM   22  C   UNL     1      -0.165   7.663 -28.064  1.00  0.00    -0.005 A 
HETATM   23  C   UNL     1      -0.815   8.033 -26.879  1.00  0.00     0.016 A 
HETATM   24  C   UNL     1      -0.168   8.815 -25.913  1.00  0.00     0.037 A 
HETATM   25  C   UNL     1       1.141   9.241 -26.123  1.00  0.00     0.068 A 
HETATM   26  C   UNL     1       1.784   8.906 -27.315  1.00  0.00     0.037 A 
HETATM   27  C   UNL     1       1.141   8.120 -28.279  1.00  0.00     0.016 A 
BRANCH  25  28
HETATM   28  O   UNL     1       1.891   9.988 -25.257  1.00  0.00    -0.351 OA
BRANCH  28  29
HETATM   29  C   UNL     1       3.006   9.335 -24.647  1.00  0.00     0.175 C 
BRANCH  29  30
HETATM   30  C   UNL     1       2.651   9.077 -23.185  1.00  0.00     0.022 C 
HETATM   31  C   UNL     1       1.615  10.063 -22.674  1.00  0.00     0.007 C 
ENDBRANCH  29  30
ENDBRANCH  28  29
ENDBRANCH  25  28
ENDBRANCH   1  22
TORSDOF 9
ENDMDL
MODEL 9
REMARK VINA RESULT:      -6.7     19.973     23.588
REMARK  9 active torsions:
REMARK  status: ('A' for Active; 'I' for Inactive)
REMARK    1  A    between atoms: C_2  and  C_3 
REMARK    2  A    between atoms: C_3  and  O_4 
REMARK    3  A    between atoms: O_4  and  C_5 
REMARK    4  A    between atoms: C_8  and  C_9 
REMARK    5  A    between atoms: C_13  and  C_14 
REMARK       I    between atoms: C_14  and  N_15 
REMARK    6  A    between atoms: N_15  and  N_16 
REMARK    7  A    between atoms: C_17  and  C_18 
REMARK    8  A    between atoms: C_21  and  O_22 
REMARK    9  A    between atoms: O_22  and  C_23 
ROOT
HETATM    1  C   UNL     1      -6.767 -12.678 -39.819  1.00  0.00     0.089 A 
HETATM    2  N   UNL     1      -6.161 -11.718 -40.534  1.00  0.00    -0.174 NA
HETATM    3  N   UNL     1      -4.928 -11.634 -40.012  1.00  0.00    -0.272 N 
HETATM    4  H   UNL     1      -4.270 -10.966 -40.402  1.00  0.00     0.189 HD
HETATM    5  C   UNL     1      -4.686 -12.520 -39.000  1.00  0.00     0.121 A 
HETATM    6  C   UNL     1      -5.878 -13.196 -38.834  1.00  0.00     0.071 A 
ENDROOT
BRANCH   5   7
HETATM    7  C   UNL     1      -3.388 -12.602 -38.376  1.00  0.00     0.289 C 
HETATM    8  N   UNL     1      -3.066 -13.854 -37.875  1.00  0.00    -0.242 N 
HETATM    9  H   UNL     1      -3.719 -14.622 -37.954  1.00  0.00     0.192 HD
HETATM   10  O   UNL     1      -2.648 -11.623 -38.325  1.00  0.00    -0.264 OA
BRANCH   8  11
HETATM   11  N   UNL     1      -1.822 -14.090 -37.363  1.00  0.00    -0.184 NA
HETATM   12  C   UNL     1      -1.563 -15.323 -37.065  1.00  0.00     0.150 C 
BRANCH  12  13
HETATM   13  C   UNL     1      -0.248 -15.735 -36.538  1.00  0.00    -0.017 A 
HETATM   14  C   UNL     1      -0.055 -15.928 -35.169  1.00  0.00     0.016 A 
HETATM   15  C   UNL     1       1.205 -16.300 -34.697  1.00  0.00     0.037 A 
HETATM   16  C   UNL     1       2.273 -16.490 -35.579  1.00  0.00     0.068 A 
HETATM   17  C   UNL     1       2.072 -16.295 -36.948  1.00  0.00     0.037 A 
HETATM   18  C   UNL     1       0.812 -15.917 -37.428  1.00  0.00     0.016 A 
BRANCH  16  19
HETATM   19  O   UNL     1       3.447 -16.853 -34.982  1.00  0.00    -0.352 OA
BRANCH  19  20
HETATM   20  C   UNL     1       3.517 -16.746 -33.562  1.00  0.00     0.171 C 
HETATM   21  C   UNL     1       4.695 -17.579 -33.088  1.00  0.00     0.034 C 
ENDBRANCH  19  20
ENDBRANCH  16  19
ENDBRANCH  12  13
ENDBRANCH   8  11
ENDBRANCH   5   7
BRANCH   1  22
HETATM   22  C   UNL     1      -8.139 -13.104 -40.105  1.00  0.00    -0.005 A 
HETATM   23  C   UNL     1      -9.204 -12.204 -39.963  1.00  0.00     0.016 A 
HETATM   24  C   UNL     1     -10.515 -12.578 -40.285  1.00  0.00     0.037 A 
HETATM   25  C   UNL     1     -10.779 -13.864 -40.753  1.00  0.00     0.068 A 
HETATM   26  C   UNL     1      -9.730 -14.777 -40.865  1.00  0.00     0.037 A 
HETATM   27  C   UNL     1      -8.418 -14.403 -40.549  1.00  0.00     0.016 A 
BRANCH  25  28
HETATM   28  O   UNL     1     -12.004 -14.349 -41.120  1.00  0.00    -0.351 OA
BRANCH  28  29
HETATM   29  C   UNL     1     -12.018 -15.612 -41.787  1.00  0.00     0.175 C 
BRANCH  29  30
HETATM   30  C   UNL     1     -13.368 -15.753 -42.486  1.00  0.00     0.022 C 
HETATM   31  C   UNL     1     -13.294 -16.703 -43.669  1.00  0.00     0.007 C 
ENDBRANCH  29  30
ENDBRANCH  28  29
ENDBRANCH  25  28
ENDBRANCH   1  22
TORSDOF 9
ENDMDL
MODEL 10
REMARK VINA RESULT:      -6.5      9.765     12.105
REMARK  9 active torsions:
REMARK  status: ('A' for Active; 'I' for Inactive)
REMARK    1  A    between atoms: C_2  and  C_3 
REMARK    2  A    between atoms: C_3  and  O_4 
REMARK    3  A    between atoms: O_4  and  C_5 
REMARK    4  A    between atoms: C_8  and  C_9 
REMARK    5  A    between atoms: C_13  and  C_14 
REMARK       I    between atoms: C_14  and  N_15 
REMARK    6  A    between atoms: N_15  and  N_16 
REMARK    7  A    between atoms: C_17  and  C_18 
REMARK    8  A    between atoms: C_21  and  O_22 
REMARK    9  A    between atoms: O_22  and  C_23 
ROOT
HETATM    1  C   UNL     1     -14.064   3.869 -31.859  1.00  0.00     0.089 A 
HETATM    2  N   UNL     1     -14.877   2.954 -32.407  1.00  0.00    -0.174 NA
HETATM    3  N   UNL     1     -14.062   2.157 -33.114  1.00  0.00    -0.272 N 
HETATM    4  H   UNL     1     -14.457   1.372 -33.623  1.00  0.00     0.189 HD
HETATM    5  C   UNL     1     -12.740   2.492 -33.033  1.00  0.00     0.121 A 
HETATM    6  C   UNL     1     -12.714   3.623 -32.241  1.00  0.00     0.071 A 
ENDROOT
BRANCH   5   7
HETATM    7  C   UNL     1     -11.728   1.696 -33.683  1.00  0.00     0.289 C 
HETATM    8  N   UNL     1     -10.725   1.237 -32.843  1.00  0.00    -0.242 N 
HETATM    9  H   UNL     1     -10.734   1.470 -31.859  1.00  0.00     0.192 HD
HETATM   10  O   UNL     1     -11.790   1.453 -34.885  1.00  0.00    -0.264 OA
BRANCH   8  11
HETATM   11  N   UNL     1      -9.771   0.382 -33.314  1.00  0.00    -0.184 NA
HETATM   12  C   UNL     1      -8.554   0.651 -32.965  1.00  0.00     0.150 C 
BRANCH  12  13
HETATM   13  C   UNL     1      -7.423  -0.207 -33.367  1.00  0.00    -0.017 A 
HETATM   14  C   UNL     1      -7.419  -0.852 -34.605  1.00  0.00     0.016 A 
HETATM   15  C   UNL     1      -6.344  -1.672 -34.952  1.00  0.00     0.037 A 
HETATM   16  C   UNL     1      -5.267  -1.847 -34.078  1.00  0.00     0.068 A 
HETATM   17  C   UNL     1      -5.277  -1.198 -32.841  1.00  0.00     0.037 A 
HETATM   18  C   UNL     1      -6.355  -0.379 -32.484  1.00  0.00     0.016 A 
BRANCH  16  19
HETATM   19  O   UNL     1      -4.284  -2.674 -34.545  1.00  0.00    -0.352 OA
BRANCH  19  20
HETATM   20  C   UNL     1      -4.020  -3.859 -33.797  1.00  0.00     0.171 C 
HETATM   21  C   UNL     1      -4.922  -4.959 -34.329  1.00  0.00     0.034 C 
ENDBRANCH  19  20
ENDBRANCH  16  19
ENDBRANCH  12  13
ENDBRANCH   8  11
ENDBRANCH   5   7
BRANCH   1  22
HETATM   22  C   UNL     1     -14.569   4.917 -30.969  1.00  0.00    -0.005 A 
HETATM   23  C   UNL     1     -13.812   5.333 -29.864  1.00  0.00     0.016 A 
HETATM   24  C   UNL     1     -14.254   6.371 -29.034  1.00  0.00     0.037 A 
HETATM   25  C   UNL     1     -15.465   7.008 -29.298  1.00  0.00     0.068 A 
HETATM   26  C   UNL     1     -16.241   6.578 -30.376  1.00  0.00     0.037 A 
HETATM   27  C   UNL     1     -15.797   5.544 -31.209  1.00  0.00     0.016 A 
BRANCH  25  28
HETATM   28  O   UNL     1     -16.000   8.043 -28.583  1.00  0.00    -0.351 OA
BRANCH  28  29
HETATM   29  C   UNL     1     -15.356   8.371 -27.350  1.00  0.00     0.175 C 
BRANCH  29  30
HETATM   30  C   UNL     1     -16.183   7.766 -26.219  1.00  0.00     0.022 C 
HETATM   31  C   UNL     1     -15.316   7.364 -25.039  1.00  0.00     0.007 C 
ENDBRANCH  29  30
ENDBRANCH  28  29
ENDBRANCH  25  28
ENDBRANCH   1  22
TORSDOF 9
ENDMDL
