MODEL 1
REMARK VINA RESULT:      -8.6      0.000      0.000
REMARK  6 active torsions:
REMARK  status: ('A' for Active; 'I' for Inactive)
REMARK    1  A    between atoms: C_2  and  C_3 
REMARK       I    between atoms: C_3  and  N_4 
REMARK    2  A    between atoms: N_4  and  C_5 
REMARK    3  A    between atoms: C_7  and  N_8 
REMARK       I    between atoms: N_8  and  C_9 
REMARK    4  A    between atoms: C_9  and  C_10 
REMARK    5  A    between atoms: C_12  and  O_13 
REMARK    6  A    between atoms: O_13  and  C_14 
ROOT
HETATM    1  N   UNL     1      -3.035   3.303 -32.749  1.00  0.00    -0.322 N 
HETATM    2  C   UNL     1      -4.357   3.167 -32.358  1.00  0.00     0.256 C 
HETATM    3  O   UNL     1      -4.917   3.856 -31.511  1.00  0.00    -0.267 OA
HETATM    4  H   UNL     1      -2.602   2.548 -33.253  1.00  0.00     0.169 HD
ENDROOT
BRANCH   1   5
HETATM    5  C   UNL     1      -2.199   4.416 -32.468  1.00  0.00     0.043 A 
HETATM    6  C   UNL     1      -1.801   4.718 -31.152  1.00  0.00     0.059 A 
HETATM    7  C   UNL     1      -1.042   5.854 -30.862  1.00  0.00     0.036 A 
HETATM    8  C   UNL     1      -0.649   6.686 -31.911  1.00  0.00     0.030 A 
HETATM    9  C   UNL     1      -1.038   6.405 -33.221  1.00  0.00     0.011 A 
HETATM   10  C   UNL     1      -1.817   5.274 -33.517  1.00  0.00    -0.035 A 
HETATM   11  C   UNL     1      -2.212   5.037 -34.948  1.00  0.00     0.050 C 
BRANCH   7  12
HETATM   12  N   UNL     1      -0.644   6.227 -29.559  1.00  0.00    -0.327 N 
HETATM   13  C   UNL     1       0.414   5.723 -28.823  1.00  0.00     0.221 C 
HETATM   14  O   UNL     1       1.151   4.793 -29.136  1.00  0.00    -0.273 OA
HETATM   15  H   UNL     1      -1.241   6.897 -29.091  1.00  0.00     0.169 HD
BRANCH  13  16
HETATM   16  C   UNL     1       0.575   6.402 -27.473  1.00  0.00     0.098 C 
HETATM   17  C   UNL     1       1.158   7.799 -27.583  1.00  0.00     0.014 C 
ENDBRANCH  13  16
ENDBRANCH   7  12
ENDBRANCH   1   5
BRANCH   2  18
HETATM   18  C   UNL     1      -5.162   2.089 -33.005  1.00  0.00     0.037 A 
HETATM   19  C   UNL     1      -4.925   0.724 -32.844  1.00  0.00     0.075 A 
HETATM   20  C   UNL     1      -5.736  -0.156 -33.539  1.00  0.00     0.165 A 
HETATM   21  N   UNL     1      -6.741   0.217 -34.356  1.00  0.00    -0.237 NA
HETATM   22  C   UNL     1      -6.960   1.538 -34.488  1.00  0.00     0.120 A 
HETATM   23  C   UNL     1      -6.208   2.499 -33.841  1.00  0.00     0.036 A 
BRANCH  20  24
HETATM   24  O   UNL     1      -5.481  -1.505 -33.368  1.00  0.00    -0.329 OA
BRANCH  24  25
HETATM   25  C   UNL     1      -5.662  -2.331 -34.541  1.00  0.00     0.130 C 
HETATM   26  C   UNL     1      -6.908  -3.257 -34.569  1.00  0.00     0.032 C 
HETATM   27  C   UNL     1      -6.018  -4.328 -35.225  1.00  0.00     0.005 C 
HETATM   28  C   UNL     1      -4.814  -3.630 -34.563  1.00  0.00     0.032 C 
ENDBRANCH  24  25
ENDBRANCH  20  24
ENDBRANCH   2  18
TORSDOF 6
ENDMDL
MODEL 2
REMARK VINA RESULT:      -8.5      1.678      9.241
REMARK  6 active torsions:
REMARK  status: ('A' for Active; 'I' for Inactive)
REMARK    1  A    between atoms: C_2  and  C_3 
REMARK       I    between atoms: C_3  and  N_4 
REMARK    2  A    between atoms: N_4  and  C_5 
REMARK    3  A    between atoms: C_7  and  N_8 
REMARK       I    between atoms: N_8  and  C_9 
REMARK    4  A    between atoms: C_9  and  C_10 
REMARK    5  A    between atoms: C_12  and  O_13 
REMARK    6  A    between atoms: O_13  and  C_14 
ROOT
HETATM    1  N   UNL     1      -4.519   3.096 -32.315  1.00  0.00    -0.322 N 
HETATM    2  C   UNL     1      -3.213   3.125 -31.855  1.00  0.00     0.256 C 
HETATM    3  O   UNL     1      -2.704   2.283 -31.121  1.00  0.00    -0.267 OA
HETATM    4  H   UNL     1      -4.915   3.940 -32.695  1.00  0.00     0.169 HD
ENDROOT
BRANCH   1   5
HETATM    5  C   UNL     1      -5.389   1.975 -32.268  1.00  0.00     0.043 A 
HETATM    6  C   UNL     1      -5.276   0.922 -33.194  1.00  0.00     0.059 A 
HETATM    7  C   UNL     1      -6.176  -0.146 -33.199  1.00  0.00     0.036 A 
HETATM    8  C   UNL     1      -7.190  -0.175 -32.241  1.00  0.00     0.030 A 
HETATM    9  C   UNL     1      -7.320   0.863 -31.317  1.00  0.00     0.011 A 
HETATM   10  C   UNL     1      -6.430   1.948 -31.319  1.00  0.00    -0.035 A 
HETATM   11  C   UNL     1      -6.634   3.039 -30.305  1.00  0.00     0.050 C 
BRANCH   7  12
HETATM   12  N   UNL     1      -6.133  -1.212 -34.126  1.00  0.00    -0.327 N 
HETATM   13  C   UNL     1      -5.253  -2.280 -34.144  1.00  0.00     0.221 C 
HETATM   14  O   UNL     1      -4.288  -2.449 -33.406  1.00  0.00    -0.273 OA
HETATM   15  H   UNL     1      -6.785  -1.151 -34.897  1.00  0.00     0.169 HD
BRANCH  13  16
HETATM   16  C   UNL     1      -5.540  -3.267 -35.263  1.00  0.00     0.098 C 
HETATM   17  C   UNL     1      -6.673  -4.220 -34.930  1.00  0.00     0.014 C 
ENDBRANCH  13  16
ENDBRANCH   7  12
ENDBRANCH   1   5
BRANCH   2  18
HETATM   18  C   UNL     1      -2.359   4.277 -32.270  1.00  0.00     0.037 A 
HETATM   19  C   UNL     1      -1.380   4.861 -31.466  1.00  0.00     0.075 A 
HETATM   20  C   UNL     1      -0.692   5.948 -31.978  1.00  0.00     0.165 A 
HETATM   21  N   UNL     1      -0.900   6.475 -33.201  1.00  0.00    -0.237 NA
HETATM   22  C   UNL     1      -1.840   5.888 -33.964  1.00  0.00     0.120 A 
HETATM   23  C   UNL     1      -2.585   4.801 -33.549  1.00  0.00     0.036 A 
BRANCH  20  24
HETATM   24  O   UNL     1       0.270   6.515 -31.162  1.00  0.00    -0.329 OA
BRANCH  24  25
HETATM   25  C   UNL     1      -0.067   6.599 -29.759  1.00  0.00     0.130 C 
HETATM   26  C   UNL     1       0.593   7.741 -28.938  1.00  0.00     0.032 C 
HETATM   27  C   UNL     1       0.739   6.737 -27.781  1.00  0.00     0.005 C 
HETATM   28  C   UNL     1       0.710   5.619 -28.840  1.00  0.00     0.032 C 
ENDBRANCH  24  25
ENDBRANCH  20  24
ENDBRANCH   2  18
TORSDOF 6
ENDMDL
MODEL 3
REMARK VINA RESULT:      -8.3      1.492      1.849
REMARK  6 active torsions:
REMARK  status: ('A' for Active; 'I' for Inactive)
REMARK    1  A    between atoms: C_2  and  C_3 
REMARK       I    between atoms: C_3  and  N_4 
REMARK    2  A    between atoms: N_4  and  C_5 
REMARK    3  A    between atoms: C_7  and  N_8 
REMARK       I    between atoms: N_8  and  C_9 
REMARK    4  A    between atoms: C_9  and  C_10 
REMARK    5  A    between atoms: C_12  and  O_13 
REMARK    6  A    between atoms: O_13  and  C_14 
ROOT
HETATM    1  N   UNL     1      -2.550   3.564 -31.760  1.00  0.00    -0.322 N 
HETATM    2  C   UNL     1      -3.870   3.442 -31.357  1.00  0.00     0.256 C 
HETATM    3  O   UNL     1      -4.544   4.342 -30.866  1.00  0.00    -0.267 OA
HETATM    4  H   UNL     1      -2.013   2.727 -31.911  1.00  0.00     0.169 HD
ENDROOT
BRANCH   1   5
HETATM    5  C   UNL     1      -1.852   4.786 -31.947  1.00  0.00     0.043 A 
HETATM    6  C   UNL     1      -1.017   5.313 -30.945  1.00  0.00     0.059 A 
HETATM    7  C   UNL     1      -0.388   6.551 -31.094  1.00  0.00     0.036 A 
HETATM    8  C   UNL     1      -0.574   7.260 -32.281  1.00  0.00     0.030 A 
HETATM    9  C   UNL     1      -1.402   6.756 -33.285  1.00  0.00     0.011 A 
HETATM   10  C   UNL     1      -2.051   5.520 -33.133  1.00  0.00    -0.035 A 
HETATM   11  C   UNL     1      -2.940   5.041 -34.247  1.00  0.00     0.050 C 
BRANCH   7  12
HETATM   12  N   UNL     1       0.431   7.146 -30.109  1.00  0.00    -0.327 N 
HETATM   13  C   UNL     1       0.056   7.583 -28.851  1.00  0.00     0.221 C 
HETATM   14  O   UNL     1      -1.082   7.615 -28.392  1.00  0.00    -0.273 OA
HETATM   15  H   UNL     1       1.389   7.325 -30.382  1.00  0.00     0.169 HD
BRANCH  13  16
HETATM   16  C   UNL     1       1.220   8.125 -28.038  1.00  0.00     0.098 C 
HETATM   17  C   UNL     1       1.353   7.456 -26.682  1.00  0.00     0.014 C 
ENDBRANCH  13  16
ENDBRANCH   7  12
ENDBRANCH   1   5
BRANCH   2  18
HETATM   18  C   UNL     1      -4.522   2.108 -31.518  1.00  0.00     0.037 A 
HETATM   19  C   UNL     1      -4.460   1.337 -32.679  1.00  0.00     0.075 A 
HETATM   20  C   UNL     1      -5.147   0.135 -32.690  1.00  0.00     0.165 A 
HETATM   21  N   UNL     1      -5.866  -0.341 -31.654  1.00  0.00    -0.237 NA
HETATM   22  C   UNL     1      -5.902   0.414 -30.541  1.00  0.00     0.120 A 
HETATM   23  C   UNL     1      -5.254   1.628 -30.426  1.00  0.00     0.036 A 
BRANCH  20  24
HETATM   24  O   UNL     1      -5.076  -0.611 -33.852  1.00  0.00    -0.329 OA
BRANCH  24  25
HETATM   25  C   UNL     1      -5.583  -1.962 -33.762  1.00  0.00     0.130 C 
HETATM   26  C   UNL     1      -4.888  -3.040 -34.637  1.00  0.00     0.032 C 
HETATM   27  C   UNL     1      -6.282  -3.637 -34.896  1.00  0.00     0.005 C 
HETATM   28  C   UNL     1      -6.858  -2.239 -34.603  1.00  0.00     0.032 C 
ENDBRANCH  24  25
ENDBRANCH  20  24
ENDBRANCH   2  18
TORSDOF 6
ENDMDL
MODEL 4
REMARK VINA RESULT:      -8.0      1.815      2.364
REMARK  6 active torsions:
REMARK  status: ('A' for Active; 'I' for Inactive)
REMARK    1  A    between atoms: C_2  and  C_3 
REMARK       I    between atoms: C_3  and  N_4 
REMARK    2  A    between atoms: N_4  and  C_5 
REMARK    3  A    between atoms: C_7  and  N_8 
REMARK       I    between atoms: N_8  and  C_9 
REMARK    4  A    between atoms: C_9  and  C_10 
REMARK    5  A    between atoms: C_12  and  O_13 
REMARK    6  A    between atoms: O_13  and  C_14 
ROOT
HETATM    1  N   UNL     1      -3.610   4.465 -32.169  1.00  0.00    -0.322 N 
HETATM    2  C   UNL     1      -3.700   3.153 -31.734  1.00  0.00     0.256 C 
HETATM    3  O   UNL     1      -2.745   2.438 -31.446  1.00  0.00    -0.267 OA
HETATM    4  H   UNL     1      -4.410   4.881 -32.614  1.00  0.00     0.169 HD
ENDROOT
BRANCH   1   5
HETATM    5  C   UNL     1      -2.457   5.290 -32.079  1.00  0.00     0.043 A 
HETATM    6  C   UNL     1      -1.947   5.702 -30.834  1.00  0.00     0.059 A 
HETATM    7  C   UNL     1      -0.860   6.574 -30.742  1.00  0.00     0.036 A 
HETATM    8  C   UNL     1      -0.254   7.017 -31.918  1.00  0.00     0.030 A 
HETATM    9  C   UNL     1      -0.748   6.623 -33.162  1.00  0.00     0.011 A 
HETATM   10  C   UNL     1      -1.852   5.761 -33.261  1.00  0.00    -0.035 A 
HETATM   11  C   UNL     1      -2.342   5.386 -34.632  1.00  0.00     0.050 C 
BRANCH   7  12
HETATM   12  N   UNL     1      -0.328   7.049 -29.523  1.00  0.00    -0.327 N 
HETATM   13  C   UNL     1       0.535   6.390 -28.665  1.00  0.00     0.221 C 
HETATM   14  O   UNL     1       0.928   5.232 -28.764  1.00  0.00    -0.273 OA
HETATM   15  H   UNL     1      -0.667   7.951 -29.216  1.00  0.00     0.169 HD
BRANCH  13  16
HETATM   16  C   UNL     1       0.941   7.233 -27.468  1.00  0.00     0.098 C 
HETATM   17  C   UNL     1       1.529   8.575 -27.866  1.00  0.00     0.014 C 
ENDBRANCH  13  16
ENDBRANCH   7  12
ENDBRANCH   1   5
BRANCH   2  18
HETATM   18  C   UNL     1      -5.063   2.554 -31.620  1.00  0.00     0.037 A 
HETATM   19  C   UNL     1      -5.950   2.408 -32.686  1.00  0.00     0.075 A 
HETATM   20  C   UNL     1      -7.195   1.866 -32.417  1.00  0.00     0.165 A 
HETATM   21  N   UNL     1      -7.605   1.466 -31.196  1.00  0.00    -0.237 NA
HETATM   22  C   UNL     1      -6.728   1.605 -30.185  1.00  0.00     0.120 A 
HETATM   23  C   UNL     1      -5.463   2.135 -30.345  1.00  0.00     0.036 A 
BRANCH  20  24
HETATM   24  O   UNL     1      -8.061   1.735 -33.487  1.00  0.00    -0.329 OA
BRANCH  24  25
HETATM   25  C   UNL     1      -8.082   0.436 -34.122  1.00  0.00     0.130 C 
HETATM   26  C   UNL     1      -7.198  -0.675 -33.491  1.00  0.00     0.032 C 
HETATM   27  C   UNL     1      -6.862  -1.130 -34.922  1.00  0.00     0.005 C 
HETATM   28  C   UNL     1      -7.181   0.307 -35.378  1.00  0.00     0.032 C 
ENDBRANCH  24  25
ENDBRANCH  20  24
ENDBRANCH   2  18
TORSDOF 6
ENDMDL
MODEL 5
REMARK VINA RESULT:      -7.9      2.066      2.806
REMARK  6 active torsions:
REMARK  status: ('A' for Active; 'I' for Inactive)
REMARK    1  A    between atoms: C_2  and  C_3 
REMARK       I    between atoms: C_3  and  N_4 
REMARK    2  A    between atoms: N_4  and  C_5 
REMARK    3  A    between atoms: C_7  and  N_8 
REMARK       I    between atoms: N_8  and  C_9 
REMARK    4  A    between atoms: C_9  and  C_10 
REMARK    5  A    between atoms: C_12  and  O_13 
REMARK    6  A    between atoms: O_13  and  C_14 
ROOT
HETATM    1  N   UNL     1      -2.636   3.350 -32.803  1.00  0.00    -0.322 N 
HETATM    2  C   UNL     1      -3.745   2.907 -32.101  1.00  0.00     0.256 C 
HETATM    3  O   UNL     1      -4.316   3.535 -31.214  1.00  0.00    -0.267 OA
HETATM    4  H   UNL     1      -2.095   2.679 -33.322  1.00  0.00     0.169 HD
ENDROOT
BRANCH   1   5
HETATM    5  C   UNL     1      -2.153   4.685 -32.832  1.00  0.00     0.043 A 
HETATM    6  C   UNL     1      -1.260   5.161 -31.854  1.00  0.00     0.059 A 
HETATM    7  C   UNL     1      -0.841   6.493 -31.834  1.00  0.00     0.036 A 
HETATM    8  C   UNL     1      -1.302   7.357 -32.828  1.00  0.00     0.030 A 
HETATM    9  C   UNL     1      -2.191   6.904 -33.803  1.00  0.00     0.011 A 
HETATM   10  C   UNL     1      -2.630   5.571 -33.818  1.00  0.00    -0.035 A 
HETATM   11  C   UNL     1      -3.599   5.151 -34.888  1.00  0.00     0.050 C 
BRANCH   7  12
HETATM   12  N   UNL     1       0.025   7.036 -30.858  1.00  0.00    -0.327 N 
HETATM   13  C   UNL     1      -0.271   7.333 -29.540  1.00  0.00     0.221 C 
HETATM   14  O   UNL     1      -1.370   7.262 -28.998  1.00  0.00    -0.273 OA
HETATM   15  H   UNL     1       0.949   7.290 -31.182  1.00  0.00     0.169 HD
BRANCH  13  16
HETATM   16  C   UNL     1       0.928   7.857 -28.766  1.00  0.00     0.098 C 
HETATM   17  C   UNL     1       0.533   8.755 -27.607  1.00  0.00     0.014 C 
ENDBRANCH  13  16
ENDBRANCH   7  12
ENDBRANCH   1   5
BRANCH   2  18
HETATM   18  C   UNL     1      -4.282   1.556 -32.437  1.00  0.00     0.037 A 
HETATM   19  C   UNL     1      -5.637   1.226 -32.441  1.00  0.00     0.075 A 
HETATM   20  C   UNL     1      -5.980  -0.082 -32.740  1.00  0.00     0.165 A 
HETATM   21  N   UNL     1      -5.094  -1.055 -33.032  1.00  0.00    -0.237 NA
HETATM   22  C   UNL     1      -3.793  -0.711 -33.035  1.00  0.00     0.120 A 
HETATM   23  C   UNL     1      -3.344   0.563 -32.748  1.00  0.00     0.036 A 
BRANCH  20  24
HETATM   24  O   UNL     1      -7.329  -0.389 -32.733  1.00  0.00    -0.329 OA
BRANCH  24  25
HETATM   25  C   UNL     1      -8.220   0.692 -33.089  1.00  0.00     0.130 C 
HETATM   26  C   UNL     1      -9.706   0.557 -32.659  1.00  0.00     0.032 C 
HETATM   27  C   UNL     1     -10.088   1.174 -34.016  1.00  0.00     0.005 C 
HETATM   28  C   UNL     1      -8.740   0.657 -34.551  1.00  0.00     0.032 C 
ENDBRANCH  24  25
ENDBRANCH  20  24
ENDBRANCH   2  18
TORSDOF 6
ENDMDL
MODEL 6
REMARK VINA RESULT:      -7.7      2.745      9.466
REMARK  6 active torsions:
REMARK  status: ('A' for Active; 'I' for Inactive)
REMARK    1  A    between atoms: C_2  and  C_3 
REMARK       I    between atoms: C_3  and  N_4 
REMARK    2  A    between atoms: N_4  and  C_5 
REMARK    3  A    between atoms: C_7  and  N_8 
REMARK       I    between atoms: N_8  and  C_9 
REMARK    4  A    between atoms: C_9  and  C_10 
REMARK    5  A    between atoms: C_12  and  O_13 
REMARK    6  A    between atoms: O_13  and  C_14 
ROOT
HETATM    1  N   UNL     1      -5.499   2.582 -33.911  1.00  0.00    -0.322 N 
HETATM    2  C   UNL     1      -5.151   3.566 -33.000  1.00  0.00     0.256 C 
HETATM    3  O   UNL     1      -5.855   3.946 -32.069  1.00  0.00    -0.267 OA
HETATM    4  H   UNL     1      -4.980   2.516 -34.770  1.00  0.00     0.169 HD
ENDROOT
BRANCH   1   5
HETATM    5  C   UNL     1      -6.568   1.658 -33.765  1.00  0.00     0.043 A 
HETATM    6  C   UNL     1      -7.843   1.926 -34.295  1.00  0.00     0.059 A 
HETATM    7  C   UNL     1      -8.917   1.056 -34.090  1.00  0.00     0.036 A 
HETATM    8  C   UNL     1      -8.702  -0.117 -33.366  1.00  0.00     0.030 A 
HETATM    9  C   UNL     1      -7.445  -0.397 -32.828  1.00  0.00     0.011 A 
HETATM   10  C   UNL     1      -6.367   0.483 -33.016  1.00  0.00    -0.035 A 
HETATM   11  C   UNL     1      -5.042   0.127 -32.400  1.00  0.00     0.050 C 
BRANCH   7  12
HETATM   12  N   UNL     1     -10.226   1.290 -34.566  1.00  0.00    -0.327 N 
HETATM   13  C   UNL     1     -11.214   2.061 -33.979  1.00  0.00     0.221 C 
HETATM   14  O   UNL     1     -11.160   2.615 -32.885  1.00  0.00    -0.273 OA
HETATM   15  H   UNL     1     -10.487   0.784 -35.403  1.00  0.00     0.169 HD
BRANCH  13  16
HETATM   16  C   UNL     1     -12.487   2.126 -34.805  1.00  0.00     0.098 C 
HETATM   17  C   UNL     1     -12.403   3.137 -35.935  1.00  0.00     0.014 C 
ENDBRANCH  13  16
ENDBRANCH   7  12
ENDBRANCH   1   5
BRANCH   2  18
HETATM   18  C   UNL     1      -3.824   4.227 -33.169  1.00  0.00     0.037 A 
HETATM   19  C   UNL     1      -2.770   4.120 -32.261  1.00  0.00     0.075 A 
HETATM   20  C   UNL     1      -1.610   4.822 -32.538  1.00  0.00     0.165 A 
HETATM   21  N   UNL     1      -1.428   5.596 -33.626  1.00  0.00    -0.237 NA
HETATM   22  C   UNL     1      -2.453   5.675 -34.495  1.00  0.00     0.120 A 
HETATM   23  C   UNL     1      -3.653   5.017 -34.312  1.00  0.00     0.036 A 
BRANCH  20  24
HETATM   24  O   UNL     1      -0.579   4.707 -31.622  1.00  0.00    -0.329 OA
BRANCH  24  25
HETATM   25  C   UNL     1      -0.633   5.616 -30.499  1.00  0.00     0.130 C 
HETATM   26  C   UNL     1      -0.007   7.023 -30.697  1.00  0.00     0.032 C 
HETATM   27  C   UNL     1       0.527   6.918 -29.258  1.00  0.00     0.005 C 
HETATM   28  C   UNL     1       0.458   5.388 -29.420  1.00  0.00     0.032 C 
ENDBRANCH  24  25
ENDBRANCH  20  24
ENDBRANCH   2  18
TORSDOF 6
ENDMDL
MODEL 7
REMARK VINA RESULT:      -7.7      2.702      9.154
REMARK  6 active torsions:
REMARK  status: ('A' for Active; 'I' for Inactive)
REMARK    1  A    between atoms: C_2  and  C_3 
REMARK       I    between atoms: C_3  and  N_4 
REMARK    2  A    between atoms: N_4  and  C_5 
REMARK    3  A    between atoms: C_7  and  N_8 
REMARK       I    between atoms: N_8  and  C_9 
REMARK    4  A    between atoms: C_9  and  C_10 
REMARK    5  A    between atoms: C_12  and  O_13 
REMARK    6  A    between atoms: O_13  and  C_14 
ROOT
HETATM    1  N   UNL     1      -4.556   3.584 -33.005  1.00  0.00    -0.322 N 
HETATM    2  C   UNL     1      -4.119   4.557 -32.121  1.00  0.00     0.256 C 
HETATM    3  O   UNL     1      -4.431   4.625 -30.936  1.00  0.00    -0.267 OA
HETATM    4  H   UNL     1      -4.455   3.750 -33.993  1.00  0.00     0.169 HD
ENDROOT
BRANCH   1   5
HETATM    5  C   UNL     1      -5.183   2.361 -32.648  1.00  0.00     0.043 A 
HETATM    6  C   UNL     1      -4.435   1.186 -32.450  1.00  0.00     0.059 A 
HETATM    7  C   UNL     1      -5.053  -0.035 -32.172  1.00  0.00     0.036 A 
HETATM    8  C   UNL     1      -6.443  -0.075 -32.061  1.00  0.00     0.030 A 
HETATM    9  C   UNL     1      -7.202   1.080 -32.258  1.00  0.00     0.011 A 
HETATM   10  C   UNL     1      -6.587   2.307 -32.556  1.00  0.00    -0.035 A 
HETATM   11  C   UNL     1      -7.464   3.510 -32.769  1.00  0.00     0.050 C 
BRANCH   7  12
HETATM   12  N   UNL     1      -4.357  -1.253 -32.000  1.00  0.00    -0.327 N 
HETATM   13  C   UNL     1      -4.080  -2.210 -32.960  1.00  0.00     0.221 C 
HETATM   14  O   UNL     1      -4.466  -2.216 -34.125  1.00  0.00    -0.273 OA
HETATM   15  H   UNL     1      -4.085  -1.473 -31.051  1.00  0.00     0.169 HD
BRANCH  13  16
HETATM   16  C   UNL     1      -3.262  -3.371 -32.422  1.00  0.00     0.098 C 
HETATM   17  C   UNL     1      -3.456  -4.647 -33.221  1.00  0.00     0.014 C 
ENDBRANCH  13  16
ENDBRANCH   7  12
ENDBRANCH   1   5
BRANCH   2  18
HETATM   18  C   UNL     1      -3.210   5.616 -32.651  1.00  0.00     0.037 A 
HETATM   19  C   UNL     1      -3.003   6.853 -32.042  1.00  0.00     0.075 A 
HETATM   20  C   UNL     1      -2.155   7.747 -32.674  1.00  0.00     0.165 A 
HETATM   21  N   UNL     1      -1.513   7.500 -33.833  1.00  0.00    -0.237 NA
HETATM   22  C   UNL     1      -1.718   6.295 -34.396  1.00  0.00     0.120 A 
HETATM   23  C   UNL     1      -2.545   5.333 -33.851  1.00  0.00     0.036 A 
BRANCH  20  24
HETATM   24  O   UNL     1      -1.969   8.970 -32.056  1.00  0.00    -0.329 OA
BRANCH  24  25
HETATM   25  C   UNL     1      -2.614   9.129 -30.772  1.00  0.00     0.130 C 
HETATM   26  C   UNL     1      -2.930  10.578 -30.312  1.00  0.00     0.032 C 
HETATM   27  C   UNL     1      -2.521  10.148 -28.892  1.00  0.00     0.005 C 
HETATM   28  C   UNL     1      -1.663   9.050 -29.547  1.00  0.00     0.032 C 
ENDBRANCH  24  25
ENDBRANCH  20  24
ENDBRANCH   2  18
TORSDOF 6
ENDMDL
MODEL 8
REMARK VINA RESULT:      -7.7      2.496      3.290
REMARK  6 active torsions:
REMARK  status: ('A' for Active; 'I' for Inactive)
REMARK    1  A    between atoms: C_2  and  C_3 
REMARK       I    between atoms: C_3  and  N_4 
REMARK    2  A    between atoms: N_4  and  C_5 
REMARK    3  A    between atoms: C_7  and  N_8 
REMARK       I    between atoms: N_8  and  C_9 
REMARK    4  A    between atoms: C_9  and  C_10 
REMARK    5  A    between atoms: C_12  and  O_13 
REMARK    6  A    between atoms: O_13  and  C_14 
ROOT
HETATM    1  N   UNL     1      -3.485   3.876 -32.432  1.00  0.00    -0.322 N 
HETATM    2  C   UNL     1      -3.602   2.663 -31.774  1.00  0.00     0.256 C 
HETATM    3  O   UNL     1      -2.691   2.089 -31.184  1.00  0.00    -0.267 OA
HETATM    4  H   UNL     1      -4.202   4.141 -33.086  1.00  0.00     0.169 HD
ENDROOT
BRANCH   1   5
HETATM    5  C   UNL     1      -2.405   4.789 -32.299  1.00  0.00     0.043 A 
HETATM    6  C   UNL     1      -1.946   5.200 -31.034  1.00  0.00     0.059 A 
HETATM    7  C   UNL     1      -0.935   6.155 -30.898  1.00  0.00     0.036 A 
HETATM    8  C   UNL     1      -0.354   6.686 -32.049  1.00  0.00     0.030 A 
HETATM    9  C   UNL     1      -0.800   6.295 -33.313  1.00  0.00     0.011 A 
HETATM   10  C   UNL     1      -1.828   5.349 -33.455  1.00  0.00    -0.035 A 
HETATM   11  C   UNL     1      -2.270   4.981 -34.845  1.00  0.00     0.050 C 
BRANCH   7  12
HETATM   12  N   UNL     1      -0.459   6.630 -29.656  1.00  0.00    -0.327 N 
HETATM   13  C   UNL     1       0.498   6.051 -28.841  1.00  0.00     0.221 C 
HETATM   14  O   UNL     1       1.046   4.966 -29.008  1.00  0.00    -0.273 OA
HETATM   15  H   UNL     1      -0.916   7.459 -29.297  1.00  0.00     0.169 HD
BRANCH  13  16
HETATM   16  C   UNL     1       0.799   6.874 -27.600  1.00  0.00     0.098 C 
HETATM   17  C   UNL     1       1.252   8.286 -27.926  1.00  0.00     0.014 C 
ENDBRANCH  13  16
ENDBRANCH   7  12
ENDBRANCH   1   5
BRANCH   2  18
HETATM   18  C   UNL     1      -4.935   1.993 -31.792  1.00  0.00     0.037 A 
HETATM   19  C   UNL     1      -6.110   2.589 -32.249  1.00  0.00     0.075 A 
HETATM   20  C   UNL     1      -7.279   1.851 -32.169  1.00  0.00     0.165 A 
HETATM   21  N   UNL     1      -7.357   0.595 -31.686  1.00  0.00    -0.237 NA
HETATM   22  C   UNL     1      -6.209   0.035 -31.262  1.00  0.00     0.120 A 
HETATM   23  C   UNL     1      -4.991   0.684 -31.295  1.00  0.00     0.036 A 
BRANCH  20  24
HETATM   24  O   UNL     1      -8.434   2.464 -32.623  1.00  0.00    -0.329 OA
BRANCH  24  25
HETATM   25  C   UNL     1      -9.577   1.596 -32.799  1.00  0.00     0.130 C 
HETATM   26  C   UNL     1      -9.832   1.040 -34.226  1.00  0.00     0.032 C 
HETATM   27  C   UNL     1     -11.334   1.249 -33.970  1.00  0.00     0.005 C 
HETATM   28  C   UNL     1     -10.937   2.327 -32.945  1.00  0.00     0.032 C 
ENDBRANCH  24  25
ENDBRANCH  20  24
ENDBRANCH   2  18
TORSDOF 6
ENDMDL
MODEL 9
REMARK VINA RESULT:      -7.4     17.149     19.102
REMARK  6 active torsions:
REMARK  status: ('A' for Active; 'I' for Inactive)
REMARK    1  A    between atoms: C_2  and  C_3 
REMARK       I    between atoms: C_3  and  N_4 
REMARK    2  A    between atoms: N_4  and  C_5 
REMARK    3  A    between atoms: C_7  and  N_8 
REMARK       I    between atoms: N_8  and  C_9 
REMARK    4  A    between atoms: C_9  and  C_10 
REMARK    5  A    between atoms: C_12  and  O_13 
REMARK    6  A    between atoms: O_13  and  C_14 
ROOT
HETATM    1  N   UNL     1      -5.768 -13.921 -35.416  1.00  0.00    -0.322 N 
HETATM    2  C   UNL     1      -6.581 -13.758 -34.307  1.00  0.00     0.256 C 
HETATM    3  O   UNL     1      -7.443 -12.892 -34.185  1.00  0.00    -0.267 OA
HETATM    4  H   UNL     1      -4.938 -14.483 -35.326  1.00  0.00     0.169 HD
ENDROOT
BRANCH   1   5
HETATM    5  C   UNL     1      -5.974 -13.327 -36.689  1.00  0.00     0.043 A 
HETATM    6  C   UNL     1      -7.268 -13.159 -37.216  1.00  0.00     0.059 A 
HETATM    7  C   UNL     1      -7.473 -12.646 -38.499  1.00  0.00     0.036 A 
HETATM    8  C   UNL     1      -6.364 -12.266 -39.256  1.00  0.00     0.030 A 
HETATM    9  C   UNL     1      -5.073 -12.430 -38.752  1.00  0.00     0.011 A 
HETATM   10  C   UNL     1      -4.860 -12.963 -37.470  1.00  0.00    -0.035 A 
HETATM   11  C   UNL     1      -3.444 -13.125 -36.992  1.00  0.00     0.050 C 
BRANCH   7  12
HETATM   12  N   UNL     1      -8.745 -12.488 -39.093  1.00  0.00    -0.327 N 
HETATM   13  C   UNL     1      -9.453 -13.419 -39.833  1.00  0.00     0.221 C 
HETATM   14  O   UNL     1      -9.064 -14.529 -40.183  1.00  0.00    -0.273 OA
HETATM   15  H   UNL     1      -9.154 -11.565 -39.018  1.00  0.00     0.169 HD
BRANCH  13  16
HETATM   16  C   UNL     1     -10.817 -12.915 -40.273  1.00  0.00     0.098 C 
HETATM   17  C   UNL     1     -10.848 -11.413 -40.489  1.00  0.00     0.014 C 
ENDBRANCH  13  16
ENDBRANCH   7  12
ENDBRANCH   1   5
BRANCH   2  18
HETATM   18  C   UNL     1      -6.388 -14.697 -33.163  1.00  0.00     0.037 A 
HETATM   19  C   UNL     1      -5.384 -14.572 -32.203  1.00  0.00     0.075 A 
HETATM   20  C   UNL     1      -5.310 -15.545 -31.220  1.00  0.00     0.165 A 
HETATM   21  N   UNL     1      -6.144 -16.599 -31.126  1.00  0.00    -0.237 NA
HETATM   22  C   UNL     1      -7.113 -16.692 -32.055  1.00  0.00     0.120 A 
HETATM   23  C   UNL     1      -7.273 -15.779 -33.078  1.00  0.00     0.036 A 
BRANCH  20  24
HETATM   24  O   UNL     1      -4.304 -15.404 -30.281  1.00  0.00    -0.329 OA
BRANCH  24  25
HETATM   25  C   UNL     1      -3.916 -16.614 -29.591  1.00  0.00     0.130 C 
HETATM   26  C   UNL     1      -4.359 -16.758 -28.109  1.00  0.00     0.032 C 
HETATM   27  C   UNL     1      -2.985 -17.389 -27.826  1.00  0.00     0.005 C 
HETATM   28  C   UNL     1      -2.459 -16.625 -29.056  1.00  0.00     0.032 C 
ENDBRANCH  24  25
ENDBRANCH  20  24
ENDBRANCH   2  18
TORSDOF 6
ENDMDL
MODEL 10
REMARK VINA RESULT:      -7.2      4.693      8.176
REMARK  6 active torsions:
REMARK  status: ('A' for Active; 'I' for Inactive)
REMARK    1  A    between atoms: C_2  and  C_3 
REMARK       I    between atoms: C_3  and  N_4 
REMARK    2  A    between atoms: N_4  and  C_5 
REMARK    3  A    between atoms: C_7  and  N_8 
REMARK       I    between atoms: N_8  and  C_9 
REMARK    4  A    between atoms: C_9  and  C_10 
REMARK    5  A    between atoms: C_12  and  O_13 
REMARK    6  A    between atoms: O_13  and  C_14 
ROOT
HETATM    1  N   UNL     1      -7.042   1.801 -33.584  1.00  0.00    -0.322 N 
HETATM    2  C   UNL     1      -8.189   1.793 -32.807  1.00  0.00     0.256 C 
HETATM    3  O   UNL     1      -8.434   0.982 -31.920  1.00  0.00    -0.267 OA
HETATM    4  H   UNL     1      -7.042   2.336 -34.437  1.00  0.00     0.169 HD
ENDROOT
BRANCH   1   5
HETATM    5  C   UNL     1      -5.850   1.080 -33.309  1.00  0.00     0.043 A 
HETATM    6  C   UNL     1      -5.761  -0.304 -33.547  1.00  0.00     0.059 A 
HETATM    7  C   UNL     1      -4.618  -1.031 -33.208  1.00  0.00     0.036 A 
HETATM    8  C   UNL     1      -3.534  -0.356 -32.648  1.00  0.00     0.030 A 
HETATM    9  C   UNL     1      -3.605   1.016 -32.400  1.00  0.00     0.011 A 
HETATM   10  C   UNL     1      -4.759   1.749 -32.722  1.00  0.00    -0.035 A 
HETATM   11  C   UNL     1      -4.775   3.222 -32.418  1.00  0.00     0.050 C 
BRANCH   7  12
HETATM   12  N   UNL     1      -4.485  -2.426 -33.390  1.00  0.00    -0.327 N 
HETATM   13  C   UNL     1      -4.908  -3.180 -34.471  1.00  0.00     0.221 C 
HETATM   14  O   UNL     1      -5.558  -2.785 -35.434  1.00  0.00    -0.273 OA
HETATM   15  H   UNL     1      -4.088  -2.936 -32.612  1.00  0.00     0.169 HD
BRANCH  13  16
HETATM   16  C   UNL     1      -4.547  -4.651 -34.346  1.00  0.00     0.098 C 
HETATM   17  C   UNL     1      -3.384  -4.893 -33.401  1.00  0.00     0.014 C 
ENDBRANCH  13  16
ENDBRANCH   7  12
ENDBRANCH   1   5
BRANCH   2  18
HETATM   18  C   UNL     1      -9.214   2.844 -33.076  1.00  0.00     0.037 A 
HETATM   19  C   UNL     1     -10.580   2.596 -33.209  1.00  0.00     0.075 A 
HETATM   20  C   UNL     1     -11.405   3.671 -33.494  1.00  0.00     0.165 A 
HETATM   21  N   UNL     1     -10.977   4.940 -33.647  1.00  0.00    -0.237 NA
HETATM   22  C   UNL     1      -9.657   5.158 -33.502  1.00  0.00     0.120 A 
HETATM   23  C   UNL     1      -8.749   4.157 -33.220  1.00  0.00     0.036 A 
BRANCH  20  24
HETATM   24  O   UNL     1     -12.755   3.401 -33.627  1.00  0.00    -0.329 OA
BRANCH  24  25
HETATM   25  C   UNL     1     -13.139   2.019 -33.445  1.00  0.00     0.130 C 
HETATM   26  C   UNL     1     -13.459   1.198 -34.723  1.00  0.00     0.032 C 
HETATM   27  C   UNL     1     -14.608   0.542 -33.938  1.00  0.00     0.005 C 
HETATM   28  C   UNL     1     -14.624   1.800 -33.049  1.00  0.00     0.032 C 
ENDBRANCH  24  25
ENDBRANCH  20  24
ENDBRANCH   2  18
TORSDOF 6
ENDMDL
