MODEL 1
REMARK VINA RESULT:     -10.6      0.000      0.000
REMARK  6 active torsions:
REMARK  status: ('A' for Active; 'I' for Inactive)
REMARK    1  A    between atoms: C_2  and  O_3 
REMARK    2  A    between atoms: O_3  and  C_4 
REMARK    3  A    between atoms: C_7  and  C_8 
REMARK       I    between atoms: C_8  and  N_9 
REMARK    4  A    between atoms: N_9  and  C_10 
REMARK    5  A    between atoms: N_11  and  C_12 
REMARK    6  A    between atoms: C_24  and  C_25 
ROOT
HETATM    1  C   UNL     1      -7.419   2.117 -33.498  1.00  0.00     0.152 C 
HETATM    2  N   UNL     1      -7.750   0.771 -33.653  1.00  0.00    -0.044 N 
HETATM    3  N   UNL     1      -9.110   0.615 -33.799  1.00  0.00    -0.148 NA
HETATM    4  C   UNL     1      -9.547   1.856 -34.045  1.00  0.00     0.115 C 
HETATM    5  C   UNL     1      -8.526   2.820 -33.917  1.00  0.00     0.087 C 
ENDROOT
BRANCH   1   6
HETATM    6  N   UNL     1      -6.231   2.641 -33.014  1.00  0.00    -0.307 N 
HETATM    7  C   UNL     1      -5.643   3.734 -33.626  1.00  0.00     0.257 C 
HETATM    8  O   UNL     1      -6.072   4.361 -34.588  1.00  0.00    -0.267 OA
HETATM    9  H   UNL     1      -5.650   2.055 -32.426  1.00  0.00     0.170 HD
BRANCH   7  10
HETATM   10  C   UNL     1      -4.310   4.078 -33.102  1.00  0.00     0.032 A 
HETATM   11  C   UNL     1      -3.892   3.564 -31.870  1.00  0.00     0.020 A 
HETATM   12  C   UNL     1      -2.595   3.820 -31.421  1.00  0.00     0.038 A 
HETATM   13  C   UNL     1      -1.724   4.572 -32.212  1.00  0.00     0.069 A 
HETATM   14  C   UNL     1      -2.165   5.123 -33.418  1.00  0.00     0.038 A 
HETATM   15  C   UNL     1      -3.456   4.862 -33.879  1.00  0.00     0.020 A 
BRANCH  13  16
HETATM   16  O   UNL     1      -0.425   4.835 -31.875  1.00  0.00    -0.347 OA
BRANCH  16  17
HETATM   17  C   UNL     1      -0.235   5.559 -30.647  1.00  0.00     0.120 C 
HETATM   18  C   UNL     1       0.355   6.914 -31.031  1.00  0.00     0.040 C 
HETATM   19  C   UNL     1       0.729   4.829 -29.708  1.00  0.00     0.040 C 
ENDBRANCH  16  17
ENDBRANCH  13  16
ENDBRANCH   7  10
ENDBRANCH   1   6
BRANCH   2  20
HETATM   20  C   UNL     1      -6.929  -0.362 -33.853  1.00  0.00     0.732 A 
HETATM   21  N   UNL     1      -7.356  -1.526 -34.228  1.00  0.00    -0.067 NA
HETATM   22  C   UNL     1      -6.405  -2.518 -34.341  1.00  0.00     0.065 A 
HETATM   23  C   UNL     1      -5.094  -2.344 -34.090  1.00  0.00     0.036 A 
HETATM   24  C   UNL     1      -6.939  -3.861 -34.785  1.00  0.00     0.060 C 
HETATM   25  C   UNL     1      -4.057  -3.423 -34.196  1.00  0.00     0.046 C 
HETATM   26  C   UNL     1      -4.642  -1.004 -33.650  1.00  0.00     0.268 A 
HETATM   27  C   UNL     1      -4.666  -4.823 -34.281  1.00  0.00     0.005 C 
HETATM   28  C   UNL     1      -5.855  -4.844 -35.234  1.00  0.00     0.006 C 
HETATM   29  O   UNL     1      -3.469  -0.754 -33.399  1.00  0.00    -0.267 OA
HETATM   30  N   UNL     1      -5.627  -0.077 -33.536  1.00  0.00    -0.152 N 
HETATM   31  H   UNL     1      -5.389   0.856 -33.217  1.00  0.00     0.188 HD
ENDBRANCH   2  20
BRANCH   4  32
HETATM   32  C   UNL     1     -10.969   2.160 -34.379  1.00  0.00     0.105 A 
HETATM   33  O   UNL     1     -11.375   3.225 -35.137  1.00  0.00    -0.320 OA
HETATM   34  C   UNL     1     -12.729   3.167 -35.220  1.00  0.00     0.142 A 
HETATM   35  C   UNL     1     -13.209   2.082 -34.526  1.00  0.00     0.027 A 
HETATM   36  C   UNL     1     -12.074   1.431 -33.983  1.00  0.00     0.041 A 
ENDBRANCH   4  32
TORSDOF 6
ENDMDL
MODEL 2
REMARK VINA RESULT:     -10.6      1.195      1.535
REMARK  6 active torsions:
REMARK  status: ('A' for Active; 'I' for Inactive)
REMARK    1  A    between atoms: C_2  and  O_3 
REMARK    2  A    between atoms: O_3  and  C_4 
REMARK    3  A    between atoms: C_7  and  C_8 
REMARK       I    between atoms: C_8  and  N_9 
REMARK    4  A    between atoms: N_9  and  C_10 
REMARK    5  A    between atoms: N_11  and  C_12 
REMARK    6  A    between atoms: C_24  and  C_25 
ROOT
HETATM    1  C   UNL     1      -7.814   1.842 -33.902  1.00  0.00     0.152 C 
HETATM    2  N   UNL     1      -7.985   0.479 -33.659  1.00  0.00    -0.044 N 
HETATM    3  N   UNL     1      -9.293   0.202 -33.332  1.00  0.00    -0.148 NA
HETATM    4  C   UNL     1      -9.951   1.313 -33.681  1.00  0.00     0.115 C 
HETATM    5  C   UNL     1      -9.082   2.347 -34.088  1.00  0.00     0.087 C 
ENDROOT
BRANCH   1   6
HETATM    6  N   UNL     1      -6.621   2.547 -33.941  1.00  0.00    -0.307 N 
HETATM    7  C   UNL     1      -5.874   2.729 -32.791  1.00  0.00     0.257 C 
HETATM    8  O   UNL     1      -6.126   2.300 -31.671  1.00  0.00    -0.267 OA
HETATM    9  H   UNL     1      -6.458   3.175 -34.719  1.00  0.00     0.170 HD
BRANCH   7  10
HETATM   10  C   UNL     1      -4.718   3.629 -32.954  1.00  0.00     0.032 A 
HETATM   11  C   UNL     1      -4.872   4.843 -33.632  1.00  0.00     0.020 A 
HETATM   12  C   UNL     1      -3.798   5.731 -33.704  1.00  0.00     0.038 A 
HETATM   13  C   UNL     1      -2.588   5.407 -33.088  1.00  0.00     0.069 A 
HETATM   14  C   UNL     1      -2.427   4.171 -32.457  1.00  0.00     0.038 A 
HETATM   15  C   UNL     1      -3.500   3.283 -32.370  1.00  0.00     0.020 A 
BRANCH  13  16
HETATM   16  O   UNL     1      -1.497   6.233 -33.070  1.00  0.00    -0.347 OA
BRANCH  16  17
HETATM   17  C   UNL     1      -1.225   6.877 -31.813  1.00  0.00     0.120 C 
HETATM   18  C   UNL     1      -1.697   8.322 -31.957  1.00  0.00     0.040 C 
HETATM   19  C   UNL     1       0.269   6.857 -31.484  1.00  0.00     0.040 C 
ENDBRANCH  16  17
ENDBRANCH  13  16
ENDBRANCH   7  10
ENDBRANCH   1   6
BRANCH   2  20
HETATM   20  C   UNL     1      -7.109  -0.610 -33.868  1.00  0.00     0.732 A 
HETATM   21  N   UNL     1      -7.476  -1.787 -34.263  1.00  0.00    -0.067 NA
HETATM   22  C   UNL     1      -6.478  -2.731 -34.381  1.00  0.00     0.065 A 
HETATM   23  C   UNL     1      -5.179  -2.499 -34.114  1.00  0.00     0.036 A 
HETATM   24  C   UNL     1      -6.944  -4.091 -34.849  1.00  0.00     0.060 C 
HETATM   25  C   UNL     1      -4.091  -3.525 -34.225  1.00  0.00     0.046 C 
HETATM   26  C   UNL     1      -4.796  -1.145 -33.651  1.00  0.00     0.268 A 
HETATM   27  C   UNL     1      -4.632  -4.952 -34.336  1.00  0.00     0.005 C 
HETATM   28  C   UNL     1      -5.809  -5.015 -35.301  1.00  0.00     0.006 C 
HETATM   29  O   UNL     1      -3.639  -0.844 -33.384  1.00  0.00    -0.267 OA
HETATM   30  N   UNL     1      -5.825  -0.268 -33.533  1.00  0.00    -0.152 N 
HETATM   31  H   UNL     1      -5.635   0.670 -33.199  1.00  0.00     0.188 HD
ENDBRANCH   2  20
BRANCH   4  32
HETATM   32  C   UNL     1     -11.436   1.430 -33.603  1.00  0.00     0.105 A 
HETATM   33  O   UNL     1     -12.109   2.601 -33.379  1.00  0.00    -0.320 OA
HETATM   34  C   UNL     1     -13.435   2.308 -33.376  1.00  0.00     0.142 A 
HETATM   35  C   UNL     1     -13.634   0.966 -33.594  1.00  0.00     0.027 A 
HETATM   36  C   UNL     1     -12.344   0.398 -33.741  1.00  0.00     0.041 A 
ENDBRANCH   4  32
TORSDOF 6
ENDMDL
MODEL 3
REMARK VINA RESULT:     -10.3      1.628      2.280
REMARK  6 active torsions:
REMARK  status: ('A' for Active; 'I' for Inactive)
REMARK    1  A    between atoms: C_2  and  O_3 
REMARK    2  A    between atoms: O_3  and  C_4 
REMARK    3  A    between atoms: C_7  and  C_8 
REMARK       I    between atoms: C_8  and  N_9 
REMARK    4  A    between atoms: N_9  and  C_10 
REMARK    5  A    between atoms: N_11  and  C_12 
REMARK    6  A    between atoms: C_24  and  C_25 
ROOT
HETATM    1  C   UNL     1      -7.352   1.416 -33.904  1.00  0.00     0.152 C 
HETATM    2  N   UNL     1      -7.613   0.078 -33.610  1.00  0.00    -0.044 N 
HETATM    3  N   UNL     1      -8.964  -0.129 -33.438  1.00  0.00    -0.148 NA
HETATM    4  C   UNL     1      -9.521   0.983 -33.931  1.00  0.00     0.115 C 
HETATM    5  C   UNL     1      -8.561   1.956 -34.279  1.00  0.00     0.087 C 
ENDROOT
BRANCH   1   6
HETATM    6  N   UNL     1      -6.133   2.072 -33.827  1.00  0.00    -0.307 N 
HETATM    7  C   UNL     1      -5.715   2.643 -32.638  1.00  0.00     0.257 C 
HETATM    8  O   UNL     1      -6.303   2.625 -31.564  1.00  0.00    -0.267 OA
HETATM    9  H   UNL     1      -5.705   2.393 -34.687  1.00  0.00     0.170 HD
BRANCH   7  10
HETATM   10  C   UNL     1      -4.479   3.438 -32.749  1.00  0.00     0.032 A 
HETATM   11  C   UNL     1      -4.344   4.375 -33.780  1.00  0.00     0.020 A 
HETATM   12  C   UNL     1      -3.211   5.188 -33.827  1.00  0.00     0.038 A 
HETATM   13  C   UNL     1      -2.233   5.071 -32.837  1.00  0.00     0.069 A 
HETATM   14  C   UNL     1      -2.351   4.099 -31.840  1.00  0.00     0.038 A 
HETATM   15  C   UNL     1      -3.487   3.290 -31.780  1.00  0.00     0.020 A 
BRANCH  13  16
HETATM   16  O   UNL     1      -1.113   5.854 -32.778  1.00  0.00    -0.347 OA
BRANCH  16  17
HETATM   17  C   UNL     1      -0.957   6.627 -31.575  1.00  0.00     0.120 C 
HETATM   18  C   UNL     1      -1.587   7.991 -31.853  1.00  0.00     0.040 C 
HETATM   19  C   UNL     1       0.518   6.810 -31.211  1.00  0.00     0.040 C 
ENDBRANCH  16  17
ENDBRANCH  13  16
ENDBRANCH   7  10
ENDBRANCH   1   6
BRANCH   2  20
HETATM   20  C   UNL     1      -6.769  -1.054 -33.642  1.00  0.00     0.732 A 
HETATM   21  N   UNL     1      -5.649  -1.158 -33.000  1.00  0.00    -0.067 NA
HETATM   22  C   UNL     1      -4.948  -2.331 -33.180  1.00  0.00     0.065 A 
HETATM   23  C   UNL     1      -5.355  -3.345 -33.967  1.00  0.00     0.036 A 
HETATM   24  C   UNL     1      -3.649  -2.419 -32.412  1.00  0.00     0.060 C 
HETATM   25  C   UNL     1      -4.590  -4.617 -34.180  1.00  0.00     0.046 C 
HETATM   26  C   UNL     1      -6.634  -3.187 -34.698  1.00  0.00     0.268 A 
HETATM   27  C   UNL     1      -3.141  -4.525 -33.699  1.00  0.00     0.005 C 
HETATM   28  C   UNL     1      -3.060  -3.830 -32.345  1.00  0.00     0.006 C 
HETATM   29  O   UNL     1      -7.082  -4.057 -35.436  1.00  0.00    -0.267 OA
HETATM   30  N   UNL     1      -7.265  -2.002 -34.497  1.00  0.00    -0.152 N 
HETATM   31  H   UNL     1      -8.134  -1.820 -34.985  1.00  0.00     0.188 HD
ENDBRANCH   2  20
BRANCH   4  32
HETATM   32  C   UNL     1     -10.997   1.161 -34.052  1.00  0.00     0.105 A 
HETATM   33  O   UNL     1     -11.925   0.354 -33.449  1.00  0.00    -0.320 OA
HETATM   34  C   UNL     1     -13.152   0.827 -33.791  1.00  0.00     0.142 A 
HETATM   35  C   UNL     1     -13.035   1.926 -34.608  1.00  0.00     0.027 A 
HETATM   36  C   UNL     1     -11.645   2.143 -34.776  1.00  0.00     0.041 A 
ENDBRANCH   4  32
TORSDOF 6
ENDMDL
MODEL 4
REMARK VINA RESULT:     -10.1      1.850      8.047
REMARK  6 active torsions:
REMARK  status: ('A' for Active; 'I' for Inactive)
REMARK    1  A    between atoms: C_2  and  O_3 
REMARK    2  A    between atoms: O_3  and  C_4 
REMARK    3  A    between atoms: C_7  and  C_8 
REMARK       I    between atoms: C_8  and  N_9 
REMARK    4  A    between atoms: N_9  and  C_10 
REMARK    5  A    between atoms: N_11  and  C_12 
REMARK    6  A    between atoms: C_24  and  C_25 
ROOT
HETATM    1  C   UNL     1      -5.580   3.173 -32.204  1.00  0.00     0.152 C 
HETATM    2  N   UNL     1      -4.571   2.299 -32.607  1.00  0.00    -0.044 N 
HETATM    3  N   UNL     1      -3.332   2.882 -32.458  1.00  0.00    -0.148 NA
HETATM    4  C   UNL     1      -3.574   3.951 -31.690  1.00  0.00     0.115 C 
HETATM    5  C   UNL     1      -4.952   4.148 -31.463  1.00  0.00     0.087 C 
ENDROOT
BRANCH   1   6
HETATM    6  N   UNL     1      -6.933   3.087 -32.493  1.00  0.00    -0.307 N 
HETATM    7  C   UNL     1      -7.758   2.255 -31.758  1.00  0.00     0.257 C 
HETATM    8  O   UNL     1      -7.440   1.555 -30.804  1.00  0.00    -0.267 OA
HETATM    9  H   UNL     1      -7.249   3.383 -33.409  1.00  0.00     0.170 HD
BRANCH   7  10
HETATM   10  C   UNL     1      -9.132   2.148 -32.280  1.00  0.00     0.032 A 
HETATM   11  C   UNL     1      -9.990   3.251 -32.215  1.00  0.00     0.020 A 
HETATM   12  C   UNL     1     -11.258   3.172 -32.793  1.00  0.00     0.038 A 
HETATM   13  C   UNL     1     -11.652   2.000 -33.442  1.00  0.00     0.069 A 
HETATM   14  C   UNL     1     -10.808   0.886 -33.459  1.00  0.00     0.038 A 
HETATM   15  C   UNL     1      -9.535   0.962 -32.894  1.00  0.00     0.020 A 
BRANCH  13  16
HETATM   16  O   UNL     1     -12.856   1.847 -34.073  1.00  0.00    -0.347 OA
BRANCH  16  17
HETATM   17  C   UNL     1     -13.894   1.230 -33.291  1.00  0.00     0.120 C 
HETATM   18  C   UNL     1     -14.850   0.573 -34.285  1.00  0.00     0.040 C 
HETATM   19  C   UNL     1     -14.656   2.261 -32.455  1.00  0.00     0.040 C 
ENDBRANCH  16  17
ENDBRANCH  13  16
ENDBRANCH   7  10
ENDBRANCH   1   6
BRANCH   2  20
HETATM   20  C   UNL     1      -4.621   0.929 -32.948  1.00  0.00     0.732 A 
HETATM   21  N   UNL     1      -5.521   0.390 -33.708  1.00  0.00    -0.067 NA
HETATM   22  C   UNL     1      -5.421  -0.971 -33.902  1.00  0.00     0.065 A 
HETATM   23  C   UNL     1      -4.463  -1.747 -33.360  1.00  0.00     0.036 A 
HETATM   24  C   UNL     1      -6.485  -1.564 -34.797  1.00  0.00     0.060 C 
HETATM   25  C   UNL     1      -4.358  -3.230 -33.555  1.00  0.00     0.046 C 
HETATM   26  C   UNL     1      -3.458  -1.100 -32.485  1.00  0.00     0.268 A 
HETATM   27  C   UNL     1      -5.631  -3.842 -34.143  1.00  0.00     0.005 C 
HETATM   28  C   UNL     1      -6.173  -2.984 -35.279  1.00  0.00     0.006 C 
HETATM   29  O   UNL     1      -2.553  -1.727 -31.948  1.00  0.00    -0.267 OA
HETATM   30  N   UNL     1      -3.624   0.237 -32.314  1.00  0.00    -0.152 N 
HETATM   31  H   UNL     1      -2.983   0.737 -31.709  1.00  0.00     0.188 HD
ENDBRANCH   2  20
BRANCH   4  32
HETATM   32  C   UNL     1      -2.490   4.836 -31.176  1.00  0.00     0.105 A 
HETATM   33  O   UNL     1      -1.172   4.475 -31.087  1.00  0.00    -0.320 OA
HETATM   34  C   UNL     1      -0.496   5.536 -30.576  1.00  0.00     0.142 A 
HETATM   35  C   UNL     1      -1.355   6.581 -30.330  1.00  0.00     0.027 A 
HETATM   36  C   UNL     1      -2.641   6.131 -30.716  1.00  0.00     0.041 A 
ENDBRANCH   4  32
TORSDOF 6
ENDMDL
MODEL 5
REMARK VINA RESULT:      -9.9      2.275      8.960
REMARK  6 active torsions:
REMARK  status: ('A' for Active; 'I' for Inactive)
REMARK    1  A    between atoms: C_2  and  O_3 
REMARK    2  A    between atoms: O_3  and  C_4 
REMARK    3  A    between atoms: C_7  and  C_8 
REMARK       I    between atoms: C_8  and  N_9 
REMARK    4  A    between atoms: N_9  and  C_10 
REMARK    5  A    between atoms: N_11  and  C_12 
REMARK    6  A    between atoms: C_24  and  C_25 
ROOT
HETATM    1  C   UNL     1      -7.199  -0.192 -33.856  1.00  0.00     0.152 C 
HETATM    2  N   UNL     1      -6.016   0.213 -33.237  1.00  0.00    -0.044 N 
HETATM    3  N   UNL     1      -5.171  -0.858 -33.050  1.00  0.00    -0.148 NA
HETATM    4  C   UNL     1      -5.698  -1.816 -33.821  1.00  0.00     0.115 C 
HETATM    5  C   UNL     1      -6.933  -1.435 -34.383  1.00  0.00     0.087 C 
ENDROOT
BRANCH   1   6
HETATM    6  N   UNL     1      -8.395   0.505 -33.921  1.00  0.00    -0.307 N 
HETATM    7  C   UNL     1      -9.161   0.695 -32.784  1.00  0.00     0.257 C 
HETATM    8  O   UNL     1      -8.896   0.329 -31.646  1.00  0.00    -0.267 OA
HETATM    9  H   UNL     1      -8.848   0.601 -34.822  1.00  0.00     0.170 HD
BRANCH   7  10
HETATM   10  C   UNL     1     -10.476   1.311 -33.036  1.00  0.00     0.032 A 
HETATM   11  C   UNL     1     -11.542   0.520 -33.478  1.00  0.00     0.020 A 
HETATM   12  C   UNL     1     -12.807   1.092 -33.627  1.00  0.00     0.038 A 
HETATM   13  C   UNL     1     -12.999   2.440 -33.319  1.00  0.00     0.069 A 
HETATM   14  C   UNL     1     -11.918   3.234 -32.925  1.00  0.00     0.038 A 
HETATM   15  C   UNL     1     -10.654   2.667 -32.763  1.00  0.00     0.020 A 
BRANCH  13  16
HETATM   16  O   UNL     1     -14.210   3.073 -33.392  1.00  0.00    -0.347 OA
BRANCH  16  17
HETATM   17  C   UNL     1     -14.933   3.179 -32.154  1.00  0.00     0.120 C 
HETATM   18  C   UNL     1     -16.141   2.253 -32.279  1.00  0.00     0.040 C 
HETATM   19  C   UNL     1     -15.411   4.611 -31.902  1.00  0.00     0.040 C 
ENDBRANCH  16  17
ENDBRANCH  13  16
ENDBRANCH   7  10
ENDBRANCH   1   6
BRANCH   2  20
HETATM   20  C   UNL     1      -5.517   1.506 -32.962  1.00  0.00     0.732 A 
HETATM   21  N   UNL     1      -6.053   2.609 -33.379  1.00  0.00    -0.067 NA
HETATM   22  C   UNL     1      -5.403   3.774 -33.032  1.00  0.00     0.065 A 
HETATM   23  C   UNL     1      -4.273   3.823 -32.302  1.00  0.00     0.036 A 
HETATM   24  C   UNL     1      -6.060   5.040 -33.533  1.00  0.00     0.060 C 
HETATM   25  C   UNL     1      -3.552   5.087 -31.935  1.00  0.00     0.046 C 
HETATM   26  C   UNL     1      -3.679   2.543 -31.853  1.00  0.00     0.268 A 
HETATM   27  C   UNL     1      -4.020   6.294 -32.749  1.00  0.00     0.005 C 
HETATM   28  C   UNL     1      -5.539   6.316 -32.867  1.00  0.00     0.006 C 
HETATM   29  O   UNL     1      -2.652   2.492 -31.186  1.00  0.00    -0.267 OA
HETATM   30  N   UNL     1      -4.352   1.431 -32.246  1.00  0.00    -0.152 N 
HETATM   31  H   UNL     1      -3.987   0.521 -31.991  1.00  0.00     0.188 HD
ENDBRANCH   2  20
BRANCH   4  32
HETATM   32  C   UNL     1      -5.045  -3.143 -34.017  1.00  0.00     0.105 A 
HETATM   33  O   UNL     1      -5.622  -4.201 -34.668  1.00  0.00    -0.320 OA
HETATM   34  C   UNL     1      -4.730  -5.224 -34.643  1.00  0.00     0.142 A 
HETATM   35  C   UNL     1      -3.583  -4.849 -33.986  1.00  0.00     0.027 A 
HETATM   36  C   UNL     1      -3.785  -3.506 -33.582  1.00  0.00     0.041 A 
ENDBRANCH   4  32
TORSDOF 6
ENDMDL
MODEL 6
REMARK VINA RESULT:      -9.8      2.053      8.500
REMARK  6 active torsions:
REMARK  status: ('A' for Active; 'I' for Inactive)
REMARK    1  A    between atoms: C_2  and  O_3 
REMARK    2  A    between atoms: O_3  and  C_4 
REMARK    3  A    between atoms: C_7  and  C_8 
REMARK       I    between atoms: C_8  and  N_9 
REMARK    4  A    between atoms: N_9  and  C_10 
REMARK    5  A    between atoms: N_11  and  C_12 
REMARK    6  A    between atoms: C_24  and  C_25 
ROOT
HETATM    1  C   UNL     1      -7.365   0.674 -34.474  1.00  0.00     0.152 C 
HETATM    2  N   UNL     1      -6.266   0.744 -33.617  1.00  0.00    -0.044 N 
HETATM    3  N   UNL     1      -5.752  -0.510 -33.379  1.00  0.00    -0.148 NA
HETATM    4  C   UNL     1      -6.326  -1.272 -34.317  1.00  0.00     0.115 C 
HETATM    5  C   UNL     1      -7.301  -0.572 -35.056  1.00  0.00     0.087 C 
ENDROOT
BRANCH   1   6
HETATM    6  N   UNL     1      -8.327   1.649 -34.690  1.00  0.00    -0.307 N 
HETATM    7  C   UNL     1      -9.511   1.639 -33.974  1.00  0.00     0.257 C 
HETATM    8  O   UNL     1      -9.837   0.849 -33.097  1.00  0.00    -0.267 OA
HETATM    9  H   UNL     1      -8.300   2.166 -35.561  1.00  0.00     0.170 HD
BRANCH   7  10
HETATM   10  C   UNL     1     -10.498   2.637 -34.423  1.00  0.00     0.032 A 
HETATM   11  C   UNL     1     -10.174   3.998 -34.396  1.00  0.00     0.020 A 
HETATM   12  C   UNL     1     -11.078   4.931 -34.907  1.00  0.00     0.038 A 
HETATM   13  C   UNL     1     -12.288   4.497 -35.452  1.00  0.00     0.069 A 
HETATM   14  C   UNL     1     -12.625   3.141 -35.429  1.00  0.00     0.038 A 
HETATM   15  C   UNL     1     -11.721   2.201 -34.932  1.00  0.00     0.020 A 
BRANCH  13  16
HETATM   16  O   UNL     1     -13.214   5.333 -36.013  1.00  0.00    -0.347 OA
BRANCH  16  17
HETATM   17  C   UNL     1     -13.155   6.705 -35.584  1.00  0.00     0.120 C 
HETATM   18  C   UNL     1     -14.442   6.970 -34.807  1.00  0.00     0.040 C 
HETATM   19  C   UNL     1     -13.069   7.663 -36.775  1.00  0.00     0.040 C 
ENDBRANCH  16  17
ENDBRANCH  13  16
ENDBRANCH   7  10
ENDBRANCH   1   6
BRANCH   2  20
HETATM   20  C   UNL     1      -5.541   1.859 -33.139  1.00  0.00     0.732 A 
HETATM   21  N   UNL     1      -5.805   3.093 -33.434  1.00  0.00    -0.067 NA
HETATM   22  C   UNL     1      -4.965   4.043 -32.893  1.00  0.00     0.065 A 
HETATM   23  C   UNL     1      -3.916   3.763 -32.097  1.00  0.00     0.036 A 
HETATM   24  C   UNL     1      -5.306   5.470 -33.255  1.00  0.00     0.060 C 
HETATM   25  C   UNL     1      -2.989   4.790 -31.518  1.00  0.00     0.046 C 
HETATM   26  C   UNL     1      -3.635   2.341 -31.792  1.00  0.00     0.268 A 
HETATM   27  C   UNL     1      -3.130   6.159 -32.187  1.00  0.00     0.005 C 
HETATM   28  C   UNL     1      -4.596   6.517 -32.391  1.00  0.00     0.006 C 
HETATM   29  O   UNL     1      -2.701   1.993 -31.078  1.00  0.00    -0.267 OA
HETATM   30  N   UNL     1      -4.482   1.453 -32.371  1.00  0.00    -0.152 N 
HETATM   31  H   UNL     1      -4.333   0.462 -32.221  1.00  0.00     0.188 HD
ENDBRANCH   2  20
BRANCH   4  32
HETATM   32  C   UNL     1      -5.979  -2.710 -34.512  1.00  0.00     0.105 A 
HETATM   33  O   UNL     1      -4.761  -3.259 -34.213  1.00  0.00    -0.320 OA
HETATM   34  C   UNL     1      -4.826  -4.579 -34.525  1.00  0.00     0.142 A 
HETATM   35  C   UNL     1      -6.067  -4.895 -35.024  1.00  0.00     0.027 A 
HETATM   36  C   UNL     1      -6.812  -3.691 -35.016  1.00  0.00     0.041 A 
ENDBRANCH   4  32
TORSDOF 6
ENDMDL
MODEL 7
REMARK VINA RESULT:      -9.6      2.099      6.084
REMARK  6 active torsions:
REMARK  status: ('A' for Active; 'I' for Inactive)
REMARK    1  A    between atoms: C_2  and  O_3 
REMARK    2  A    between atoms: O_3  and  C_4 
REMARK    3  A    between atoms: C_7  and  C_8 
REMARK       I    between atoms: C_8  and  N_9 
REMARK    4  A    between atoms: N_9  and  C_10 
REMARK    5  A    between atoms: N_11  and  C_12 
REMARK    6  A    between atoms: C_24  and  C_25 
ROOT
HETATM    1  C   UNL     1      -5.458   0.750 -33.241  1.00  0.00     0.152 C 
HETATM    2  N   UNL     1      -6.821   0.629 -33.510  1.00  0.00    -0.044 N 
HETATM    3  N   UNL     1      -7.095  -0.580 -34.109  1.00  0.00    -0.148 NA
HETATM    4  C   UNL     1      -5.979  -1.292 -33.912  1.00  0.00     0.115 C 
HETATM    5  C   UNL     1      -4.948  -0.525 -33.332  1.00  0.00     0.087 C 
ENDROOT
BRANCH   1   6
HETATM    6  N   UNL     1      -4.757   1.910 -32.950  1.00  0.00    -0.307 N 
HETATM    7  C   UNL     1      -4.537   2.290 -31.638  1.00  0.00     0.257 C 
HETATM    8  O   UNL     1      -4.878   1.686 -30.628  1.00  0.00    -0.267 OA
HETATM    9  H   UNL     1      -4.679   2.618 -33.671  1.00  0.00     0.170 HD
BRANCH   7  10
HETATM   10  C   UNL     1      -3.920   3.620 -31.487  1.00  0.00     0.032 A 
HETATM   11  C   UNL     1      -4.583   4.616 -30.762  1.00  0.00     0.020 A 
HETATM   12  C   UNL     1      -3.954   5.843 -30.545  1.00  0.00     0.038 A 
HETATM   13  C   UNL     1      -2.666   6.058 -31.040  1.00  0.00     0.069 A 
HETATM   14  C   UNL     1      -2.031   5.076 -31.805  1.00  0.00     0.038 A 
HETATM   15  C   UNL     1      -2.649   3.843 -32.016  1.00  0.00     0.020 A 
BRANCH  13  16
HETATM   16  O   UNL     1      -1.956   7.210 -30.839  1.00  0.00    -0.347 OA
BRANCH  16  17
HETATM   17  C   UNL     1      -1.285   7.315 -29.571  1.00  0.00     0.120 C 
HETATM   18  C   UNL     1      -1.600   8.709 -29.030  1.00  0.00     0.040 C 
HETATM   19  C   UNL     1       0.230   7.155 -29.721  1.00  0.00     0.040 C 
ENDBRANCH  16  17
ENDBRANCH  13  16
ENDBRANCH   7  10
ENDBRANCH   1   6
BRANCH   2  20
HETATM   20  C   UNL     1      -7.912   1.435 -33.116  1.00  0.00     0.732 A 
HETATM   21  N   UNL     1      -7.934   2.182 -32.058  1.00  0.00    -0.067 NA
HETATM   22  C   UNL     1      -9.102   2.875 -31.823  1.00  0.00     0.065 A 
HETATM   23  C   UNL     1     -10.191   2.817 -32.614  1.00  0.00     0.036 A 
HETATM   24  C   UNL     1      -9.090   3.740 -30.583  1.00  0.00     0.060 C 
HETATM   25  C   UNL     1     -11.470   3.556 -32.356  1.00  0.00     0.046 C 
HETATM   26  C   UNL     1     -10.136   1.942 -33.808  1.00  0.00     0.268 A 
HETATM   27  C   UNL     1     -11.556   4.113 -30.934  1.00  0.00     0.005 C 
HETATM   28  C   UNL     1     -10.237   4.751 -30.518  1.00  0.00     0.006 C 
HETATM   29  O   UNL     1     -11.079   1.827 -34.583  1.00  0.00    -0.267 OA
HETATM   30  N   UNL     1      -8.969   1.270 -33.972  1.00  0.00    -0.152 N 
HETATM   31  H   UNL     1      -8.873   0.636 -34.757  1.00  0.00     0.188 HD
ENDBRANCH   2  20
BRANCH   4  32
HETATM   32  C   UNL     1      -5.857  -2.726 -34.305  1.00  0.00     0.105 A 
HETATM   33  O   UNL     1      -4.753  -3.501 -34.072  1.00  0.00    -0.320 OA
HETATM   34  C   UNL     1      -5.016  -4.737 -34.570  1.00  0.00     0.142 A 
HETATM   35  C   UNL     1      -6.274  -4.776 -35.123  1.00  0.00     0.027 A 
HETATM   36  C   UNL     1      -6.818  -3.480 -34.952  1.00  0.00     0.041 A 
ENDBRANCH   4  32
TORSDOF 6
ENDMDL
MODEL 8
REMARK VINA RESULT:      -9.5      1.989      2.767
REMARK  6 active torsions:
REMARK  status: ('A' for Active; 'I' for Inactive)
REMARK    1  A    between atoms: C_2  and  O_3 
REMARK    2  A    between atoms: O_3  and  C_4 
REMARK    3  A    between atoms: C_7  and  C_8 
REMARK       I    between atoms: C_8  and  N_9 
REMARK    4  A    between atoms: N_9  and  C_10 
REMARK    5  A    between atoms: N_11  and  C_12 
REMARK    6  A    between atoms: C_24  and  C_25 
ROOT
HETATM    1  C   UNL     1      -7.246   4.467 -33.477  1.00  0.00     0.152 C 
HETATM    2  N   UNL     1      -7.708   3.151 -33.488  1.00  0.00    -0.044 N 
HETATM    3  N   UNL     1      -9.061   3.111 -33.741  1.00  0.00    -0.148 NA
HETATM    4  C   UNL     1      -9.338   4.342 -34.186  1.00  0.00     0.115 C 
HETATM    5  C   UNL     1      -8.231   5.210 -34.088  1.00  0.00     0.087 C 
ENDROOT
BRANCH   1   6
HETATM    6  N   UNL     1      -6.051   4.935 -32.955  1.00  0.00    -0.307 N 
HETATM    7  C   UNL     1      -4.932   5.059 -33.759  1.00  0.00     0.257 C 
HETATM    8  O   UNL     1      -4.854   4.819 -34.958  1.00  0.00    -0.267 OA
HETATM    9  H   UNL     1      -5.915   4.892 -31.952  1.00  0.00     0.170 HD
BRANCH   7  10
HETATM   10  C   UNL     1      -3.700   5.416 -33.034  1.00  0.00     0.032 A 
HETATM   11  C   UNL     1      -2.489   4.803 -33.374  1.00  0.00     0.020 A 
HETATM   12  C   UNL     1      -1.311   5.210 -32.746  1.00  0.00     0.038 A 
HETATM   13  C   UNL     1      -1.350   6.234 -31.797  1.00  0.00     0.069 A 
HETATM   14  C   UNL     1      -2.570   6.806 -31.427  1.00  0.00     0.038 A 
HETATM   15  C   UNL     1      -3.750   6.413 -32.059  1.00  0.00     0.020 A 
BRANCH  13  16
HETATM   16  O   UNL     1      -0.243   6.727 -31.163  1.00  0.00    -0.347 OA
BRANCH  16  17
HETATM   17  C   UNL     1      -0.099   6.356 -29.781  1.00  0.00     0.120 C 
HETATM   18  C   UNL     1       0.631   7.510 -29.097  1.00  0.00     0.040 C 
HETATM   19  C   UNL     1       0.717   5.071 -29.626  1.00  0.00     0.040 C 
ENDBRANCH  16  17
ENDBRANCH  13  16
ENDBRANCH   7  10
ENDBRANCH   1   6
BRANCH   2  20
HETATM   20  C   UNL     1      -7.003   1.927 -33.461  1.00  0.00     0.732 A 
HETATM   21  N   UNL     1      -5.951   1.698 -32.740  1.00  0.00    -0.067 NA
HETATM   22  C   UNL     1      -5.382   0.449 -32.871  1.00  0.00     0.065 A 
HETATM   23  C   UNL     1      -5.849  -0.517 -33.685  1.00  0.00     0.036 A 
HETATM   24  C   UNL     1      -4.160   0.215 -32.012  1.00  0.00     0.060 C 
HETATM   25  C   UNL     1      -5.226  -1.871 -33.843  1.00  0.00     0.046 C 
HETATM   26  C   UNL     1      -7.046  -0.215 -34.505  1.00  0.00     0.268 A 
HETATM   27  C   UNL     1      -3.814  -1.946 -33.260  1.00  0.00     0.005 C 
HETATM   28  C   UNL     1      -3.748  -1.255 -31.904  1.00  0.00     0.006 C 
HETATM   29  O   UNL     1      -7.539  -1.031 -35.274  1.00  0.00    -0.267 OA
HETATM   30  N   UNL     1      -7.545   1.038 -34.349  1.00  0.00    -0.152 N 
HETATM   31  H   UNL     1      -8.350   1.317 -34.898  1.00  0.00     0.188 HD
ENDBRANCH   2  20
BRANCH   4  32
HETATM   32  C   UNL     1     -10.686   4.733 -34.691  1.00  0.00     0.105 A 
HETATM   33  O   UNL     1     -11.225   5.985 -34.566  1.00  0.00    -0.320 OA
HETATM   34  C   UNL     1     -12.455   5.953 -35.142  1.00  0.00     0.142 A 
HETATM   35  C   UNL     1     -12.723   4.699 -35.637  1.00  0.00     0.027 A 
HETATM   36  C   UNL     1     -11.583   3.911 -35.347  1.00  0.00     0.041 A 
ENDBRANCH   4  32
TORSDOF 6
ENDMDL
MODEL 9
REMARK VINA RESULT:      -9.5      2.213      6.014
REMARK  6 active torsions:
REMARK  status: ('A' for Active; 'I' for Inactive)
REMARK    1  A    between atoms: C_2  and  O_3 
REMARK    2  A    between atoms: O_3  and  C_4 
REMARK    3  A    between atoms: C_7  and  C_8 
REMARK       I    between atoms: C_8  and  N_9 
REMARK    4  A    between atoms: N_9  and  C_10 
REMARK    5  A    between atoms: N_11  and  C_12 
REMARK    6  A    between atoms: C_24  and  C_25 
ROOT
HETATM    1  C   UNL     1      -5.425   0.902 -33.174  1.00  0.00     0.152 C 
HETATM    2  N   UNL     1      -6.753   0.836 -33.594  1.00  0.00    -0.044 N 
HETATM    3  N   UNL     1      -7.011  -0.366 -34.213  1.00  0.00    -0.148 NA
HETATM    4  C   UNL     1      -5.956  -1.123 -33.889  1.00  0.00     0.115 C 
HETATM    5  C   UNL     1      -4.963  -0.395 -33.202  1.00  0.00     0.087 C 
ENDROOT
BRANCH   1   6
HETATM    6  N   UNL     1      -4.711   2.034 -32.813  1.00  0.00    -0.307 N 
HETATM    7  C   UNL     1      -4.694   2.465 -31.499  1.00  0.00     0.257 C 
HETATM    8  O   UNL     1      -5.239   1.932 -30.540  1.00  0.00    -0.267 OA
HETATM    9  H   UNL     1      -4.468   2.700 -33.536  1.00  0.00     0.170 HD
BRANCH   7  10
HETATM   10  C   UNL     1      -4.028   3.764 -31.296  1.00  0.00     0.032 A 
HETATM   11  C   UNL     1      -4.732   4.823 -30.711  1.00  0.00     0.020 A 
HETATM   12  C   UNL     1      -4.070   6.022 -30.438  1.00  0.00     0.038 A 
HETATM   13  C   UNL     1      -2.712   6.147 -30.737  1.00  0.00     0.069 A 
HETATM   14  C   UNL     1      -2.030   5.102 -31.366  1.00  0.00     0.038 A 
HETATM   15  C   UNL     1      -2.681   3.897 -31.631  1.00  0.00     0.020 A 
BRANCH  13  16
HETATM   16  O   UNL     1      -1.973   7.265 -30.465  1.00  0.00    -0.347 OA
BRANCH  16  17
HETATM   17  C   UNL     1      -1.169   7.206 -29.274  1.00  0.00     0.120 C 
HETATM   18  C   UNL     1      -1.596   8.388 -28.405  1.00  0.00     0.040 C 
HETATM   19  C   UNL     1       0.323   7.322 -29.597  1.00  0.00     0.040 C 
ENDBRANCH  16  17
ENDBRANCH  13  16
ENDBRANCH   7  10
ENDBRANCH   1   6
BRANCH   2  20
HETATM   20  C   UNL     1      -7.846   1.691 -33.328  1.00  0.00     0.732 A 
HETATM   21  N   UNL     1      -8.551   2.290 -34.234  1.00  0.00    -0.067 NA
HETATM   22  C   UNL     1      -9.562   3.110 -33.778  1.00  0.00     0.065 A 
HETATM   23  C   UNL     1      -9.845   3.315 -32.478  1.00  0.00     0.036 A 
HETATM   24  C   UNL     1     -10.366   3.789 -34.864  1.00  0.00     0.060 C 
HETATM   25  C   UNL     1     -10.932   4.218 -31.976  1.00  0.00     0.046 C 
HETATM   26  C   UNL     1      -9.009   2.625 -31.468  1.00  0.00     0.268 A 
HETATM   27  C   UNL     1     -11.471   5.155 -33.058  1.00  0.00     0.005 C 
HETATM   28  C   UNL     1     -11.676   4.410 -34.371  1.00  0.00     0.006 C 
HETATM   29  O   UNL     1      -9.193   2.753 -30.264  1.00  0.00    -0.267 OA
HETATM   30  N   UNL     1      -8.017   1.850 -31.978  1.00  0.00    -0.152 N 
HETATM   31  H   UNL     1      -7.394   1.368 -31.341  1.00  0.00     0.188 HD
ENDBRANCH   2  20
BRANCH   4  32
HETATM   32  C   UNL     1      -5.853  -2.565 -34.259  1.00  0.00     0.105 A 
HETATM   33  O   UNL     1      -4.724  -3.324 -34.104  1.00  0.00    -0.320 OA
HETATM   34  C   UNL     1      -5.016  -4.574 -34.550  1.00  0.00     0.142 A 
HETATM   35  C   UNL     1      -6.315  -4.637 -34.993  1.00  0.00     0.027 A 
HETATM   36  C   UNL     1      -6.856  -3.341 -34.806  1.00  0.00     0.041 A 
ENDBRANCH   4  32
TORSDOF 6
ENDMDL
MODEL 10
REMARK VINA RESULT:      -9.4      3.214      7.776
REMARK  6 active torsions:
REMARK  status: ('A' for Active; 'I' for Inactive)
REMARK    1  A    between atoms: C_2  and  O_3 
REMARK    2  A    between atoms: O_3  and  C_4 
REMARK    3  A    between atoms: C_7  and  C_8 
REMARK       I    between atoms: C_8  and  N_9 
REMARK    4  A    between atoms: N_9  and  C_10 
REMARK    5  A    between atoms: N_11  and  C_12 
REMARK    6  A    between atoms: C_24  and  C_25 
ROOT
HETATM    1  C   UNL     1      -7.557   3.891 -31.888  1.00  0.00     0.152 C 
HETATM    2  N   UNL     1      -6.888   5.081 -32.172  1.00  0.00    -0.044 N 
HETATM    3  N   UNL     1      -7.646   6.169 -31.801  1.00  0.00    -0.148 NA
HETATM    4  C   UNL     1      -8.601   5.641 -31.026  1.00  0.00     0.115 C 
HETATM    5  C   UNL     1      -8.560   4.232 -31.008  1.00  0.00     0.087 C 
ENDROOT
BRANCH   1   6
HETATM    6  N   UNL     1      -7.280   2.629 -32.390  1.00  0.00    -0.307 N 
HETATM    7  C   UNL     1      -6.262   1.865 -31.850  1.00  0.00     0.257 C 
HETATM    8  O   UNL     1      -5.538   2.160 -30.906  1.00  0.00    -0.267 OA
HETATM    9  H   UNL     1      -7.605   2.401 -33.322  1.00  0.00     0.170 HD
BRANCH   7  10
HETATM   10  C   UNL     1      -5.982   0.619 -32.586  1.00  0.00     0.032 A 
HETATM   11  C   UNL     1      -6.894   0.156 -33.541  1.00  0.00     0.020 A 
HETATM   12  C   UNL     1      -6.581  -0.974 -34.300  1.00  0.00     0.038 A 
HETATM   13  C   UNL     1      -5.358  -1.620 -34.109  1.00  0.00     0.069 A 
HETATM   14  C   UNL     1      -4.476  -1.180 -33.118  1.00  0.00     0.038 A 
HETATM   15  C   UNL     1      -4.776  -0.045 -32.364  1.00  0.00     0.020 A 
BRANCH  13  16
HETATM   16  O   UNL     1      -4.949  -2.705 -34.834  1.00  0.00    -0.347 OA
BRANCH  16  17
HETATM   17  C   UNL     1      -5.471  -3.974 -34.404  1.00  0.00     0.120 C 
HETATM   18  C   UNL     1      -4.263  -4.865 -34.122  1.00  0.00     0.040 C 
HETATM   19  C   UNL     1      -6.341  -4.619 -35.485  1.00  0.00     0.040 C 
ENDBRANCH  16  17
ENDBRANCH  13  16
ENDBRANCH   7  10
ENDBRANCH   1   6
BRANCH   2  20
HETATM   20  C   UNL     1      -5.557   5.313 -32.587  1.00  0.00     0.732 A 
HETATM   21  N   UNL     1      -4.607   5.739 -31.816  1.00  0.00    -0.067 NA
HETATM   22  C   UNL     1      -3.378   5.932 -32.411  1.00  0.00     0.065 A 
HETATM   23  C   UNL     1      -3.122   5.708 -33.713  1.00  0.00     0.036 A 
HETATM   24  C   UNL     1      -2.294   6.425 -31.480  1.00  0.00     0.060 C 
HETATM   25  C   UNL     1      -1.792   5.933 -34.370  1.00  0.00     0.046 C 
HETATM   26  C   UNL     1      -4.235   5.235 -34.569  1.00  0.00     0.268 A 
HETATM   27  C   UNL     1      -0.840   6.764 -33.509  1.00  0.00     0.005 C 
HETATM   28  C   UNL     1      -0.880   6.310 -32.056  1.00  0.00     0.006 C 
HETATM   29  O   UNL     1      -4.094   5.007 -35.764  1.00  0.00    -0.267 OA
HETATM   30  N   UNL     1      -5.424   5.086 -33.931  1.00  0.00    -0.152 N 
HETATM   31  H   UNL     1      -6.232   4.786 -34.463  1.00  0.00     0.188 HD
ENDBRANCH   2  20
BRANCH   4  32
HETATM   32  C   UNL     1      -9.605   6.474 -30.303  1.00  0.00     0.105 A 
HETATM   33  O   UNL     1     -10.915   6.606 -30.679  1.00  0.00    -0.320 OA
HETATM   34  C   UNL     1     -11.509   7.437 -29.783  1.00  0.00     0.142 A 
HETATM   35  C   UNL     1     -10.605   7.847 -28.833  1.00  0.00     0.027 A 
HETATM   36  C   UNL     1      -9.376   7.226 -29.166  1.00  0.00     0.041 A 
ENDBRANCH   4  32
TORSDOF 6
ENDMDL
