MODEL 1
REMARK VINA RESULT:      -9.1      0.000      0.000
REMARK  5 active torsions:
REMARK  status: ('A' for Active; 'I' for Inactive)
REMARK    1  A    between atoms: C_9  and  C_10 
REMARK    2  A    between atoms: C_13  and  O_14 
REMARK    3  A    between atoms: O_14  and  C_15 
REMARK    4  A    between atoms: C_20  and  C_21 
REMARK       I    between atoms: C_21  and  N_22 
REMARK    5  A    between atoms: N_22  and  C_23 
ROOT
HETATM    1  C   UNL     1      -3.622   0.673 -30.889  1.00  0.00     0.070 C 
HETATM    2  C   UNL     1      -4.382   1.560 -31.845  1.00  0.00     0.037 A 
HETATM    3  N   UNL     1      -4.081   2.916 -31.783  1.00  0.00    -0.192 N 
HETATM    4  C   UNL     1      -4.594   3.827 -32.631  1.00  0.00     0.725 A 
HETATM    5  N   UNL     1      -5.540   3.437 -33.540  1.00  0.00    -0.084 N 
HETATM    6  N   UNL     1      -5.831   4.434 -34.402  1.00  0.00    -0.149 NA
HETATM    7  C   UNL     1      -5.101   5.428 -33.881  1.00  0.00     0.275 A 
HETATM    8  N   UNL     1      -4.324   5.095 -32.802  1.00  0.00    -0.054 NA
HETATM    9  C   UNL     1      -6.048   2.066 -33.662  1.00  0.00     0.202 A 
HETATM   10  C   UNL     1      -5.295   1.113 -32.743  1.00  0.00     0.062 A 
HETATM   11  H   UNL     1      -3.363   3.211 -31.127  1.00  0.00     0.184 HD
ENDROOT
BRANCH   9  12
HETATM   12  C   UNL     1      -7.559   2.049 -33.456  1.00  0.00    -0.028 A 
HETATM   13  C   UNL     1      -8.387   1.442 -34.411  1.00  0.00     0.012 A 
HETATM   14  C   UNL     1      -9.774   1.429 -34.242  1.00  0.00     0.037 A 
HETATM   15  C   UNL     1     -10.362   2.012 -33.118  1.00  0.00     0.074 A 
HETATM   16  C   UNL     1      -9.549   2.637 -32.173  1.00  0.00     0.037 A 
HETATM   17  C   UNL     1      -8.159   2.657 -32.341  1.00  0.00     0.012 A 
BRANCH  15  18
HETATM   18  O   UNL     1     -11.725   1.929 -33.077  1.00  0.00    -0.290 OA
BRANCH  18  19
HETATM   19  C   UNL     1     -12.326   1.036 -33.999  1.00  0.00     0.505 C 
HETATM   20  F   UNL     1     -12.702  -0.093 -33.348  1.00  0.00    -0.184 F 
HETATM   21  F   UNL     1     -13.466   1.623 -34.444  1.00  0.00    -0.184 F 
ENDBRANCH  18  19
ENDBRANCH  15  18
ENDBRANCH   9  12
BRANCH  10  22
HETATM   22  C   UNL     1      -5.665  -0.326 -32.797  1.00  0.00     0.256 C 
HETATM   23  N   UNL     1      -5.117  -0.983 -33.878  1.00  0.00    -0.323 N 
HETATM   24  H   UNL     1      -4.536  -0.455 -34.513  1.00  0.00     0.169 HD
HETATM   25  O   UNL     1      -6.384  -0.796 -31.923  1.00  0.00    -0.267 OA
BRANCH  23  26
HETATM   26  C   UNL     1      -5.253  -2.352 -34.199  1.00  0.00     0.035 A 
HETATM   27  C   UNL     1      -6.390  -2.907 -34.789  1.00  0.00     0.029 A 
HETATM   28  C   UNL     1      -6.450  -4.278 -35.061  1.00  0.00     0.002 A 
HETATM   29  C   UNL     1      -5.370  -5.103 -34.755  1.00  0.00     0.000 A 
HETATM   30  C   UNL     1      -4.229  -4.558 -34.172  1.00  0.00     0.002 A 
HETATM   31  C   UNL     1      -4.173  -3.191 -33.890  1.00  0.00     0.029 A 
ENDBRANCH  23  26
ENDBRANCH  10  22
TORSDOF 5
ENDMDL
MODEL 2
REMARK VINA RESULT:      -8.8      4.346      5.938
REMARK  5 active torsions:
REMARK  status: ('A' for Active; 'I' for Inactive)
REMARK    1  A    between atoms: C_9  and  C_10 
REMARK    2  A    between atoms: C_13  and  O_14 
REMARK    3  A    between atoms: O_14  and  C_15 
REMARK    4  A    between atoms: C_20  and  C_21 
REMARK       I    between atoms: C_21  and  N_22 
REMARK    5  A    between atoms: N_22  and  C_23 
ROOT
HETATM    1  C   UNL     1      -9.932   1.213 -33.747  1.00  0.00     0.070 C 
HETATM    2  C   UNL     1      -8.979   1.962 -32.847  1.00  0.00     0.037 A 
HETATM    3  N   UNL     1      -9.555   2.921 -32.020  1.00  0.00    -0.192 N 
HETATM    4  C   UNL     1      -8.864   3.606 -31.090  1.00  0.00     0.725 A 
HETATM    5  N   UNL     1      -7.508   3.442 -31.008  1.00  0.00    -0.084 N 
HETATM    6  N   UNL     1      -7.001   4.082 -29.934  1.00  0.00    -0.149 NA
HETATM    7  C   UNL     1      -8.098   4.700 -29.478  1.00  0.00     0.275 A 
HETATM    8  N   UNL     1      -9.260   4.428 -30.152  1.00  0.00    -0.054 NA
HETATM    9  C   UNL     1      -6.733   2.553 -31.880  1.00  0.00     0.202 A 
HETATM   10  C   UNL     1      -7.643   1.741 -32.792  1.00  0.00     0.062 A 
HETATM   11  H   UNL     1     -10.564   3.032 -32.057  1.00  0.00     0.184 HD
ENDROOT
BRANCH   9  12
HETATM   12  C   UNL     1      -5.671   3.351 -32.628  1.00  0.00    -0.028 A 
HETATM   13  C   UNL     1      -6.056   4.292 -33.594  1.00  0.00     0.012 A 
HETATM   14  C   UNL     1      -5.094   5.022 -34.296  1.00  0.00     0.037 A 
HETATM   15  C   UNL     1      -3.733   4.835 -34.048  1.00  0.00     0.074 A 
HETATM   16  C   UNL     1      -3.338   3.886 -33.105  1.00  0.00     0.037 A 
HETATM   17  C   UNL     1      -4.299   3.149 -32.402  1.00  0.00     0.012 A 
BRANCH  15  18
HETATM   18  O   UNL     1      -2.901   5.612 -34.803  1.00  0.00    -0.290 OA
BRANCH  18  19
HETATM   19  C   UNL     1      -1.543   5.649 -34.402  1.00  0.00     0.505 C 
HETATM   20  F   UNL     1      -0.762   5.219 -35.423  1.00  0.00    -0.184 F 
HETATM   21  F   UNL     1      -1.221   6.951 -34.191  1.00  0.00    -0.184 F 
ENDBRANCH  18  19
ENDBRANCH  15  18
ENDBRANCH   9  12
BRANCH  10  22
HETATM   22  C   UNL     1      -6.999   0.753 -33.698  1.00  0.00     0.256 C 
HETATM   23  N   UNL     1      -6.782  -0.469 -33.097  1.00  0.00    -0.323 N 
HETATM   24  H   UNL     1      -7.067  -0.584 -32.134  1.00  0.00     0.169 HD
HETATM   25  O   UNL     1      -6.731   1.077 -34.848  1.00  0.00    -0.267 OA
BRANCH  23  26
HETATM   26  C   UNL     1      -6.217  -1.620 -33.689  1.00  0.00     0.035 A 
HETATM   27  C   UNL     1      -4.847  -1.883 -33.737  1.00  0.00     0.029 A 
HETATM   28  C   UNL     1      -4.369  -3.041 -34.358  1.00  0.00     0.002 A 
HETATM   29  C   UNL     1      -5.256  -3.951 -34.927  1.00  0.00     0.000 A 
HETATM   30  C   UNL     1      -6.625  -3.702 -34.879  1.00  0.00     0.002 A 
HETATM   31  C   UNL     1      -7.103  -2.540 -34.269  1.00  0.00     0.029 A 
ENDBRANCH  23  26
ENDBRANCH  10  22
TORSDOF 5
ENDMDL
MODEL 3
REMARK VINA RESULT:      -8.7      4.178      5.785
REMARK  5 active torsions:
REMARK  status: ('A' for Active; 'I' for Inactive)
REMARK    1  A    between atoms: C_9  and  C_10 
REMARK    2  A    between atoms: C_13  and  O_14 
REMARK    3  A    between atoms: O_14  and  C_15 
REMARK    4  A    between atoms: C_20  and  C_21 
REMARK       I    between atoms: C_21  and  N_22 
REMARK    5  A    between atoms: N_22  and  C_23 
ROOT
HETATM    1  C   UNL     1      -9.870   0.449 -32.564  1.00  0.00     0.070 C 
HETATM    2  C   UNL     1      -9.075   1.497 -31.824  1.00  0.00     0.037 A 
HETATM    3  N   UNL     1      -9.734   2.698 -31.581  1.00  0.00    -0.192 N 
HETATM    4  C   UNL     1      -9.206   3.697 -30.851  1.00  0.00     0.725 A 
HETATM    5  N   UNL     1      -7.917   3.589 -30.403  1.00  0.00    -0.084 N 
HETATM    6  N   UNL     1      -7.602   4.602 -29.568  1.00  0.00    -0.149 NA
HETATM    7  C   UNL     1      -8.717   5.339 -29.648  1.00  0.00     0.275 A 
HETATM    8  N   UNL     1      -9.724   4.816 -30.416  1.00  0.00    -0.054 NA
HETATM    9  C   UNL     1      -7.048   2.437 -30.666  1.00  0.00     0.202 A 
HETATM   10  C   UNL     1      -7.804   1.326 -31.383  1.00  0.00     0.062 A 
HETATM   11  H   UNL     1     -10.699   2.778 -31.890  1.00  0.00     0.184 HD
ENDROOT
BRANCH   9  12
HETATM   12  C   UNL     1      -5.788   2.889 -31.396  1.00  0.00    -0.028 A 
HETATM   13  C   UNL     1      -4.526   2.584 -30.865  1.00  0.00     0.012 A 
HETATM   14  C   UNL     1      -3.363   3.001 -31.516  1.00  0.00     0.037 A 
HETATM   15  C   UNL     1      -3.432   3.723 -32.709  1.00  0.00     0.074 A 
HETATM   16  C   UNL     1      -4.682   4.050 -33.234  1.00  0.00     0.037 A 
HETATM   17  C   UNL     1      -5.850   3.638 -32.583  1.00  0.00     0.012 A 
BRANCH  15  18
HETATM   18  O   UNL     1      -2.221   4.069 -33.239  1.00  0.00    -0.290 OA
BRANCH  18  19
HETATM   19  C   UNL     1      -2.197   5.243 -34.033  1.00  0.00     0.505 C 
HETATM   20  F   UNL     1      -1.025   5.894 -33.833  1.00  0.00    -0.184 F 
HETATM   21  F   UNL     1      -2.205   4.851 -35.333  1.00  0.00    -0.184 F 
ENDBRANCH  18  19
ENDBRANCH  15  18
ENDBRANCH   9  12
BRANCH  10  22
HETATM   22  C   UNL     1      -7.065   0.069 -31.669  1.00  0.00     0.256 C 
HETATM   23  N   UNL     1      -6.960  -0.201 -33.017  1.00  0.00    -0.323 N 
HETATM   24  H   UNL     1      -7.377   0.450 -33.668  1.00  0.00     0.169 HD
HETATM   25  O   UNL     1      -6.622  -0.594 -30.739  1.00  0.00    -0.267 OA
BRANCH  23  26
HETATM   26  C   UNL     1      -6.300  -1.297 -33.617  1.00  0.00     0.035 A 
HETATM   27  C   UNL     1      -6.954  -2.328 -34.293  1.00  0.00     0.029 A 
HETATM   28  C   UNL     1      -6.225  -3.386 -34.846  1.00  0.00     0.002 A 
HETATM   29  C   UNL     1      -4.837  -3.417 -34.736  1.00  0.00     0.000 A 
HETATM   30  C   UNL     1      -4.175  -2.390 -34.069  1.00  0.00     0.002 A 
HETATM   31  C   UNL     1      -4.903  -1.339 -33.507  1.00  0.00     0.029 A 
ENDBRANCH  23  26
ENDBRANCH  10  22
TORSDOF 5
ENDMDL
MODEL 4
REMARK VINA RESULT:      -8.2      1.649      2.243
REMARK  5 active torsions:
REMARK  status: ('A' for Active; 'I' for Inactive)
REMARK    1  A    between atoms: C_9  and  C_10 
REMARK    2  A    between atoms: C_13  and  O_14 
REMARK    3  A    between atoms: O_14  and  C_15 
REMARK    4  A    between atoms: C_20  and  C_21 
REMARK       I    between atoms: C_21  and  N_22 
REMARK    5  A    between atoms: N_22  and  C_23 
ROOT
HETATM    1  C   UNL     1      -3.096   0.476 -31.102  1.00  0.00     0.070 C 
HETATM    2  C   UNL     1      -3.816   1.532 -31.905  1.00  0.00     0.037 A 
HETATM    3  N   UNL     1      -3.308   2.823 -31.803  1.00  0.00    -0.192 N 
HETATM    4  C   UNL     1      -3.769   3.858 -32.528  1.00  0.00     0.725 A 
HETATM    5  N   UNL     1      -4.860   3.678 -33.334  1.00  0.00    -0.084 N 
HETATM    6  N   UNL     1      -5.091   4.768 -34.096  1.00  0.00    -0.149 NA
HETATM    7  C   UNL     1      -4.165   5.604 -33.612  1.00  0.00     0.275 A 
HETATM    8  N   UNL     1      -3.331   5.084 -32.658  1.00  0.00    -0.054 NA
HETATM    9  C   UNL     1      -5.580   2.407 -33.472  1.00  0.00     0.202 A 
HETATM   10  C   UNL     1      -4.882   1.290 -32.708  1.00  0.00     0.062 A 
HETATM   11  H   UNL     1      -2.484   2.961 -31.224  1.00  0.00     0.184 HD
ENDROOT
BRANCH   9  12
HETATM   12  C   UNL     1      -7.043   2.592 -33.083  1.00  0.00    -0.028 A 
HETATM   13  C   UNL     1      -7.370   3.135 -31.832  1.00  0.00     0.012 A 
HETATM   14  C   UNL     1      -8.706   3.299 -31.457  1.00  0.00     0.037 A 
HETATM   15  C   UNL     1      -9.740   2.933 -32.320  1.00  0.00     0.074 A 
HETATM   16  C   UNL     1      -9.426   2.372 -33.558  1.00  0.00     0.037 A 
HETATM   17  C   UNL     1      -8.089   2.201 -33.936  1.00  0.00     0.012 A 
BRANCH  15  18
HETATM   18  O   UNL     1     -10.997   3.146 -31.830  1.00  0.00    -0.290 OA
BRANCH  18  19
HETATM   19  C   UNL     1     -11.116   4.129 -30.816  1.00  0.00     0.505 C 
HETATM   20  F   UNL     1     -11.355   5.335 -31.387  1.00  0.00    -0.184 F 
HETATM   21  F   UNL     1     -12.218   3.822 -30.085  1.00  0.00    -0.184 F 
ENDBRANCH  18  19
ENDBRANCH  15  18
ENDBRANCH   9  12
BRANCH  10  22
HETATM   22  C   UNL     1      -5.469  -0.073 -32.799  1.00  0.00     0.256 C 
HETATM   23  N   UNL     1      -4.916  -0.833 -33.807  1.00  0.00    -0.323 N 
HETATM   24  H   UNL     1      -4.190  -0.417 -34.374  1.00  0.00     0.169 HD
HETATM   25  O   UNL     1      -6.347  -0.403 -32.011  1.00  0.00    -0.267 OA
BRANCH  23  26
HETATM   26  C   UNL     1      -5.234  -2.169 -34.137  1.00  0.00     0.035 A 
HETATM   27  C   UNL     1      -4.336  -3.234 -34.036  1.00  0.00     0.029 A 
HETATM   28  C   UNL     1      -4.727  -4.527 -34.399  1.00  0.00     0.002 A 
HETATM   29  C   UNL     1      -6.020  -4.768 -34.856  1.00  0.00     0.000 A 
HETATM   30  C   UNL     1      -6.924  -3.715 -34.955  1.00  0.00     0.002 A 
HETATM   31  C   UNL     1      -6.532  -2.421 -34.603  1.00  0.00     0.029 A 
ENDBRANCH  23  26
ENDBRANCH  10  22
TORSDOF 5
ENDMDL
MODEL 5
REMARK VINA RESULT:      -8.0      3.471      6.455
REMARK  5 active torsions:
REMARK  status: ('A' for Active; 'I' for Inactive)
REMARK    1  A    between atoms: C_9  and  C_10 
REMARK    2  A    between atoms: C_13  and  O_14 
REMARK    3  A    between atoms: O_14  and  C_15 
REMARK    4  A    between atoms: C_20  and  C_21 
REMARK       I    between atoms: C_21  and  N_22 
REMARK    5  A    between atoms: N_22  and  C_23 
ROOT
HETATM    1  C   UNL     1      -6.851   4.277 -29.878  1.00  0.00     0.070 C 
HETATM    2  C   UNL     1      -7.653   3.761 -31.048  1.00  0.00     0.037 A 
HETATM    3  N   UNL     1      -9.033   3.746 -30.877  1.00  0.00    -0.192 N 
HETATM    4  C   UNL     1      -9.896   3.411 -31.854  1.00  0.00     0.725 A 
HETATM    5  N   UNL     1      -9.409   2.958 -33.050  1.00  0.00    -0.084 N 
HETATM    6  N   UNL     1     -10.397   2.813 -33.957  1.00  0.00    -0.149 NA
HETATM    7  C   UNL     1     -11.466   3.092 -33.201  1.00  0.00     0.275 A 
HETATM    8  N   UNL     1     -11.201   3.470 -31.910  1.00  0.00    -0.054 NA
HETATM    9  C   UNL     1      -7.981   2.810 -33.354  1.00  0.00     0.202 A 
HETATM   10  C   UNL     1      -7.116   3.346 -32.221  1.00  0.00     0.062 A 
HETATM   11  H   UNL     1      -9.404   4.102 -30.000  1.00  0.00     0.184 HD
ENDROOT
BRANCH   9  12
HETATM   12  C   UNL     1      -7.675   1.363 -33.726  1.00  0.00    -0.028 A 
HETATM   13  C   UNL     1      -7.870   0.343 -32.783  1.00  0.00     0.012 A 
HETATM   14  C   UNL     1      -7.583  -0.986 -33.106  1.00  0.00     0.037 A 
HETATM   15  C   UNL     1      -7.102  -1.326 -34.371  1.00  0.00     0.074 A 
HETATM   16  C   UNL     1      -6.883  -0.316 -35.309  1.00  0.00     0.037 A 
HETATM   17  C   UNL     1      -7.165   1.017 -34.989  1.00  0.00     0.012 A 
BRANCH  15  18
HETATM   18  O   UNL     1      -6.862  -2.658 -34.554  1.00  0.00    -0.290 OA
BRANCH  18  19
HETATM   19  C   UNL     1      -5.617  -2.996 -35.141  1.00  0.00     0.505 C 
HETATM   20  F   UNL     1      -4.620  -2.727 -34.262  1.00  0.00    -0.184 F 
HETATM   21  F   UNL     1      -5.613  -4.340 -35.332  1.00  0.00    -0.184 F 
ENDBRANCH  18  19
ENDBRANCH  15  18
ENDBRANCH   9  12
BRANCH  10  22
HETATM   22  C   UNL     1      -5.641   3.311 -32.411  1.00  0.00     0.256 C 
HETATM   23  N   UNL     1      -5.141   4.469 -32.966  1.00  0.00    -0.323 N 
HETATM   24  H   UNL     1      -5.791   5.211 -33.188  1.00  0.00     0.169 HD
HETATM   25  O   UNL     1      -5.015   2.314 -32.073  1.00  0.00    -0.267 OA
BRANCH  23  26
HETATM   26  C   UNL     1      -3.788   4.763 -33.248  1.00  0.00     0.035 A 
HETATM   27  C   UNL     1      -2.786   4.834 -32.280  1.00  0.00     0.029 A 
HETATM   28  C   UNL     1      -1.471   5.147 -32.643  1.00  0.00     0.002 A 
HETATM   29  C   UNL     1      -1.147   5.381 -33.977  1.00  0.00     0.000 A 
HETATM   30  C   UNL     1      -2.139   5.306 -34.951  1.00  0.00     0.002 A 
HETATM   31  C   UNL     1      -3.454   5.005 -34.588  1.00  0.00     0.029 A 
ENDBRANCH  23  26
ENDBRANCH  10  22
TORSDOF 5
ENDMDL
MODEL 6
REMARK VINA RESULT:      -8.0      2.134      5.751
REMARK  5 active torsions:
REMARK  status: ('A' for Active; 'I' for Inactive)
REMARK    1  A    between atoms: C_9  and  C_10 
REMARK    2  A    between atoms: C_13  and  O_14 
REMARK    3  A    between atoms: O_14  and  C_15 
REMARK    4  A    between atoms: C_20  and  C_21 
REMARK       I    between atoms: C_21  and  N_22 
REMARK    5  A    between atoms: N_22  and  C_23 
ROOT
HETATM    1  C   UNL     1      -3.245   0.636 -31.956  1.00  0.00     0.070 C 
HETATM    2  C   UNL     1      -4.421  -0.147 -32.488  1.00  0.00     0.037 A 
HETATM    3  N   UNL     1      -4.150  -0.992 -33.560  1.00  0.00    -0.192 N 
HETATM    4  C   UNL     1      -5.061  -1.831 -34.087  1.00  0.00     0.725 A 
HETATM    5  N   UNL     1      -6.351  -1.792 -33.631  1.00  0.00    -0.084 N 
HETATM    6  N   UNL     1      -7.087  -2.793 -34.157  1.00  0.00    -0.149 NA
HETATM    7  C   UNL     1      -6.200  -3.328 -35.005  1.00  0.00     0.275 A 
HETATM    8  N   UNL     1      -4.947  -2.773 -34.987  1.00  0.00    -0.054 NA
HETATM    9  C   UNL     1      -6.825  -0.882 -32.583  1.00  0.00     0.202 A 
HETATM   10  C   UNL     1      -5.676  -0.085 -31.980  1.00  0.00     0.062 A 
HETATM   11  H   UNL     1      -3.191  -1.045 -33.889  1.00  0.00     0.184 HD
ENDROOT
BRANCH   9  12
HETATM   12  C   UNL     1      -7.957  -0.012 -33.119  1.00  0.00    -0.028 A 
HETATM   13  C   UNL     1      -7.703   0.910 -34.146  1.00  0.00     0.012 A 
HETATM   14  C   UNL     1      -8.727   1.721 -34.639  1.00  0.00     0.037 A 
HETATM   15  C   UNL     1     -10.023   1.628 -34.127  1.00  0.00     0.074 A 
HETATM   16  C   UNL     1     -10.281   0.730 -33.092  1.00  0.00     0.037 A 
HETATM   17  C   UNL     1      -9.257  -0.082 -32.591  1.00  0.00     0.012 A 
BRANCH  15  18
HETATM   18  O   UNL     1     -10.927   2.478 -34.698  1.00  0.00    -0.290 OA
BRANCH  18  19
HETATM   19  C   UNL     1     -12.256   1.998 -34.807  1.00  0.00     0.505 C 
HETATM   20  F   UNL     1     -13.111   3.050 -34.820  1.00  0.00    -0.184 F 
HETATM   21  F   UNL     1     -12.368   1.393 -36.017  1.00  0.00    -0.184 F 
ENDBRANCH  18  19
ENDBRANCH  15  18
ENDBRANCH   9  12
BRANCH  10  22
HETATM   22  C   UNL     1      -5.998   0.844 -30.864  1.00  0.00     0.256 C 
HETATM   23  N   UNL     1      -6.229   2.135 -31.286  1.00  0.00    -0.323 N 
HETATM   24  H   UNL     1      -6.162   2.333 -32.275  1.00  0.00     0.169 HD
HETATM   25  O   UNL     1      -6.038   0.415 -29.718  1.00  0.00    -0.267 OA
BRANCH  23  26
HETATM   26  C   UNL     1      -6.581   3.243 -30.484  1.00  0.00     0.035 A 
HETATM   27  C   UNL     1      -5.675   3.964 -29.705  1.00  0.00     0.029 A 
HETATM   28  C   UNL     1      -6.111   5.041 -28.925  1.00  0.00     0.002 A 
HETATM   29  C   UNL     1      -7.453   5.411 -28.925  1.00  0.00     0.000 A 
HETATM   30  C   UNL     1      -8.364   4.702 -29.703  1.00  0.00     0.002 A 
HETATM   31  C   UNL     1      -7.932   3.620 -30.474  1.00  0.00     0.029 A 
ENDBRANCH  23  26
ENDBRANCH  10  22
TORSDOF 5
ENDMDL
MODEL 7
REMARK VINA RESULT:      -7.7      3.010      6.529
REMARK  5 active torsions:
REMARK  status: ('A' for Active; 'I' for Inactive)
REMARK    1  A    between atoms: C_9  and  C_10 
REMARK    2  A    between atoms: C_13  and  O_14 
REMARK    3  A    between atoms: O_14  and  C_15 
REMARK    4  A    between atoms: C_20  and  C_21 
REMARK       I    between atoms: C_21  and  N_22 
REMARK    5  A    between atoms: N_22  and  C_23 
ROOT
HETATM    1  C   UNL     1      -9.321   5.415 -34.280  1.00  0.00     0.070 C 
HETATM    2  C   UNL     1      -8.491   4.442 -33.479  1.00  0.00     0.037 A 
HETATM    3  N   UNL     1      -7.310   4.948 -32.946  1.00  0.00    -0.192 N 
HETATM    4  C   UNL     1      -6.506   4.244 -32.128  1.00  0.00     0.725 A 
HETATM    5  N   UNL     1      -6.792   2.929 -31.879  1.00  0.00    -0.084 N 
HETATM    6  N   UNL     1      -5.978   2.423 -30.928  1.00  0.00    -0.149 NA
HETATM    7  C   UNL     1      -5.157   3.462 -30.732  1.00  0.00     0.275 A 
HETATM    8  N   UNL     1      -5.451   4.598 -31.441  1.00  0.00    -0.054 NA
HETATM    9  C   UNL     1      -7.937   2.213 -32.450  1.00  0.00     0.202 A 
HETATM   10  C   UNL     1      -8.836   3.152 -33.245  1.00  0.00     0.062 A 
HETATM   11  H   UNL     1      -7.102   5.930 -33.107  1.00  0.00     0.184 HD
ENDROOT
BRANCH   9  12
HETATM   12  C   UNL     1      -7.454   1.007 -33.248  1.00  0.00    -0.028 A 
HETATM   13  C   UNL     1      -7.171  -0.198 -32.590  1.00  0.00     0.012 A 
HETATM   14  C   UNL     1      -6.717  -1.308 -33.306  1.00  0.00     0.037 A 
HETATM   15  C   UNL     1      -6.541  -1.242 -34.690  1.00  0.00     0.074 A 
HETATM   16  C   UNL     1      -6.798  -0.042 -35.351  1.00  0.00     0.037 A 
HETATM   17  C   UNL     1      -7.249   1.074 -34.637  1.00  0.00     0.012 A 
BRANCH  15  18
HETATM   18  O   UNL     1      -6.091  -2.397 -35.265  1.00  0.00    -0.290 OA
BRANCH  18  19
HETATM   19  C   UNL     1      -6.625  -3.604 -34.747  1.00  0.00     0.505 C 
HETATM   20  F   UNL     1      -7.161  -4.327 -35.761  1.00  0.00    -0.184 F 
HETATM   21  F   UNL     1      -5.584  -4.329 -34.264  1.00  0.00    -0.184 F 
ENDBRANCH  18  19
ENDBRANCH  15  18
ENDBRANCH   9  12
BRANCH  10  22
HETATM   22  C   UNL     1     -10.070   2.576 -33.841  1.00  0.00     0.256 C 
HETATM   23  N   UNL     1     -11.048   2.312 -32.906  1.00  0.00    -0.323 N 
HETATM   24  H   UNL     1     -10.851   2.522 -31.937  1.00  0.00     0.169 HD
HETATM   25  O   UNL     1     -10.127   2.396 -35.051  1.00  0.00    -0.267 OA
BRANCH  23  26
HETATM   26  C   UNL     1     -12.339   1.790 -33.148  1.00  0.00     0.035 A 
HETATM   27  C   UNL     1     -12.583   0.515 -33.658  1.00  0.00     0.029 A 
HETATM   28  C   UNL     1     -13.894   0.081 -33.884  1.00  0.00     0.002 A 
HETATM   29  C   UNL     1     -14.970   0.915 -33.591  1.00  0.00     0.000 A 
HETATM   30  C   UNL     1     -14.737   2.187 -33.075  1.00  0.00     0.002 A 
HETATM   31  C   UNL     1     -13.429   2.625 -32.860  1.00  0.00     0.029 A 
ENDBRANCH  23  26
ENDBRANCH  10  22
TORSDOF 5
ENDMDL
MODEL 8
REMARK VINA RESULT:      -7.7     14.954     16.638
REMARK  5 active torsions:
REMARK  status: ('A' for Active; 'I' for Inactive)
REMARK    1  A    between atoms: C_9  and  C_10 
REMARK    2  A    between atoms: C_13  and  O_14 
REMARK    3  A    between atoms: O_14  and  C_15 
REMARK    4  A    between atoms: C_20  and  C_21 
REMARK       I    between atoms: C_21  and  N_22 
REMARK    5  A    between atoms: N_22  and  C_23 
ROOT
HETATM    1  C   UNL     1      -4.832 -14.298 -42.874  1.00  0.00     0.070 C 
HETATM    2  C   UNL     1      -3.995 -14.033 -41.647  1.00  0.00     0.037 A 
HETATM    3  N   UNL     1      -2.725 -14.601 -41.645  1.00  0.00    -0.192 N 
HETATM    4  C   UNL     1      -1.818 -14.381 -40.676  1.00  0.00     0.725 A 
HETATM    5  N   UNL     1      -2.177 -13.650 -39.576  1.00  0.00    -0.084 N 
HETATM    6  N   UNL     1      -1.113 -13.402 -38.784  1.00  0.00    -0.149 NA
HETATM    7  C   UNL     1      -0.168 -14.109 -39.416  1.00  0.00     0.275 A 
HETATM    8  N   UNL     1      -0.557 -14.716 -40.582  1.00  0.00    -0.054 NA
HETATM    9  C   UNL     1      -3.510 -13.073 -39.372  1.00  0.00     0.202 A 
HETATM   10  C   UNL     1      -4.396 -13.279 -40.594  1.00  0.00     0.062 A 
HETATM   11  H   UNL     1      -2.442 -15.126 -42.468  1.00  0.00     0.184 HD
ENDROOT
BRANCH   9  12
HETATM   12  C   UNL     1      -4.117 -13.607 -38.079  1.00  0.00    -0.028 A 
HETATM   13  C   UNL     1      -4.153 -12.795 -36.936  1.00  0.00     0.012 A 
HETATM   14  C   UNL     1      -4.696 -13.275 -35.742  1.00  0.00     0.037 A 
HETATM   15  C   UNL     1      -5.218 -14.567 -35.663  1.00  0.00     0.074 A 
HETATM   16  C   UNL     1      -5.168 -15.391 -36.787  1.00  0.00     0.037 A 
HETATM   17  C   UNL     1      -4.620 -14.916 -37.985  1.00  0.00     0.012 A 
BRANCH  15  18
HETATM   18  O   UNL     1      -5.717 -14.909 -34.438  1.00  0.00    -0.290 OA
BRANCH  18  19
HETATM   19  C   UNL     1      -6.231 -13.848 -33.652  1.00  0.00     0.505 C 
HETATM   20  F   UNL     1      -7.489 -13.555 -34.064  1.00  0.00    -0.184 F 
HETATM   21  F   UNL     1      -6.338 -14.305 -32.378  1.00  0.00    -0.184 F 
ENDBRANCH  18  19
ENDBRANCH  15  18
ENDBRANCH   9  12
BRANCH  10  22
HETATM   22  C   UNL     1      -5.764 -12.698 -40.553  1.00  0.00     0.256 C 
HETATM   23  N   UNL     1      -6.754 -13.654 -40.472  1.00  0.00    -0.323 N 
HETATM   24  H   UNL     1      -6.477 -14.626 -40.447  1.00  0.00     0.169 HD
HETATM   25  O   UNL     1      -5.902 -11.481 -40.587  1.00  0.00    -0.267 OA
BRANCH  23  26
HETATM   26  C   UNL     1      -8.146 -13.432 -40.390  1.00  0.00     0.035 A 
HETATM   27  C   UNL     1      -8.730 -12.174 -40.230  1.00  0.00     0.029 A 
HETATM   28  C   UNL     1     -10.119 -12.043 -40.142  1.00  0.00     0.002 A 
HETATM   29  C   UNL     1     -10.938 -13.167 -40.225  1.00  0.00     0.000 A 
HETATM   30  C   UNL     1     -10.366 -14.425 -40.391  1.00  0.00     0.002 A 
HETATM   31  C   UNL     1      -8.978 -14.558 -40.468  1.00  0.00     0.029 A 
ENDBRANCH  23  26
ENDBRANCH  10  22
TORSDOF 5
ENDMDL
MODEL 9
REMARK VINA RESULT:      -7.7      1.921      2.141
REMARK  5 active torsions:
REMARK  status: ('A' for Active; 'I' for Inactive)
REMARK    1  A    between atoms: C_9  and  C_10 
REMARK    2  A    between atoms: C_13  and  O_14 
REMARK    3  A    between atoms: O_14  and  C_15 
REMARK    4  A    between atoms: C_20  and  C_21 
REMARK       I    between atoms: C_21  and  N_22 
REMARK    5  A    between atoms: N_22  and  C_23 
ROOT
HETATM    1  C   UNL     1      -4.663   0.076 -30.962  1.00  0.00     0.070 C 
HETATM    2  C   UNL     1      -5.676   1.140 -31.308  1.00  0.00     0.037 A 
HETATM    3  N   UNL     1      -5.918   2.090 -30.320  1.00  0.00    -0.192 N 
HETATM    4  C   UNL     1      -6.715   3.159 -30.502  1.00  0.00     0.725 A 
HETATM    5  N   UNL     1      -7.413   3.282 -31.673  1.00  0.00    -0.084 N 
HETATM    6  N   UNL     1      -8.037   4.476 -31.747  1.00  0.00    -0.149 NA
HETATM    7  C   UNL     1      -7.757   4.973 -30.536  1.00  0.00     0.275 A 
HETATM    8  N   UNL     1      -6.944   4.202 -29.747  1.00  0.00    -0.054 NA
HETATM    9  C   UNL     1      -7.355   2.311 -32.771  1.00  0.00     0.202 A 
HETATM   10  C   UNL     1      -6.323   1.226 -32.496  1.00  0.00     0.062 A 
HETATM   11  H   UNL     1      -5.386   2.019 -29.457  1.00  0.00     0.184 HD
ENDROOT
BRANCH   9  12
HETATM   12  C   UNL     1      -8.750   1.769 -33.062  1.00  0.00    -0.028 A 
HETATM   13  C   UNL     1      -9.184   0.588 -32.442  1.00  0.00     0.012 A 
HETATM   14  C   UNL     1     -10.454   0.072 -32.708  1.00  0.00     0.037 A 
HETATM   15  C   UNL     1     -11.319   0.723 -33.589  1.00  0.00     0.074 A 
HETATM   16  C   UNL     1     -10.890   1.886 -34.228  1.00  0.00     0.037 A 
HETATM   17  C   UNL     1      -9.616   2.404 -33.968  1.00  0.00     0.012 A 
BRANCH  15  18
HETATM   18  O   UNL     1     -12.530   0.112 -33.760  1.00  0.00    -0.290 OA
BRANCH  18  19
HETATM   19  C   UNL     1     -13.646   0.969 -33.925  1.00  0.00     0.505 C 
HETATM   20  F   UNL     1     -14.642   0.292 -34.547  1.00  0.00    -0.184 F 
HETATM   21  F   UNL     1     -14.104   1.279 -32.685  1.00  0.00    -0.184 F 
ENDBRANCH  18  19
ENDBRANCH  15  18
ENDBRANCH   9  12
BRANCH  10  22
HETATM   22  C   UNL     1      -6.113   0.198 -33.550  1.00  0.00     0.256 C 
HETATM   23  N   UNL     1      -6.067  -1.086 -33.050  1.00  0.00    -0.323 N 
HETATM   24  H   UNL     1      -6.173  -1.214 -32.053  1.00  0.00     0.169 HD
HETATM   25  O   UNL     1      -6.011   0.547 -34.719  1.00  0.00    -0.267 OA
BRANCH  23  26
HETATM   26  C   UNL     1      -5.907  -2.281 -33.786  1.00  0.00     0.035 A 
HETATM   27  C   UNL     1      -6.948  -2.938 -34.445  1.00  0.00     0.029 A 
HETATM   28  C   UNL     1      -6.707  -4.128 -35.140  1.00  0.00     0.002 A 
HETATM   29  C   UNL     1      -5.423  -4.665 -35.190  1.00  0.00     0.000 A 
HETATM   30  C   UNL     1      -4.378  -4.015 -34.541  1.00  0.00     0.002 A 
HETATM   31  C   UNL     1      -4.619  -2.833 -33.837  1.00  0.00     0.029 A 
ENDBRANCH  23  26
ENDBRANCH  10  22
TORSDOF 5
ENDMDL
MODEL 10
REMARK VINA RESULT:      -7.7     15.748     17.439
REMARK  5 active torsions:
REMARK  status: ('A' for Active; 'I' for Inactive)
REMARK    1  A    between atoms: C_9  and  C_10 
REMARK    2  A    between atoms: C_13  and  O_14 
REMARK    3  A    between atoms: O_14  and  C_15 
REMARK    4  A    between atoms: C_20  and  C_21 
REMARK       I    between atoms: C_21  and  N_22 
REMARK    5  A    between atoms: N_22  and  C_23 
ROOT
HETATM    1  C   UNL     1      -5.732 -13.620 -35.970  1.00  0.00     0.070 C 
HETATM    2  C   UNL     1      -6.394 -13.414 -37.311  1.00  0.00     0.037 A 
HETATM    3  N   UNL     1      -7.772 -13.600 -37.341  1.00  0.00    -0.192 N 
HETATM    4  C   UNL     1      -8.527 -13.361 -38.430  1.00  0.00     0.725 A 
HETATM    5  N   UNL     1      -7.916 -13.018 -39.605  1.00  0.00    -0.084 N 
HETATM    6  N   UNL     1      -8.821 -12.671 -40.544  1.00  0.00    -0.149 NA
HETATM    7  C   UNL     1      -9.961 -12.934 -39.893  1.00  0.00     0.275 A 
HETATM    8  N   UNL     1      -9.824 -13.351 -38.595  1.00  0.00    -0.054 NA
HETATM    9  C   UNL     1      -6.464 -12.887 -39.770  1.00  0.00     0.202 A 
HETATM   10  C   UNL     1      -5.739 -13.051 -38.441  1.00  0.00     0.062 A 
HETATM   11  H   UNL     1      -8.236 -13.831 -36.467  1.00  0.00     0.184 HD
ENDROOT
BRANCH   9  12
HETATM   12  C   UNL     1      -5.975 -13.840 -40.856  1.00  0.00    -0.028 A 
HETATM   13  C   UNL     1      -5.166 -13.358 -41.896  1.00  0.00     0.012 A 
HETATM   14  C   UNL     1      -4.720 -14.216 -42.903  1.00  0.00     0.037 A 
HETATM   15  C   UNL     1      -5.062 -15.569 -42.893  1.00  0.00     0.074 A 
HETATM   16  C   UNL     1      -5.884 -16.054 -41.876  1.00  0.00     0.037 A 
HETATM   17  C   UNL     1      -6.337 -15.197 -40.867  1.00  0.00     0.012 A 
BRANCH  15  18
HETATM   18  O   UNL     1      -4.560 -16.294 -43.936  1.00  0.00    -0.290 OA
BRANCH  18  19
HETATM   19  C   UNL     1      -3.882 -15.560 -44.941  1.00  0.00     0.505 C 
HETATM   20  F   UNL     1      -2.666 -16.118 -45.158  1.00  0.00    -0.184 F 
HETATM   21  F   UNL     1      -4.586 -15.708 -46.092  1.00  0.00    -0.184 F 
ENDBRANCH  18  19
ENDBRANCH  15  18
ENDBRANCH   9  12
BRANCH  10  22
HETATM   22  C   UNL     1      -4.261 -12.890 -38.444  1.00  0.00     0.256 C 
HETATM   23  N   UNL     1      -3.592 -14.047 -38.783  1.00  0.00    -0.323 N 
HETATM   24  H   UNL     1      -4.140 -14.870 -38.993  1.00  0.00     0.169 HD
HETATM   25  O   UNL     1      -3.774 -11.801 -38.165  1.00  0.00    -0.267 OA
BRANCH  23  26
HETATM   26  C   UNL     1      -2.195 -14.219 -38.902  1.00  0.00     0.035 A 
HETATM   27  C   UNL     1      -1.344 -14.471 -37.824  1.00  0.00     0.029 A 
HETATM   28  C   UNL     1       0.032 -14.613 -38.027  1.00  0.00     0.002 A 
HETATM   29  C   UNL     1       0.568 -14.515 -39.309  1.00  0.00     0.000 A 
HETATM   30  C   UNL     1      -0.273 -14.270 -40.391  1.00  0.00     0.002 A 
HETATM   31  C   UNL     1      -1.646 -14.117 -40.188  1.00  0.00     0.029 A 
ENDBRANCH  23  26
ENDBRANCH  10  22
TORSDOF 5
ENDMDL
