MODEL 1
REMARK VINA RESULT:      -9.2      0.000      0.000
REMARK  6 active torsions:
REMARK  status: ('A' for Active; 'I' for Inactive)
REMARK    1  A    between atoms: C_5  and  C_6 
REMARK    2  A    between atoms: C_11  and  C_12 
REMARK       I    between atoms: C_12  and  N_13 
REMARK    3  A    between atoms: N_13  and  C_14 
REMARK    4  A    between atoms: C_17  and  C_18 
REMARK    5  A    between atoms: C_18  and  O_19 
REMARK    6  A    between atoms: C_25  and  C_26 
ROOT
HETATM    1  C   UNL     1      -6.182   0.974 -34.270  1.00  0.00     0.118 C 
HETATM    2  N   UNL     1      -7.564   1.358 -34.529  1.00  0.00    -0.366 N 
HETATM    3  C   UNL     1      -8.377   1.843 -33.570  1.00  0.00     0.123 A 
HETATM    4  N   UNL     1      -7.939   2.077 -32.298  1.00  0.00    -0.240 N 
HETATM    5  N   UNL     1      -8.861   2.648 -31.496  1.00  0.00    -0.165 NA
HETATM    6  C   UNL     1      -9.966   2.696 -32.277  1.00  0.00     0.148 A 
HETATM    7  C   UNL     1      -9.698   2.201 -33.583  1.00  0.00     0.089 A 
HETATM    8  C   UNL     1      -6.591   1.799 -31.841  1.00  0.00     0.221 C 
HETATM    9  C   UNL     1      -5.623   1.703 -33.035  1.00  0.00     0.066 C 
HETATM   10  H   UNL     1      -7.931   1.076 -35.437  1.00  0.00     0.161 HD
ENDROOT
BRANCH   6  11
HETATM   11  C   UNL     1     -11.257   3.222 -31.797  1.00  0.00     0.276 C 
HETATM   12  N   UNL     1     -12.317   2.783 -32.567  1.00  0.00    -0.322 N 
HETATM   13  H   UNL     1     -12.039   2.170 -33.329  1.00  0.00     0.169 HD
HETATM   14  O   UNL     1     -11.316   3.952 -30.814  1.00  0.00    -0.266 OA
BRANCH  12  15
HETATM   15  C   UNL     1     -13.685   3.061 -32.401  1.00  0.00     0.035 A 
HETATM   16  C   UNL     1     -14.189   4.327 -32.105  1.00  0.00     0.030 A 
HETATM   17  C   UNL     1     -15.566   4.523 -31.939  1.00  0.00     0.012 A 
HETATM   18  C   UNL     1     -16.467   3.459 -32.068  1.00  0.00    -0.030 A 
HETATM   19  C   UNL     1     -15.956   2.190 -32.369  1.00  0.00     0.012 A 
HETATM   20  C   UNL     1     -14.580   1.995 -32.538  1.00  0.00     0.030 A 
BRANCH  18  21
HETATM   21  C   UNL     1     -17.949   3.656 -31.845  1.00  0.00     0.147 C 
HETATM   22  C   UNL     1     -18.433   4.971 -32.446  1.00  0.00     0.044 C 
BRANCH  21  23
HETATM   23  O   UNL     1     -18.675   2.577 -32.433  1.00  0.00    -0.391 OA
HETATM   24  H   UNL     1     -18.697   2.734 -33.390  1.00  0.00     0.210 HD
ENDBRANCH  21  23
ENDBRANCH  18  21
ENDBRANCH  12  15
ENDBRANCH   6  11
BRANCH   8  25
HETATM   25  C   UNL     1      -6.584   0.580 -30.946  1.00  0.00     0.409 C 
HETATM   26  F   UNL     1      -7.529  -0.327 -31.246  1.00  0.00    -0.169 F 
HETATM   27  F   UNL     1      -5.382  -0.048 -31.024  1.00  0.00    -0.169 F 
HETATM   28  F   UNL     1      -6.747   0.917 -29.643  1.00  0.00    -0.169 F 
ENDBRANCH   8  25
BRANCH   1  29
HETATM   29  C   UNL     1      -5.981  -0.532 -34.280  1.00  0.00    -0.035 A 
HETATM   30  C   UNL     1      -4.730  -1.057 -33.915  1.00  0.00     0.010 A 
HETATM   31  C   UNL     1      -4.485  -2.433 -33.952  1.00  0.00     0.007 A 
HETATM   32  C   UNL     1      -5.485  -3.320 -34.359  1.00  0.00    -0.062 A 
HETATM   33  C   UNL     1      -5.242  -4.799 -34.385  1.00  0.00     0.048 C 
HETATM   34  C   UNL     1      -6.738  -2.810 -34.708  1.00  0.00     0.007 A 
HETATM   35  C   UNL     1      -6.980  -1.433 -34.677  1.00  0.00     0.010 A 
ENDBRANCH   1  29
TORSDOF 6
ENDMDL
MODEL 2
REMARK VINA RESULT:      -8.6      2.419      3.857
REMARK  6 active torsions:
REMARK  status: ('A' for Active; 'I' for Inactive)
REMARK    1  A    between atoms: C_5  and  C_6 
REMARK    2  A    between atoms: C_11  and  C_12 
REMARK       I    between atoms: C_12  and  N_13 
REMARK    3  A    between atoms: N_13  and  C_14 
REMARK    4  A    between atoms: C_17  and  C_18 
REMARK    5  A    between atoms: C_18  and  O_19 
REMARK    6  A    between atoms: C_25  and  C_26 
ROOT
HETATM    1  C   UNL     1      -6.541   1.273 -30.970  1.00  0.00     0.118 C 
HETATM    2  N   UNL     1      -7.737   2.073 -30.744  1.00  0.00    -0.366 N 
HETATM    3  C   UNL     1      -8.784   2.075 -31.593  1.00  0.00     0.123 A 
HETATM    4  N   UNL     1      -8.826   1.267 -32.694  1.00  0.00    -0.240 N 
HETATM    5  N   UNL     1      -9.986   1.332 -33.378  1.00  0.00    -0.165 NA
HETATM    6  C   UNL     1     -10.678   2.297 -32.727  1.00  0.00     0.148 A 
HETATM    7  C   UNL     1      -9.955   2.783 -31.603  1.00  0.00     0.089 A 
HETATM    8  C   UNL     1      -7.756   0.368 -33.080  1.00  0.00     0.221 C 
HETATM    9  C   UNL     1      -6.841   0.067 -31.878  1.00  0.00     0.066 C 
HETATM   10  H   UNL     1      -7.665   2.763 -29.998  1.00  0.00     0.161 HD
ENDROOT
BRANCH   6  11
HETATM   11  C   UNL     1     -12.018   2.741 -33.155  1.00  0.00     0.276 C 
HETATM   12  N   UNL     1     -12.935   2.696 -32.123  1.00  0.00    -0.322 N 
HETATM   13  H   UNL     1     -12.541   2.373 -31.243  1.00  0.00     0.169 HD
HETATM   14  O   UNL     1     -12.225   3.105 -34.307  1.00  0.00    -0.266 OA
BRANCH  12  15
HETATM   15  C   UNL     1     -14.292   3.059 -32.152  1.00  0.00     0.035 A 
HETATM   16  C   UNL     1     -14.754   4.357 -31.934  1.00  0.00     0.030 A 
HETATM   17  C   UNL     1     -16.125   4.639 -31.965  1.00  0.00     0.012 A 
HETATM   18  C   UNL     1     -17.064   3.630 -32.217  1.00  0.00    -0.030 A 
HETATM   19  C   UNL     1     -16.596   2.329 -32.437  1.00  0.00     0.012 A 
HETATM   20  C   UNL     1     -15.224   2.048 -32.410  1.00  0.00     0.030 A 
BRANCH  18  21
HETATM   21  C   UNL     1     -18.547   3.920 -32.205  1.00  0.00     0.147 C 
HETATM   22  C   UNL     1     -18.878   5.164 -33.023  1.00  0.00     0.044 C 
BRANCH  21  23
HETATM   23  O   UNL     1     -19.262   2.805 -32.737  1.00  0.00    -0.391 OA
HETATM   24  H   UNL     1     -19.773   3.128 -33.496  1.00  0.00     0.210 HD
ENDBRANCH  21  23
ENDBRANCH  18  21
ENDBRANCH  12  15
ENDBRANCH   6  11
BRANCH   8  25
HETATM   25  C   UNL     1      -7.026   0.912 -34.286  1.00  0.00     0.409 C 
HETATM   26  F   UNL     1      -6.807   2.238 -34.244  1.00  0.00    -0.169 F 
HETATM   27  F   UNL     1      -5.816   0.307 -34.412  1.00  0.00    -0.169 F 
HETATM   28  F   UNL     1      -7.696   0.651 -35.435  1.00  0.00    -0.169 F 
ENDBRANCH   8  25
BRANCH   1  29
HETATM   29  C   UNL     1      -5.344   2.112 -31.380  1.00  0.00    -0.035 A 
HETATM   30  C   UNL     1      -5.374   3.500 -31.160  1.00  0.00     0.010 A 
HETATM   31  C   UNL     1      -4.313   4.319 -31.562  1.00  0.00     0.007 A 
HETATM   32  C   UNL     1      -3.197   3.770 -32.197  1.00  0.00    -0.062 A 
HETATM   33  C   UNL     1      -2.045   4.633 -32.616  1.00  0.00     0.048 C 
HETATM   34  C   UNL     1      -3.149   2.389 -32.405  1.00  0.00     0.007 A 
HETATM   35  C   UNL     1      -4.212   1.573 -32.009  1.00  0.00     0.010 A 
ENDBRANCH   1  29
TORSDOF 6
ENDMDL
MODEL 3
REMARK VINA RESULT:      -8.5      2.470      4.231
REMARK  6 active torsions:
REMARK  status: ('A' for Active; 'I' for Inactive)
REMARK    1  A    between atoms: C_5  and  C_6 
REMARK    2  A    between atoms: C_11  and  C_12 
REMARK       I    between atoms: C_12  and  N_13 
REMARK    3  A    between atoms: N_13  and  C_14 
REMARK    4  A    between atoms: C_17  and  C_18 
REMARK    5  A    between atoms: C_18  and  O_19 
REMARK    6  A    between atoms: C_25  and  C_26 
ROOT
HETATM    1  C   UNL     1      -5.683   3.895 -31.226  1.00  0.00     0.118 C 
HETATM    2  N   UNL     1      -6.952   4.549 -31.515  1.00  0.00    -0.366 N 
HETATM    3  C   UNL     1      -8.023   3.886 -31.992  1.00  0.00     0.123 A 
HETATM    4  N   UNL     1      -8.015   2.532 -32.173  1.00  0.00    -0.240 N 
HETATM    5  N   UNL     1      -9.200   2.025 -32.571  1.00  0.00    -0.165 NA
HETATM    6  C   UNL     1      -9.971   3.126 -32.736  1.00  0.00     0.148 A 
HETATM    7  C   UNL     1      -9.265   4.309 -32.381  1.00  0.00     0.089 A 
HETATM    8  C   UNL     1      -6.867   1.686 -31.912  1.00  0.00     0.221 C 
HETATM    9  C   UNL     1      -5.880   2.391 -30.962  1.00  0.00     0.066 C 
HETATM   10  H   UNL     1      -6.929   5.568 -31.498  1.00  0.00     0.161 HD
ENDROOT
BRANCH   6  11
HETATM   11  C   UNL     1     -11.366   3.056 -33.206  1.00  0.00     0.276 C 
HETATM   12  N   UNL     1     -12.267   3.011 -32.159  1.00  0.00    -0.322 N 
HETATM   13  H   UNL     1     -11.827   3.039 -31.244  1.00  0.00     0.169 HD
HETATM   14  O   UNL     1     -11.630   3.053 -34.403  1.00  0.00    -0.266 OA
BRANCH  12  15
HETATM   15  C   UNL     1     -13.670   2.960 -32.223  1.00  0.00     0.035 A 
HETATM   16  C   UNL     1     -14.386   1.860 -32.697  1.00  0.00     0.030 A 
HETATM   17  C   UNL     1     -15.785   1.889 -32.743  1.00  0.00     0.012 A 
HETATM   18  C   UNL     1     -16.498   3.016 -32.315  1.00  0.00    -0.030 A 
HETATM   19  C   UNL     1     -15.776   4.117 -31.837  1.00  0.00     0.012 A 
HETATM   20  C   UNL     1     -14.376   4.085 -31.787  1.00  0.00     0.030 A 
BRANCH  18  21
HETATM   21  C   UNL     1     -18.006   3.070 -32.406  1.00  0.00     0.147 C 
HETATM   22  C   UNL     1     -18.534   4.463 -32.083  1.00  0.00     0.044 C 
BRANCH  21  23
HETATM   23  O   UNL     1     -18.425   2.703 -33.720  1.00  0.00    -0.391 OA
HETATM   24  H   UNL     1     -19.327   2.351 -33.645  1.00  0.00     0.210 HD
ENDBRANCH  21  23
ENDBRANCH  18  21
ENDBRANCH  12  15
ENDBRANCH   6  11
BRANCH   8  25
HETATM   25  C   UNL     1      -6.247   1.230 -33.213  1.00  0.00     0.409 C 
HETATM   26  F   UNL     1      -4.916   1.050 -33.154  1.00  0.00    -0.169 F 
HETATM   27  F   UNL     1      -6.797   0.051 -33.604  1.00  0.00    -0.169 F 
HETATM   28  F   UNL     1      -6.490   2.108 -34.216  1.00  0.00    -0.169 F 
ENDBRANCH   8  25
BRANCH   1  29
HETATM   29  C   UNL     1      -4.603   4.240 -32.236  1.00  0.00    -0.035 A 
HETATM   30  C   UNL     1      -3.273   3.875 -31.966  1.00  0.00     0.010 A 
HETATM   31  C   UNL     1      -2.238   4.210 -32.846  1.00  0.00     0.007 A 
HETATM   32  C   UNL     1      -2.507   4.923 -34.017  1.00  0.00    -0.062 A 
HETATM   33  C   UNL     1      -1.411   5.273 -34.978  1.00  0.00     0.048 C 
HETATM   34  C   UNL     1      -3.829   5.276 -34.303  1.00  0.00     0.007 A 
HETATM   35  C   UNL     1      -4.861   4.945 -33.420  1.00  0.00     0.010 A 
ENDBRANCH   1  29
TORSDOF 6
ENDMDL
MODEL 4
REMARK VINA RESULT:      -8.5      3.682      9.954
REMARK  6 active torsions:
REMARK  status: ('A' for Active; 'I' for Inactive)
REMARK    1  A    between atoms: C_5  and  C_6 
REMARK    2  A    between atoms: C_11  and  C_12 
REMARK       I    between atoms: C_12  and  N_13 
REMARK    3  A    between atoms: N_13  and  C_14 
REMARK    4  A    between atoms: C_17  and  C_18 
REMARK    5  A    between atoms: C_18  and  O_19 
REMARK    6  A    between atoms: C_25  and  C_26 
ROOT
HETATM    1  C   UNL     1     -11.117   5.778 -33.218  1.00  0.00     0.118 C 
HETATM    2  N   UNL     1     -10.227   5.003 -32.363  1.00  0.00    -0.366 N 
HETATM    3  C   UNL     1      -9.742   3.798 -32.719  1.00  0.00     0.123 A 
HETATM    4  N   UNL     1      -9.994   3.247 -33.943  1.00  0.00    -0.240 N 
HETATM    5  N   UNL     1      -9.354   2.081 -34.162  1.00  0.00    -0.165 NA
HETATM    6  C   UNL     1      -8.737   1.837 -32.982  1.00  0.00     0.148 A 
HETATM    7  C   UNL     1      -8.957   2.894 -32.056  1.00  0.00     0.089 A 
HETATM    8  C   UNL     1     -10.825   3.869 -34.956  1.00  0.00     0.221 C 
HETATM    9  C   UNL     1     -10.953   5.382 -34.697  1.00  0.00     0.066 C 
HETATM   10  H   UNL     1     -10.133   5.348 -31.409  1.00  0.00     0.161 HD
ENDROOT
BRANCH   6  11
HETATM   11  C   UNL     1      -7.931   0.626 -32.741  1.00  0.00     0.276 C 
HETATM   12  N   UNL     1      -7.504   0.042 -33.918  1.00  0.00    -0.322 N 
HETATM   13  H   UNL     1      -7.807   0.540 -34.751  1.00  0.00     0.169 HD
HETATM   14  O   UNL     1      -7.694   0.241 -31.601  1.00  0.00    -0.266 OA
BRANCH  12  15
HETATM   15  C   UNL     1      -6.708  -1.105 -34.079  1.00  0.00     0.035 A 
HETATM   16  C   UNL     1      -7.201  -2.340 -34.500  1.00  0.00     0.030 A 
HETATM   17  C   UNL     1      -6.346  -3.442 -34.623  1.00  0.00     0.012 A 
HETATM   18  C   UNL     1      -4.981  -3.333 -34.331  1.00  0.00    -0.030 A 
HETATM   19  C   UNL     1      -4.489  -2.090 -33.912  1.00  0.00     0.012 A 
HETATM   20  C   UNL     1      -5.344  -0.987 -33.793  1.00  0.00     0.030 A 
BRANCH  18  21
HETATM   21  C   UNL     1      -4.063  -4.530 -34.418  1.00  0.00     0.147 C 
HETATM   22  C   UNL     1      -3.268  -4.718 -33.130  1.00  0.00     0.044 C 
BRANCH  21  23
HETATM   23  O   UNL     1      -4.827  -5.708 -34.674  1.00  0.00    -0.391 OA
HETATM   24  H   UNL     1      -5.751  -5.433 -34.782  1.00  0.00     0.210 HD
ENDBRANCH  21  23
ENDBRANCH  18  21
ENDBRANCH  12  15
ENDBRANCH   6  11
BRANCH   8  25
HETATM   25  C   UNL     1     -12.150   3.149 -35.059  1.00  0.00     0.409 C 
HETATM   26  F   UNL     1     -12.140   2.098 -35.897  1.00  0.00    -0.169 F 
HETATM   27  F   UNL     1     -12.527   2.689 -33.838  1.00  0.00    -0.169 F 
HETATM   28  F   UNL     1     -13.139   3.981 -35.467  1.00  0.00    -0.169 F 
ENDBRANCH   8  25
BRANCH   1  29
HETATM   29  C   UNL     1     -12.547   5.801 -32.707  1.00  0.00    -0.035 A 
HETATM   30  C   UNL     1     -12.860   5.118 -31.519  1.00  0.00     0.010 A 
HETATM   31  C   UNL     1     -14.171   5.074 -31.034  1.00  0.00     0.007 A 
HETATM   32  C   UNL     1     -15.204   5.708 -31.727  1.00  0.00    -0.062 A 
HETATM   33  C   UNL     1     -16.611   5.685 -31.209  1.00  0.00     0.048 C 
HETATM   34  C   UNL     1     -14.902   6.404 -32.901  1.00  0.00     0.007 A 
HETATM   35  C   UNL     1     -13.592   6.442 -33.388  1.00  0.00     0.010 A 
ENDBRANCH   1  29
TORSDOF 6
ENDMDL
MODEL 5
REMARK VINA RESULT:      -8.4      6.059     10.426
REMARK  6 active torsions:
REMARK  status: ('A' for Active; 'I' for Inactive)
REMARK    1  A    between atoms: C_5  and  C_6 
REMARK    2  A    between atoms: C_11  and  C_12 
REMARK       I    between atoms: C_12  and  N_13 
REMARK    3  A    between atoms: N_13  and  C_14 
REMARK    4  A    between atoms: C_17  and  C_18 
REMARK    5  A    between atoms: C_18  and  O_19 
REMARK    6  A    between atoms: C_25  and  C_26 
ROOT
HETATM    1  C   UNL     1      -6.521   1.783 -34.121  1.00  0.00     0.118 C 
HETATM    2  N   UNL     1      -6.035   3.155 -34.185  1.00  0.00    -0.366 N 
HETATM    3  C   UNL     1      -5.333   3.726 -33.187  1.00  0.00     0.123 A 
HETATM    4  N   UNL     1      -4.964   3.032 -32.069  1.00  0.00    -0.240 N 
HETATM    5  N   UNL     1      -4.189   3.735 -31.219  1.00  0.00    -0.165 NA
HETATM    6  C   UNL     1      -4.138   4.964 -31.785  1.00  0.00     0.148 A 
HETATM    7  C   UNL     1      -4.843   4.994 -33.020  1.00  0.00     0.089 A 
HETATM    8  C   UNL     1      -5.314   1.647 -31.824  1.00  0.00     0.221 C 
HETATM    9  C   UNL     1      -5.683   0.940 -33.142  1.00  0.00     0.066 C 
HETATM   10  H   UNL     1      -6.405   3.712 -34.953  1.00  0.00     0.161 HD
ENDROOT
BRANCH   6  11
HETATM   11  C   UNL     1      -3.415   6.093 -31.171  1.00  0.00     0.276 C 
HETATM   12  N   UNL     1      -2.404   5.668 -30.330  1.00  0.00    -0.322 N 
HETATM   13  H   UNL     1      -2.320   4.656 -30.276  1.00  0.00     0.169 HD
HETATM   14  O   UNL     1      -3.719   7.252 -31.428  1.00  0.00    -0.266 OA
BRANCH  12  15
HETATM   15  C   UNL     1      -1.501   6.453 -29.593  1.00  0.00     0.035 A 
HETATM   16  C   UNL     1      -0.162   6.632 -29.944  1.00  0.00     0.030 A 
HETATM   17  C   UNL     1       0.681   7.419 -29.151  1.00  0.00     0.012 A 
HETATM   18  C   UNL     1       0.205   8.045 -27.992  1.00  0.00    -0.030 A 
HETATM   19  C   UNL     1      -1.140   7.865 -27.645  1.00  0.00     0.012 A 
HETATM   20  C   UNL     1      -1.984   7.081 -28.442  1.00  0.00     0.030 A 
BRANCH  18  21
HETATM   21  C   UNL     1       1.123   8.858 -27.108  1.00  0.00     0.147 C 
HETATM   22  C   UNL     1       1.749   7.998 -26.015  1.00  0.00     0.044 C 
BRANCH  21  23
HETATM   23  O   UNL     1       2.159   9.445 -27.894  1.00  0.00    -0.391 OA
HETATM   24  H   UNL     1       2.222   8.930 -28.715  1.00  0.00     0.210 HD
ENDBRANCH  21  23
ENDBRANCH  18  21
ENDBRANCH  12  15
ENDBRANCH   6  11
BRANCH   8  25
HETATM   25  C   UNL     1      -6.383   1.558 -30.760  1.00  0.00     0.409 C 
HETATM   26  F   UNL     1      -7.320   2.519 -30.841  1.00  0.00    -0.169 F 
HETATM   27  F   UNL     1      -7.023   0.363 -30.840  1.00  0.00    -0.169 F 
HETATM   28  F   UNL     1      -5.853   1.617 -29.514  1.00  0.00    -0.169 F 
ENDBRANCH   8  25
BRANCH   1  29
HETATM   29  C   UNL     1      -8.024   1.703 -33.922  1.00  0.00    -0.035 A 
HETATM   30  C   UNL     1      -8.604   0.469 -33.580  1.00  0.00     0.010 A 
HETATM   31  C   UNL     1      -9.989   0.338 -33.430  1.00  0.00     0.007 A 
HETATM   32  C   UNL     1     -10.829   1.437 -33.623  1.00  0.00    -0.062 A 
HETATM   33  C   UNL     1     -12.313   1.315 -33.447  1.00  0.00     0.048 C 
HETATM   34  C   UNL     1     -10.262   2.672 -33.947  1.00  0.00     0.007 A 
HETATM   35  C   UNL     1      -8.878   2.800 -34.103  1.00  0.00     0.010 A 
ENDBRANCH   1  29
TORSDOF 6
ENDMDL
MODEL 6
REMARK VINA RESULT:      -8.4      4.221      9.780
REMARK  6 active torsions:
REMARK  status: ('A' for Active; 'I' for Inactive)
REMARK    1  A    between atoms: C_5  and  C_6 
REMARK    2  A    between atoms: C_11  and  C_12 
REMARK       I    between atoms: C_12  and  N_13 
REMARK    3  A    between atoms: N_13  and  C_14 
REMARK    4  A    between atoms: C_17  and  C_18 
REMARK    5  A    between atoms: C_18  and  O_19 
REMARK    6  A    between atoms: C_25  and  C_26 
ROOT
HETATM    1  C   UNL     1     -12.616   4.167 -34.943  1.00  0.00     0.118 C 
HETATM    2  N   UNL     1     -11.634   3.161 -35.326  1.00  0.00    -0.366 N 
HETATM    3  C   UNL     1     -10.842   2.537 -34.431  1.00  0.00     0.123 A 
HETATM    4  N   UNL     1     -10.955   2.755 -33.087  1.00  0.00    -0.240 N 
HETATM    5  N   UNL     1     -10.147   1.979 -32.337  1.00  0.00    -0.165 NA
HETATM    6  C   UNL     1      -9.422   1.301 -33.257  1.00  0.00     0.148 A 
HETATM    7  C   UNL     1      -9.833   1.625 -34.580  1.00  0.00     0.089 A 
HETATM    8  C   UNL     1     -11.893   3.687 -32.494  1.00  0.00     0.221 C 
HETATM    9  C   UNL     1     -13.041   3.998 -33.473  1.00  0.00     0.066 C 
HETATM   10  H   UNL     1     -11.460   3.082 -36.327  1.00  0.00     0.161 HD
ENDROOT
BRANCH   6  11
HETATM   11  C   UNL     1      -8.365   0.341 -32.888  1.00  0.00     0.276 C 
HETATM   12  N   UNL     1      -7.897  -0.364 -33.980  1.00  0.00    -0.322 N 
HETATM   13  H   UNL     1      -8.348  -0.105 -34.853  1.00  0.00     0.169 HD
HETATM   14  O   UNL     1      -7.984   0.237 -31.727  1.00  0.00    -0.266 OA
BRANCH  12  15
HETATM   15  C   UNL     1      -6.887  -1.340 -34.015  1.00  0.00     0.035 A 
HETATM   16  C   UNL     1      -5.581  -1.122 -33.576  1.00  0.00     0.030 A 
HETATM   17  C   UNL     1      -4.625  -2.142 -33.655  1.00  0.00     0.012 A 
HETATM   18  C   UNL     1      -4.954  -3.402 -34.172  1.00  0.00    -0.030 A 
HETATM   19  C   UNL     1      -6.267  -3.617 -34.609  1.00  0.00     0.012 A 
HETATM   20  C   UNL     1      -7.224  -2.598 -34.525  1.00  0.00     0.030 A 
BRANCH  18  21
HETATM   21  C   UNL     1      -3.914  -4.491 -34.303  1.00  0.00     0.147 C 
HETATM   22  C   UNL     1      -3.118  -4.658 -33.014  1.00  0.00     0.044 C 
BRANCH  21  23
HETATM   23  O   UNL     1      -4.547  -5.728 -34.627  1.00  0.00    -0.391 OA
HETATM   24  H   UNL     1      -5.502  -5.602 -34.504  1.00  0.00     0.210 HD
ENDBRANCH  21  23
ENDBRANCH  18  21
ENDBRANCH  12  15
ENDBRANCH   6  11
BRANCH   8  25
HETATM   25  C   UNL     1     -11.165   4.913 -31.993  1.00  0.00     0.409 C 
HETATM   26  F   UNL     1      -9.988   5.140 -32.601  1.00  0.00    -0.169 F 
HETATM   27  F   UNL     1     -11.932   6.019 -32.174  1.00  0.00    -0.169 F 
HETATM   28  F   UNL     1     -10.922   4.840 -30.661  1.00  0.00    -0.169 F 
ENDBRANCH   8  25
BRANCH   1  29
HETATM   29  C   UNL     1     -12.200   5.572 -35.341  1.00  0.00    -0.035 A 
HETATM   30  C   UNL     1     -13.194   6.530 -35.606  1.00  0.00     0.010 A 
HETATM   31  C   UNL     1     -12.860   7.824 -36.018  1.00  0.00     0.007 A 
HETATM   32  C   UNL     1     -11.522   8.192 -36.180  1.00  0.00    -0.062 A 
HETATM   33  C   UNL     1     -11.149   9.581 -36.603  1.00  0.00     0.048 C 
HETATM   34  C   UNL     1     -10.525   7.253 -35.902  1.00  0.00     0.007 A 
HETATM   35  C   UNL     1     -10.861   5.958 -35.497  1.00  0.00     0.010 A 
ENDBRANCH   1  29
TORSDOF 6
ENDMDL
MODEL 7
REMARK VINA RESULT:      -8.3      6.798     10.719
REMARK  6 active torsions:
REMARK  status: ('A' for Active; 'I' for Inactive)
REMARK    1  A    between atoms: C_5  and  C_6 
REMARK    2  A    between atoms: C_11  and  C_12 
REMARK       I    between atoms: C_12  and  N_13 
REMARK    3  A    between atoms: N_13  and  C_14 
REMARK    4  A    between atoms: C_17  and  C_18 
REMARK    5  A    between atoms: C_18  and  O_19 
REMARK    6  A    between atoms: C_25  and  C_26 
ROOT
HETATM    1  C   UNL     1      -7.265   2.578 -31.819  1.00  0.00     0.118 C 
HETATM    2  N   UNL     1      -6.522   3.065 -30.664  1.00  0.00    -0.366 N 
HETATM    3  C   UNL     1      -5.754   4.171 -30.704  1.00  0.00     0.123 A 
HETATM    4  N   UNL     1      -5.675   4.959 -31.817  1.00  0.00    -0.240 N 
HETATM    5  N   UNL     1      -4.934   6.073 -31.649  1.00  0.00    -0.165 NA
HETATM    6  C   UNL     1      -4.446   5.937 -30.394  1.00  0.00     0.148 A 
HETATM    7  C   UNL     1      -4.941   4.757 -29.772  1.00  0.00     0.089 A 
HETATM    8  C   UNL     1      -6.364   4.675 -33.061  1.00  0.00     0.221 C 
HETATM    9  C   UNL     1      -7.543   3.714 -32.820  1.00  0.00     0.066 C 
HETATM   10  H   UNL     1      -6.478   2.423 -29.873  1.00  0.00     0.161 HD
ENDROOT
BRANCH   6  11
HETATM   11  C   UNL     1      -3.537   6.924 -29.783  1.00  0.00     0.276 C 
HETATM   12  N   UNL     1      -2.410   6.330 -29.246  1.00  0.00    -0.322 N 
HETATM   13  H   UNL     1      -2.388   5.321 -29.363  1.00  0.00     0.169 HD
HETATM   14  O   UNL     1      -3.803   8.120 -29.792  1.00  0.00    -0.266 OA
BRANCH  12  15
HETATM   15  C   UNL     1      -1.324   6.951 -28.606  1.00  0.00     0.035 A 
HETATM   16  C   UNL     1      -0.200   7.434 -29.276  1.00  0.00     0.030 A 
HETATM   17  C   UNL     1       0.850   8.030 -28.566  1.00  0.00     0.012 A 
HETATM   18  C   UNL     1       0.799   8.156 -27.172  1.00  0.00    -0.030 A 
HETATM   19  C   UNL     1      -0.333   7.672 -26.504  1.00  0.00     0.012 A 
HETATM   20  C   UNL     1      -1.385   7.081 -27.215  1.00  0.00     0.030 A 
BRANCH  18  21
HETATM   21  C   UNL     1       1.949   8.755 -26.397  1.00  0.00     0.147 C 
HETATM   22  C   UNL     1       1.605  10.145 -25.874  1.00  0.00     0.044 C 
BRANCH  21  23
HETATM   23  O   UNL     1       2.284   7.910 -25.297  1.00  0.00    -0.391 OA
HETATM   24  H   UNL     1       2.833   8.433 -24.691  1.00  0.00     0.210 HD
ENDBRANCH  21  23
ENDBRANCH  18  21
ENDBRANCH  12  15
ENDBRANCH   6  11
BRANCH   8  25
HETATM   25  C   UNL     1      -5.382   4.191 -34.104  1.00  0.00     0.409 C 
HETATM   26  F   UNL     1      -4.913   5.161 -34.908  1.00  0.00    -0.169 F 
HETATM   27  F   UNL     1      -4.311   3.612 -33.503  1.00  0.00    -0.169 F 
HETATM   28  F   UNL     1      -5.927   3.237 -34.898  1.00  0.00    -0.169 F 
ENDBRANCH   8  25
BRANCH   1  29
HETATM   29  C   UNL     1      -6.659   1.320 -32.417  1.00  0.00    -0.035 A 
HETATM   30  C   UNL     1      -7.313   0.691 -33.491  1.00  0.00     0.010 A 
HETATM   31  C   UNL     1      -6.817  -0.493 -34.045  1.00  0.00     0.007 A 
HETATM   32  C   UNL     1      -5.656  -1.081 -33.537  1.00  0.00    -0.062 A 
HETATM   33  C   UNL     1      -5.102  -2.340 -34.134  1.00  0.00     0.048 C 
HETATM   34  C   UNL     1      -4.988  -0.454 -32.481  1.00  0.00     0.007 A 
HETATM   35  C   UNL     1      -5.489   0.726 -31.924  1.00  0.00     0.010 A 
ENDBRANCH   1  29
TORSDOF 6
ENDMDL
MODEL 8
REMARK VINA RESULT:      -8.2      5.128      6.088
REMARK  6 active torsions:
REMARK  status: ('A' for Active; 'I' for Inactive)
REMARK    1  A    between atoms: C_5  and  C_6 
REMARK    2  A    between atoms: C_11  and  C_12 
REMARK       I    between atoms: C_12  and  N_13 
REMARK    3  A    between atoms: N_13  and  C_14 
REMARK    4  A    between atoms: C_17  and  C_18 
REMARK    5  A    between atoms: C_18  and  O_19 
REMARK    6  A    between atoms: C_25  and  C_26 
ROOT
HETATM    1  C   UNL     1      -7.479   1.769 -32.079  1.00  0.00     0.118 C 
HETATM    2  N   UNL     1      -7.503   3.018 -32.828  1.00  0.00    -0.366 N 
HETATM    3  C   UNL     1      -8.641   3.562 -33.303  1.00  0.00     0.123 A 
HETATM    4  N   UNL     1      -9.866   3.013 -33.051  1.00  0.00    -0.240 N 
HETATM    5  N   UNL     1     -10.900   3.739 -33.525  1.00  0.00    -0.165 NA
HETATM    6  C   UNL     1     -10.292   4.751 -34.187  1.00  0.00     0.148 A 
HETATM    7  C   UNL     1      -8.877   4.672 -34.067  1.00  0.00     0.089 A 
HETATM    8  C   UNL     1     -10.068   1.793 -32.295  1.00  0.00     0.221 C 
HETATM    9  C   UNL     1      -8.840   1.492 -31.415  1.00  0.00     0.066 C 
HETATM   10  H   UNL     1      -6.591   3.367 -33.122  1.00  0.00     0.161 HD
ENDROOT
BRANCH   6  11
HETATM   11  C   UNL     1     -11.045   5.793 -34.910  1.00  0.00     0.276 C 
HETATM   12  N   UNL     1     -10.221   6.799 -35.380  1.00  0.00    -0.322 N 
HETATM   13  H   UNL     1      -9.240   6.656 -35.158  1.00  0.00     0.169 HD
HETATM   14  O   UNL     1     -12.259   5.712 -35.052  1.00  0.00    -0.266 OA
BRANCH  12  15
HETATM   15  C   UNL     1     -10.579   7.937 -36.122  1.00  0.00     0.035 A 
HETATM   16  C   UNL     1     -11.385   8.964 -35.630  1.00  0.00     0.030 A 
HETATM   17  C   UNL     1     -11.710  10.061 -36.437  1.00  0.00     0.012 A 
HETATM   18  C   UNL     1     -11.234  10.157 -37.751  1.00  0.00    -0.030 A 
HETATM   19  C   UNL     1     -10.422   9.126 -38.240  1.00  0.00     0.012 A 
HETATM   20  C   UNL     1     -10.094   8.030 -37.431  1.00  0.00     0.030 A 
BRANCH  18  21
HETATM   21  C   UNL     1     -11.619  11.316 -38.641  1.00  0.00     0.147 C 
HETATM   22  C   UNL     1     -10.557  11.580 -39.703  1.00  0.00     0.044 C 
BRANCH  21  23
HETATM   23  O   UNL     1     -12.865  11.043 -39.281  1.00  0.00    -0.391 OA
HETATM   24  H   UNL     1     -12.766  10.200 -39.752  1.00  0.00     0.210 HD
ENDBRANCH  21  23
ENDBRANCH  18  21
ENDBRANCH  12  15
ENDBRANCH   6  11
BRANCH   8  25
HETATM   25  C   UNL     1     -10.451   0.661 -33.221  1.00  0.00     0.409 C 
HETATM   26  F   UNL     1      -9.972  -0.539 -32.850  1.00  0.00    -0.169 F 
HETATM   27  F   UNL     1     -11.803   0.552 -33.290  1.00  0.00    -0.169 F 
HETATM   28  F   UNL     1     -10.028   0.889 -34.489  1.00  0.00    -0.169 F 
ENDBRANCH   8  25
BRANCH   1  29
HETATM   29  C   UNL     1      -6.901   0.616 -32.881  1.00  0.00    -0.035 A 
HETATM   30  C   UNL     1      -6.141  -0.363 -32.220  1.00  0.00     0.010 A 
HETATM   31  C   UNL     1      -5.553  -1.419 -32.924  1.00  0.00     0.007 A 
HETATM   32  C   UNL     1      -5.707  -1.520 -34.309  1.00  0.00    -0.062 A 
HETATM   33  C   UNL     1      -5.098  -2.657 -35.074  1.00  0.00     0.048 C 
HETATM   34  C   UNL     1      -6.476  -0.561 -34.973  1.00  0.00     0.007 A 
HETATM   35  C   UNL     1      -7.058   0.497 -34.269  1.00  0.00     0.010 A 
ENDBRANCH   1  29
TORSDOF 6
ENDMDL
MODEL 9
REMARK VINA RESULT:      -8.2      4.091      9.962
REMARK  6 active torsions:
REMARK  status: ('A' for Active; 'I' for Inactive)
REMARK    1  A    between atoms: C_5  and  C_6 
REMARK    2  A    between atoms: C_11  and  C_12 
REMARK       I    between atoms: C_12  and  N_13 
REMARK    3  A    between atoms: N_13  and  C_14 
REMARK    4  A    between atoms: C_17  and  C_18 
REMARK    5  A    between atoms: C_18  and  O_19 
REMARK    6  A    between atoms: C_25  and  C_26 
ROOT
HETATM    1  C   UNL     1     -11.544   5.404 -35.167  1.00  0.00     0.118 C 
HETATM    2  N   UNL     1     -10.260   4.743 -34.975  1.00  0.00    -0.366 N 
HETATM    3  C   UNL     1     -10.153   3.473 -34.539  1.00  0.00     0.123 A 
HETATM    4  N   UNL     1     -11.248   2.688 -34.314  1.00  0.00    -0.240 N 
HETATM    5  N   UNL     1     -10.952   1.418 -33.971  1.00  0.00    -0.165 NA
HETATM    6  C   UNL     1      -9.600   1.425 -33.887  1.00  0.00     0.148 A 
HETATM    7  C   UNL     1      -9.067   2.695 -34.238  1.00  0.00     0.089 A 
HETATM    8  C   UNL     1     -12.616   3.139 -34.480  1.00  0.00     0.221 C 
HETATM    9  C   UNL     1     -12.670   4.379 -35.393  1.00  0.00     0.066 C 
HETATM   10  H   UNL     1      -9.445   5.353 -35.023  1.00  0.00     0.161 HD
ENDROOT
BRANCH   6  11
HETATM   11  C   UNL     1      -8.822   0.234 -33.497  1.00  0.00     0.276 C 
HETATM   12  N   UNL     1      -7.791  -0.026 -34.379  1.00  0.00    -0.322 N 
HETATM   13  H   UNL     1      -7.733   0.642 -35.143  1.00  0.00     0.169 HD
HETATM   14  O   UNL     1      -9.103  -0.402 -32.487  1.00  0.00    -0.266 OA
BRANCH  12  15
HETATM   15  C   UNL     1      -6.838  -1.056 -34.321  1.00  0.00     0.035 A 
HETATM   16  C   UNL     1      -5.522  -0.874 -33.893  1.00  0.00     0.030 A 
HETATM   17  C   UNL     1      -4.625  -1.949 -33.876  1.00  0.00     0.012 A 
HETATM   18  C   UNL     1      -5.024  -3.229 -34.282  1.00  0.00    -0.030 A 
HETATM   19  C   UNL     1      -6.346  -3.407 -34.708  1.00  0.00     0.012 A 
HETATM   20  C   UNL     1      -7.244  -2.333 -34.721  1.00  0.00     0.030 A 
BRANCH  18  21
HETATM   21  C   UNL     1      -4.047  -4.381 -34.309  1.00  0.00     0.147 C 
HETATM   22  C   UNL     1      -3.302  -4.511 -32.986  1.00  0.00     0.044 C 
BRANCH  21  23
HETATM   23  O   UNL     1      -4.742  -5.599 -34.578  1.00  0.00    -0.391 OA
HETATM   24  H   UNL     1      -4.078  -6.256 -34.839  1.00  0.00     0.210 HD
ENDBRANCH  21  23
ENDBRANCH  18  21
ENDBRANCH  12  15
ENDBRANCH   6  11
BRANCH   8  25
HETATM   25  C   UNL     1     -13.267   3.342 -33.131  1.00  0.00     0.409 C 
HETATM   26  F   UNL     1     -14.211   4.299 -33.115  1.00  0.00    -0.169 F 
HETATM   27  F   UNL     1     -13.854   2.189 -32.718  1.00  0.00    -0.169 F 
HETATM   28  F   UNL     1     -12.355   3.659 -32.180  1.00  0.00    -0.169 F 
ENDBRANCH   8  25
BRANCH   1  29
HETATM   29  C   UNL     1     -11.826   6.455 -34.107  1.00  0.00    -0.035 A 
HETATM   30  C   UNL     1     -10.929   6.603 -33.036  1.00  0.00     0.010 A 
HETATM   31  C   UNL     1     -11.171   7.526 -32.013  1.00  0.00     0.007 A 
HETATM   32  C   UNL     1     -12.318   8.322 -32.034  1.00  0.00    -0.062 A 
HETATM   33  C   UNL     1     -12.580   9.329 -30.955  1.00  0.00     0.048 C 
HETATM   34  C   UNL     1     -13.208   8.195 -33.104  1.00  0.00     0.007 A 
HETATM   35  C   UNL     1     -12.969   7.267 -34.122  1.00  0.00     0.010 A 
ENDBRANCH   1  29
TORSDOF 6
ENDMDL
MODEL 10
REMARK VINA RESULT:      -8.1     16.436     18.317
REMARK  6 active torsions:
REMARK  status: ('A' for Active; 'I' for Inactive)
REMARK    1  A    between atoms: C_5  and  C_6 
REMARK    2  A    between atoms: C_11  and  C_12 
REMARK       I    between atoms: C_12  and  N_13 
REMARK    3  A    between atoms: N_13  and  C_14 
REMARK    4  A    between atoms: C_17  and  C_18 
REMARK    5  A    between atoms: C_18  and  O_19 
REMARK    6  A    between atoms: C_25  and  C_26 
ROOT
HETATM    1  C   UNL     1      -6.442 -12.916 -40.729  1.00  0.00     0.118 C 
HETATM    2  N   UNL     1      -7.331 -13.253 -39.626  1.00  0.00    -0.366 N 
HETATM    3  C   UNL     1      -6.910 -13.340 -38.349  1.00  0.00     0.123 A 
HETATM    4  N   UNL     1      -5.625 -13.046 -37.989  1.00  0.00    -0.240 N 
HETATM    5  N   UNL     1      -5.403 -13.097 -36.659  1.00  0.00    -0.165 NA
HETATM    6  C   UNL     1      -6.585 -13.534 -36.162  1.00  0.00     0.148 A 
HETATM    7  C   UNL     1      -7.551 -13.695 -37.193  1.00  0.00     0.089 A 
HETATM    8  C   UNL     1      -4.590 -12.653 -38.925  1.00  0.00     0.221 C 
HETATM    9  C   UNL     1      -5.214 -12.131 -40.233  1.00  0.00     0.066 C 
HETATM   10  H   UNL     1      -8.254 -13.590 -39.898  1.00  0.00     0.161 HD
ENDROOT
BRANCH   6  11
HETATM   11  C   UNL     1      -6.801 -13.777 -34.724  1.00  0.00     0.276 C 
HETATM   12  N   UNL     1      -6.117 -14.892 -34.276  1.00  0.00    -0.322 N 
HETATM   13  H   UNL     1      -5.577 -15.355 -35.002  1.00  0.00     0.169 HD
HETATM   14  O   UNL     1      -7.510 -13.033 -34.057  1.00  0.00    -0.266 OA
BRANCH  12  15
HETATM   15  C   UNL     1      -6.070 -15.415 -32.973  1.00  0.00     0.035 A 
HETATM   16  C   UNL     1      -5.291 -14.878 -31.948  1.00  0.00     0.030 A 
HETATM   17  C   UNL     1      -5.287 -15.466 -30.677  1.00  0.00     0.012 A 
HETATM   18  C   UNL     1      -6.062 -16.600 -30.403  1.00  0.00    -0.030 A 
HETATM   19  C   UNL     1      -6.845 -17.134 -31.434  1.00  0.00     0.012 A 
HETATM   20  C   UNL     1      -6.852 -16.543 -32.704  1.00  0.00     0.030 A 
BRANCH  18  21
HETATM   21  C   UNL     1      -6.025 -17.264 -29.046  1.00  0.00     0.147 C 
HETATM   22  C   UNL     1      -4.737 -16.934 -28.299  1.00  0.00     0.044 C 
BRANCH  21  23
HETATM   23  O   UNL     1      -7.142 -16.838 -28.267  1.00  0.00    -0.391 OA
HETATM   24  H   UNL     1      -7.863 -16.640 -28.885  1.00  0.00     0.210 HD
ENDBRANCH  21  23
ENDBRANCH  18  21
ENDBRANCH  12  15
ENDBRANCH   6  11
BRANCH   8  25
HETATM   25  C   UNL     1      -3.608 -13.785 -39.123  1.00  0.00     0.409 C 
HETATM   26  F   UNL     1      -4.162 -15.009 -39.072  1.00  0.00    -0.169 F 
HETATM   27  F   UNL     1      -2.998 -13.668 -40.330  1.00  0.00    -0.169 F 
HETATM   28  F   UNL     1      -2.617 -13.754 -38.198  1.00  0.00    -0.169 F 
ENDBRANCH   8  25
BRANCH   1  29
HETATM   29  C   UNL     1      -6.134 -14.107 -41.619  1.00  0.00    -0.035 A 
HETATM   30  C   UNL     1      -5.198 -13.962 -42.657  1.00  0.00     0.010 A 
HETATM   31  C   UNL     1      -4.915 -15.018 -43.529  1.00  0.00     0.007 A 
HETATM   32  C   UNL     1      -5.565 -16.246 -43.388  1.00  0.00    -0.062 A 
HETATM   33  C   UNL     1      -5.258 -17.393 -44.303  1.00  0.00     0.048 C 
HETATM   34  C   UNL     1      -6.485 -16.407 -42.348  1.00  0.00     0.007 A 
HETATM   35  C   UNL     1      -6.772 -15.349 -41.481  1.00  0.00     0.010 A 
ENDBRANCH   1  29
TORSDOF 6
ENDMDL
