MODEL 1
REMARK VINA RESULT:      -8.2      0.000      0.000
REMARK  8 active torsions:
REMARK  status: ('A' for Active; 'I' for Inactive)
REMARK    1  A    between atoms: C_2  and  O_3 
REMARK    2  A    between atoms: O_3  and  C_4 
REMARK    3  A    between atoms: C_4  and  C_5 
REMARK    4  A    between atoms: C_6  and  N_7 
REMARK       I    between atoms: N_7  and  C_8 
REMARK    5  A    between atoms: C_8  and  C_9 
REMARK    6  A    between atoms: C_9  and  N_10 
REMARK    7  A    between atoms: C_22  and  C_23 
REMARK    8  A    between atoms: C_26  and  N_27 
ROOT
HETATM    1  C   UNL     1      -4.721   1.533 -32.359  1.00  0.00     0.085 A 
HETATM    2  C   UNL     1      -4.868   2.912 -32.419  1.00  0.00     0.093 A 
HETATM    3  S   UNL     1      -5.923   3.424 -33.650  1.00  0.00    -0.082 SA
HETATM    4  C   UNL     1      -6.175   1.827 -34.177  1.00  0.00     0.065 A 
HETATM    5  C   UNL     1      -5.475   0.902 -33.422  1.00  0.00    -0.000 A 
ENDROOT
BRANCH   2   6
HETATM    6  N   UNL     1      -4.331   3.856 -31.548  1.00  0.00    -0.319 N 
HETATM    7  C   UNL     1      -3.185   4.562 -31.835  1.00  0.00     0.248 C 
HETATM    8  O   UNL     1      -2.402   4.325 -32.753  1.00  0.00    -0.271 OA
HETATM    9  H   UNL     1      -4.609   3.728 -30.571  1.00  0.00     0.169 HD
BRANCH   7  10
HETATM   10  C   UNL     1      -2.906   5.742 -30.911  1.00  0.00     0.337 C 
BRANCH  10  11
HETATM   11  N   UNL     1      -1.510   6.412 -31.096  1.00  0.00    -0.060 N 
HETATM   12  H   UNL     1      -1.479   6.531 -32.122  1.00  0.00     0.280 HD
HETATM   13  C   UNL     1      -0.314   5.521 -30.779  1.00  0.00     0.263 C 
HETATM   14  C   UNL     1       0.211   5.617 -29.324  1.00  0.00     0.262 C 
HETATM   15  N   UNL     1       0.375   7.055 -28.846  1.00  0.00    -0.072 N 
HETATM   16  H   UNL     1       1.190   7.466 -29.323  1.00  0.00     0.279 HD
HETATM   17  C   UNL     1       0.724   7.074 -27.367  1.00  0.00     0.269 C 
HETATM   18  C   UNL     1      -0.835   7.944 -29.105  1.00  0.00     0.262 C 
HETATM   19  C   UNL     1      -1.380   7.828 -30.551  1.00  0.00     0.263 C 
ENDBRANCH  10  11
ENDBRANCH   7  10
ENDBRANCH   2   6
BRANCH   1  20
HETATM   20  C   UNL     1      -3.845   0.918 -31.357  1.00  0.00     0.297 C 
HETATM   21  O   UNL     1      -2.641   1.163 -31.332  1.00  0.00    -0.259 OA
BRANCH  20  22
HETATM   22  O   UNL     1      -4.482   0.044 -30.539  1.00  0.00    -0.318 OA
BRANCH  22  23
HETATM   23  C   UNL     1      -5.584   0.545 -29.766  1.00  0.00     0.174 C 
HETATM   24  C   UNL     1      -6.863  -0.118 -30.235  1.00  0.00     0.034 C 
ENDBRANCH  22  23
ENDBRANCH  20  22
ENDBRANCH   1  20
BRANCH   5  25
HETATM   25  C   UNL     1      -5.594  -0.510 -33.762  1.00  0.00    -0.024 A 
HETATM   26  C   UNL     1      -4.446  -1.317 -33.794  1.00  0.00     0.015 A 
HETATM   27  C   UNL     1      -4.538  -2.662 -34.158  1.00  0.00     0.037 A 
HETATM   28  C   UNL     1      -5.787  -3.204 -34.487  1.00  0.00     0.102 A 
HETATM   29  C   UNL     1      -6.940  -2.407 -34.455  1.00  0.00     0.037 A 
HETATM   30  C   UNL     1      -6.840  -1.058 -34.096  1.00  0.00     0.015 A 
BRANCH  28  31
HETATM   31  N   UNL     1      -5.886  -4.616 -34.876  1.00  0.00    -0.116 N 
HETATM   32  O   UNL     1      -6.812  -4.936 -35.634  1.00  0.00    -0.532 OA
HETATM   33  O   UNL     1      -5.037  -5.395 -34.423  1.00  0.00    -0.532 OA
ENDBRANCH  28  31
ENDBRANCH   5  25
TORSDOF 8
ENDMDL
MODEL 2
REMARK VINA RESULT:      -7.9      4.099      6.033
REMARK  8 active torsions:
REMARK  status: ('A' for Active; 'I' for Inactive)
REMARK    1  A    between atoms: C_2  and  O_3 
REMARK    2  A    between atoms: O_3  and  C_4 
REMARK    3  A    between atoms: C_4  and  C_5 
REMARK    4  A    between atoms: C_6  and  N_7 
REMARK       I    between atoms: N_7  and  C_8 
REMARK    5  A    between atoms: C_8  and  C_9 
REMARK    6  A    between atoms: C_9  and  N_10 
REMARK    7  A    between atoms: C_22  and  C_23 
REMARK    8  A    between atoms: C_26  and  N_27 
ROOT
HETATM    1  C   UNL     1      -6.272   1.729 -33.012  1.00  0.00     0.085 A 
HETATM    2  C   UNL     1      -5.753   2.865 -32.406  1.00  0.00     0.093 A 
HETATM    3  S   UNL     1      -4.112   2.717 -31.989  1.00  0.00    -0.082 SA
HETATM    4  C   UNL     1      -4.054   1.114 -32.553  1.00  0.00     0.065 A 
HETATM    5  C   UNL     1      -5.266   0.688 -33.068  1.00  0.00    -0.000 A 
ENDROOT
BRANCH   2   6
HETATM    6  N   UNL     1      -6.398   4.082 -32.205  1.00  0.00    -0.319 N 
HETATM    7  C   UNL     1      -6.575   5.003 -33.213  1.00  0.00     0.248 C 
HETATM    8  O   UNL     1      -6.038   4.974 -34.318  1.00  0.00    -0.271 OA
HETATM    9  H   UNL     1      -6.396   4.400 -31.231  1.00  0.00     0.169 HD
BRANCH   7  10
HETATM   10  C   UNL     1      -7.542   6.136 -32.888  1.00  0.00     0.337 C 
BRANCH  10  11
HETATM   11  N   UNL     1      -8.782   6.236 -33.828  1.00  0.00    -0.060 N 
HETATM   12  H   UNL     1      -8.357   6.639 -34.678  1.00  0.00     0.280 HD
HETATM   13  C   UNL     1      -9.837   7.253 -33.408  1.00  0.00     0.263 C 
HETATM   14  C   UNL     1     -10.978   6.691 -32.523  1.00  0.00     0.262 C 
HETATM   15  N   UNL     1     -11.563   5.392 -33.063  1.00  0.00    -0.072 N 
HETATM   16  H   UNL     1     -12.121   5.609 -33.901  1.00  0.00     0.279 HD
HETATM   17  C   UNL     1     -12.550   4.812 -32.063  1.00  0.00     0.269 C 
HETATM   18  C   UNL     1     -10.522   4.343 -33.435  1.00  0.00     0.262 C 
HETATM   19  C   UNL     1      -9.365   4.908 -34.295  1.00  0.00     0.263 C 
ENDBRANCH  10  11
ENDBRANCH   7  10
ENDBRANCH   2   6
BRANCH   1  20
HETATM   20  C   UNL     1      -7.674   1.681 -33.436  1.00  0.00     0.297 C 
HETATM   21  O   UNL     1      -7.976   1.688 -34.627  1.00  0.00    -0.259 OA
BRANCH  20  22
HETATM   22  O   UNL     1      -8.556   1.689 -32.406  1.00  0.00    -0.318 OA
BRANCH  22  23
HETATM   23  C   UNL     1      -8.943   0.419 -31.857  1.00  0.00     0.174 C 
HETATM   24  C   UNL     1     -10.047  -0.174 -32.708  1.00  0.00     0.034 C 
ENDBRANCH  22  23
ENDBRANCH  20  22
ENDBRANCH   1  20
BRANCH   5  25
HETATM   25  C   UNL     1      -5.365  -0.670 -33.587  1.00  0.00    -0.024 A 
HETATM   26  C   UNL     1      -6.578  -1.120 -34.132  1.00  0.00     0.015 A 
HETATM   27  C   UNL     1      -6.701  -2.431 -34.596  1.00  0.00     0.037 A 
HETATM   28  C   UNL     1      -5.602  -3.296 -34.519  1.00  0.00     0.102 A 
HETATM   29  C   UNL     1      -4.385  -2.855 -33.980  1.00  0.00     0.037 A 
HETATM   30  C   UNL     1      -4.271  -1.542 -33.511  1.00  0.00     0.015 A 
BRANCH  28  31
HETATM   31  N   UNL     1      -5.730  -4.677 -35.000  1.00  0.00    -0.116 N 
HETATM   32  O   UNL     1      -6.680  -4.935 -35.751  1.00  0.00    -0.532 OA
HETATM   33  O   UNL     1      -4.877  -5.493 -34.626  1.00  0.00    -0.532 OA
ENDBRANCH  28  31
ENDBRANCH   5  25
TORSDOF 8
ENDMDL
MODEL 3
REMARK VINA RESULT:      -7.6      2.533      3.314
REMARK  8 active torsions:
REMARK  status: ('A' for Active; 'I' for Inactive)
REMARK    1  A    between atoms: C_2  and  O_3 
REMARK    2  A    between atoms: O_3  and  C_4 
REMARK    3  A    between atoms: C_4  and  C_5 
REMARK    4  A    between atoms: C_6  and  N_7 
REMARK       I    between atoms: N_7  and  C_8 
REMARK    5  A    between atoms: C_8  and  C_9 
REMARK    6  A    between atoms: C_9  and  N_10 
REMARK    7  A    between atoms: C_22  and  C_23 
REMARK    8  A    between atoms: C_26  and  N_27 
ROOT
HETATM    1  C   UNL     1      -5.848   1.722 -32.872  1.00  0.00     0.085 A 
HETATM    2  C   UNL     1      -5.233   2.804 -32.257  1.00  0.00     0.093 A 
HETATM    3  S   UNL     1      -3.632   2.489 -31.782  1.00  0.00    -0.082 SA
HETATM    4  C   UNL     1      -3.724   0.883 -32.331  1.00  0.00     0.065 A 
HETATM    5  C   UNL     1      -4.956   0.580 -32.884  1.00  0.00    -0.000 A 
ENDROOT
BRANCH   2   6
HETATM    6  N   UNL     1      -5.753   4.085 -32.089  1.00  0.00    -0.319 N 
HETATM    7  C   UNL     1      -6.354   4.494 -30.921  1.00  0.00     0.248 C 
HETATM    8  O   UNL     1      -6.684   3.766 -29.986  1.00  0.00    -0.271 OA
HETATM    9  H   UNL     1      -5.991   4.557 -32.967  1.00  0.00     0.169 HD
BRANCH   7  10
HETATM   10  C   UNL     1      -6.602   5.994 -30.815  1.00  0.00     0.337 C 
BRANCH  10  11
HETATM   11  N   UNL     1      -5.603   6.766 -29.899  1.00  0.00    -0.060 N 
HETATM   12  H   UNL     1      -6.079   6.704 -28.985  1.00  0.00     0.280 HD
HETATM   13  C   UNL     1      -5.492   8.261 -30.172  1.00  0.00     0.263 C 
HETATM   14  C   UNL     1      -4.371   8.669 -31.162  1.00  0.00     0.262 C 
HETATM   15  N   UNL     1      -3.036   8.003 -30.853  1.00  0.00    -0.072 N 
HETATM   16  H   UNL     1      -2.645   8.435 -30.003  1.00  0.00     0.279 HD
HETATM   17  C   UNL     1      -2.035   8.310 -31.955  1.00  0.00     0.269 C 
HETATM   18  C   UNL     1      -3.122   6.498 -30.633  1.00  0.00     0.262 C 
HETATM   19  C   UNL     1      -4.260   6.085 -29.666  1.00  0.00     0.263 C 
ENDBRANCH  10  11
ENDBRANCH   7  10
ENDBRANCH   2   6
BRANCH   1  20
HETATM   20  C   UNL     1      -7.233   1.817 -33.344  1.00  0.00     0.297 C 
HETATM   21  O   UNL     1      -7.489   1.882 -34.544  1.00  0.00    -0.259 OA
BRANCH  20  22
HETATM   22  O   UNL     1      -8.147   1.882 -32.345  1.00  0.00    -0.318 OA
BRANCH  22  23
HETATM   23  C   UNL     1      -8.567   0.643 -31.751  1.00  0.00     0.174 C 
HETATM   24  C   UNL     1      -9.677   0.042 -32.589  1.00  0.00     0.034 C 
ENDBRANCH  22  23
ENDBRANCH  20  22
ENDBRANCH   1  20
BRANCH   5  25
HETATM   25  C   UNL     1      -5.180  -0.765 -33.396  1.00  0.00    -0.024 A 
HETATM   26  C   UNL     1      -4.149  -1.715 -33.331  1.00  0.00     0.015 A 
HETATM   27  C   UNL     1      -4.335  -2.997 -33.854  1.00  0.00     0.037 A 
HETATM   28  C   UNL     1      -5.561  -3.331 -34.441  1.00  0.00     0.102 A 
HETATM   29  C   UNL     1      -6.599  -2.390 -34.507  1.00  0.00     0.037 A 
HETATM   30  C   UNL     1      -6.404  -1.107 -33.988  1.00  0.00     0.015 A 
BRANCH  28  31
HETATM   31  N   UNL     1      -5.758  -4.675 -34.998  1.00  0.00    -0.116 N 
HETATM   32  O   UNL     1      -6.733  -4.849 -35.741  1.00  0.00    -0.532 OA
HETATM   33  O   UNL     1      -4.935  -5.548 -34.689  1.00  0.00    -0.532 OA
ENDBRANCH  28  31
ENDBRANCH   5  25
TORSDOF 8
ENDMDL
MODEL 4
REMARK VINA RESULT:      -7.6      3.277      4.275
REMARK  8 active torsions:
REMARK  status: ('A' for Active; 'I' for Inactive)
REMARK    1  A    between atoms: C_2  and  O_3 
REMARK    2  A    between atoms: O_3  and  C_4 
REMARK    3  A    between atoms: C_4  and  C_5 
REMARK    4  A    between atoms: C_6  and  N_7 
REMARK       I    between atoms: N_7  and  C_8 
REMARK    5  A    between atoms: C_8  and  C_9 
REMARK    6  A    between atoms: C_9  and  N_10 
REMARK    7  A    between atoms: C_22  and  C_23 
REMARK    8  A    between atoms: C_26  and  N_27 
ROOT
HETATM    1  C   UNL     1      -7.269   1.081 -32.449  1.00  0.00     0.085 A 
HETATM    2  C   UNL     1      -8.084   2.186 -32.651  1.00  0.00     0.093 A 
HETATM    3  S   UNL     1      -8.879   2.172 -34.154  1.00  0.00    -0.082 SA
HETATM    4  C   UNL     1      -8.120   0.719 -34.606  1.00  0.00     0.065 A 
HETATM    5  C   UNL     1      -7.275   0.233 -33.623  1.00  0.00    -0.000 A 
ENDROOT
BRANCH   2   6
HETATM    6  N   UNL     1      -8.366   3.204 -31.744  1.00  0.00    -0.319 N 
HETATM    7  C   UNL     1      -7.784   4.449 -31.821  1.00  0.00     0.248 C 
HETATM    8  O   UNL     1      -6.833   4.757 -32.536  1.00  0.00    -0.271 OA
HETATM    9  H   UNL     1      -8.720   2.871 -30.841  1.00  0.00     0.169 HD
BRANCH   7  10
HETATM   10  C   UNL     1      -8.417   5.512 -30.930  1.00  0.00     0.337 C 
BRANCH  10  11
HETATM   11  N   UNL     1      -8.137   5.348 -29.404  1.00  0.00    -0.060 N 
HETATM   12  H   UNL     1      -8.778   4.575 -29.165  1.00  0.00     0.280 HD
HETATM   13  C   UNL     1      -8.594   6.510 -28.531  1.00  0.00     0.263 C 
HETATM   14  C   UNL     1      -7.522   7.596 -28.265  1.00  0.00     0.262 C 
HETATM   15  N   UNL     1      -6.176   7.013 -27.852  1.00  0.00    -0.072 N 
HETATM   16  H   UNL     1      -6.258   6.652 -26.890  1.00  0.00     0.279 HD
HETATM   17  C   UNL     1      -5.133   8.116 -27.776  1.00  0.00     0.269 C 
HETATM   18  C   UNL     1      -5.677   5.888 -28.750  1.00  0.00     0.262 C 
HETATM   19  C   UNL     1      -6.757   4.815 -29.041  1.00  0.00     0.263 C 
ENDBRANCH  10  11
ENDBRANCH   7  10
ENDBRANCH   2   6
BRANCH   1  20
HETATM   20  C   UNL     1      -6.507   0.932 -31.206  1.00  0.00     0.297 C 
HETATM   21  O   UNL     1      -6.698  -0.023 -30.456  1.00  0.00    -0.259 OA
BRANCH  20  22
HETATM   22  O   UNL     1      -5.650   1.955 -30.965  1.00  0.00    -0.318 OA
BRANCH  22  23
HETATM   23  C   UNL     1      -4.541   2.114 -31.864  1.00  0.00     0.174 C 
HETATM   24  C   UNL     1      -3.380   1.271 -31.375  1.00  0.00     0.034 C 
ENDBRANCH  22  23
ENDBRANCH  20  22
ENDBRANCH   1  20
BRANCH   5  25
HETATM   25  C   UNL     1      -6.553  -1.007 -33.874  1.00  0.00    -0.024 A 
HETATM   26  C   UNL     1      -7.250  -2.138 -34.329  1.00  0.00     0.015 A 
HETATM   27  C   UNL     1      -6.580  -3.345 -34.535  1.00  0.00     0.037 A 
HETATM   28  C   UNL     1      -5.203  -3.421 -34.288  1.00  0.00     0.102 A 
HETATM   29  C   UNL     1      -4.497  -2.297 -33.836  1.00  0.00     0.037 A 
HETATM   30  C   UNL     1      -5.176  -1.092 -33.626  1.00  0.00     0.015 A 
BRANCH  28  31
HETATM   31  N   UNL     1      -4.496  -4.691 -34.497  1.00  0.00    -0.116 N 
HETATM   32  O   UNL     1      -5.149  -5.640 -34.952  1.00  0.00    -0.532 OA
HETATM   33  O   UNL     1      -3.294  -4.730 -34.206  1.00  0.00    -0.532 OA
ENDBRANCH  28  31
ENDBRANCH   5  25
TORSDOF 8
ENDMDL
MODEL 5
REMARK VINA RESULT:      -7.6      2.953      3.657
REMARK  8 active torsions:
REMARK  status: ('A' for Active; 'I' for Inactive)
REMARK    1  A    between atoms: C_2  and  O_3 
REMARK    2  A    between atoms: O_3  and  C_4 
REMARK    3  A    between atoms: C_4  and  C_5 
REMARK    4  A    between atoms: C_6  and  N_7 
REMARK       I    between atoms: N_7  and  C_8 
REMARK    5  A    between atoms: C_8  and  C_9 
REMARK    6  A    between atoms: C_9  and  N_10 
REMARK    7  A    between atoms: C_22  and  C_23 
REMARK    8  A    between atoms: C_26  and  N_27 
ROOT
HETATM    1  C   UNL     1      -5.973   1.698 -32.899  1.00  0.00     0.085 A 
HETATM    2  C   UNL     1      -5.397   2.758 -32.213  1.00  0.00     0.093 A 
HETATM    3  S   UNL     1      -3.820   2.432 -31.671  1.00  0.00    -0.082 SA
HETATM    4  C   UNL     1      -3.873   0.849 -32.287  1.00  0.00     0.065 A 
HETATM    5  C   UNL     1      -5.074   0.563 -32.912  1.00  0.00    -0.000 A 
ENDROOT
BRANCH   2   6
HETATM    6  N   UNL     1      -5.933   4.029 -32.021  1.00  0.00    -0.319 N 
HETATM    7  C   UNL     1      -5.718   5.065 -32.900  1.00  0.00     0.248 C 
HETATM    8  O   UNL     1      -4.900   5.075 -33.818  1.00  0.00    -0.271 OA
HETATM    9  H   UNL     1      -6.168   4.239 -31.046  1.00  0.00     0.169 HD
BRANCH   7  10
HETATM   10  C   UNL     1      -6.604   6.287 -32.685  1.00  0.00     0.337 C 
BRANCH  10  11
HETATM   11  N   UNL     1      -6.020   7.367 -31.723  1.00  0.00    -0.060 N 
HETATM   12  H   UNL     1      -5.920   8.172 -32.362  1.00  0.00     0.280 HD
HETATM   13  C   UNL     1      -4.605   7.097 -31.224  1.00  0.00     0.263 C 
HETATM   14  C   UNL     1      -4.516   6.337 -29.877  1.00  0.00     0.262 C 
HETATM   15  N   UNL     1      -5.442   6.909 -28.811  1.00  0.00    -0.072 N 
HETATM   16  H   UNL     1      -5.057   7.812 -28.495  1.00  0.00     0.279 HD
HETATM   17  C   UNL     1      -5.431   6.017 -27.580  1.00  0.00     0.269 C 
HETATM   18  C   UNL     1      -6.875   7.132 -29.278  1.00  0.00     0.262 C 
HETATM   19  C   UNL     1      -6.966   7.866 -30.639  1.00  0.00     0.263 C 
ENDBRANCH  10  11
ENDBRANCH   7  10
ENDBRANCH   2   6
BRANCH   1  20
HETATM   20  C   UNL     1      -7.333   1.806 -33.436  1.00  0.00     0.297 C 
HETATM   21  O   UNL     1      -7.540   1.775 -34.648  1.00  0.00    -0.259 OA
BRANCH  20  22
HETATM   22  O   UNL     1      -8.282   1.994 -32.486  1.00  0.00    -0.318 OA
BRANCH  22  23
HETATM   23  C   UNL     1      -8.716   0.842 -31.747  1.00  0.00     0.174 C 
HETATM   24  C   UNL     1      -9.761   0.099 -32.554  1.00  0.00     0.034 C 
ENDBRANCH  22  23
ENDBRANCH  20  22
ENDBRANCH   1  20
BRANCH   5  25
HETATM   25  C   UNL     1      -5.264  -0.763 -33.487  1.00  0.00    -0.024 A 
HETATM   26  C   UNL     1      -6.559  -1.212 -33.788  1.00  0.00     0.015 A 
HETATM   27  C   UNL     1      -6.761  -2.495 -34.301  1.00  0.00     0.037 A 
HETATM   28  C   UNL     1      -5.660  -3.332 -34.518  1.00  0.00     0.102 A 
HETATM   29  C   UNL     1      -4.361  -2.892 -34.224  1.00  0.00     0.037 A 
HETATM   30  C   UNL     1      -4.167  -1.608 -33.704  1.00  0.00     0.015 A 
BRANCH  28  31
HETATM   31  N   UNL     1      -5.868  -4.684 -35.051  1.00  0.00    -0.116 N 
HETATM   32  O   UNL     1      -5.050  -5.557 -34.731  1.00  0.00    -0.532 OA
HETATM   33  O   UNL     1      -6.849  -4.864 -35.785  1.00  0.00    -0.532 OA
ENDBRANCH  28  31
ENDBRANCH   5  25
TORSDOF 8
ENDMDL
MODEL 6
REMARK VINA RESULT:      -7.5      1.891      3.058
REMARK  8 active torsions:
REMARK  status: ('A' for Active; 'I' for Inactive)
REMARK    1  A    between atoms: C_2  and  O_3 
REMARK    2  A    between atoms: O_3  and  C_4 
REMARK    3  A    between atoms: C_4  and  C_5 
REMARK    4  A    between atoms: C_6  and  N_7 
REMARK       I    between atoms: N_7  and  C_8 
REMARK    5  A    between atoms: C_8  and  C_9 
REMARK    6  A    between atoms: C_9  and  N_10 
REMARK    7  A    between atoms: C_22  and  C_23 
REMARK    8  A    between atoms: C_26  and  N_27 
ROOT
HETATM    1  C   UNL     1      -4.521   3.074 -31.269  1.00  0.00     0.085 A 
HETATM    2  C   UNL     1      -5.101   4.072 -30.498  1.00  0.00     0.093 A 
HETATM    3  S   UNL     1      -6.643   3.661 -29.913  1.00  0.00    -0.082 SA
HETATM    4  C   UNL     1      -6.609   2.161 -30.712  1.00  0.00     0.065 A 
HETATM    5  C   UNL     1      -5.434   1.959 -31.413  1.00  0.00    -0.000 A 
ENDROOT
BRANCH   2   6
HETATM    6  N   UNL     1      -4.525   5.277 -30.106  1.00  0.00    -0.319 N 
HETATM    7  C   UNL     1      -4.606   6.421 -30.868  1.00  0.00     0.248 C 
HETATM    8  O   UNL     1      -4.997   6.486 -32.032  1.00  0.00    -0.271 OA
HETATM    9  H   UNL     1      -3.754   5.173 -29.439  1.00  0.00     0.169 HD
BRANCH   7  10
HETATM   10  C   UNL     1      -4.172   7.699 -30.160  1.00  0.00     0.337 C 
BRANCH  10  11
HETATM   11  N   UNL     1      -2.748   8.212 -30.537  1.00  0.00    -0.060 N 
HETATM   12  H   UNL     1      -2.972   8.910 -31.265  1.00  0.00     0.280 HD
HETATM   13  C   UNL     1      -1.856   7.197 -31.243  1.00  0.00     0.263 C 
HETATM   14  C   UNL     1      -0.938   6.366 -30.311  1.00  0.00     0.262 C 
HETATM   15  N   UNL     1      -0.201   7.221 -29.288  1.00  0.00    -0.072 N 
HETATM   16  H   UNL     1       0.532   7.754 -29.776  1.00  0.00     0.279 HD
HETATM   17  C   UNL     1       0.540   6.330 -28.304  1.00  0.00     0.269 C 
HETATM   18  C   UNL     1      -1.090   8.202 -28.533  1.00  0.00     0.262 C 
HETATM   19  C   UNL     1      -2.029   9.014 -29.460  1.00  0.00     0.263 C 
ENDBRANCH  10  11
ENDBRANCH   7  10
ENDBRANCH   2   6
BRANCH   1  20
HETATM   20  C   UNL     1      -3.191   3.261 -31.857  1.00  0.00     0.297 C 
HETATM   21  O   UNL     1      -2.175   3.151 -31.173  1.00  0.00    -0.259 OA
BRANCH  20  22
HETATM   22  O   UNL     1      -3.217   3.612 -33.166  1.00  0.00    -0.318 OA
BRANCH  22  23
HETATM   23  C   UNL     1      -2.177   4.482 -33.638  1.00  0.00     0.174 C 
HETATM   24  C   UNL     1      -2.693   5.275 -34.822  1.00  0.00     0.034 C 
ENDBRANCH  22  23
ENDBRANCH  20  22
ENDBRANCH   1  20
BRANCH   5  25
HETATM   25  C   UNL     1      -5.266   0.714 -32.151  1.00  0.00    -0.024 A 
HETATM   26  C   UNL     1      -4.359  -0.253 -31.689  1.00  0.00     0.015 A 
HETATM   27  C   UNL     1      -4.156  -1.433 -32.407  1.00  0.00     0.037 A 
HETATM   28  C   UNL     1      -4.870  -1.650 -33.592  1.00  0.00     0.102 A 
HETATM   29  C   UNL     1      -5.781  -0.693 -34.061  1.00  0.00     0.037 A 
HETATM   30  C   UNL     1      -5.974   0.490 -33.340  1.00  0.00     0.015 A 
BRANCH  28  31
HETATM   31  N   UNL     1      -4.655  -2.888 -34.353  1.00  0.00    -0.116 N 
HETATM   32  O   UNL     1      -3.871  -3.721 -33.879  1.00  0.00    -0.532 OA
HETATM   33  O   UNL     1      -5.274  -3.018 -35.417  1.00  0.00    -0.532 OA
ENDBRANCH  28  31
ENDBRANCH   5  25
TORSDOF 8
ENDMDL
MODEL 7
REMARK VINA RESULT:      -7.4      2.900      3.405
REMARK  8 active torsions:
REMARK  status: ('A' for Active; 'I' for Inactive)
REMARK    1  A    between atoms: C_2  and  O_3 
REMARK    2  A    between atoms: O_3  and  C_4 
REMARK    3  A    between atoms: C_4  and  C_5 
REMARK    4  A    between atoms: C_6  and  N_7 
REMARK       I    between atoms: N_7  and  C_8 
REMARK    5  A    between atoms: C_8  and  C_9 
REMARK    6  A    between atoms: C_9  and  N_10 
REMARK    7  A    between atoms: C_22  and  C_23 
REMARK    8  A    between atoms: C_26  and  N_27 
ROOT
HETATM    1  C   UNL     1      -6.577   1.730 -33.091  1.00  0.00     0.085 A 
HETATM    2  C   UNL     1      -7.486   2.768 -33.247  1.00  0.00     0.093 A 
HETATM    3  S   UNL     1      -8.818   2.357 -34.219  1.00  0.00    -0.082 SA
HETATM    4  C   UNL     1      -8.199   0.800 -34.509  1.00  0.00     0.065 A 
HETATM    5  C   UNL     1      -6.994   0.579 -33.866  1.00  0.00    -0.000 A 
ENDROOT
BRANCH   2   6
HETATM    6  N   UNL     1      -7.452   4.017 -32.634  1.00  0.00    -0.319 N 
HETATM    7  C   UNL     1      -6.921   5.130 -33.246  1.00  0.00     0.248 C 
HETATM    8  O   UNL     1      -6.253   5.135 -34.278  1.00  0.00    -0.271 OA
HETATM    9  H   UNL     1      -7.495   3.981 -31.610  1.00  0.00     0.169 HD
BRANCH   7  10
HETATM   10  C   UNL     1      -7.224   6.453 -32.553  1.00  0.00     0.337 C 
BRANCH  10  11
HETATM   11  N   UNL     1      -6.024   7.086 -31.783  1.00  0.00    -0.060 N 
HETATM   12  H   UNL     1      -5.611   7.687 -32.514  1.00  0.00     0.280 HD
HETATM   13  C   UNL     1      -4.908   6.118 -31.408  1.00  0.00     0.263 C 
HETATM   14  C   UNL     1      -5.034   5.481 -30.001  1.00  0.00     0.262 C 
HETATM   15  N   UNL     1      -5.351   6.500 -28.914  1.00  0.00    -0.072 N 
HETATM   16  H   UNL     1      -4.507   7.067 -28.743  1.00  0.00     0.279 HD
HETATM   17  C   UNL     1      -5.629   5.789 -27.600  1.00  0.00     0.269 C 
HETATM   18  C   UNL     1      -6.502   7.440 -29.250  1.00  0.00     0.262 C 
HETATM   19  C   UNL     1      -6.394   8.056 -30.668  1.00  0.00     0.263 C 
ENDBRANCH  10  11
ENDBRANCH   7  10
ENDBRANCH   2   6
BRANCH   1  20
HETATM   20  C   UNL     1      -5.367   1.911 -32.284  1.00  0.00     0.297 C 
HETATM   21  O   UNL     1      -4.267   2.051 -32.815  1.00  0.00    -0.259 OA
BRANCH  20  22
HETATM   22  O   UNL     1      -5.587   1.848 -30.948  1.00  0.00    -0.318 OA
BRANCH  22  23
HETATM   23  C   UNL     1      -5.251   0.623 -30.279  1.00  0.00     0.174 C 
HETATM   24  C   UNL     1      -6.482  -0.258 -30.206  1.00  0.00     0.034 C 
ENDBRANCH  22  23
ENDBRANCH  20  22
ENDBRANCH   1  20
BRANCH   5  25
HETATM   25  C   UNL     1      -6.343  -0.714 -34.027  1.00  0.00    -0.024 A 
HETATM   26  C   UNL     1      -7.073  -1.803 -34.529  1.00  0.00     0.015 A 
HETATM   27  C   UNL     1      -6.476  -3.059 -34.650  1.00  0.00     0.037 A 
HETATM   28  C   UNL     1      -5.138  -3.226 -34.271  1.00  0.00     0.102 A 
HETATM   29  C   UNL     1      -4.399  -2.144 -33.772  1.00  0.00     0.037 A 
HETATM   30  C   UNL     1      -5.006  -0.890 -33.647  1.00  0.00     0.015 A 
BRANCH  28  31
HETATM   31  N   UNL     1      -4.509  -4.547 -34.391  1.00  0.00    -0.116 N 
HETATM   32  O   UNL     1      -5.199  -5.471 -34.842  1.00  0.00    -0.532 OA
HETATM   33  O   UNL     1      -3.327  -4.651 -34.036  1.00  0.00    -0.532 OA
ENDBRANCH  28  31
ENDBRANCH   5  25
TORSDOF 8
ENDMDL
MODEL 8
REMARK VINA RESULT:      -7.3      1.987      2.561
REMARK  8 active torsions:
REMARK  status: ('A' for Active; 'I' for Inactive)
REMARK    1  A    between atoms: C_2  and  O_3 
REMARK    2  A    between atoms: O_3  and  C_4 
REMARK    3  A    between atoms: C_4  and  C_5 
REMARK    4  A    between atoms: C_6  and  N_7 
REMARK       I    between atoms: N_7  and  C_8 
REMARK    5  A    between atoms: C_8  and  C_9 
REMARK    6  A    between atoms: C_9  and  N_10 
REMARK    7  A    between atoms: C_22  and  C_23 
REMARK    8  A    between atoms: C_26  and  N_27 
ROOT
HETATM    1  C   UNL     1      -5.531   1.599 -32.531  1.00  0.00     0.085 A 
HETATM    2  C   UNL     1      -5.824   2.953 -32.626  1.00  0.00     0.093 A 
HETATM    3  S   UNL     1      -6.774   3.344 -33.979  1.00  0.00    -0.082 SA
HETATM    4  C   UNL     1      -6.782   1.729 -34.512  1.00  0.00     0.065 A 
HETATM    5  C   UNL     1      -6.078   0.888 -33.668  1.00  0.00    -0.000 A 
ENDROOT
BRANCH   2   6
HETATM    6  N   UNL     1      -5.503   3.951 -31.709  1.00  0.00    -0.319 N 
HETATM    7  C   UNL     1      -4.285   4.591 -31.706  1.00  0.00     0.248 C 
HETATM    8  O   UNL     1      -3.289   4.250 -32.341  1.00  0.00    -0.271 OA
HETATM    9  H   UNL     1      -6.053   3.916 -30.845  1.00  0.00     0.169 HD
BRANCH   7  10
HETATM   10  C   UNL     1      -4.214   5.837 -30.831  1.00  0.00     0.337 C 
BRANCH  10  11
HETATM   11  N   UNL     1      -4.248   7.191 -31.604  1.00  0.00    -0.060 N 
HETATM   12  H   UNL     1      -4.749   6.918 -32.465  1.00  0.00     0.280 HD
HETATM   13  C   UNL     1      -2.896   7.696 -32.092  1.00  0.00     0.263 C 
HETATM   14  C   UNL     1      -2.163   8.658 -31.124  1.00  0.00     0.262 C 
HETATM   15  N   UNL     1      -3.068   9.759 -30.583  1.00  0.00    -0.072 N 
HETATM   16  H   UNL     1      -3.254  10.430 -31.342  1.00  0.00     0.279 HD
HETATM   17  C   UNL     1      -2.336  10.555 -29.515  1.00  0.00     0.269 C 
HETATM   18  C   UNL     1      -4.402   9.263 -30.039  1.00  0.00     0.262 C 
HETATM   19  C   UNL     1      -5.123   8.278 -30.993  1.00  0.00     0.263 C 
ENDBRANCH  10  11
ENDBRANCH   7  10
ENDBRANCH   2   6
BRANCH   1  20
HETATM   20  C   UNL     1      -4.718   1.086 -31.424  1.00  0.00     0.297 C 
HETATM   21  O   UNL     1      -5.216   0.863 -30.323  1.00  0.00    -0.259 OA
BRANCH  20  22
HETATM   22  O   UNL     1      -3.404   0.949 -31.730  1.00  0.00    -0.318 OA
BRANCH  22  23
HETATM   23  C   UNL     1      -2.638   0.016 -30.953  1.00  0.00     0.174 C 
HETATM   24  C   UNL     1      -2.353  -1.214 -31.791  1.00  0.00     0.034 C 
ENDBRANCH  22  23
ENDBRANCH  20  22
ENDBRANCH   1  20
BRANCH   5  25
HETATM   25  C   UNL     1      -5.997  -0.528 -34.002  1.00  0.00    -0.024 A 
HETATM   26  C   UNL     1      -7.175  -1.268 -34.187  1.00  0.00     0.015 A 
HETATM   27  C   UNL     1      -7.115  -2.634 -34.467  1.00  0.00     0.037 A 
HETATM   28  C   UNL     1      -5.868  -3.264 -34.567  1.00  0.00     0.102 A 
HETATM   29  C   UNL     1      -4.685  -2.533 -34.387  1.00  0.00     0.037 A 
HETATM   30  C   UNL     1      -4.753  -1.165 -34.100  1.00  0.00     0.015 A 
BRANCH  28  31
HETATM   31  N   UNL     1      -5.800  -4.702 -34.855  1.00  0.00    -0.116 N 
HETATM   32  O   UNL     1      -6.656  -5.173 -35.616  1.00  0.00    -0.532 OA
HETATM   33  O   UNL     1      -4.892  -5.350 -34.319  1.00  0.00    -0.532 OA
ENDBRANCH  28  31
ENDBRANCH   5  25
TORSDOF 8
ENDMDL
MODEL 9
REMARK VINA RESULT:      -7.3      2.209      3.234
REMARK  8 active torsions:
REMARK  status: ('A' for Active; 'I' for Inactive)
REMARK    1  A    between atoms: C_2  and  O_3 
REMARK    2  A    between atoms: O_3  and  C_4 
REMARK    3  A    between atoms: C_4  and  C_5 
REMARK    4  A    between atoms: C_6  and  N_7 
REMARK       I    between atoms: N_7  and  C_8 
REMARK    5  A    between atoms: C_8  and  C_9 
REMARK    6  A    between atoms: C_9  and  N_10 
REMARK    7  A    between atoms: C_22  and  C_23 
REMARK    8  A    between atoms: C_26  and  N_27 
ROOT
HETATM    1  C   UNL     1      -4.877   2.897 -30.983  1.00  0.00     0.085 A 
HETATM    2  C   UNL     1      -5.399   3.925 -30.210  1.00  0.00     0.093 A 
HETATM    3  S   UNL     1      -7.076   3.797 -29.962  1.00  0.00    -0.082 SA
HETATM    4  C   UNL     1      -7.170   2.397 -30.921  1.00  0.00     0.065 A 
HETATM    5  C   UNL     1      -5.938   2.014 -31.423  1.00  0.00    -0.000 A 
ENDROOT
BRANCH   2   6
HETATM    6  N   UNL     1      -4.694   4.945 -29.577  1.00  0.00    -0.319 N 
HETATM    7  C   UNL     1      -4.710   6.246 -30.025  1.00  0.00     0.248 C 
HETATM    8  O   UNL     1      -5.155   6.632 -31.104  1.00  0.00    -0.271 OA
HETATM    9  H   UNL     1      -3.902   4.618 -29.016  1.00  0.00     0.169 HD
BRANCH   7  10
HETATM   10  C   UNL     1      -4.123   7.268 -29.058  1.00  0.00     0.337 C 
BRANCH  10  11
HETATM   11  N   UNL     1      -2.821   6.815 -28.328  1.00  0.00    -0.060 N 
HETATM   12  H   UNL     1      -2.923   5.788 -28.354  1.00  0.00     0.280 HD
HETATM   13  C   UNL     1      -2.754   7.156 -26.845  1.00  0.00     0.263 C 
HETATM   14  C   UNL     1      -2.068   8.504 -26.508  1.00  0.00     0.262 C 
HETATM   15  N   UNL     1      -0.745   8.695 -27.240  1.00  0.00    -0.072 N 
HETATM   16  H   UNL     1      -0.046   8.066 -26.819  1.00  0.00     0.279 HD
HETATM   17  C   UNL     1      -0.217  10.100 -27.000  1.00  0.00     0.269 C 
HETATM   18  C   UNL     1      -0.809   8.413 -28.736  1.00  0.00     0.262 C 
HETATM   19  C   UNL     1      -1.520   7.079 -29.076  1.00  0.00     0.263 C 
ENDBRANCH  10  11
ENDBRANCH   7  10
ENDBRANCH   2   6
BRANCH   1  20
HETATM   20  C   UNL     1      -3.447   2.850 -31.298  1.00  0.00     0.297 C 
HETATM   21  O   UNL     1      -2.786   1.834 -31.093  1.00  0.00    -0.259 OA
BRANCH  20  22
HETATM   22  O   UNL     1      -2.952   4.023 -31.764  1.00  0.00    -0.318 OA
BRANCH  22  23
HETATM   23  C   UNL     1      -2.601   4.087 -33.155  1.00  0.00     0.174 C 
HETATM   24  C   UNL     1      -3.634   4.916 -33.891  1.00  0.00     0.034 C 
ENDBRANCH  22  23
ENDBRANCH  20  22
ENDBRANCH   1  20
BRANCH   5  25
HETATM   25  C   UNL     1      -5.866   0.828 -32.267  1.00  0.00    -0.024 A 
HETATM   26  C   UNL     1      -6.365   0.876 -33.578  1.00  0.00     0.015 A 
HETATM   27  C   UNL     1      -6.341  -0.263 -34.386  1.00  0.00     0.037 A 
HETATM   28  C   UNL     1      -5.810  -1.456 -33.880  1.00  0.00     0.102 A 
HETATM   29  C   UNL     1      -5.306  -1.514 -32.572  1.00  0.00     0.037 A 
HETATM   30  C   UNL     1      -5.340  -0.371 -31.767  1.00  0.00     0.015 A 
BRANCH  28  31
HETATM   31  N   UNL     1      -5.789  -2.657 -34.723  1.00  0.00    -0.116 N 
HETATM   32  O   UNL     1      -6.869  -3.223 -34.940  1.00  0.00    -0.532 OA
HETATM   33  O   UNL     1      -4.693  -3.026 -35.166  1.00  0.00    -0.532 OA
ENDBRANCH  28  31
ENDBRANCH   5  25
TORSDOF 8
ENDMDL
MODEL 10
REMARK VINA RESULT:      -7.3      3.817      5.205
REMARK  8 active torsions:
REMARK  status: ('A' for Active; 'I' for Inactive)
REMARK    1  A    between atoms: C_2  and  O_3 
REMARK    2  A    between atoms: O_3  and  C_4 
REMARK    3  A    between atoms: C_4  and  C_5 
REMARK    4  A    between atoms: C_6  and  N_7 
REMARK       I    between atoms: N_7  and  C_8 
REMARK    5  A    between atoms: C_8  and  C_9 
REMARK    6  A    between atoms: C_9  and  N_10 
REMARK    7  A    between atoms: C_22  and  C_23 
REMARK    8  A    between atoms: C_26  and  N_27 
ROOT
HETATM    1  C   UNL     1      -5.845   1.742 -32.833  1.00  0.00     0.085 A 
HETATM    2  C   UNL     1      -5.184   2.838 -32.297  1.00  0.00     0.093 A 
HETATM    3  S   UNL     1      -3.525   2.566 -32.043  1.00  0.00    -0.082 SA
HETATM    4  C   UNL     1      -3.646   0.961 -32.588  1.00  0.00     0.065 A 
HETATM    5  C   UNL     1      -4.932   0.626 -32.974  1.00  0.00    -0.000 A 
ENDROOT
BRANCH   2   6
HETATM    6  N   UNL     1      -5.711   4.103 -32.050  1.00  0.00    -0.319 N 
HETATM    7  C   UNL     1      -5.838   5.058 -33.033  1.00  0.00     0.248 C 
HETATM    8  O   UNL     1      -5.342   5.008 -34.156  1.00  0.00    -0.271 OA
HETATM    9  H   UNL     1      -5.648   4.397 -31.071  1.00  0.00     0.169 HD
BRANCH   7  10
HETATM   10  C   UNL     1      -6.688   6.265 -32.652  1.00  0.00     0.337 C 
BRANCH  10  11
HETATM   11  N   UNL     1      -8.155   5.935 -32.237  1.00  0.00    -0.060 N 
HETATM   12  H   UNL     1      -8.176   4.911 -32.371  1.00  0.00     0.280 HD
HETATM   13  C   UNL     1      -9.232   6.466 -33.175  1.00  0.00     0.263 C 
HETATM   14  C   UNL     1      -9.801   7.859 -32.803  1.00  0.00     0.262 C 
HETATM   15  N   UNL     1     -10.161   7.978 -31.327  1.00  0.00    -0.072 N 
HETATM   16  H   UNL     1     -11.012   7.423 -31.154  1.00  0.00     0.279 HD
HETATM   17  C   UNL     1     -10.546   9.412 -31.001  1.00  0.00     0.269 C 
HETATM   18  C   UNL     1      -9.071   7.503 -30.375  1.00  0.00     0.262 C 
HETATM   19  C   UNL     1      -8.481   6.124 -30.761  1.00  0.00     0.263 C 
ENDBRANCH  10  11
ENDBRANCH   7  10
ENDBRANCH   2   6
BRANCH   1  20
HETATM   20  C   UNL     1      -7.283   1.800 -33.115  1.00  0.00     0.297 C 
HETATM   21  O   UNL     1      -7.704   2.303 -34.154  1.00  0.00    -0.259 OA
BRANCH  20  22
HETATM   22  O   UNL     1      -8.055   1.311 -32.114  1.00  0.00    -0.318 OA
BRANCH  22  23
HETATM   23  C   UNL     1      -9.476   1.297 -32.323  1.00  0.00     0.174 C 
HETATM   24  C   UNL     1      -9.897  -0.083 -32.786  1.00  0.00     0.034 C 
ENDBRANCH  22  23
ENDBRANCH  20  22
ENDBRANCH   1  20
BRANCH   5  25
HETATM   25  C   UNL     1      -5.186  -0.723 -33.462  1.00  0.00    -0.024 A 
HETATM   26  C   UNL     1      -4.170  -1.689 -33.397  1.00  0.00     0.015 A 
HETATM   27  C   UNL     1      -4.384  -2.975 -33.899  1.00  0.00     0.037 A 
HETATM   28  C   UNL     1      -5.624  -3.297 -34.464  1.00  0.00     0.102 A 
HETATM   29  C   UNL     1      -6.647  -2.340 -34.530  1.00  0.00     0.037 A 
HETATM   30  C   UNL     1      -6.423  -1.052 -34.033  1.00  0.00     0.015 A 
BRANCH  28  31
HETATM   31  N   UNL     1      -5.851  -4.646 -34.998  1.00  0.00    -0.116 N 
HETATM   32  O   UNL     1      -5.037  -5.527 -34.690  1.00  0.00    -0.532 OA
HETATM   33  O   UNL     1      -6.843  -4.815 -35.719  1.00  0.00    -0.532 OA
ENDBRANCH  28  31
ENDBRANCH   5  25
TORSDOF 8
ENDMDL
