MODEL 1
REMARK VINA RESULT:      -8.0      0.000      0.000
REMARK  4 active torsions:
REMARK  status: ('A' for Active; 'I' for Inactive)
REMARK    1  A    between atoms: C_5  and  C_6 
REMARK       I    between atoms: C_6  and  N_7 
REMARK    2  A    between atoms: N_7  and  C_8 
REMARK    3  A    between atoms: C_8  and  N_9 
REMARK    4  A    between atoms: N_9  and  C_10 
ROOT
HETATM    1  C   UNL     1      -4.209  -0.035 -32.713  1.00  0.00     0.257 C 
HETATM    2  N   UNL     1      -5.061   0.808 -32.003  1.00  0.00    -0.299 N 
HETATM    3  O   UNL     1      -2.987   0.035 -32.753  1.00  0.00    -0.267 OA
HETATM    4  H   UNL     1      -6.045   0.553 -31.994  1.00  0.00     0.171 HD
ENDROOT
BRANCH   2   5
HETATM    5  C   UNL     1      -4.805   1.918 -31.225  1.00  0.00     0.180 C 
HETATM    6  S   UNL     1      -5.900   2.801 -30.324  1.00  0.00    -0.040 SA
BRANCH   5   7
HETATM    7  N   UNL     1      -3.498   2.343 -31.189  1.00  0.00    -0.318 N 
HETATM    8  H   UNL     1      -2.903   1.772 -30.600  1.00  0.00     0.170 HD
BRANCH   7   9
HETATM    9  C   UNL     1      -2.899   3.422 -31.853  1.00  0.00     0.129 A 
HETATM   10  N   UNL     1      -1.810   4.017 -31.316  1.00  0.00    -0.243 NA
HETATM   11  C   UNL     1      -1.279   5.065 -31.990  1.00  0.00     0.125 A 
HETATM   12  C   UNL     1      -1.775   5.554 -33.191  1.00  0.00    -0.044 A 
HETATM   13  C   UNL     1      -1.164   6.738 -33.868  1.00  0.00     0.049 C 
HETATM   14  C   UNL     1      -2.901   4.924 -33.721  1.00  0.00     0.012 A 
HETATM   15  C   UNL     1      -3.469   3.843 -33.048  1.00  0.00     0.051 A 
ENDBRANCH   7   9
ENDBRANCH   5   7
ENDBRANCH   2   5
BRANCH   1  16
HETATM   16  C   UNL     1      -4.885  -1.151 -33.434  1.00  0.00     0.032 A 
HETATM   17  C   UNL     1      -6.221  -1.073 -33.848  1.00  0.00     0.017 A 
HETATM   18  C   UNL     1      -6.815  -2.160 -34.497  1.00  0.00     0.007 A 
HETATM   19  C   UNL     1      -6.086  -3.330 -34.740  1.00  0.00    -0.062 A 
HETATM   20  C   UNL     1      -6.714  -4.491 -35.455  1.00  0.00     0.048 C 
HETATM   21  C   UNL     1      -4.740  -3.387 -34.360  1.00  0.00     0.007 A 
HETATM   22  C   UNL     1      -4.142  -2.304 -33.713  1.00  0.00     0.017 A 
ENDBRANCH   1  16
TORSDOF 4
ENDMDL
MODEL 2
REMARK VINA RESULT:      -7.9      1.520      2.064
REMARK  4 active torsions:
REMARK  status: ('A' for Active; 'I' for Inactive)
REMARK    1  A    between atoms: C_5  and  C_6 
REMARK       I    between atoms: C_6  and  N_7 
REMARK    2  A    between atoms: N_7  and  C_8 
REMARK    3  A    between atoms: C_8  and  N_9 
REMARK    4  A    between atoms: N_9  and  C_10 
ROOT
HETATM    1  C   UNL     1      -5.002   0.262 -32.688  1.00  0.00     0.257 C 
HETATM    2  N   UNL     1      -6.051   1.171 -32.593  1.00  0.00    -0.299 N 
HETATM    3  O   UNL     1      -3.882   0.392 -32.209  1.00  0.00    -0.267 OA
HETATM    4  H   UNL     1      -6.949   0.868 -32.961  1.00  0.00     0.171 HD
ENDROOT
BRANCH   2   5
HETATM    5  C   UNL     1      -6.126   2.420 -32.009  1.00  0.00     0.180 C 
HETATM    6  S   UNL     1      -6.408   2.773 -30.400  1.00  0.00    -0.040 SA
BRANCH   5   7
HETATM    7  N   UNL     1      -5.945   3.492 -32.849  1.00  0.00    -0.318 N 
HETATM    8  H   UNL     1      -6.810   3.949 -33.113  1.00  0.00     0.170 HD
BRANCH   7   9
HETATM    9  C   UNL     1      -4.755   4.028 -33.358  1.00  0.00     0.129 A 
HETATM   10  N   UNL     1      -4.784   4.771 -34.487  1.00  0.00    -0.243 NA
HETATM   11  C   UNL     1      -3.604   5.252 -34.945  1.00  0.00     0.125 A 
HETATM   12  C   UNL     1      -2.380   5.039 -34.327  1.00  0.00    -0.044 A 
HETATM   13  C   UNL     1      -1.106   5.568 -34.903  1.00  0.00     0.049 C 
HETATM   14  C   UNL     1      -2.378   4.266 -33.165  1.00  0.00     0.012 A 
HETATM   15  C   UNL     1      -3.578   3.757 -32.672  1.00  0.00     0.051 A 
ENDBRANCH   7   9
ENDBRANCH   5   7
ENDBRANCH   2   5
BRANCH   1  16
HETATM   16  C   UNL     1      -5.330  -1.005 -33.402  1.00  0.00     0.032 A 
HETATM   17  C   UNL     1      -4.353  -1.952 -33.733  1.00  0.00     0.017 A 
HETATM   18  C   UNL     1      -4.710  -3.112 -34.428  1.00  0.00     0.007 A 
HETATM   19  C   UNL     1      -6.041  -3.340 -34.797  1.00  0.00    -0.062 A 
HETATM   20  C   UNL     1      -6.432  -4.593 -35.524  1.00  0.00     0.048 C 
HETATM   21  C   UNL     1      -7.021  -2.410 -34.428  1.00  0.00     0.007 A 
HETATM   22  C   UNL     1      -6.668  -1.251 -33.733  1.00  0.00     0.017 A 
ENDBRANCH   1  16
TORSDOF 4
ENDMDL
MODEL 3
REMARK VINA RESULT:      -7.9      1.727      2.223
REMARK  4 active torsions:
REMARK  status: ('A' for Active; 'I' for Inactive)
REMARK    1  A    between atoms: C_5  and  C_6 
REMARK       I    between atoms: C_6  and  N_7 
REMARK    2  A    between atoms: N_7  and  C_8 
REMARK    3  A    between atoms: C_8  and  N_9 
REMARK    4  A    between atoms: N_9  and  C_10 
ROOT
HETATM    1  C   UNL     1      -6.334   0.723 -33.857  1.00  0.00     0.257 C 
HETATM    2  N   UNL     1      -6.168   1.221 -32.568  1.00  0.00    -0.299 N 
HETATM    3  O   UNL     1      -6.680   1.362 -34.843  1.00  0.00    -0.267 OA
HETATM    4  H   UNL     1      -5.779   0.581 -31.881  1.00  0.00     0.171 HD
ENDROOT
BRANCH   2   5
HETATM    5  C   UNL     1      -6.370   2.482 -32.044  1.00  0.00     0.180 C 
HETATM    6  S   UNL     1      -6.905   2.871 -30.509  1.00  0.00    -0.040 SA
BRANCH   5   7
HETATM    7  N   UNL     1      -6.100   3.537 -32.883  1.00  0.00    -0.318 N 
HETATM    8  H   UNL     1      -6.927   4.042 -33.178  1.00  0.00     0.170 HD
BRANCH   7   9
HETATM    9  C   UNL     1      -4.864   3.996 -33.356  1.00  0.00     0.129 A 
HETATM   10  N   UNL     1      -3.727   3.636 -32.718  1.00  0.00    -0.243 NA
HETATM   11  C   UNL     1      -2.560   4.120 -33.208  1.00  0.00     0.125 A 
HETATM   12  C   UNL     1      -2.461   4.948 -34.317  1.00  0.00    -0.044 A 
HETATM   13  C   UNL     1      -1.145   5.479 -34.785  1.00  0.00     0.049 C 
HETATM   14  C   UNL     1      -3.649   5.307 -34.954  1.00  0.00     0.012 A 
HETATM   15  C   UNL     1      -4.865   4.824 -34.472  1.00  0.00     0.051 A 
ENDBRANCH   7   9
ENDBRANCH   5   7
ENDBRANCH   2   5
BRANCH   1  16
HETATM   16  C   UNL     1      -5.993  -0.718 -34.023  1.00  0.00     0.032 A 
HETATM   17  C   UNL     1      -4.723  -1.226 -33.722  1.00  0.00     0.017 A 
HETATM   18  C   UNL     1      -4.447  -2.582 -33.922  1.00  0.00     0.007 A 
HETATM   19  C   UNL     1      -5.432  -3.443 -34.422  1.00  0.00    -0.062 A 
HETATM   20  C   UNL     1      -5.146  -4.903 -34.618  1.00  0.00     0.048 C 
HETATM   21  C   UNL     1      -6.711  -2.939 -34.682  1.00  0.00     0.007 A 
HETATM   22  C   UNL     1      -6.991  -1.585 -34.483  1.00  0.00     0.017 A 
ENDBRANCH   1  16
TORSDOF 4
ENDMDL
MODEL 4
REMARK VINA RESULT:      -7.7      1.459      1.850
REMARK  4 active torsions:
REMARK  status: ('A' for Active; 'I' for Inactive)
REMARK    1  A    between atoms: C_5  and  C_6 
REMARK       I    between atoms: C_6  and  N_7 
REMARK    2  A    between atoms: N_7  and  C_8 
REMARK    3  A    between atoms: C_8  and  N_9 
REMARK    4  A    between atoms: N_9  and  C_10 
ROOT
HETATM    1  C   UNL     1      -4.826   0.530 -32.999  1.00  0.00     0.257 C 
HETATM    2  N   UNL     1      -5.659   1.594 -33.332  1.00  0.00    -0.299 N 
HETATM    3  O   UNL     1      -3.853   0.574 -32.256  1.00  0.00    -0.267 OA
HETATM    4  H   UNL     1      -6.483   1.369 -33.883  1.00  0.00     0.171 HD
ENDROOT
BRANCH   2   5
HETATM    5  C   UNL     1      -5.616   2.929 -32.983  1.00  0.00     0.180 C 
HETATM    6  S   UNL     1      -6.470   4.187 -33.677  1.00  0.00    -0.040 SA
BRANCH   5   7
HETATM    7  N   UNL     1      -4.776   3.257 -31.946  1.00  0.00    -0.318 N 
HETATM    8  H   UNL     1      -4.982   2.763 -31.086  1.00  0.00     0.170 HD
BRANCH   7   9
HETATM    9  C   UNL     1      -3.695   4.148 -31.931  1.00  0.00     0.129 A 
HETATM   10  N   UNL     1      -3.674   5.159 -31.034  1.00  0.00    -0.243 NA
HETATM   11  C   UNL     1      -2.613   6.001 -31.071  1.00  0.00     0.125 A 
HETATM   12  C   UNL     1      -1.554   5.884 -31.960  1.00  0.00    -0.044 A 
HETATM   13  C   UNL     1      -0.429   6.869 -31.974  1.00  0.00     0.049 C 
HETATM   14  C   UNL     1      -1.602   4.834 -32.877  1.00  0.00     0.012 A 
HETATM   15  C   UNL     1      -2.682   3.953 -32.862  1.00  0.00     0.051 A 
ENDBRANCH   7   9
ENDBRANCH   5   7
ENDBRANCH   2   5
BRANCH   1  16
HETATM   16  C   UNL     1      -5.222  -0.785 -33.579  1.00  0.00     0.032 A 
HETATM   17  C   UNL     1      -4.308  -1.832 -33.753  1.00  0.00     0.017 A 
HETATM   18  C   UNL     1      -4.727  -3.037 -34.327  1.00  0.00     0.007 A 
HETATM   19  C   UNL     1      -6.056  -3.209 -34.731  1.00  0.00    -0.062 A 
HETATM   20  C   UNL     1      -6.514  -4.507 -35.329  1.00  0.00     0.048 C 
HETATM   21  C   UNL     1      -6.974  -2.174 -34.517  1.00  0.00     0.007 A 
HETATM   22  C   UNL     1      -6.561  -0.970 -33.943  1.00  0.00     0.017 A 
ENDBRANCH   1  16
TORSDOF 4
ENDMDL
MODEL 5
REMARK VINA RESULT:      -7.6      4.360      6.824
REMARK  4 active torsions:
REMARK  status: ('A' for Active; 'I' for Inactive)
REMARK    1  A    between atoms: C_5  and  C_6 
REMARK       I    between atoms: C_6  and  N_7 
REMARK    2  A    between atoms: N_7  and  C_8 
REMARK    3  A    between atoms: C_8  and  N_9 
REMARK    4  A    between atoms: N_9  and  C_10 
ROOT
HETATM    1  C   UNL     1      -6.871   0.068 -34.435  1.00  0.00     0.257 C 
HETATM    2  N   UNL     1      -7.174   0.713 -33.238  1.00  0.00    -0.299 N 
HETATM    3  O   UNL     1      -7.190   0.436 -35.559  1.00  0.00    -0.267 OA
HETATM    4  H   UNL     1      -6.750   0.330 -32.398  1.00  0.00     0.171 HD
ENDROOT
BRANCH   2   5
HETATM    5  C   UNL     1      -7.908   1.852 -32.977  1.00  0.00     0.180 C 
HETATM    6  S   UNL     1      -7.832   2.819 -31.616  1.00  0.00    -0.040 SA
BRANCH   5   7
HETATM    7  N   UNL     1      -8.801   2.233 -33.950  1.00  0.00    -0.318 N 
HETATM    8  H   UNL     1      -8.393   2.821 -34.667  1.00  0.00     0.170 HD
BRANCH   7   9
HETATM    9  C   UNL     1     -10.158   1.909 -34.082  1.00  0.00     0.129 A 
HETATM   10  N   UNL     1     -10.965   2.699 -34.826  1.00  0.00    -0.243 NA
HETATM   11  C   UNL     1     -12.271   2.350 -34.908  1.00  0.00     0.125 A 
HETATM   12  C   UNL     1     -12.823   1.237 -34.289  1.00  0.00    -0.044 A 
HETATM   13  C   UNL     1     -14.282   0.927 -34.389  1.00  0.00     0.049 C 
HETATM   14  C   UNL     1     -11.969   0.442 -33.525  1.00  0.00     0.012 A 
HETATM   15  C   UNL     1     -10.621   0.778 -33.422  1.00  0.00     0.051 A 
ENDBRANCH   7   9
ENDBRANCH   5   7
ENDBRANCH   2   5
BRANCH   1  16
HETATM   16  C   UNL     1      -6.027  -1.153 -34.295  1.00  0.00     0.032 A 
HETATM   17  C   UNL     1      -6.343  -2.357 -34.935  1.00  0.00     0.017 A 
HETATM   18  C   UNL     1      -5.532  -3.482 -34.750  1.00  0.00     0.007 A 
HETATM   19  C   UNL     1      -4.402  -3.416 -33.927  1.00  0.00    -0.062 A 
HETATM   20  C   UNL     1      -3.518  -4.614 -33.741  1.00  0.00     0.048 C 
HETATM   21  C   UNL     1      -4.068  -2.199 -33.321  1.00  0.00     0.007 A 
HETATM   22  C   UNL     1      -4.874  -1.073 -33.506  1.00  0.00     0.017 A 
ENDBRANCH   1  16
TORSDOF 4
ENDMDL
MODEL 6
REMARK VINA RESULT:      -7.5      3.860      6.008
REMARK  4 active torsions:
REMARK  status: ('A' for Active; 'I' for Inactive)
REMARK    1  A    between atoms: C_5  and  C_6 
REMARK       I    between atoms: C_6  and  N_7 
REMARK    2  A    between atoms: N_7  and  C_8 
REMARK    3  A    between atoms: C_8  and  N_9 
REMARK    4  A    between atoms: N_9  and  C_10 
ROOT
HETATM    1  C   UNL     1      -5.911   0.621 -33.077  1.00  0.00     0.257 C 
HETATM    2  N   UNL     1      -6.486   1.568 -33.920  1.00  0.00    -0.299 N 
HETATM    3  O   UNL     1      -5.495   0.817 -31.941  1.00  0.00    -0.267 OA
HETATM    4  H   UNL     1      -6.871   1.221 -34.795  1.00  0.00     0.171 HD
ENDROOT
BRANCH   2   5
HETATM    5  C   UNL     1      -6.704   2.920 -33.757  1.00  0.00     0.180 C 
HETATM    6  S   UNL     1      -5.627   4.165 -34.045  1.00  0.00    -0.040 SA
BRANCH   5   7
HETATM    7  N   UNL     1      -7.952   3.282 -33.308  1.00  0.00    -0.318 N 
HETATM    8  H   UNL     1      -7.939   4.064 -32.664  1.00  0.00     0.170 HD
BRANCH   7   9
HETATM    9  C   UNL     1      -9.201   2.736 -33.629  1.00  0.00     0.129 A 
HETATM   10  N   UNL     1      -9.547   1.524 -33.138  1.00  0.00    -0.243 NA
HETATM   11  C   UNL     1     -10.760   1.035 -33.491  1.00  0.00     0.125 A 
HETATM   12  C   UNL     1     -11.662   1.698 -34.310  1.00  0.00    -0.044 A 
HETATM   13  C   UNL     1     -12.972   1.086 -34.693  1.00  0.00     0.049 C 
HETATM   14  C   UNL     1     -11.278   2.944 -34.806  1.00  0.00     0.012 A 
HETATM   15  C   UNL     1     -10.036   3.472 -34.460  1.00  0.00     0.051 A 
ENDBRANCH   7   9
ENDBRANCH   5   7
ENDBRANCH   2   5
BRANCH   1  16
HETATM   16  C   UNL     1      -5.866  -0.765 -33.624  1.00  0.00     0.032 A 
HETATM   17  C   UNL     1      -4.664  -1.462 -33.799  1.00  0.00     0.017 A 
HETATM   18  C   UNL     1      -4.676  -2.751 -34.342  1.00  0.00     0.007 A 
HETATM   19  C   UNL     1      -5.882  -3.356 -34.714  1.00  0.00    -0.062 A 
HETATM   20  C   UNL     1      -5.901  -4.746 -35.278  1.00  0.00     0.048 C 
HETATM   21  C   UNL     1      -7.084  -2.671 -34.499  1.00  0.00     0.007 A 
HETATM   22  C   UNL     1      -7.077  -1.384 -33.956  1.00  0.00     0.017 A 
ENDBRANCH   1  16
TORSDOF 4
ENDMDL
MODEL 7
REMARK VINA RESULT:      -7.1      2.882      4.641
REMARK  4 active torsions:
REMARK  status: ('A' for Active; 'I' for Inactive)
REMARK    1  A    between atoms: C_5  and  C_6 
REMARK       I    between atoms: C_6  and  N_7 
REMARK    2  A    between atoms: N_7  and  C_8 
REMARK    3  A    between atoms: C_8  and  N_9 
REMARK    4  A    between atoms: N_9  and  C_10 
ROOT
HETATM    1  C   UNL     1      -4.706  -0.122 -32.331  1.00  0.00     0.257 C 
HETATM    2  N   UNL     1      -5.071   1.147 -32.774  1.00  0.00    -0.299 N 
HETATM    3  O   UNL     1      -4.089  -0.384 -31.306  1.00  0.00    -0.267 OA
HETATM    4  H   UNL     1      -5.668   1.185 -33.596  1.00  0.00     0.171 HD
ENDROOT
BRANCH   2   5
HETATM    5  C   UNL     1      -4.828   2.400 -32.249  1.00  0.00     0.180 C 
HETATM    6  S   UNL     1      -3.343   3.123 -31.992  1.00  0.00    -0.040 SA
BRANCH   5   7
HETATM    7  N   UNL     1      -5.936   3.135 -31.900  1.00  0.00    -0.318 N 
HETATM    8  H   UNL     1      -5.722   3.940 -31.323  1.00  0.00     0.170 HD
BRANCH   7   9
HETATM    9  C   UNL     1      -7.278   2.930 -32.243  1.00  0.00     0.129 A 
HETATM   10  N   UNL     1      -7.610   2.685 -33.531  1.00  0.00    -0.243 NA
HETATM   11  C   UNL     1      -8.923   2.508 -33.811  1.00  0.00     0.125 A 
HETATM   12  C   UNL     1      -9.938   2.554 -32.865  1.00  0.00    -0.044 A 
HETATM   13  C   UNL     1     -11.374   2.387 -33.245  1.00  0.00     0.049 C 
HETATM   14  C   UNL     1      -9.568   2.812 -31.545  1.00  0.00     0.012 A 
HETATM   15  C   UNL     1      -8.224   2.999 -31.228  1.00  0.00     0.051 A 
ENDBRANCH   7   9
ENDBRANCH   5   7
ENDBRANCH   2   5
BRANCH   1  16
HETATM   16  C   UNL     1      -5.178  -1.247 -33.187  1.00  0.00     0.032 A 
HETATM   17  C   UNL     1      -6.496  -1.329 -33.655  1.00  0.00     0.017 A 
HETATM   18  C   UNL     1      -6.895  -2.420 -34.434  1.00  0.00     0.007 A 
HETATM   19  C   UNL     1      -5.987  -3.437 -34.753  1.00  0.00    -0.062 A 
HETATM   20  C   UNL     1      -6.406  -4.599 -35.605  1.00  0.00     0.048 C 
HETATM   21  C   UNL     1      -4.661  -3.330 -34.317  1.00  0.00     0.007 A 
HETATM   22  C   UNL     1      -4.258  -2.241 -33.540  1.00  0.00     0.017 A 
ENDBRANCH   1  16
TORSDOF 4
ENDMDL
MODEL 8
REMARK VINA RESULT:      -7.0     15.682     17.797
REMARK  4 active torsions:
REMARK  status: ('A' for Active; 'I' for Inactive)
REMARK    1  A    between atoms: C_5  and  C_6 
REMARK       I    between atoms: C_6  and  N_7 
REMARK    2  A    between atoms: N_7  and  C_8 
REMARK    3  A    between atoms: C_8  and  N_9 
REMARK    4  A    between atoms: N_9  and  C_10 
ROOT
HETATM    1  C   UNL     1      -4.540 -12.610 -38.812  1.00  0.00     0.257 C 
HETATM    2  N   UNL     1      -3.833 -13.463 -39.656  1.00  0.00    -0.299 N 
HETATM    3  O   UNL     1      -4.059 -11.847 -37.984  1.00  0.00    -0.267 OA
HETATM    4  H   UNL     1      -4.377 -13.960 -40.357  1.00  0.00     0.171 HD
ENDROOT
BRANCH   2   5
HETATM    5  C   UNL     1      -2.482 -13.716 -39.774  1.00  0.00     0.180 C 
HETATM    6  S   UNL     1      -1.318 -13.592 -38.580  1.00  0.00    -0.040 SA
BRANCH   5   7
HETATM    7  N   UNL     1      -2.046 -14.116 -41.014  1.00  0.00    -0.318 N 
HETATM    8  H   UNL     1      -1.048 -14.006 -41.148  1.00  0.00     0.170 HD
BRANCH   7   9
HETATM    9  C   UNL     1      -2.780 -14.654 -42.079  1.00  0.00     0.129 A 
HETATM   10  N   UNL     1      -3.840 -13.975 -42.572  1.00  0.00    -0.243 NA
HETATM   11  C   UNL     1      -4.525 -14.547 -43.591  1.00  0.00     0.125 A 
HETATM   12  C   UNL     1      -4.202 -15.771 -44.160  1.00  0.00    -0.044 A 
HETATM   13  C   UNL     1      -5.021 -16.366 -45.260  1.00  0.00     0.049 C 
HETATM   14  C   UNL     1      -3.107 -16.452 -43.630  1.00  0.00     0.012 A 
HETATM   15  C   UNL     1      -2.384 -15.888 -42.580  1.00  0.00     0.051 A 
ENDBRANCH   7   9
ENDBRANCH   5   7
ENDBRANCH   2   5
BRANCH   1  16
HETATM   16  C   UNL     1      -6.018 -12.616 -39.006  1.00  0.00     0.032 A 
HETATM   17  C   UNL     1      -6.907 -12.919 -37.967  1.00  0.00     0.017 A 
HETATM   18  C   UNL     1      -8.284 -12.936 -38.208  1.00  0.00     0.007 A 
HETATM   19  C   UNL     1      -8.787 -12.652 -39.484  1.00  0.00    -0.062 A 
HETATM   20  C   UNL     1     -10.265 -12.650 -39.742  1.00  0.00     0.048 C 
HETATM   21  C   UNL     1      -7.896 -12.311 -40.508  1.00  0.00     0.007 A 
HETATM   22  C   UNL     1      -6.521 -12.291 -40.271  1.00  0.00     0.017 A 
ENDBRANCH   1  16
TORSDOF 4
ENDMDL
MODEL 9
REMARK VINA RESULT:      -6.9      1.880      7.853
REMARK  4 active torsions:
REMARK  status: ('A' for Active; 'I' for Inactive)
REMARK    1  A    between atoms: C_5  and  C_6 
REMARK       I    between atoms: C_6  and  N_7 
REMARK    2  A    between atoms: N_7  and  C_8 
REMARK    3  A    between atoms: C_8  and  N_9 
REMARK    4  A    between atoms: N_9  and  C_10 
ROOT
HETATM    1  C   UNL     1      -4.741   3.489 -31.698  1.00  0.00     0.257 C 
HETATM    2  N   UNL     1      -4.519   2.162 -32.057  1.00  0.00    -0.299 N 
HETATM    3  O   UNL     1      -5.801   3.972 -31.321  1.00  0.00    -0.267 OA
HETATM    4  H   UNL     1      -3.557   1.900 -32.252  1.00  0.00     0.171 HD
ENDROOT
BRANCH   2   5
HETATM    5  C   UNL     1      -5.376   1.083 -32.131  1.00  0.00     0.180 C 
HETATM    6  S   UNL     1      -6.147   0.309 -30.866  1.00  0.00    -0.040 SA
BRANCH   5   7
HETATM    7  N   UNL     1      -5.623   0.591 -33.391  1.00  0.00    -0.318 N 
HETATM    8  H   UNL     1      -5.763   1.314 -34.087  1.00  0.00     0.170 HD
BRANCH   7   9
HETATM    9  C   UNL     1      -5.688  -0.739 -33.825  1.00  0.00     0.129 A 
HETATM   10  N   UNL     1      -4.555  -1.474 -33.900  1.00  0.00    -0.243 NA
HETATM   11  C   UNL     1      -4.672  -2.750 -34.339  1.00  0.00     0.125 A 
HETATM   12  C   UNL     1      -5.871  -3.345 -34.706  1.00  0.00    -0.044 A 
HETATM   13  C   UNL     1      -5.927  -4.748 -35.219  1.00  0.00     0.049 C 
HETATM   14  C   UNL     1      -7.023  -2.563 -34.623  1.00  0.00     0.012 A 
HETATM   15  C   UNL     1      -6.933  -1.246 -34.174  1.00  0.00     0.051 A 
ENDBRANCH   7   9
ENDBRANCH   5   7
ENDBRANCH   2   5
BRANCH   1  16
HETATM   16  C   UNL     1      -3.532   4.361 -31.736  1.00  0.00     0.032 A 
HETATM   17  C   UNL     1      -2.433   4.080 -32.557  1.00  0.00     0.017 A 
HETATM   18  C   UNL     1      -1.312   4.917 -32.535  1.00  0.00     0.007 A 
HETATM   19  C   UNL     1      -1.277   6.038 -31.696  1.00  0.00    -0.062 A 
HETATM   20  C   UNL     1      -0.085   6.949 -31.684  1.00  0.00     0.048 C 
HETATM   21  C   UNL     1      -2.394   6.336 -30.908  1.00  0.00     0.007 A 
HETATM   22  C   UNL     1      -3.516   5.504 -30.928  1.00  0.00     0.017 A 
ENDBRANCH   1  16
TORSDOF 4
ENDMDL
MODEL 10
REMARK VINA RESULT:      -6.9      2.890      4.076
REMARK  4 active torsions:
REMARK  status: ('A' for Active; 'I' for Inactive)
REMARK    1  A    between atoms: C_5  and  C_6 
REMARK       I    between atoms: C_6  and  N_7 
REMARK    2  A    between atoms: N_7  and  C_8 
REMARK    3  A    between atoms: C_8  and  N_9 
REMARK    4  A    between atoms: N_9  and  C_10 
ROOT
HETATM    1  C   UNL     1      -3.847   2.689 -31.854  1.00  0.00     0.257 C 
HETATM    2  N   UNL     1      -2.885   3.389 -32.577  1.00  0.00    -0.299 N 
HETATM    3  O   UNL     1      -4.373   3.047 -30.808  1.00  0.00    -0.267 OA
HETATM    4  H   UNL     1      -2.622   2.999 -33.479  1.00  0.00     0.171 HD
ENDROOT
BRANCH   2   5
HETATM    5  C   UNL     1      -2.251   4.589 -32.326  1.00  0.00     0.180 C 
HETATM    6  S   UNL     1      -1.365   5.514 -33.401  1.00  0.00    -0.040 SA
BRANCH   5   7
HETATM    7  N   UNL     1      -2.365   5.078 -31.047  1.00  0.00    -0.318 N 
HETATM    8  H   UNL     1      -3.218   4.795 -30.580  1.00  0.00     0.170 HD
BRANCH   7   9
HETATM    9  C   UNL     1      -1.472   5.879 -30.323  1.00  0.00     0.129 A 
HETATM   10  N   UNL     1      -1.847   7.120 -29.938  1.00  0.00    -0.243 NA
HETATM   11  C   UNL     1      -0.942   7.858 -29.253  1.00  0.00     0.125 A 
HETATM   12  C   UNL     1       0.332   7.420 -28.919  1.00  0.00    -0.044 A 
HETATM   13  C   UNL     1       1.299   8.299 -28.193  1.00  0.00     0.049 C 
HETATM   14  C   UNL     1       0.695   6.138 -29.332  1.00  0.00     0.012 A 
HETATM   15  C   UNL     1      -0.217   5.356 -30.038  1.00  0.00     0.051 A 
ENDBRANCH   7   9
ENDBRANCH   5   7
ENDBRANCH   2   5
BRANCH   1  16
HETATM   16  C   UNL     1      -4.294   1.410 -32.477  1.00  0.00     0.032 A 
HETATM   17  C   UNL     1      -3.474   0.276 -32.526  1.00  0.00     0.017 A 
HETATM   18  C   UNL     1      -3.932  -0.892 -33.146  1.00  0.00     0.007 A 
HETATM   19  C   UNL     1      -5.208  -0.939 -33.721  1.00  0.00    -0.062 A 
HETATM   20  C   UNL     1      -5.711  -2.195 -34.368  1.00  0.00     0.048 C 
HETATM   21  C   UNL     1      -6.038   0.185 -33.632  1.00  0.00     0.007 A 
HETATM   22  C   UNL     1      -5.585   1.351 -33.013  1.00  0.00     0.017 A 
ENDBRANCH   1  16
TORSDOF 4
ENDMDL
