MODEL 1
REMARK VINA RESULT:      -7.9      0.000      0.000
REMARK  6 active torsions:
REMARK  status: ('A' for Active; 'I' for Inactive)
REMARK    1  A    between atoms: O_2  and  C_3 
REMARK    2  A    between atoms: C_3  and  C_4 
REMARK    3  A    between atoms: C_4  and  N_5 
REMARK       I    between atoms: N_5  and  C_6 
REMARK    4  A    between atoms: C_6  and  C_7 
REMARK    5  A    between atoms: C_12  and  C_13 
REMARK    6  A    between atoms: C_20  and  C_21 
ROOT
HETATM    1  C   UNL     1      -5.245   3.763 -33.263  1.00  0.00     0.165 A 
HETATM    2  N   UNL     1      -6.437   3.363 -33.774  1.00  0.00    -0.163 NA
HETATM    3  N   UNL     1      -6.759   2.280 -33.047  1.00  0.00    -0.238 N 
HETATM    4  C   UNL     1      -5.781   1.896 -32.168  1.00  0.00     0.141 A 
HETATM    5  N   UNL     1      -5.877   0.732 -31.473  1.00  0.00    -0.365 N 
HETATM    6  C   UNL     1      -6.831  -0.294 -31.898  1.00  0.00     0.118 C 
HETATM    7  C   UNL     1      -8.150   0.407 -32.257  1.00  0.00     0.066 C 
HETATM    8  C   UNL     1      -7.944   1.488 -33.338  1.00  0.00     0.221 C 
HETATM    9  C   UNL     1      -4.820   2.873 -32.246  1.00  0.00     0.092 A 
HETATM   10 BR   UNL     1      -3.220   2.934 -31.273  1.00  0.00    -0.044 Br
HETATM   11  H   UNL     1      -5.055   0.376 -30.986  1.00  0.00     0.162 HD
ENDROOT
BRANCH   1  12
HETATM   12  C   UNL     1      -4.561   4.951 -33.804  1.00  0.00     0.273 C 
HETATM   13  N   UNL     1      -3.286   4.681 -34.251  1.00  0.00    -0.353 N 
HETATM   14  H   UNL     1      -3.036   3.695 -34.304  1.00  0.00     0.162 HD
HETATM   15  O   UNL     1      -5.062   6.069 -33.847  1.00  0.00    -0.266 OA
BRANCH  13  16
HETATM   16  C   UNL     1      -2.474   5.644 -34.961  1.00  0.00     0.149 C 
BRANCH  16  17
HETATM   17  C   UNL     1      -1.354   6.186 -34.075  1.00  0.00     0.186 C 
BRANCH  17  18
HETATM   18  O   UNL     1      -1.518   7.601 -33.924  1.00  0.00    -0.394 OA
HETATM   19  C   UNL     1      -1.947   7.939 -32.612  1.00  0.00     0.201 C 
ENDBRANCH  17  18
ENDBRANCH  16  17
ENDBRANCH  13  16
ENDBRANCH   1  12
BRANCH   8  20
HETATM   20  C   UNL     1      -9.184   2.351 -33.430  1.00  0.00     0.409 C 
HETATM   21  F   UNL     1      -9.199   3.331 -32.498  1.00  0.00    -0.169 F 
HETATM   22  F   UNL     1      -9.356   2.917 -34.642  1.00  0.00    -0.169 F 
HETATM   23  F   UNL     1     -10.288   1.588 -33.208  1.00  0.00    -0.169 F 
ENDBRANCH   8  20
BRANCH   6  24
HETATM   24  C   UNL     1      -6.305  -1.196 -33.010  1.00  0.00    -0.035 A 
HETATM   25  C   UNL     1      -7.138  -1.826 -33.950  1.00  0.00     0.009 A 
HETATM   26  C   UNL     1      -6.609  -2.657 -34.942  1.00  0.00     0.001 A 
HETATM   27  C   UNL     1      -5.236  -2.867 -35.020  1.00  0.00     0.000 A 
HETATM   28  C   UNL     1      -4.390  -2.240 -34.112  1.00  0.00     0.001 A 
HETATM   29  C   UNL     1      -4.918  -1.408 -33.121  1.00  0.00     0.009 A 
ENDBRANCH   6  24
TORSDOF 6
ENDMDL
MODEL 2
REMARK VINA RESULT:      -7.6      4.099      7.147
REMARK  6 active torsions:
REMARK  status: ('A' for Active; 'I' for Inactive)
REMARK    1  A    between atoms: O_2  and  C_3 
REMARK    2  A    between atoms: C_3  and  C_4 
REMARK    3  A    between atoms: C_4  and  N_5 
REMARK       I    between atoms: N_5  and  C_6 
REMARK    4  A    between atoms: C_6  and  C_7 
REMARK    5  A    between atoms: C_12  and  C_13 
REMARK    6  A    between atoms: C_20  and  C_21 
ROOT
HETATM    1  C   UNL     1      -8.037   1.067 -32.400  1.00  0.00     0.165 A 
HETATM    2  N   UNL     1      -6.978   0.438 -32.969  1.00  0.00    -0.163 NA
HETATM    3  N   UNL     1      -5.908   0.996 -32.377  1.00  0.00    -0.238 N 
HETATM    4  C   UNL     1      -6.221   2.031 -31.537  1.00  0.00     0.141 A 
HETATM    5  N   UNL     1      -5.251   2.806 -30.983  1.00  0.00    -0.365 N 
HETATM    6  C   UNL     1      -3.896   2.785 -31.537  1.00  0.00     0.118 C 
HETATM    7  C   UNL     1      -3.529   1.321 -31.830  1.00  0.00     0.066 C 
HETATM    8  C   UNL     1      -4.551   0.656 -32.774  1.00  0.00     0.221 C 
HETATM    9  C   UNL     1      -7.592   2.056 -31.487  1.00  0.00     0.092 A 
HETATM   10 BR   UNL     1      -8.644   3.246 -30.494  1.00  0.00    -0.044 Br
HETATM   11  H   UNL     1      -5.513   3.681 -30.530  1.00  0.00     0.162 HD
ENDROOT
BRANCH   1  12
HETATM   12  C   UNL     1      -9.414   0.714 -32.789  1.00  0.00     0.273 C 
HETATM   13  N   UNL     1     -10.016   1.676 -33.570  1.00  0.00    -0.353 N 
HETATM   14  H   UNL     1      -9.404   2.416 -33.910  1.00  0.00     0.162 HD
HETATM   15  O   UNL     1      -9.977  -0.322 -32.451  1.00  0.00    -0.266 OA
BRANCH  13  16
HETATM   16  C   UNL     1     -11.304   1.493 -34.202  1.00  0.00     0.149 C 
BRANCH  16  17
HETATM   17  C   UNL     1     -12.408   2.215 -33.431  1.00  0.00     0.186 C 
BRANCH  17  18
HETATM   18  O   UNL     1     -13.587   1.403 -33.430  1.00  0.00    -0.394 OA
HETATM   19  C   UNL     1     -13.287   0.045 -33.724  1.00  0.00     0.201 C 
ENDBRANCH  17  18
ENDBRANCH  16  17
ENDBRANCH  13  16
ENDBRANCH   1  12
BRANCH   8  20
HETATM   20  C   UNL     1      -4.329  -0.842 -32.781  1.00  0.00     0.409 C 
HETATM   21  F   UNL     1      -4.976  -1.462 -31.769  1.00  0.00    -0.169 F 
HETATM   22  F   UNL     1      -4.689  -1.433 -33.939  1.00  0.00    -0.169 F 
HETATM   23  F   UNL     1      -3.005  -1.108 -32.616  1.00  0.00    -0.169 F 
ENDBRANCH   8  20
BRANCH   6  24
HETATM   24  C   UNL     1      -3.712   3.704 -32.740  1.00  0.00    -0.035 A 
HETATM   25  C   UNL     1      -4.785   4.238 -33.474  1.00  0.00     0.009 A 
HETATM   26  C   UNL     1      -4.565   5.064 -34.580  1.00  0.00     0.001 A 
HETATM   27  C   UNL     1      -3.267   5.382 -34.967  1.00  0.00     0.000 A 
HETATM   28  C   UNL     1      -2.189   4.882 -34.246  1.00  0.00     0.001 A 
HETATM   29  C   UNL     1      -2.409   4.056 -33.139  1.00  0.00     0.009 A 
ENDBRANCH   6  24
TORSDOF 6
ENDMDL
MODEL 3
REMARK VINA RESULT:      -7.4      3.988      7.293
REMARK  6 active torsions:
REMARK  status: ('A' for Active; 'I' for Inactive)
REMARK    1  A    between atoms: O_2  and  C_3 
REMARK    2  A    between atoms: C_3  and  C_4 
REMARK    3  A    between atoms: C_4  and  N_5 
REMARK       I    between atoms: N_5  and  C_6 
REMARK    4  A    between atoms: C_6  and  C_7 
REMARK    5  A    between atoms: C_12  and  C_13 
REMARK    6  A    between atoms: C_20  and  C_21 
ROOT
HETATM    1  C   UNL     1      -9.267   2.024 -33.343  1.00  0.00     0.165 A 
HETATM    2  N   UNL     1      -8.358   1.317 -34.060  1.00  0.00    -0.163 NA
HETATM    3  N   UNL     1      -7.256   1.322 -33.290  1.00  0.00    -0.238 N 
HETATM    4  C   UNL     1      -7.376   2.092 -32.164  1.00  0.00     0.141 A 
HETATM    5  N   UNL     1      -6.306   2.335 -31.361  1.00  0.00    -0.365 N 
HETATM    6  C   UNL     1      -4.951   2.085 -31.856  1.00  0.00     0.118 C 
HETATM    7  C   UNL     1      -4.962   0.743 -32.606  1.00  0.00     0.066 C 
HETATM    8  C   UNL     1      -6.005   0.735 -33.742  1.00  0.00     0.221 C 
HETATM    9  C   UNL     1      -8.684   2.506 -32.144  1.00  0.00     0.092 A 
HETATM   10 BR   UNL     1      -9.486   3.587 -30.841  1.00  0.00    -0.044 Br
HETATM   11  H   UNL     1      -6.373   3.065 -30.652  1.00  0.00     0.162 HD
ENDROOT
BRANCH   1  12
HETATM   12  C   UNL     1     -10.631   2.232 -33.862  1.00  0.00     0.273 C 
HETATM   13  N   UNL     1     -11.569   1.434 -33.245  1.00  0.00    -0.353 N 
HETATM   14  H   UNL     1     -11.247   0.931 -32.420  1.00  0.00     0.162 HD
HETATM   15  O   UNL     1     -10.909   3.024 -34.756  1.00  0.00    -0.266 OA
BRANCH  13  16
HETATM   16  C   UNL     1     -12.992   1.563 -33.471  1.00  0.00     0.149 C 
BRANCH  16  17
HETATM   17  C   UNL     1     -13.574   0.289 -34.083  1.00  0.00     0.186 C 
BRANCH  17  18
HETATM   18  O   UNL     1     -14.984   0.459 -34.266  1.00  0.00    -0.394 OA
HETATM   19  C   UNL     1     -15.507   1.456 -33.399  1.00  0.00     0.201 C 
ENDBRANCH  17  18
ENDBRANCH  16  17
ENDBRANCH  13  16
ENDBRANCH   1  12
BRANCH   8  20
HETATM   20  C   UNL     1      -6.199  -0.683 -34.237  1.00  0.00     0.409 C 
HETATM   21  F   UNL     1      -7.046  -1.389 -33.454  1.00  0.00    -0.169 F 
HETATM   22  F   UNL     1      -6.642  -0.752 -35.509  1.00  0.00    -0.169 F 
HETATM   23  F   UNL     1      -5.009  -1.341 -34.213  1.00  0.00    -0.169 F 
ENDBRANCH   8  20
BRANCH   6  24
HETATM   24  C   UNL     1      -4.380   3.232 -32.683  1.00  0.00    -0.035 A 
HETATM   25  C   UNL     1      -5.179   4.124 -33.420  1.00  0.00     0.009 A 
HETATM   26  C   UNL     1      -4.607   5.151 -34.177  1.00  0.00     0.001 A 
HETATM   27  C   UNL     1      -3.226   5.313 -34.204  1.00  0.00     0.000 A 
HETATM   28  C   UNL     1      -2.415   4.456 -33.468  1.00  0.00     0.001 A 
HETATM   29  C   UNL     1      -2.987   3.429 -32.711  1.00  0.00     0.009 A 
ENDBRANCH   6  24
TORSDOF 6
ENDMDL
MODEL 4
REMARK VINA RESULT:      -7.0      3.616      6.410
REMARK  6 active torsions:
REMARK  status: ('A' for Active; 'I' for Inactive)
REMARK    1  A    between atoms: O_2  and  C_3 
REMARK    2  A    between atoms: C_3  and  C_4 
REMARK    3  A    between atoms: C_4  and  N_5 
REMARK       I    between atoms: N_5  and  C_6 
REMARK    4  A    between atoms: C_6  and  C_7 
REMARK    5  A    between atoms: C_12  and  C_13 
REMARK    6  A    between atoms: C_20  and  C_21 
ROOT
HETATM    1  C   UNL     1      -9.186   1.477 -33.161  1.00  0.00     0.165 A 
HETATM    2  N   UNL     1      -8.235   0.838 -33.889  1.00  0.00    -0.163 NA
HETATM    3  N   UNL     1      -7.115   0.975 -33.159  1.00  0.00    -0.238 N 
HETATM    4  C   UNL     1      -7.273   1.766 -32.053  1.00  0.00     0.141 A 
HETATM    5  N   UNL     1      -6.207   2.138 -31.296  1.00  0.00    -0.365 N 
HETATM    6  C   UNL     1      -4.850   2.004 -31.831  1.00  0.00     0.118 C 
HETATM    7  C   UNL     1      -4.755   0.644 -32.540  1.00  0.00     0.066 C 
HETATM    8  C   UNL     1      -5.828   0.497 -33.638  1.00  0.00     0.221 C 
HETATM    9  C   UNL     1      -8.614   2.052 -31.999  1.00  0.00     0.092 A 
HETATM   10 BR   UNL     1      -9.475   3.093 -30.701  1.00  0.00    -0.044 Br
HETATM   11  H   UNL     1      -6.322   2.881 -30.607  1.00  0.00     0.162 HD
ENDROOT
BRANCH   1  12
HETATM   12  C   UNL     1     -10.579   1.535 -33.638  1.00  0.00     0.273 C 
HETATM   13  N   UNL     1     -10.873   2.707 -34.299  1.00  0.00    -0.353 N 
HETATM   14  H   UNL     1     -10.076   3.304 -34.516  1.00  0.00     0.162 HD
HETATM   15  O   UNL     1     -11.401   0.642 -33.461  1.00  0.00    -0.266 OA
BRANCH  13  16
HETATM   16  C   UNL     1     -12.123   2.936 -34.990  1.00  0.00     0.149 C 
BRANCH  16  17
HETATM   17  C   UNL     1     -12.198   4.358 -35.544  1.00  0.00     0.186 C 
BRANCH  17  18
HETATM   18  O   UNL     1     -11.543   5.251 -34.636  1.00  0.00    -0.394 OA
HETATM   19  C   UNL     1     -10.734   6.194 -35.323  1.00  0.00     0.201 C 
ENDBRANCH  17  18
ENDBRANCH  16  17
ENDBRANCH  13  16
ENDBRANCH   1  12
BRANCH   8  20
HETATM   20  C   UNL     1      -5.899  -0.948 -34.083  1.00  0.00     0.409 C 
HETATM   21  F   UNL     1      -4.679  -1.528 -34.144  1.00  0.00    -0.169 F 
HETATM   22  F   UNL     1      -6.692  -1.712 -33.304  1.00  0.00    -0.169 F 
HETATM   23  F   UNL     1      -6.422  -1.013 -35.337  1.00  0.00    -0.169 F 
ENDBRANCH   8  20
BRANCH   6  24
HETATM   24  C   UNL     1      -4.422   3.174 -32.712  1.00  0.00    -0.035 A 
HETATM   25  C   UNL     1      -5.328   3.965 -33.439  1.00  0.00     0.009 A 
HETATM   26  C   UNL     1      -4.884   5.017 -34.245  1.00  0.00     0.001 A 
HETATM   27  C   UNL     1      -3.526   5.305 -34.333  1.00  0.00     0.000 A 
HETATM   28  C   UNL     1      -2.611   4.549 -33.609  1.00  0.00     0.001 A 
HETATM   29  C   UNL     1      -3.055   3.498 -32.802  1.00  0.00     0.009 A 
ENDBRANCH   6  24
TORSDOF 6
ENDMDL
MODEL 5
REMARK VINA RESULT:      -6.9      1.663      2.189
REMARK  6 active torsions:
REMARK  status: ('A' for Active; 'I' for Inactive)
REMARK    1  A    between atoms: O_2  and  C_3 
REMARK    2  A    between atoms: C_3  and  C_4 
REMARK    3  A    between atoms: C_4  and  N_5 
REMARK       I    between atoms: N_5  and  C_6 
REMARK    4  A    between atoms: C_6  and  C_7 
REMARK    5  A    between atoms: C_12  and  C_13 
REMARK    6  A    between atoms: C_20  and  C_21 
ROOT
HETATM    1  C   UNL     1      -6.576   4.701 -32.254  1.00  0.00     0.165 A 
HETATM    2  N   UNL     1      -7.420   4.283 -33.231  1.00  0.00    -0.163 NA
HETATM    3  N   UNL     1      -7.952   3.149 -32.742  1.00  0.00    -0.238 N 
HETATM    4  C   UNL     1      -7.410   2.757 -31.547  1.00  0.00     0.141 A 
HETATM    5  N   UNL     1      -7.719   1.554 -30.995  1.00  0.00    -0.365 N 
HETATM    6  C   UNL     1      -8.345   0.515 -31.815  1.00  0.00     0.118 C 
HETATM    7  C   UNL     1      -9.432   1.182 -32.672  1.00  0.00     0.066 C 
HETATM    8  C   UNL     1      -8.858   2.328 -33.530  1.00  0.00     0.221 C 
HETATM    9  C   UNL     1      -6.564   3.774 -31.182  1.00  0.00     0.092 A 
HETATM   10 BR   UNL     1      -5.523   3.846 -29.626  1.00  0.00    -0.044 Br
HETATM   11  H   UNL     1      -7.155   1.205 -30.220  1.00  0.00     0.162 HD
ENDROOT
BRANCH   1  12
HETATM   12  C   UNL     1      -5.800   5.943 -32.418  1.00  0.00     0.273 C 
HETATM   13  N   UNL     1      -4.445   5.721 -32.527  1.00  0.00    -0.353 N 
HETATM   14  H   UNL     1      -4.165   4.748 -32.642  1.00  0.00     0.162 HD
HETATM   15  O   UNL     1      -6.299   7.063 -32.446  1.00  0.00    -0.266 OA
BRANCH  13  16
HETATM   16  C   UNL     1      -3.494   6.762 -32.848  1.00  0.00     0.149 C 
BRANCH  16  17
HETATM   17  C   UNL     1      -2.057   6.284 -32.640  1.00  0.00     0.186 C 
BRANCH  17  18
HETATM   18  O   UNL     1      -1.849   5.083 -33.392  1.00  0.00    -0.394 OA
HETATM   19  C   UNL     1      -1.432   5.365 -34.721  1.00  0.00     0.201 C 
ENDBRANCH  17  18
ENDBRANCH  16  17
ENDBRANCH  13  16
ENDBRANCH   1  12
BRANCH   8  20
HETATM   20  C   UNL     1      -9.995   3.145 -34.106  1.00  0.00     0.409 C 
HETATM   21  F   UNL     1      -9.577   4.008 -35.059  1.00  0.00    -0.169 F 
HETATM   22  F   UNL     1     -10.989   2.394 -34.621  1.00  0.00    -0.169 F 
HETATM   23  F   UNL     1     -10.558   3.898 -33.123  1.00  0.00    -0.169 F 
ENDBRANCH   8  20
BRANCH   6  24
HETATM   24  C   UNL     1      -7.350  -0.303 -32.632  1.00  0.00    -0.035 A 
HETATM   25  C   UNL     1      -6.013  -0.502 -32.245  1.00  0.00     0.009 A 
HETATM   26  C   UNL     1      -5.135  -1.247 -33.037  1.00  0.00     0.001 A 
HETATM   27  C   UNL     1      -5.578  -1.816 -34.227  1.00  0.00     0.000 A 
HETATM   28  C   UNL     1      -6.900  -1.648 -34.622  1.00  0.00     0.001 A 
HETATM   29  C   UNL     1      -7.779  -0.904 -33.830  1.00  0.00     0.009 A 
ENDBRANCH   6  24
TORSDOF 6
ENDMDL
MODEL 6
REMARK VINA RESULT:      -6.8     16.431     17.804
REMARK  6 active torsions:
REMARK  status: ('A' for Active; 'I' for Inactive)
REMARK    1  A    between atoms: O_2  and  C_3 
REMARK    2  A    between atoms: C_3  and  C_4 
REMARK    3  A    between atoms: C_4  and  N_5 
REMARK       I    between atoms: N_5  and  C_6 
REMARK    4  A    between atoms: C_6  and  C_7 
REMARK    5  A    between atoms: C_12  and  C_13 
REMARK    6  A    between atoms: C_20  and  C_21 
ROOT
HETATM    1  C   UNL     1      -3.597 -14.001 -37.517  1.00  0.00     0.165 A 
HETATM    2  N   UNL     1      -4.109 -13.742 -38.747  1.00  0.00    -0.163 NA
HETATM    3  N   UNL     1      -5.386 -13.398 -38.506  1.00  0.00    -0.238 N 
HETATM    4  C   UNL     1      -5.753 -13.531 -37.193  1.00  0.00     0.141 A 
HETATM    5  N   UNL     1      -7.046 -13.379 -36.805  1.00  0.00    -0.365 N 
HETATM    6  C   UNL     1      -8.117 -13.423 -37.803  1.00  0.00     0.118 C 
HETATM    7  C   UNL     1      -7.660 -12.605 -39.022  1.00  0.00     0.066 C 
HETATM    8  C   UNL     1      -6.321 -13.123 -39.585  1.00  0.00     0.221 C 
HETATM    9  C   UNL     1      -4.600 -13.859 -36.526  1.00  0.00     0.092 A 
HETATM   10 BR   UNL     1      -4.433 -14.167 -34.685  1.00  0.00    -0.044 Br
HETATM   11  H   UNL     1      -7.323 -13.678 -35.870  1.00  0.00     0.162 HD
ENDROOT
BRANCH   1  12
HETATM   12  C   UNL     1      -2.189 -14.407 -37.364  1.00  0.00     0.273 C 
HETATM   13  N   UNL     1      -1.764 -15.261 -38.358  1.00  0.00    -0.353 N 
HETATM   14  H   UNL     1      -2.402 -15.377 -39.144  1.00  0.00     0.162 HD
HETATM   15  O   UNL     1      -1.465 -14.036 -36.447  1.00  0.00    -0.266 OA
BRANCH  13  16
HETATM   16  C   UNL     1      -0.387 -15.675 -38.513  1.00  0.00     0.149 C 
BRANCH  16  17
HETATM   17  C   UNL     1       0.090 -15.488 -39.952  1.00  0.00     0.186 C 
BRANCH  17  18
HETATM   18  O   UNL     1       1.346 -14.800 -39.945  1.00  0.00    -0.394 OA
HETATM   19  C   UNL     1       1.881 -14.704 -38.632  1.00  0.00     0.201 C 
ENDBRANCH  17  18
ENDBRANCH  16  17
ENDBRANCH  13  16
ENDBRANCH   1  12
BRANCH   8  20
HETATM   20  C   UNL     1      -5.762 -12.114 -40.565  1.00  0.00     0.409 C 
HETATM   21  F   UNL     1      -6.734 -11.421 -41.200  1.00  0.00    -0.169 F 
HETATM   22  F   UNL     1      -4.912 -11.231 -40.001  1.00  0.00    -0.169 F 
HETATM   23  F   UNL     1      -5.054 -12.759 -41.531  1.00  0.00    -0.169 F 
ENDBRANCH   8  20
BRANCH   6  24
HETATM   24  C   UNL     1      -8.564 -14.837 -38.160  1.00  0.00    -0.035 A 
HETATM   25  C   UNL     1      -8.138 -15.980 -37.460  1.00  0.00     0.009 A 
HETATM   26  C   UNL     1      -8.564 -17.257 -37.836  1.00  0.00     0.001 A 
HETATM   27  C   UNL     1      -9.431 -17.417 -38.912  1.00  0.00     0.000 A 
HETATM   28  C   UNL     1      -9.880 -16.301 -39.608  1.00  0.00     0.001 A 
HETATM   29  C   UNL     1      -9.456 -15.023 -39.232  1.00  0.00     0.009 A 
ENDBRANCH   6  24
TORSDOF 6
ENDMDL
MODEL 7
REMARK VINA RESULT:      -6.7     16.457     17.998
REMARK  6 active torsions:
REMARK  status: ('A' for Active; 'I' for Inactive)
REMARK    1  A    between atoms: O_2  and  C_3 
REMARK    2  A    between atoms: C_3  and  C_4 
REMARK    3  A    between atoms: C_4  and  N_5 
REMARK       I    between atoms: N_5  and  C_6 
REMARK    4  A    between atoms: C_6  and  C_7 
REMARK    5  A    between atoms: C_12  and  C_13 
REMARK    6  A    between atoms: C_20  and  C_21 
ROOT
HETATM    1  C   UNL     1      -3.052 -14.016 -39.199  1.00  0.00     0.165 A 
HETATM    2  N   UNL     1      -4.128 -13.784 -39.992  1.00  0.00    -0.163 NA
HETATM    3  N   UNL     1      -5.104 -13.449 -39.131  1.00  0.00    -0.238 N 
HETATM    4  C   UNL     1      -4.740 -13.562 -37.815  1.00  0.00     0.141 A 
HETATM    5  N   UNL     1      -5.652 -13.416 -36.818  1.00  0.00    -0.365 N 
HETATM    6  C   UNL     1      -7.083 -13.489 -37.122  1.00  0.00     0.118 C 
HETATM    7  C   UNL     1      -7.333 -12.688 -38.410  1.00  0.00     0.066 C 
HETATM    8  C   UNL     1      -6.466 -13.203 -39.577  1.00  0.00     0.221 C 
HETATM    9  C   UNL     1      -3.403 -13.867 -37.834  1.00  0.00     0.092 A 
HETATM   10 BR   UNL     1      -2.307 -14.141 -36.339  1.00  0.00    -0.044 Br
HETATM   11  H   UNL     1      -5.402 -13.701 -35.871  1.00  0.00     0.162 HD
ENDROOT
BRANCH   1  12
HETATM   12  C   UNL     1      -1.759 -14.406 -39.789  1.00  0.00     0.273 C 
HETATM   13  N   UNL     1      -1.486 -15.749 -39.650  1.00  0.00    -0.353 N 
HETATM   14  H   UNL     1      -2.257 -16.324 -39.313  1.00  0.00     0.162 HD
HETATM   15  O   UNL     1      -0.994 -13.622 -40.340  1.00  0.00    -0.266 OA
BRANCH  13  16
HETATM   16  C   UNL     1      -0.357 -16.398 -40.278  1.00  0.00     0.149 C 
BRANCH  16  17
HETATM   17  C   UNL     1       0.798 -16.576 -39.293  1.00  0.00     0.186 C 
BRANCH  17  18
HETATM   18  O   UNL     1       1.847 -15.662 -39.630  1.00  0.00    -0.394 OA
HETATM   19  C   UNL     1       1.985 -14.642 -38.650  1.00  0.00     0.201 C 
ENDBRANCH  17  18
ENDBRANCH  16  17
ENDBRANCH  13  16
ENDBRANCH   1  12
BRANCH   8  20
HETATM   20  C   UNL     1      -6.510 -12.205 -40.715  1.00  0.00     0.409 C 
HETATM   21  F   UNL     1      -7.740 -11.671 -40.884  1.00  0.00    -0.169 F 
HETATM   22  F   UNL     1      -5.625 -11.197 -40.579  1.00  0.00    -0.169 F 
HETATM   23  F   UNL     1      -6.196 -12.830 -41.882  1.00  0.00    -0.169 F 
ENDBRANCH   8  20
BRANCH   6  24
HETATM   24  C   UNL     1      -7.625 -14.913 -37.183  1.00  0.00    -0.035 A 
HETATM   25  C   UNL     1      -8.489 -15.367 -38.195  1.00  0.00     0.009 A 
HETATM   26  C   UNL     1      -8.972 -16.678 -38.198  1.00  0.00     0.001 A 
HETATM   27  C   UNL     1      -8.593 -17.566 -37.196  1.00  0.00     0.000 A 
HETATM   28  C   UNL     1      -7.724 -17.146 -36.195  1.00  0.00     0.001 A 
HETATM   29  C   UNL     1      -7.240 -15.835 -36.191  1.00  0.00     0.009 A 
ENDBRANCH   6  24
TORSDOF 6
ENDMDL
MODEL 8
REMARK VINA RESULT:      -6.7      3.939      6.300
REMARK  6 active torsions:
REMARK  status: ('A' for Active; 'I' for Inactive)
REMARK    1  A    between atoms: O_2  and  C_3 
REMARK    2  A    between atoms: C_3  and  C_4 
REMARK    3  A    between atoms: C_4  and  N_5 
REMARK       I    between atoms: N_5  and  C_6 
REMARK    4  A    between atoms: C_6  and  C_7 
REMARK    5  A    between atoms: C_12  and  C_13 
REMARK    6  A    between atoms: C_20  and  C_21 
ROOT
HETATM    1  C   UNL     1      -9.304   2.388 -33.117  1.00  0.00     0.165 A 
HETATM    2  N   UNL     1      -8.303   1.642 -33.649  1.00  0.00    -0.163 NA
HETATM    3  N   UNL     1      -7.528   1.334 -32.596  1.00  0.00    -0.238 N 
HETATM    4  C   UNL     1      -7.919   1.936 -31.429  1.00  0.00     0.141 A 
HETATM    5  N   UNL     1      -7.155   1.859 -30.308  1.00  0.00    -0.365 N 
HETATM    6  C   UNL     1      -5.754   1.445 -30.406  1.00  0.00     0.118 C 
HETATM    7  C   UNL     1      -5.681   0.254 -31.375  1.00  0.00     0.066 C 
HETATM    8  C   UNL     1      -6.280   0.604 -32.753  1.00  0.00     0.221 C 
HETATM    9  C   UNL     1      -9.097   2.572 -31.727  1.00  0.00     0.092 A 
HETATM   10 BR   UNL     1     -10.146   3.574 -30.542  1.00  0.00    -0.044 Br
HETATM   11  H   UNL     1      -7.363   2.475 -29.522  1.00  0.00     0.162 HD
ENDROOT
BRANCH   1  12
HETATM   12  C   UNL     1     -10.381   2.914 -33.974  1.00  0.00     0.273 C 
HETATM   13  N   UNL     1     -10.069   4.129 -34.545  1.00  0.00    -0.353 N 
HETATM   14  H   UNL     1      -9.102   4.430 -34.442  1.00  0.00     0.162 HD
HETATM   15  O   UNL     1     -11.451   2.343 -34.158  1.00  0.00    -0.266 OA
BRANCH  13  16
HETATM   16  C   UNL     1     -10.896   4.772 -35.542  1.00  0.00     0.149 C 
BRANCH  16  17
HETATM   17  C   UNL     1     -10.889   6.290 -35.373  1.00  0.00     0.186 C 
BRANCH  17  18
HETATM   18  O   UNL     1     -12.209   6.795 -35.605  1.00  0.00    -0.394 OA
HETATM   19  C   UNL     1     -13.173   5.751 -35.612  1.00  0.00     0.201 C 
ENDBRANCH  17  18
ENDBRANCH  16  17
ENDBRANCH  13  16
ENDBRANCH   1  12
BRANCH   8  20
HETATM   20  C   UNL     1      -6.472  -0.666 -33.555  1.00  0.00     0.409 C 
HETATM   21  F   UNL     1      -7.696  -1.210 -33.372  1.00  0.00    -0.169 F 
HETATM   22  F   UNL     1      -6.277  -0.499 -34.879  1.00  0.00    -0.169 F 
HETATM   23  F   UNL     1      -5.569  -1.600 -33.154  1.00  0.00    -0.169 F 
ENDBRANCH   8  20
BRANCH   6  24
HETATM   24  C   UNL     1      -4.804   2.580 -30.774  1.00  0.00    -0.035 A 
HETATM   25  C   UNL     1      -3.523   2.369 -31.314  1.00  0.00     0.009 A 
HETATM   26  C   UNL     1      -2.682   3.442 -31.620  1.00  0.00     0.001 A 
HETATM   27  C   UNL     1      -3.108   4.749 -31.403  1.00  0.00     0.000 A 
HETATM   28  C   UNL     1      -4.378   4.984 -30.888  1.00  0.00     0.001 A 
HETATM   29  C   UNL     1      -5.220   3.910 -30.582  1.00  0.00     0.009 A 
ENDBRANCH   6  24
TORSDOF 6
ENDMDL
MODEL 9
REMARK VINA RESULT:      -6.6      2.424      2.776
REMARK  6 active torsions:
REMARK  status: ('A' for Active; 'I' for Inactive)
REMARK    1  A    between atoms: O_2  and  C_3 
REMARK    2  A    between atoms: C_3  and  C_4 
REMARK    3  A    between atoms: C_4  and  N_5 
REMARK       I    between atoms: N_5  and  C_6 
REMARK    4  A    between atoms: C_6  and  C_7 
REMARK    5  A    between atoms: C_12  and  C_13 
REMARK    6  A    between atoms: C_20  and  C_21 
ROOT
HETATM    1  C   UNL     1      -7.023   4.712 -32.362  1.00  0.00     0.165 A 
HETATM    2  N   UNL     1      -7.842   4.169 -33.298  1.00  0.00    -0.163 NA
HETATM    3  N   UNL     1      -8.223   2.997 -32.762  1.00  0.00    -0.238 N 
HETATM    4  C   UNL     1      -7.602   2.707 -31.576  1.00  0.00     0.141 A 
HETATM    5  N   UNL     1      -7.751   1.494 -30.982  1.00  0.00    -0.365 N 
HETATM    6  C   UNL     1      -8.276   0.365 -31.752  1.00  0.00     0.118 C 
HETATM    7  C   UNL     1      -9.460   0.875 -32.589  1.00  0.00     0.066 C 
HETATM    8  C   UNL     1      -9.050   2.053 -33.496  1.00  0.00     0.221 C 
HETATM    9  C   UNL     1      -6.869   3.826 -31.267  1.00  0.00     0.092 A 
HETATM   10 BR   UNL     1      -5.796   4.065 -29.750  1.00  0.00    -0.044 Br
HETATM   11  H   UNL     1      -7.127   1.235 -30.218  1.00  0.00     0.162 HD
ENDROOT
BRANCH   1  12
HETATM   12  C   UNL     1      -6.403   6.030 -32.586  1.00  0.00     0.273 C 
HETATM   13  N   UNL     1      -6.960   7.025 -31.812  1.00  0.00    -0.353 N 
HETATM   14  H   UNL     1      -7.600   6.712 -31.084  1.00  0.00     0.162 HD
HETATM   15  O   UNL     1      -5.493   6.233 -33.382  1.00  0.00    -0.266 OA
BRANCH  13  16
HETATM   16  C   UNL     1      -6.424   8.366 -31.738  1.00  0.00     0.149 C 
BRANCH  16  17
HETATM   17  C   UNL     1      -5.187   8.420 -30.844  1.00  0.00     0.186 C 
BRANCH  17  18
HETATM   18  O   UNL     1      -4.318   9.460 -31.306  1.00  0.00    -0.394 OA
HETATM   19  C   UNL     1      -3.493   9.956 -30.261  1.00  0.00     0.201 C 
ENDBRANCH  17  18
ENDBRANCH  16  17
ENDBRANCH  13  16
ENDBRANCH   1  12
BRANCH   8  20
HETATM   20  C   UNL     1     -10.292   2.715 -34.054  1.00  0.00     0.409 C 
HETATM   21  F   UNL     1     -10.917   3.489 -33.140  1.00  0.00    -0.169 F 
HETATM   22  F   UNL     1     -10.055   3.462 -35.152  1.00  0.00    -0.169 F 
HETATM   23  F   UNL     1     -11.186   1.761 -34.431  1.00  0.00    -0.169 F 
ENDBRANCH   8  20
BRANCH   6  24
HETATM   24  C   UNL     1      -7.219  -0.357 -32.581  1.00  0.00    -0.035 A 
HETATM   25  C   UNL     1      -5.867  -0.441 -32.203  1.00  0.00     0.009 A 
HETATM   26  C   UNL     1      -4.931  -1.100 -33.005  1.00  0.00     0.001 A 
HETATM   27  C   UNL     1      -5.330  -1.697 -34.196  1.00  0.00     0.000 A 
HETATM   28  C   UNL     1      -6.664  -1.644 -34.583  1.00  0.00     0.001 A 
HETATM   29  C   UNL     1      -7.600  -0.986 -33.780  1.00  0.00     0.009 A 
ENDBRANCH   6  24
TORSDOF 6
ENDMDL
MODEL 10
REMARK VINA RESULT:      -6.6      3.607      6.786
REMARK  6 active torsions:
REMARK  status: ('A' for Active; 'I' for Inactive)
REMARK    1  A    between atoms: O_2  and  C_3 
REMARK    2  A    between atoms: C_3  and  C_4 
REMARK    3  A    between atoms: C_4  and  N_5 
REMARK       I    between atoms: N_5  and  C_6 
REMARK    4  A    between atoms: C_6  and  C_7 
REMARK    5  A    between atoms: C_12  and  C_13 
REMARK    6  A    between atoms: C_20  and  C_21 
ROOT
HETATM    1  C   UNL     1      -7.876   3.092 -31.418  1.00  0.00     0.165 A 
HETATM    2  N   UNL     1      -7.230   2.361 -32.362  1.00  0.00    -0.163 NA
HETATM    3  N   UNL     1      -5.944   2.385 -31.973  1.00  0.00    -0.238 N 
HETATM    4  C   UNL     1      -5.712   3.187 -30.888  1.00  0.00     0.141 A 
HETATM    5  N   UNL     1      -4.447   3.449 -30.465  1.00  0.00    -0.365 N 
HETATM    6  C   UNL     1      -3.312   3.181 -31.349  1.00  0.00     0.118 C 
HETATM    7  C   UNL     1      -3.548   1.818 -32.019  1.00  0.00     0.066 C 
HETATM    8  C   UNL     1      -4.892   1.781 -32.775  1.00  0.00     0.221 C 
HETATM    9  C   UNL     1      -6.952   3.606 -30.474  1.00  0.00     0.092 A 
HETATM   10 BR   UNL     1      -7.315   4.727 -29.018  1.00  0.00    -0.044 Br
HETATM   11  H   UNL     1      -4.295   4.200 -29.791  1.00  0.00     0.162 HD
ENDROOT
BRANCH   1  12
HETATM   12  C   UNL     1      -9.334   3.289 -31.493  1.00  0.00     0.273 C 
HETATM   13  N   UNL     1      -9.794   3.417 -32.785  1.00  0.00    -0.353 N 
HETATM   14  H   UNL     1      -9.119   3.203 -33.518  1.00  0.00     0.162 HD
HETATM   15  O   UNL     1     -10.069   3.345 -30.513  1.00  0.00    -0.266 OA
BRANCH  13  16
HETATM   16  C   UNL     1     -11.198   3.465 -33.126  1.00  0.00     0.149 C 
BRANCH  16  17
HETATM   17  C   UNL     1     -11.398   3.670 -34.628  1.00  0.00     0.186 C 
BRANCH  17  18
HETATM   18  O   UNL     1     -12.314   2.684 -35.118  1.00  0.00    -0.394 OA
HETATM   19  C   UNL     1     -13.176   2.216 -34.090  1.00  0.00     0.201 C 
ENDBRANCH  17  18
ENDBRANCH  16  17
ENDBRANCH  13  16
ENDBRANCH   1  12
BRANCH   8  20
HETATM   20  C   UNL     1      -5.222   0.350 -33.144  1.00  0.00     0.409 C 
HETATM   21  F   UNL     1      -5.816  -0.319 -32.130  1.00  0.00    -0.169 F 
HETATM   22  F   UNL     1      -6.006   0.244 -34.237  1.00  0.00    -0.169 F 
HETATM   23  F   UNL     1      -4.076  -0.323 -33.433  1.00  0.00    -0.169 F 
ENDBRANCH   8  20
BRANCH   6  24
HETATM   24  C   UNL     1      -3.033   4.302 -32.345  1.00  0.00    -0.035 A 
HETATM   25  C   UNL     1      -3.491   5.620 -32.171  1.00  0.00     0.009 A 
HETATM   26  C   UNL     1      -3.222   6.610 -33.121  1.00  0.00     0.001 A 
HETATM   27  C   UNL     1      -2.483   6.304 -34.259  1.00  0.00     0.000 A 
HETATM   28  C   UNL     1      -2.004   5.012 -34.445  1.00  0.00     0.001 A 
HETATM   29  C   UNL     1      -2.271   4.023 -33.494  1.00  0.00     0.009 A 
ENDBRANCH   6  24
TORSDOF 6
ENDMDL
