MODEL 1
REMARK VINA RESULT:      -8.3      0.000      0.000
REMARK  5 active torsions:
REMARK  status: ('A' for Active; 'I' for Inactive)
REMARK    1  A    between atoms: C_2  and  N_3 
REMARK    2  A    between atoms: C_2  and  C_19 
REMARK       I    between atoms: N_3  and  C_4 
REMARK    3  A    between atoms: C_4  and  C_5 
REMARK    4  A    between atoms: C_7  and  O_8 
REMARK    5  A    between atoms: O_8  and  C_9 
ROOT
HETATM    1  C   UNL     1      -4.334   1.168 -31.782  1.00  0.00     0.146 A 
HETATM    2  O   UNL     1      -4.299   0.649 -33.050  1.00  0.00    -0.282 OA
HETATM    3  C   UNL     1      -3.970  -0.666 -32.957  1.00  0.00     0.191 A 
HETATM    4  C   UNL     1      -3.785  -1.013 -31.637  1.00  0.00     0.067 A 
HETATM    5  C   UNL     1      -4.019   0.164 -30.881  1.00  0.00     0.048 A 
ENDROOT
BRANCH   1   6
HETATM    6  C   UNL     1      -4.663   2.577 -31.637  1.00  0.00     0.276 C 
HETATM    7  N   UNL     1      -4.403   3.354 -32.753  1.00  0.00    -0.347 N 
HETATM    8  H   UNL     1      -3.878   2.952 -33.513  1.00  0.00     0.163 HD
HETATM    9  O   UNL     1      -5.137   3.064 -30.613  1.00  0.00    -0.265 OA
BRANCH   7  10
HETATM   10  C   UNL     1      -4.561   4.797 -32.734  1.00  0.00     0.114 C 
HETATM   11  C   UNL     1      -5.844   5.195 -33.467  1.00  0.00     0.037 C 
BRANCH  10  12
HETATM   12  C   UNL     1      -3.320   5.453 -33.307  1.00  0.00    -0.033 A 
HETATM   13  C   UNL     1      -2.981   6.754 -32.914  1.00  0.00     0.028 A 
HETATM   14  C   UNL     1      -1.836   7.337 -33.432  1.00  0.00     0.116 A 
HETATM   15  N   UNL     1      -1.007   6.718 -34.299  1.00  0.00    -0.273 NA
HETATM   16  C   UNL     1      -1.335   5.459 -34.655  1.00  0.00     0.116 A 
HETATM   17  C   UNL     1      -2.459   4.793 -34.191  1.00  0.00     0.028 A 
ENDBRANCH  10  12
ENDBRANCH   7  10
ENDBRANCH   1   6
BRANCH   3  18
HETATM   18  O   UNL     1      -3.900  -1.285 -34.133  1.00  0.00    -0.286 OA
BRANCH  18  19
HETATM   19  C   UNL     1      -4.674  -2.399 -34.348  1.00  0.00     0.100 A 
HETATM   20  C   UNL     1      -6.024  -2.267 -34.685  1.00  0.00     0.068 A 
HETATM   21 CL   UNL     1      -6.754  -0.721 -34.907  1.00  0.00    -0.081 Cl
HETATM   22  C   UNL     1      -6.811  -3.410 -34.858  1.00  0.00     0.026 A 
HETATM   23  C   UNL     1      -6.250  -4.677 -34.685  1.00  0.00     0.002 A 
HETATM   24  C   UNL     1      -4.905  -4.806 -34.332  1.00  0.00     0.003 A 
HETATM   25  C   UNL     1      -4.119  -3.667 -34.155  1.00  0.00     0.039 A 
ENDBRANCH  18  19
ENDBRANCH   3  18
TORSDOF 5
ENDMDL
MODEL 2
REMARK VINA RESULT:      -8.0      5.713      7.507
REMARK  5 active torsions:
REMARK  status: ('A' for Active; 'I' for Inactive)
REMARK    1  A    between atoms: C_2  and  N_3 
REMARK    2  A    between atoms: C_2  and  C_19 
REMARK       I    between atoms: N_3  and  C_4 
REMARK    3  A    between atoms: C_4  and  C_5 
REMARK    4  A    between atoms: C_7  and  O_8 
REMARK    5  A    between atoms: O_8  and  C_9 
ROOT
HETATM    1  C   UNL     1      -8.780   1.082 -33.319  1.00  0.00     0.146 A 
HETATM    2  O   UNL     1      -8.099   0.570 -34.393  1.00  0.00    -0.282 OA
HETATM    3  C   UNL     1      -7.249  -0.386 -33.934  1.00  0.00     0.191 A 
HETATM    4  C   UNL     1      -7.364  -0.502 -32.567  1.00  0.00     0.067 A 
HETATM    5  C   UNL     1      -8.348   0.440 -32.170  1.00  0.00     0.048 A 
ENDROOT
BRANCH   1   6
HETATM    6  C   UNL     1      -9.751   2.134 -33.573  1.00  0.00     0.276 C 
HETATM    7  N   UNL     1     -10.725   2.276 -32.599  1.00  0.00    -0.347 N 
HETATM    8  H   UNL     1     -10.800   1.575 -31.880  1.00  0.00     0.163 HD
HETATM    9  O   UNL     1      -9.729   2.855 -34.568  1.00  0.00    -0.265 OA
BRANCH   7  10
HETATM   10  C   UNL     1     -11.836   3.197 -32.758  1.00  0.00     0.114 C 
HETATM   11  C   UNL     1     -11.989   4.058 -31.502  1.00  0.00     0.037 C 
BRANCH  10  12
HETATM   12  C   UNL     1     -13.093   2.424 -33.107  1.00  0.00    -0.033 A 
HETATM   13  C   UNL     1     -14.268   2.646 -32.377  1.00  0.00     0.028 A 
HETATM   14  C   UNL     1     -15.413   1.945 -32.716  1.00  0.00     0.116 A 
HETATM   15  N   UNL     1     -15.475   1.053 -33.728  1.00  0.00    -0.273 NA
HETATM   16  C   UNL     1     -14.342   0.862 -34.434  1.00  0.00     0.116 A 
HETATM   17  C   UNL     1     -13.147   1.516 -34.171  1.00  0.00     0.028 A 
ENDBRANCH  10  12
ENDBRANCH   7  10
ENDBRANCH   1   6
BRANCH   3  18
HETATM   18  O   UNL     1      -6.523  -0.960 -34.891  1.00  0.00    -0.286 OA
BRANCH  18  19
HETATM   19  C   UNL     1      -6.016  -2.219 -34.678  1.00  0.00     0.100 A 
HETATM   20  C   UNL     1      -4.741  -2.385 -34.130  1.00  0.00     0.068 A 
HETATM   21 CL   UNL     1      -3.785  -1.035 -33.641  1.00  0.00    -0.081 Cl
HETATM   22  C   UNL     1      -4.221  -3.671 -33.961  1.00  0.00     0.026 A 
HETATM   23  C   UNL     1      -4.970  -4.784 -34.347  1.00  0.00     0.002 A 
HETATM   24  C   UNL     1      -6.236  -4.616 -34.910  1.00  0.00     0.003 A 
HETATM   25  C   UNL     1      -6.757  -3.333 -35.084  1.00  0.00     0.039 A 
ENDBRANCH  18  19
ENDBRANCH   3  18
TORSDOF 5
ENDMDL
MODEL 3
REMARK VINA RESULT:      -7.8      3.272      8.162
REMARK  5 active torsions:
REMARK  status: ('A' for Active; 'I' for Inactive)
REMARK    1  A    between atoms: C_2  and  N_3 
REMARK    2  A    between atoms: C_2  and  C_19 
REMARK       I    between atoms: N_3  and  C_4 
REMARK    3  A    between atoms: C_4  and  C_5 
REMARK    4  A    between atoms: C_7  and  O_8 
REMARK    5  A    between atoms: O_8  and  C_9 
ROOT
HETATM    1  C   UNL     1      -5.355   2.589 -32.409  1.00  0.00     0.146 A 
HETATM    2  O   UNL     1      -4.008   2.704 -32.642  1.00  0.00    -0.282 OA
HETATM    3  C   UNL     1      -3.464   3.417 -31.622  1.00  0.00     0.191 A 
HETATM    4  C   UNL     1      -4.445   3.775 -30.723  1.00  0.00     0.067 A 
HETATM    5  C   UNL     1      -5.659   3.243 -31.226  1.00  0.00     0.048 A 
ENDROOT
BRANCH   1   6
HETATM    6  C   UNL     1      -6.150   1.861 -33.384  1.00  0.00     0.276 C 
HETATM    7  N   UNL     1      -6.300   0.510 -33.123  1.00  0.00    -0.347 N 
HETATM    8  H   UNL     1      -5.746   0.092 -32.393  1.00  0.00     0.163 HD
HETATM    9  O   UNL     1      -6.661   2.383 -34.372  1.00  0.00    -0.265 OA
BRANCH   7  10
HETATM   10  C   UNL     1      -6.962  -0.382 -34.058  1.00  0.00     0.114 C 
HETATM   11  C   UNL     1      -8.421  -0.587 -33.646  1.00  0.00     0.037 C 
BRANCH  10  12
HETATM   12  C   UNL     1      -6.184  -1.680 -34.163  1.00  0.00    -0.033 A 
HETATM   13  C   UNL     1      -6.800  -2.813 -34.709  1.00  0.00     0.028 A 
HETATM   14  C   UNL     1      -6.073  -3.988 -34.814  1.00  0.00     0.116 A 
HETATM   15  N   UNL     1      -4.786  -4.111 -34.425  1.00  0.00    -0.273 NA
HETATM   16  C   UNL     1      -4.201  -3.007 -33.918  1.00  0.00     0.116 A 
HETATM   17  C   UNL     1      -4.845  -1.787 -33.772  1.00  0.00     0.028 A 
ENDBRANCH  10  12
ENDBRANCH   7  10
ENDBRANCH   1   6
BRANCH   3  18
HETATM   18  O   UNL     1      -2.151   3.601 -31.737  1.00  0.00    -0.286 OA
BRANCH  18  19
HETATM   19  C   UNL     1      -1.686   4.795 -32.232  1.00  0.00     0.100 A 
HETATM   20  C   UNL     1      -0.742   5.537 -31.517  1.00  0.00     0.068 A 
HETATM   21 CL   UNL     1      -0.078   4.964 -30.032  1.00  0.00    -0.081 Cl
HETATM   22  C   UNL     1      -0.311   6.771 -32.011  1.00  0.00     0.026 A 
HETATM   23  C   UNL     1      -0.830   7.264 -33.211  1.00  0.00     0.002 A 
HETATM   24  C   UNL     1      -1.785   6.529 -33.915  1.00  0.00     0.003 A 
HETATM   25  C   UNL     1      -2.220   5.298 -33.422  1.00  0.00     0.039 A 
ENDBRANCH  18  19
ENDBRANCH   3  18
TORSDOF 5
ENDMDL
MODEL 4
REMARK VINA RESULT:      -7.8      3.692      8.553
REMARK  5 active torsions:
REMARK  status: ('A' for Active; 'I' for Inactive)
REMARK    1  A    between atoms: C_2  and  N_3 
REMARK    2  A    between atoms: C_2  and  C_19 
REMARK       I    between atoms: N_3  and  C_4 
REMARK    3  A    between atoms: C_4  and  C_5 
REMARK    4  A    between atoms: C_7  and  O_8 
REMARK    5  A    between atoms: O_8  and  C_9 
ROOT
HETATM    1  C   UNL     1      -3.429   3.163 -32.279  1.00  0.00     0.146 A 
HETATM    2  O   UNL     1      -2.156   3.575 -31.978  1.00  0.00    -0.282 OA
HETATM    3  C   UNL     1      -1.920   4.734 -32.646  1.00  0.00     0.191 A 
HETATM    4  C   UNL     1      -3.027   5.082 -33.389  1.00  0.00     0.067 A 
HETATM    5  C   UNL     1      -3.997   4.075 -33.153  1.00  0.00     0.048 A 
ENDROOT
BRANCH   1   6
HETATM    6  C   UNL     1      -3.901   1.928 -31.674  1.00  0.00     0.276 C 
HETATM    7  N   UNL     1      -3.517   0.772 -32.332  1.00  0.00    -0.347 N 
HETATM    8  H   UNL     1      -3.086   0.849 -33.239  1.00  0.00     0.163 HD
HETATM    9  O   UNL     1      -4.587   1.887 -30.656  1.00  0.00    -0.265 OA
BRANCH   7  10
HETATM   10  C   UNL     1      -4.002  -0.536 -31.928  1.00  0.00     0.114 C 
HETATM   11  C   UNL     1      -2.831  -1.511 -31.788  1.00  0.00     0.037 C 
BRANCH  10  12
HETATM   12  C   UNL     1      -5.060  -1.011 -32.905  1.00  0.00    -0.033 A 
HETATM   13  C   UNL     1      -4.730  -1.973 -33.868  1.00  0.00     0.028 A 
HETATM   14  C   UNL     1      -5.709  -2.410 -34.745  1.00  0.00     0.116 A 
HETATM   15  N   UNL     1      -6.984  -1.969 -34.726  1.00  0.00    -0.273 NA
HETATM   16  C   UNL     1      -7.293  -1.056 -33.782  1.00  0.00     0.116 A 
HETATM   17  C   UNL     1      -6.383  -0.557 -32.861  1.00  0.00     0.028 A 
ENDBRANCH  10  12
ENDBRANCH   7  10
ENDBRANCH   1   6
BRANCH   3  18
HETATM   18  O   UNL     1      -0.706   5.235 -32.436  1.00  0.00    -0.286 OA
BRANCH  18  19
HETATM   19  C   UNL     1      -0.415   5.788 -31.213  1.00  0.00     0.100 A 
HETATM   20  C   UNL     1      -0.743   7.119 -30.942  1.00  0.00     0.068 A 
HETATM   21 CL   UNL     1      -1.576   8.097 -32.092  1.00  0.00    -0.081 Cl
HETATM   22  C   UNL     1      -0.402   7.680 -29.708  1.00  0.00     0.026 A 
HETATM   23  C   UNL     1       0.274   6.915 -28.755  1.00  0.00     0.002 A 
HETATM   24  C   UNL     1       0.616   5.590 -29.034  1.00  0.00     0.003 A 
HETATM   25  C   UNL     1       0.279   5.028 -30.266  1.00  0.00     0.039 A 
ENDBRANCH  18  19
ENDBRANCH   3  18
TORSDOF 5
ENDMDL
MODEL 5
REMARK VINA RESULT:      -7.7      5.686      7.380
REMARK  5 active torsions:
REMARK  status: ('A' for Active; 'I' for Inactive)
REMARK    1  A    between atoms: C_2  and  N_3 
REMARK    2  A    between atoms: C_2  and  C_19 
REMARK       I    between atoms: N_3  and  C_4 
REMARK    3  A    between atoms: C_4  and  C_5 
REMARK    4  A    between atoms: C_7  and  O_8 
REMARK    5  A    between atoms: O_8  and  C_9 
ROOT
HETATM    1  C   UNL     1      -9.515   0.449 -33.126  1.00  0.00     0.146 A 
HETATM    2  O   UNL     1      -8.605   0.097 -34.090  1.00  0.00    -0.282 OA
HETATM    3  C   UNL     1      -7.398  -0.069 -33.488  1.00  0.00     0.191 A 
HETATM    4  C   UNL     1      -7.508   0.177 -32.137  1.00  0.00     0.067 A 
HETATM    5  C   UNL     1      -8.867   0.509 -31.903  1.00  0.00     0.048 A 
ENDROOT
BRANCH   1   6
HETATM    6  C   UNL     1     -10.886   0.686 -33.545  1.00  0.00     0.276 C 
HETATM    7  N   UNL     1     -11.084   1.854 -34.261  1.00  0.00    -0.347 N 
HETATM    8  H   UNL     1     -10.334   2.524 -34.314  1.00  0.00     0.163 HD
HETATM    9  O   UNL     1     -11.816  -0.078 -33.297  1.00  0.00    -0.265 OA
BRANCH   7  10
HETATM   10  C   UNL     1     -12.411   2.299 -34.649  1.00  0.00     0.114 C 
HETATM   11  C   UNL     1     -12.328   3.159 -35.912  1.00  0.00     0.037 C 
BRANCH  10  12
HETATM   12  C   UNL     1     -13.071   3.011 -33.485  1.00  0.00    -0.033 A 
HETATM   13  C   UNL     1     -14.204   2.448 -32.882  1.00  0.00     0.028 A 
HETATM   14  C   UNL     1     -14.788   3.101 -31.809  1.00  0.00     0.116 A 
HETATM   15  N   UNL     1     -14.325   4.258 -31.292  1.00  0.00    -0.273 NA
HETATM   16  C   UNL     1     -13.223   4.779 -31.870  1.00  0.00     0.116 A 
HETATM   17  C   UNL     1     -12.568   4.201 -32.948  1.00  0.00     0.028 A 
ENDBRANCH  10  12
ENDBRANCH   7  10
ENDBRANCH   1   6
BRANCH   3  18
HETATM   18  O   UNL     1      -6.424  -0.411 -34.327  1.00  0.00    -0.286 OA
BRANCH  18  19
HETATM   19  C   UNL     1      -5.979  -1.710 -34.338  1.00  0.00     0.100 A 
HETATM   20  C   UNL     1      -4.673  -2.014 -33.946  1.00  0.00     0.068 A 
HETATM   21 CL   UNL     1      -3.594  -0.796 -33.375  1.00  0.00    -0.081 Cl
HETATM   22  C   UNL     1      -4.220  -3.335 -34.004  1.00  0.00     0.026 A 
HETATM   23  C   UNL     1      -5.069  -4.345 -34.463  1.00  0.00     0.002 A 
HETATM   24  C   UNL     1      -6.368  -4.037 -34.870  1.00  0.00     0.003 A 
HETATM   25  C   UNL     1      -6.821  -2.719 -34.816  1.00  0.00     0.039 A 
ENDBRANCH  18  19
ENDBRANCH   3  18
TORSDOF 5
ENDMDL
MODEL 6
REMARK VINA RESULT:      -7.7      5.467      8.386
REMARK  5 active torsions:
REMARK  status: ('A' for Active; 'I' for Inactive)
REMARK    1  A    between atoms: C_2  and  N_3 
REMARK    2  A    between atoms: C_2  and  C_19 
REMARK       I    between atoms: N_3  and  C_4 
REMARK    3  A    between atoms: C_4  and  C_5 
REMARK    4  A    between atoms: C_7  and  O_8 
REMARK    5  A    between atoms: O_8  and  C_9 
ROOT
HETATM    1  C   UNL     1      -8.413   0.156 -33.848  1.00  0.00     0.146 A 
HETATM    2  O   UNL     1      -9.411   0.794 -34.539  1.00  0.00    -0.282 OA
HETATM    3  C   UNL     1     -10.263   1.344 -33.635  1.00  0.00     0.191 A 
HETATM    4  C   UNL     1      -9.834   1.067 -32.355  1.00  0.00     0.067 A 
HETATM    5  C   UNL     1      -8.646   0.305 -32.490  1.00  0.00     0.048 A 
ENDROOT
BRANCH   1   6
HETATM    6  C   UNL     1      -7.380  -0.516 -34.619  1.00  0.00     0.276 C 
HETATM    7  N   UNL     1      -7.070  -1.795 -34.188  1.00  0.00    -0.347 N 
HETATM    8  H   UNL     1      -7.444  -2.116 -33.310  1.00  0.00     0.163 HD
HETATM    9  O   UNL     1      -6.812  -0.010 -35.584  1.00  0.00    -0.265 OA
BRANCH   7  10
HETATM   10  C   UNL     1      -5.979  -2.556 -34.772  1.00  0.00     0.114 C 
HETATM   11  C   UNL     1      -6.493  -3.903 -35.285  1.00  0.00     0.037 C 
BRANCH  10  12
HETATM   12  C   UNL     1      -4.855  -2.692 -33.763  1.00  0.00    -0.033 A 
HETATM   13  C   UNL     1      -4.509  -1.596 -32.962  1.00  0.00     0.028 A 
HETATM   14  C   UNL     1      -3.491  -1.738 -32.033  1.00  0.00     0.116 A 
HETATM   15  N   UNL     1      -2.805  -2.885 -31.841  1.00  0.00    -0.273 NA
HETATM   16  C   UNL     1      -3.161  -3.936 -32.607  1.00  0.00     0.116 A 
HETATM   17  C   UNL     1      -4.165  -3.892 -33.563  1.00  0.00     0.028 A 
ENDBRANCH  10  12
ENDBRANCH   7  10
ENDBRANCH   1   6
BRANCH   3  18
HETATM   18  O   UNL     1     -11.285   1.993 -34.188  1.00  0.00    -0.286 OA
BRANCH  18  19
HETATM   19  C   UNL     1     -12.339   2.377 -33.395  1.00  0.00     0.100 A 
HETATM   20  C   UNL     1     -13.487   1.585 -33.314  1.00  0.00     0.068 A 
HETATM   21 CL   UNL     1     -13.607   0.077 -34.142  1.00  0.00    -0.081 Cl
HETATM   22  C   UNL     1     -14.569   2.010 -32.537  1.00  0.00     0.026 A 
HETATM   23  C   UNL     1     -14.504   3.227 -31.854  1.00  0.00     0.002 A 
HETATM   24  C   UNL     1     -13.363   4.024 -31.951  1.00  0.00     0.003 A 
HETATM   25  C   UNL     1     -12.282   3.604 -32.728  1.00  0.00     0.039 A 
ENDBRANCH  18  19
ENDBRANCH   3  18
TORSDOF 5
ENDMDL
MODEL 7
REMARK VINA RESULT:      -7.7      5.061      7.814
REMARK  5 active torsions:
REMARK  status: ('A' for Active; 'I' for Inactive)
REMARK    1  A    between atoms: C_2  and  N_3 
REMARK    2  A    between atoms: C_2  and  C_19 
REMARK       I    between atoms: N_3  and  C_4 
REMARK    3  A    between atoms: C_4  and  C_5 
REMARK    4  A    between atoms: C_7  and  O_8 
REMARK    5  A    between atoms: O_8  and  C_9 
ROOT
HETATM    1  C   UNL     1      -7.715   0.940 -32.075  1.00  0.00     0.146 A 
HETATM    2  O   UNL     1      -8.378   0.845 -33.271  1.00  0.00    -0.282 OA
HETATM    3  C   UNL     1      -9.405   1.735 -33.253  1.00  0.00     0.191 A 
HETATM    4  C   UNL     1      -9.423   2.409 -32.052  1.00  0.00     0.067 A 
HETATM    5  C   UNL     1      -8.337   1.900 -31.294  1.00  0.00     0.048 A 
ENDROOT
BRANCH   1   6
HETATM    6  C   UNL     1      -6.570   0.068 -31.866  1.00  0.00     0.276 C 
HETATM    7  N   UNL     1      -5.929  -0.340 -33.023  1.00  0.00    -0.347 N 
HETATM    8  H   UNL     1      -6.363  -0.150 -33.912  1.00  0.00     0.163 HD
HETATM    9  O   UNL     1      -6.182  -0.293 -30.757  1.00  0.00    -0.265 OA
BRANCH   7  10
HETATM   10  C   UNL     1      -4.846  -1.307 -32.998  1.00  0.00     0.114 C 
HETATM   11  C   UNL     1      -3.557  -0.665 -33.517  1.00  0.00     0.037 C 
BRANCH  10  12
HETATM   12  C   UNL     1      -5.250  -2.545 -33.774  1.00  0.00    -0.033 A 
HETATM   13  C   UNL     1      -4.404  -3.662 -33.782  1.00  0.00     0.028 A 
HETATM   14  C   UNL     1      -4.792  -4.794 -34.482  1.00  0.00     0.116 A 
HETATM   15  N   UNL     1      -5.955  -4.894 -35.160  1.00  0.00    -0.273 NA
HETATM   16  C   UNL     1      -6.767  -3.818 -35.128  1.00  0.00     0.116 A 
HETATM   17  C   UNL     1      -6.467  -2.642 -34.457  1.00  0.00     0.028 A 
ENDBRANCH  10  12
ENDBRANCH   7  10
ENDBRANCH   1   6
BRANCH   3  18
HETATM   18  O   UNL     1     -10.133   1.735 -34.367  1.00  0.00    -0.286 OA
BRANCH  18  19
HETATM   19  C   UNL     1     -11.435   1.303 -34.314  1.00  0.00     0.100 A 
HETATM   20  C   UNL     1     -12.453   2.047 -34.916  1.00  0.00     0.068 A 
HETATM   21 CL   UNL     1     -12.117   3.490 -35.799  1.00  0.00    -0.081 Cl
HETATM   22  C   UNL     1     -13.779   1.618 -34.815  1.00  0.00     0.026 A 
HETATM   23  C   UNL     1     -14.085   0.453 -34.107  1.00  0.00     0.002 A 
HETATM   24  C   UNL     1     -13.068  -0.279 -33.491  1.00  0.00     0.003 A 
HETATM   25  C   UNL     1     -11.744   0.149 -33.587  1.00  0.00     0.039 A 
ENDBRANCH  18  19
ENDBRANCH   3  18
TORSDOF 5
ENDMDL
MODEL 8
REMARK VINA RESULT:      -7.7      1.417      2.115
REMARK  5 active torsions:
REMARK  status: ('A' for Active; 'I' for Inactive)
REMARK    1  A    between atoms: C_2  and  N_3 
REMARK    2  A    between atoms: C_2  and  C_19 
REMARK       I    between atoms: N_3  and  C_4 
REMARK    3  A    between atoms: C_4  and  C_5 
REMARK    4  A    between atoms: C_7  and  O_8 
REMARK    5  A    between atoms: O_8  and  C_9 
ROOT
HETATM    1  C   UNL     1      -5.776   1.854 -31.851  1.00  0.00     0.146 A 
HETATM    2  O   UNL     1      -4.923   1.246 -32.736  1.00  0.00    -0.282 OA
HETATM    3  C   UNL     1      -5.391  -0.008 -32.975  1.00  0.00     0.191 A 
HETATM    4  C   UNL     1      -6.540  -0.228 -32.249  1.00  0.00     0.067 A 
HETATM    5  C   UNL     1      -6.790   0.968 -31.527  1.00  0.00     0.048 A 
ENDROOT
BRANCH   1   6
HETATM    6  C   UNL     1      -5.468   3.215 -31.443  1.00  0.00     0.276 C 
HETATM    7  N   UNL     1      -5.209   4.091 -32.483  1.00  0.00    -0.347 N 
HETATM    8  H   UNL     1      -5.097   3.722 -33.413  1.00  0.00     0.163 HD
HETATM    9  O   UNL     1      -5.435   3.585 -30.271  1.00  0.00    -0.265 OA
BRANCH   7  10
HETATM   10  C   UNL     1      -4.769   5.454 -32.244  1.00  0.00     0.114 C 
HETATM   11  C   UNL     1      -5.903   6.435 -32.549  1.00  0.00     0.037 C 
BRANCH  10  12
HETATM   12  C   UNL     1      -3.511   5.731 -33.045  1.00  0.00    -0.033 A 
HETATM   13  C   UNL     1      -3.124   4.841 -34.055  1.00  0.00     0.028 A 
HETATM   14  C   UNL     1      -1.982   5.113 -34.790  1.00  0.00     0.116 A 
HETATM   15  N   UNL     1      -1.209   6.203 -34.599  1.00  0.00    -0.273 NA
HETATM   16  C   UNL     1      -1.603   7.061 -33.636  1.00  0.00     0.116 A 
HETATM   17  C   UNL     1      -2.730   6.875 -32.848  1.00  0.00     0.028 A 
ENDBRANCH  10  12
ENDBRANCH   7  10
ENDBRANCH   1   6
BRANCH   3  18
HETATM   18  O   UNL     1      -4.640  -0.706 -33.823  1.00  0.00    -0.286 OA
BRANCH  18  19
HETATM   19  C   UNL     1      -4.153  -1.929 -33.431  1.00  0.00     0.100 A 
HETATM   20  C   UNL     1      -4.493  -3.085 -34.139  1.00  0.00     0.068 A 
HETATM   21 CL   UNL     1      -5.473  -3.022 -35.557  1.00  0.00    -0.081 Cl
HETATM   22  C   UNL     1      -4.026  -4.328 -33.703  1.00  0.00     0.026 A 
HETATM   23  C   UNL     1      -3.230  -4.414 -32.558  1.00  0.00     0.002 A 
HETATM   24  C   UNL     1      -2.906  -3.260 -31.843  1.00  0.00     0.003 A 
HETATM   25  C   UNL     1      -3.374  -2.018 -32.274  1.00  0.00     0.039 A 
ENDBRANCH  18  19
ENDBRANCH   3  18
TORSDOF 5
ENDMDL
MODEL 9
REMARK VINA RESULT:      -7.6      2.482      3.441
REMARK  5 active torsions:
REMARK  status: ('A' for Active; 'I' for Inactive)
REMARK    1  A    between atoms: C_2  and  N_3 
REMARK    2  A    between atoms: C_2  and  C_19 
REMARK       I    between atoms: N_3  and  C_4 
REMARK    3  A    between atoms: C_4  and  C_5 
REMARK    4  A    between atoms: C_7  and  O_8 
REMARK    5  A    between atoms: O_8  and  C_9 
ROOT
HETATM    1  C   UNL     1      -5.688   3.538 -33.550  1.00  0.00     0.146 A 
HETATM    2  O   UNL     1      -5.213   2.362 -33.029  1.00  0.00    -0.282 OA
HETATM    3  C   UNL     1      -6.279   1.574 -32.729  1.00  0.00     0.191 A 
HETATM    4  C   UNL     1      -7.450   2.228 -33.045  1.00  0.00     0.067 A 
HETATM    5  C   UNL     1      -7.072   3.489 -33.573  1.00  0.00     0.048 A 
ENDROOT
BRANCH   1   6
HETATM    6  C   UNL     1      -4.715   4.545 -33.942  1.00  0.00     0.276 C 
HETATM    7  N   UNL     1      -3.528   4.516 -33.231  1.00  0.00    -0.347 N 
HETATM    8  H   UNL     1      -3.465   3.931 -32.414  1.00  0.00     0.163 HD
HETATM    9  O   UNL     1      -4.908   5.368 -34.833  1.00  0.00    -0.265 OA
BRANCH   7  10
HETATM   10  C   UNL     1      -2.501   5.526 -33.415  1.00  0.00     0.114 C 
HETATM   11  C   UNL     1      -1.577   5.133 -34.569  1.00  0.00     0.037 C 
BRANCH  10  12
HETATM   12  C   UNL     1      -1.762   5.746 -32.108  1.00  0.00    -0.033 A 
HETATM   13  C   UNL     1      -2.367   6.493 -31.089  1.00  0.00     0.028 A 
HETATM   14  C   UNL     1      -1.689   6.673 -29.895  1.00  0.00     0.116 A 
HETATM   15  N   UNL     1      -0.466   6.160 -29.642  1.00  0.00    -0.273 NA
HETATM   16  C   UNL     1       0.096   5.427 -30.625  1.00  0.00     0.116 A 
HETATM   17  C   UNL     1      -0.503   5.192 -31.853  1.00  0.00     0.028 A 
ENDBRANCH  10  12
ENDBRANCH   7  10
ENDBRANCH   1   6
BRANCH   3  18
HETATM   18  O   UNL     1      -5.945   0.396 -32.209  1.00  0.00    -0.286 OA
BRANCH  18  19
HETATM   19  C   UNL     1      -5.810  -0.687 -33.042  1.00  0.00     0.100 A 
HETATM   20  C   UNL     1      -4.543  -1.195 -33.342  1.00  0.00     0.068 A 
HETATM   21 CL   UNL     1      -3.114  -0.534 -32.638  1.00  0.00    -0.081 Cl
HETATM   22  C   UNL     1      -4.418  -2.270 -34.226  1.00  0.00     0.026 A 
HETATM   23  C   UNL     1      -5.556  -2.827 -34.814  1.00  0.00     0.002 A 
HETATM   24  C   UNL     1      -6.819  -2.308 -34.526  1.00  0.00     0.003 A 
HETATM   25  C   UNL     1      -6.947  -1.232 -33.646  1.00  0.00     0.039 A 
ENDBRANCH  18  19
ENDBRANCH   3  18
TORSDOF 5
ENDMDL
MODEL 10
REMARK VINA RESULT:      -7.5      3.578      8.510
REMARK  5 active torsions:
REMARK  status: ('A' for Active; 'I' for Inactive)
REMARK    1  A    between atoms: C_2  and  N_3 
REMARK    2  A    between atoms: C_2  and  C_19 
REMARK       I    between atoms: N_3  and  C_4 
REMARK    3  A    between atoms: C_4  and  C_5 
REMARK    4  A    between atoms: C_7  and  O_8 
REMARK    5  A    between atoms: O_8  and  C_9 
ROOT
HETATM    1  C   UNL     1      -4.412   3.618 -32.950  1.00  0.00     0.146 A 
HETATM    2  O   UNL     1      -3.473   3.519 -31.955  1.00  0.00    -0.282 OA
HETATM    3  C   UNL     1      -2.439   4.342 -32.270  1.00  0.00     0.191 A 
HETATM    4  C   UNL     1      -2.690   4.977 -33.467  1.00  0.00     0.067 A 
HETATM    5  C   UNL     1      -3.957   4.514 -33.904  1.00  0.00     0.048 A 
ENDROOT
BRANCH   1   6
HETATM    6  C   UNL     1      -5.616   2.813 -32.826  1.00  0.00     0.276 C 
HETATM    7  N   UNL     1      -5.398   1.484 -32.504  1.00  0.00    -0.347 N 
HETATM    8  H   UNL     1      -4.457   1.126 -32.529  1.00  0.00     0.163 HD
HETATM    9  O   UNL     1      -6.751   3.255 -32.987  1.00  0.00    -0.265 OA
BRANCH   7  10
HETATM   10  C   UNL     1      -6.483   0.520 -32.461  1.00  0.00     0.114 C 
HETATM   11  C   UNL     1      -6.843   0.199 -31.008  1.00  0.00     0.037 C 
BRANCH  10  12
HETATM   12  C   UNL     1      -6.105  -0.709 -33.266  1.00  0.00    -0.033 A 
HETATM   13  C   UNL     1      -4.763  -1.103 -33.338  1.00  0.00     0.028 A 
HETATM   14  C   UNL     1      -4.433  -2.236 -34.065  1.00  0.00     0.116 A 
HETATM   15  N   UNL     1      -5.337  -3.003 -34.710  1.00  0.00    -0.273 NA
HETATM   16  C   UNL     1      -6.628  -2.622 -34.616  1.00  0.00     0.116 A 
HETATM   17  C   UNL     1      -7.056  -1.505 -33.915  1.00  0.00     0.028 A 
ENDBRANCH  10  12
ENDBRANCH   7  10
ENDBRANCH   1   6
BRANCH   3  18
HETATM   18  O   UNL     1      -1.454   4.331 -31.375  1.00  0.00    -0.286 OA
BRANCH  18  19
HETATM   19  C   UNL     1      -1.127   5.498 -30.729  1.00  0.00     0.100 A 
HETATM   20  C   UNL     1       0.201   5.773 -30.394  1.00  0.00     0.068 A 
HETATM   21 CL   UNL     1       1.483   4.704 -30.829  1.00  0.00    -0.081 Cl
HETATM   22  C   UNL     1       0.513   6.944 -29.698  1.00  0.00     0.026 A 
HETATM   23  C   UNL     1      -0.502   7.831 -29.331  1.00  0.00     0.002 A 
HETATM   24  C   UNL     1      -1.830   7.546 -29.651  1.00  0.00     0.003 A 
HETATM   25  C   UNL     1      -2.145   6.376 -30.343  1.00  0.00     0.039 A 
ENDBRANCH  18  19
ENDBRANCH   3  18
TORSDOF 5
ENDMDL
