MODEL 1
REMARK VINA RESULT:      -8.6      0.000      0.000
REMARK  8 active torsions:
REMARK  status: ('A' for Active; 'I' for Inactive)
REMARK    1  A    between atoms: O_2  and  C_3 
REMARK    2  A    between atoms: C_5  and  O_6 
REMARK    3  A    between atoms: C_8  and  N_9 
REMARK       I    between atoms: N_9  and  C_10 
REMARK    4  A    between atoms: C_10  and  C_11 
REMARK    5  A    between atoms: C_11  and  N_12 
REMARK    6  A    between atoms: N_12  and  C_13 
REMARK    7  A    between atoms: C_14  and  N_15 
REMARK    8  A    between atoms: C_23  and  C_24 
ROOT
HETATM    1  N   UNL     1      -7.887   1.188 -33.282  1.00  0.00    -0.282 NA
HETATM    2  H   UNL     1      -8.229   1.072 -32.319  1.00  0.00     0.128 HD
ENDROOT
BRANCH   1   3
HETATM    3  C   UNL     1      -8.954   0.932 -34.254  1.00  0.00     0.195 C 
BRANCH   3   4
HETATM    4  C   UNL     1     -10.299   0.712 -33.551  1.00  0.00     0.235 C 
HETATM    5  N   UNL     1     -11.253   1.646 -33.909  1.00  0.00    -0.324 N 
HETATM    6  H   UNL     1     -10.935   2.478 -34.400  1.00  0.00     0.169 HD
HETATM    7  O   UNL     1     -10.458  -0.225 -32.771  1.00  0.00    -0.272 OA
BRANCH   5   8
HETATM    8  C   UNL     1     -12.644   1.606 -33.663  1.00  0.00     0.068 A 
HETATM    9  C   UNL     1     -13.182   2.578 -32.795  1.00  0.00     0.097 A 
HETATM   10  C   UNL     1     -14.564   2.621 -32.575  1.00  0.00     0.075 A 
HETATM   11  C   UNL     1     -15.419   1.715 -33.210  1.00  0.00     0.070 A 
HETATM   12  C   UNL     1     -14.882   0.740 -34.047  1.00  0.00     0.039 A 
HETATM   13  C   UNL     1     -13.503   0.688 -34.273  1.00  0.00     0.035 A 
BRANCH   9  14
HETATM   14  O   UNL     1     -12.272   3.445 -32.235  1.00  0.00    -0.354 OA
HETATM   15  C   UNL     1     -12.642   4.058 -31.005  1.00  0.00     0.210 C 
ENDBRANCH   9  14
BRANCH  11  16
HETATM   16  O   UNL     1     -16.747   1.884 -32.928  1.00  0.00    -0.356 OA
HETATM   17  C   UNL     1     -17.097   3.037 -32.172  1.00  0.00     0.210 C 
ENDBRANCH  11  16
ENDBRANCH   5   8
ENDBRANCH   3   4
ENDBRANCH   1   3
BRANCH   1  18
HETATM   18  C   UNL     1      -6.743   0.344 -33.371  1.00  0.00     0.036 A 
HETATM   19  C   UNL     1      -5.511   0.788 -32.800  1.00  0.00     0.051 A 
HETATM   20  C   UNL     1      -4.415  -0.087 -32.851  1.00  0.00     0.032 A 
HETATM   21  C   UNL     1      -4.493  -1.329 -33.490  1.00  0.00     0.018 A 
HETATM   22  C   UNL     1      -5.675  -1.731 -34.114  1.00  0.00     0.049 A 
HETATM   23  C   UNL     1      -6.788  -0.879 -34.061  1.00  0.00     0.042 A 
BRANCH  19  24
HETATM   24  N   UNL     1      -5.439   2.041 -32.168  1.00  0.00    -0.379 N 
HETATM   25  C   UNL     1      -4.586   2.227 -30.986  1.00  0.00     0.123 C 
HETATM   26  C   UNL     1      -3.218   2.816 -31.337  1.00  0.00     0.020 C 
HETATM   27  C   UNL     1      -3.350   4.066 -32.200  1.00  0.00     0.003 C 
HETATM   28  C   UNL     1      -4.195   3.771 -33.435  1.00  0.00     0.020 C 
HETATM   29  C   UNL     1      -5.565   3.217 -33.048  1.00  0.00     0.123 C 
ENDBRANCH  19  24
BRANCH  22  30
HETATM   30  C   UNL     1      -5.783  -3.068 -34.799  1.00  0.00     0.417 C 
HETATM   31  F   UNL     1      -5.087  -4.059 -34.176  1.00  0.00    -0.166 F 
HETATM   32  F   UNL     1      -7.071  -3.508 -34.874  1.00  0.00    -0.166 F 
HETATM   33  F   UNL     1      -5.325  -3.042 -36.082  1.00  0.00    -0.166 F 
ENDBRANCH  22  30
ENDBRANCH   1  18
TORSDOF 8
ENDMDL
MODEL 2
REMARK VINA RESULT:      -8.6      3.850      5.479
REMARK  8 active torsions:
REMARK  status: ('A' for Active; 'I' for Inactive)
REMARK    1  A    between atoms: O_2  and  C_3 
REMARK    2  A    between atoms: C_5  and  O_6 
REMARK    3  A    between atoms: C_8  and  N_9 
REMARK       I    between atoms: N_9  and  C_10 
REMARK    4  A    between atoms: C_10  and  C_11 
REMARK    5  A    between atoms: C_11  and  N_12 
REMARK    6  A    between atoms: N_12  and  C_13 
REMARK    7  A    between atoms: C_14  and  N_15 
REMARK    8  A    between atoms: C_23  and  C_24 
ROOT
HETATM    1  N   UNL     1      -6.533   4.605 -34.220  1.00  0.00    -0.282 NA
HETATM    2  H   UNL     1      -6.420   5.103 -35.113  1.00  0.00     0.128 HD
ENDROOT
BRANCH   1   3
HETATM    3  C   UNL     1      -7.394   5.356 -33.303  1.00  0.00     0.195 C 
BRANCH   3   4
HETATM    4  C   UNL     1      -8.876   5.120 -33.620  1.00  0.00     0.235 C 
HETATM    5  N   UNL     1      -9.091   3.977 -34.369  1.00  0.00    -0.324 N 
HETATM    6  H   UNL     1      -8.283   3.545 -34.808  1.00  0.00     0.169 HD
HETATM    7  O   UNL     1      -9.740   5.893 -33.211  1.00  0.00    -0.272 OA
BRANCH   5   8
HETATM    8  C   UNL     1     -10.318   3.323 -34.622  1.00  0.00     0.068 A 
HETATM    9  C   UNL     1     -10.600   2.156 -33.884  1.00  0.00     0.097 A 
HETATM   10  C   UNL     1     -11.832   1.512 -34.049  1.00  0.00     0.075 A 
HETATM   11  C   UNL     1     -12.789   2.015 -34.936  1.00  0.00     0.070 A 
HETATM   12  C   UNL     1     -12.498   3.154 -35.682  1.00  0.00     0.039 A 
HETATM   13  C   UNL     1     -11.270   3.805 -35.524  1.00  0.00     0.035 A 
BRANCH   9  14
HETATM   14  O   UNL     1      -9.613   1.747 -33.016  1.00  0.00    -0.354 OA
HETATM   15  C   UNL     1      -9.674   0.399 -32.563  1.00  0.00     0.210 C 
ENDBRANCH   9  14
BRANCH  11  16
HETATM   16  O   UNL     1     -13.958   1.306 -34.983  1.00  0.00    -0.356 OA
HETATM   17  C   UNL     1     -14.211   0.419 -33.898  1.00  0.00     0.210 C 
ENDBRANCH  11  16
ENDBRANCH   5   8
ENDBRANCH   3   4
ENDBRANCH   1   3
BRANCH   1  18
HETATM   18  C   UNL     1      -5.205   4.354 -33.769  1.00  0.00     0.036 A 
HETATM   19  C   UNL     1      -4.964   3.227 -32.925  1.00  0.00     0.051 A 
HETATM   20  C   UNL     1      -3.638   2.970 -32.541  1.00  0.00     0.032 A 
HETATM   21  C   UNL     1      -2.587   3.814 -32.913  1.00  0.00     0.018 A 
HETATM   22  C   UNL     1      -2.834   4.958 -33.674  1.00  0.00     0.049 A 
HETATM   23  C   UNL     1      -4.148   5.226 -34.083  1.00  0.00     0.042 A 
BRANCH  19  24
HETATM   24  N   UNL     1      -6.027   2.389 -32.549  1.00  0.00    -0.379 N 
HETATM   25  C   UNL     1      -6.160   1.049 -33.138  1.00  0.00     0.123 C 
HETATM   26  C   UNL     1      -5.562  -0.044 -32.250  1.00  0.00     0.020 C 
HETATM   27  C   UNL     1      -6.081   0.050 -30.820  1.00  0.00     0.003 C 
HETATM   28  C   UNL     1      -5.849   1.450 -30.261  1.00  0.00     0.020 C 
HETATM   29  C   UNL     1      -6.486   2.514 -31.153  1.00  0.00     0.123 C 
ENDBRANCH  19  24
BRANCH  22  30
HETATM   30  C   UNL     1      -1.715   5.876 -34.094  1.00  0.00     0.417 C 
HETATM   31  F   UNL     1      -1.062   5.463 -35.216  1.00  0.00    -0.166 F 
HETATM   32  F   UNL     1      -2.154   7.138 -34.361  1.00  0.00    -0.166 F 
HETATM   33  F   UNL     1      -0.756   6.011 -33.136  1.00  0.00    -0.166 F 
ENDBRANCH  22  30
ENDBRANCH   1  18
TORSDOF 8
ENDMDL
MODEL 3
REMARK VINA RESULT:      -8.5      4.061      8.441
REMARK  8 active torsions:
REMARK  status: ('A' for Active; 'I' for Inactive)
REMARK    1  A    between atoms: O_2  and  C_3 
REMARK    2  A    between atoms: C_5  and  O_6 
REMARK    3  A    between atoms: C_8  and  N_9 
REMARK       I    between atoms: N_9  and  C_10 
REMARK    4  A    between atoms: C_10  and  C_11 
REMARK    5  A    between atoms: C_11  and  N_12 
REMARK    6  A    between atoms: N_12  and  C_13 
REMARK    7  A    between atoms: C_14  and  N_15 
REMARK    8  A    between atoms: C_23  and  C_24 
ROOT
HETATM    1  N   UNL     1      -4.937   0.504 -31.419  1.00  0.00    -0.282 NA
HETATM    2  H   UNL     1      -5.609   1.135 -30.964  1.00  0.00     0.128 HD
ENDROOT
BRANCH   1   3
HETATM    3  C   UNL     1      -3.712   1.219 -31.789  1.00  0.00     0.195 C 
BRANCH   3   4
HETATM    4  C   UNL     1      -3.761   2.677 -31.318  1.00  0.00     0.235 C 
HETATM    5  N   UNL     1      -2.782   3.464 -31.896  1.00  0.00    -0.324 N 
HETATM    6  H   UNL     1      -2.022   2.989 -32.378  1.00  0.00     0.169 HD
HETATM    7  O   UNL     1      -4.616   3.054 -30.518  1.00  0.00    -0.272 OA
BRANCH   5   8
HETATM    8  C   UNL     1      -2.687   4.874 -31.894  1.00  0.00     0.068 A 
HETATM    9  C   UNL     1      -1.520   5.448 -31.350  1.00  0.00     0.097 A 
HETATM   10  C   UNL     1      -1.348   6.837 -31.388  1.00  0.00     0.075 A 
HETATM   11  C   UNL     1      -2.318   7.662 -31.965  1.00  0.00     0.070 A 
HETATM   12  C   UNL     1      -3.481   7.095 -32.480  1.00  0.00     0.039 A 
HETATM   13  C   UNL     1      -3.662   5.708 -32.446  1.00  0.00     0.035 A 
BRANCH   9  14
HETATM   14  O   UNL     1      -0.607   4.560 -30.828  1.00  0.00    -0.354 OA
HETATM   15  C   UNL     1       0.728   5.029 -30.673  1.00  0.00     0.210 C 
ENDBRANCH   9  14
BRANCH  11  16
HETATM   16  O   UNL     1      -2.014   8.996 -31.960  1.00  0.00    -0.356 OA
HETATM   17  C   UNL     1      -2.507   9.759 -30.864  1.00  0.00     0.210 C 
ENDBRANCH  11  16
ENDBRANCH   5   8
ENDBRANCH   3   4
ENDBRANCH   1   3
BRANCH   1  18
HETATM   18  C   UNL     1      -5.661  -0.094 -32.491  1.00  0.00     0.036 A 
HETATM   19  C   UNL     1      -6.841   0.550 -32.972  1.00  0.00     0.051 A 
HETATM   20  C   UNL     1      -7.502  -0.031 -34.065  1.00  0.00     0.032 A 
HETATM   21  C   UNL     1      -7.068  -1.231 -34.636  1.00  0.00     0.018 A 
HETATM   22  C   UNL     1      -5.958  -1.901 -34.117  1.00  0.00     0.049 A 
HETATM   23  C   UNL     1      -5.272  -1.331 -33.035  1.00  0.00     0.042 A 
BRANCH  19  24
HETATM   24  N   UNL     1      -7.276   1.751 -32.386  1.00  0.00    -0.379 N 
HETATM   25  C   UNL     1      -7.093   3.028 -33.091  1.00  0.00     0.123 C 
HETATM   26  C   UNL     1      -8.347   3.459 -33.856  1.00  0.00     0.020 C 
HETATM   27  C   UNL     1      -9.586   3.421 -32.969  1.00  0.00     0.003 C 
HETATM   28  C   UNL     1      -9.736   2.046 -32.327  1.00  0.00     0.020 C 
HETATM   29  C   UNL     1      -8.483   1.660 -31.544  1.00  0.00     0.123 C 
ENDBRANCH  19  24
BRANCH  22  30
HETATM   30  C   UNL     1      -5.468  -3.190 -34.723  1.00  0.00     0.417 C 
HETATM   31  F   UNL     1      -6.349  -4.221 -34.600  1.00  0.00    -0.166 F 
HETATM   32  F   UNL     1      -5.217  -3.071 -36.058  1.00  0.00    -0.166 F 
HETATM   33  F   UNL     1      -4.305  -3.626 -34.165  1.00  0.00    -0.166 F 
ENDBRANCH  22  30
ENDBRANCH   1  18
TORSDOF 8
ENDMDL
MODEL 4
REMARK VINA RESULT:      -8.5      2.702      3.984
REMARK  8 active torsions:
REMARK  status: ('A' for Active; 'I' for Inactive)
REMARK    1  A    between atoms: O_2  and  C_3 
REMARK    2  A    between atoms: C_5  and  O_6 
REMARK    3  A    between atoms: C_8  and  N_9 
REMARK       I    between atoms: N_9  and  C_10 
REMARK    4  A    between atoms: C_10  and  C_11 
REMARK    5  A    between atoms: C_11  and  N_12 
REMARK    6  A    between atoms: N_12  and  C_13 
REMARK    7  A    between atoms: C_14  and  N_15 
REMARK    8  A    between atoms: C_23  and  C_24 
ROOT
HETATM    1  N   UNL     1      -6.602   4.441 -34.118  1.00  0.00    -0.282 NA
HETATM    2  H   UNL     1      -6.001   5.017 -34.722  1.00  0.00     0.128 HD
ENDROOT
BRANCH   1   3
HETATM    3  C   UNL     1      -7.458   5.280 -33.273  1.00  0.00     0.195 C 
BRANCH   3   4
HETATM    4  C   UNL     1      -8.941   5.040 -33.580  1.00  0.00     0.235 C 
HETATM    5  N   UNL     1      -9.158   3.903 -34.337  1.00  0.00    -0.324 N 
HETATM    6  H   UNL     1      -8.351   3.478 -34.787  1.00  0.00     0.169 HD
HETATM    7  O   UNL     1      -9.805   5.805 -33.156  1.00  0.00    -0.272 OA
BRANCH   5   8
HETATM    8  C   UNL     1     -10.383   3.246 -34.586  1.00  0.00     0.068 A 
HETATM    9  C   UNL     1     -10.656   2.073 -33.852  1.00  0.00     0.097 A 
HETATM   10  C   UNL     1     -11.886   1.425 -34.013  1.00  0.00     0.075 A 
HETATM   11  C   UNL     1     -12.851   1.930 -34.890  1.00  0.00     0.070 A 
HETATM   12  C   UNL     1     -12.570   3.074 -35.632  1.00  0.00     0.039 A 
HETATM   13  C   UNL     1     -11.343   3.729 -35.478  1.00  0.00     0.035 A 
BRANCH   9  14
HETATM   14  O   UNL     1      -9.661   1.663 -32.994  1.00  0.00    -0.354 OA
HETATM   15  C   UNL     1      -9.646   0.284 -32.641  1.00  0.00     0.210 C 
ENDBRANCH   9  14
BRANCH  11  16
HETATM   16  O   UNL     1     -14.018   1.216 -34.933  1.00  0.00    -0.356 OA
HETATM   17  C   UNL     1     -14.324   0.423 -33.792  1.00  0.00     0.210 C 
ENDBRANCH  11  16
ENDBRANCH   5   8
ENDBRANCH   3   4
ENDBRANCH   1   3
BRANCH   1  18
HETATM   18  C   UNL     1      -5.710   3.567 -33.433  1.00  0.00     0.036 A 
HETATM   19  C   UNL     1      -4.362   3.987 -33.217  1.00  0.00     0.051 A 
HETATM   20  C   UNL     1      -3.520   3.132 -32.490  1.00  0.00     0.032 A 
HETATM   21  C   UNL     1      -3.952   1.882 -32.038  1.00  0.00     0.018 A 
HETATM   22  C   UNL     1      -5.247   1.438 -32.315  1.00  0.00     0.049 A 
HETATM   23  C   UNL     1      -6.111   2.283 -33.026  1.00  0.00     0.042 A 
BRANCH  19  24
HETATM   24  N   UNL     1      -3.933   5.242 -33.682  1.00  0.00    -0.379 N 
HETATM   25  C   UNL     1      -3.460   6.262 -32.735  1.00  0.00     0.123 C 
HETATM   26  C   UNL     1      -1.935   6.279 -32.605  1.00  0.00     0.020 C 
HETATM   27  C   UNL     1      -1.257   6.348 -33.968  1.00  0.00     0.003 C 
HETATM   28  C   UNL     1      -1.755   5.221 -34.867  1.00  0.00     0.020 C 
HETATM   29  C   UNL     1      -3.276   5.253 -35.003  1.00  0.00     0.123 C 
ENDBRANCH  19  24
BRANCH  22  30
HETATM   30  C   UNL     1      -5.736   0.099 -31.829  1.00  0.00     0.417 C 
HETATM   31  F   UNL     1      -6.429  -0.603 -32.769  1.00  0.00    -0.166 F 
HETATM   32  F   UNL     1      -4.714  -0.714 -31.437  1.00  0.00    -0.166 F 
HETATM   33  F   UNL     1      -6.565   0.198 -30.754  1.00  0.00    -0.166 F 
ENDBRANCH  22  30
ENDBRANCH   1  18
TORSDOF 8
ENDMDL
MODEL 5
REMARK VINA RESULT:      -8.4      3.883      8.188
REMARK  8 active torsions:
REMARK  status: ('A' for Active; 'I' for Inactive)
REMARK    1  A    between atoms: O_2  and  C_3 
REMARK    2  A    between atoms: C_5  and  O_6 
REMARK    3  A    between atoms: C_8  and  N_9 
REMARK       I    between atoms: N_9  and  C_10 
REMARK    4  A    between atoms: C_10  and  C_11 
REMARK    5  A    between atoms: C_11  and  N_12 
REMARK    6  A    between atoms: N_12  and  C_13 
REMARK    7  A    between atoms: C_14  and  N_15 
REMARK    8  A    between atoms: C_23  and  C_24 
ROOT
HETATM    1  N   UNL     1      -4.954   0.571 -31.481  1.00  0.00    -0.282 NA
HETATM    2  H   UNL     1      -5.701   1.277 -31.441  1.00  0.00     0.128 HD
ENDROOT
BRANCH   1   3
HETATM    3  C   UNL     1      -3.654   1.197 -31.742  1.00  0.00     0.195 C 
BRANCH   3   4
HETATM    4  C   UNL     1      -3.819   2.674 -32.121  1.00  0.00     0.235 C 
HETATM    5  N   UNL     1      -2.968   3.509 -31.420  1.00  0.00    -0.324 N 
HETATM    6  H   UNL     1      -2.498   3.123 -30.605  1.00  0.00     0.169 HD
HETATM    7  O   UNL     1      -4.630   3.019 -32.978  1.00  0.00    -0.272 OA
BRANCH   5   8
HETATM    8  C   UNL     1      -2.670   4.864 -31.683  1.00  0.00     0.068 A 
HETATM    9  C   UNL     1      -3.483   5.842 -31.075  1.00  0.00     0.097 A 
HETATM   10  C   UNL     1      -3.185   7.199 -31.249  1.00  0.00     0.075 A 
HETATM   11  C   UNL     1      -2.086   7.597 -32.016  1.00  0.00     0.070 A 
HETATM   12  C   UNL     1      -1.298   6.630 -32.636  1.00  0.00     0.039 A 
HETATM   13  C   UNL     1      -1.588   5.272 -32.468  1.00  0.00     0.035 A 
BRANCH   9  14
HETATM   14  O   UNL     1      -4.527   5.360 -30.317  1.00  0.00    -0.354 OA
HETATM   15  C   UNL     1      -5.839   5.739 -30.718  1.00  0.00     0.210 C 
ENDBRANCH   9  14
BRANCH  11  16
HETATM   16  O   UNL     1      -1.892   8.950 -32.084  1.00  0.00    -0.356 OA
HETATM   17  C   UNL     1      -2.337   9.714 -30.970  1.00  0.00     0.210 C 
ENDBRANCH  11  16
ENDBRANCH   5   8
ENDBRANCH   3   4
ENDBRANCH   1   3
BRANCH   1  18
HETATM   18  C   UNL     1      -5.395  -0.381 -32.444  1.00  0.00     0.036 A 
HETATM   19  C   UNL     1      -6.682  -0.214 -33.040  1.00  0.00     0.051 A 
HETATM   20  C   UNL     1      -7.069  -1.133 -34.028  1.00  0.00     0.032 A 
HETATM   21  C   UNL     1      -6.259  -2.216 -34.383  1.00  0.00     0.018 A 
HETATM   22  C   UNL     1      -5.034  -2.423 -33.746  1.00  0.00     0.049 A 
HETATM   23  C   UNL     1      -4.620  -1.507 -32.768  1.00  0.00     0.042 A 
BRANCH  19  24
HETATM   24  N   UNL     1      -7.493   0.872 -32.671  1.00  0.00    -0.379 N 
HETATM   25  C   UNL     1      -7.793   1.937 -33.639  1.00  0.00     0.123 C 
HETATM   26  C   UNL     1      -9.141   1.734 -34.335  1.00  0.00     0.020 C 
HETATM   27  C   UNL     1     -10.260   1.487 -33.330  1.00  0.00     0.003 C 
HETATM   28  C   UNL     1      -9.898   0.329 -32.406  1.00  0.00     0.020 C 
HETATM   29  C   UNL     1      -8.566   0.579 -31.702  1.00  0.00     0.123 C 
ENDBRANCH  19  24
BRANCH  22  30
HETATM   30  C   UNL     1      -4.142  -3.578 -34.121  1.00  0.00     0.417 C 
HETATM   31  F   UNL     1      -3.243  -3.910 -33.153  1.00  0.00    -0.166 F 
HETATM   32  F   UNL     1      -4.848  -4.715 -34.379  1.00  0.00    -0.166 F 
HETATM   33  F   UNL     1      -3.407  -3.335 -35.242  1.00  0.00    -0.166 F 
ENDBRANCH  22  30
ENDBRANCH   1  18
TORSDOF 8
ENDMDL
MODEL 6
REMARK VINA RESULT:      -8.4      2.952      3.554
REMARK  8 active torsions:
REMARK  status: ('A' for Active; 'I' for Inactive)
REMARK    1  A    between atoms: O_2  and  C_3 
REMARK    2  A    between atoms: C_5  and  O_6 
REMARK    3  A    between atoms: C_8  and  N_9 
REMARK       I    between atoms: N_9  and  C_10 
REMARK    4  A    between atoms: C_10  and  C_11 
REMARK    5  A    between atoms: C_11  and  N_12 
REMARK    6  A    between atoms: N_12  and  C_13 
REMARK    7  A    between atoms: C_14  and  N_15 
REMARK    8  A    between atoms: C_23  and  C_24 
ROOT
HETATM    1  N   UNL     1      -8.394   0.943 -34.792  1.00  0.00    -0.282 NA
HETATM    2  H   UNL     1      -8.058   1.913 -34.720  1.00  0.00     0.128 HD
ENDROOT
BRANCH   1   3
HETATM    3  C   UNL     1      -9.676   0.779 -34.099  1.00  0.00     0.195 C 
BRANCH   3   4
HETATM    4  C   UNL     1     -10.333   2.137 -33.826  1.00  0.00     0.235 C 
HETATM    5  N   UNL     1     -10.179   3.030 -34.871  1.00  0.00    -0.324 N 
HETATM    6  H   UNL     1      -9.494   2.801 -35.587  1.00  0.00     0.169 HD
HETATM    7  O   UNL     1     -10.935   2.347 -32.775  1.00  0.00    -0.272 OA
BRANCH   5   8
HETATM    8  C   UNL     1     -10.853   4.255 -35.073  1.00  0.00     0.068 A 
HETATM    9  C   UNL     1     -10.093   5.439 -34.991  1.00  0.00     0.097 A 
HETATM   10  C   UNL     1     -10.701   6.673 -35.253  1.00  0.00     0.075 A 
HETATM   11  C   UNL     1     -12.054   6.745 -35.599  1.00  0.00     0.070 A 
HETATM   12  C   UNL     1     -12.809   5.576 -35.656  1.00  0.00     0.039 A 
HETATM   13  C   UNL     1     -12.210   4.338 -35.396  1.00  0.00     0.035 A 
BRANCH   9  14
HETATM   14  O   UNL     1      -8.765   5.273 -34.670  1.00  0.00    -0.354 OA
HETATM   15  C   UNL     1      -8.364   5.681 -33.367  1.00  0.00     0.210 C 
ENDBRANCH   9  14
BRANCH  11  16
HETATM   16  O   UNL     1     -12.516   8.007 -35.854  1.00  0.00    -0.356 OA
HETATM   17  C   UNL     1     -13.081   8.233 -37.140  1.00  0.00     0.210 C 
ENDBRANCH  11  16
ENDBRANCH   5   8
ENDBRANCH   3   4
ENDBRANCH   1   3
BRANCH   1  18
HETATM   18  C   UNL     1      -7.317   0.142 -34.316  1.00  0.00     0.036 A 
HETATM   19  C   UNL     1      -6.433   0.686 -33.335  1.00  0.00     0.051 A 
HETATM   20  C   UNL     1      -5.415  -0.144 -32.841  1.00  0.00     0.032 A 
HETATM   21  C   UNL     1      -5.221  -1.441 -33.326  1.00  0.00     0.018 A 
HETATM   22  C   UNL     1      -6.038  -1.946 -34.340  1.00  0.00     0.049 A 
HETATM   23  C   UNL     1      -7.072  -1.140 -34.837  1.00  0.00     0.042 A 
BRANCH  19  24
HETATM   24  N   UNL     1      -6.629   1.994 -32.859  1.00  0.00    -0.379 N 
HETATM   25  C   UNL     1      -7.282   2.220 -31.561  1.00  0.00     0.123 C 
HETATM   26  C   UNL     1      -6.275   2.429 -30.427  1.00  0.00     0.020 C 
HETATM   27  C   UNL     1      -5.239   3.488 -30.785  1.00  0.00     0.003 C 
HETATM   28  C   UNL     1      -4.566   3.146 -32.110  1.00  0.00     0.020 C 
HETATM   29  C   UNL     1      -5.595   2.978 -33.226  1.00  0.00     0.123 C 
ENDBRANCH  19  24
BRANCH  22  30
HETATM   30  C   UNL     1      -5.853  -3.344 -34.870  1.00  0.00     0.417 C 
HETATM   31  F   UNL     1      -5.089  -4.136 -34.068  1.00  0.00    -0.166 F 
HETATM   32  F   UNL     1      -7.038  -4.000 -35.023  1.00  0.00    -0.166 F 
HETATM   33  F   UNL     1      -5.255  -3.369 -36.094  1.00  0.00    -0.166 F 
ENDBRANCH  22  30
ENDBRANCH   1  18
TORSDOF 8
ENDMDL
MODEL 7
REMARK VINA RESULT:      -8.3      3.155      8.017
REMARK  8 active torsions:
REMARK  status: ('A' for Active; 'I' for Inactive)
REMARK    1  A    between atoms: O_2  and  C_3 
REMARK    2  A    between atoms: C_5  and  O_6 
REMARK    3  A    between atoms: C_8  and  N_9 
REMARK       I    between atoms: N_9  and  C_10 
REMARK    4  A    between atoms: C_10  and  C_11 
REMARK    5  A    between atoms: C_11  and  N_12 
REMARK    6  A    between atoms: N_12  and  C_13 
REMARK    7  A    between atoms: C_14  and  N_15 
REMARK    8  A    between atoms: C_23  and  C_24 
ROOT
HETATM    1  N   UNL     1      -9.225   1.427 -31.193  1.00  0.00    -0.282 NA
HETATM    2  H   UNL     1     -10.252   1.381 -31.230  1.00  0.00     0.128 HD
ENDROOT
BRANCH   1   3
HETATM    3  C   UNL     1      -8.772   2.775 -30.834  1.00  0.00     0.195 C 
BRANCH   3   4
HETATM    4  C   UNL     1      -7.274   2.783 -30.508  1.00  0.00     0.235 C 
HETATM    5  N   UNL     1      -6.509   3.361 -31.505  1.00  0.00    -0.324 N 
HETATM    6  H   UNL     1      -6.952   3.513 -32.408  1.00  0.00     0.169 HD
HETATM    7  O   UNL     1      -6.855   2.324 -29.447  1.00  0.00    -0.272 OA
BRANCH   5   8
HETATM    8  C   UNL     1      -5.156   3.763 -31.440  1.00  0.00     0.068 A 
HETATM    9  C   UNL     1      -4.172   2.786 -31.693  1.00  0.00     0.097 A 
HETATM   10  C   UNL     1      -2.820   3.151 -31.708  1.00  0.00     0.075 A 
HETATM   11  C   UNL     1      -2.434   4.475 -31.480  1.00  0.00     0.070 A 
HETATM   12  C   UNL     1      -3.407   5.433 -31.205  1.00  0.00     0.039 A 
HETATM   13  C   UNL     1      -4.760   5.078 -31.188  1.00  0.00     0.035 A 
BRANCH   9  14
HETATM   14  O   UNL     1      -4.643   1.515 -31.934  1.00  0.00    -0.354 OA
HETATM   15  C   UNL     1      -4.239   0.498 -31.023  1.00  0.00     0.210 C 
ENDBRANCH   9  14
BRANCH  11  16
HETATM   16  O   UNL     1      -1.086   4.701 -31.548  1.00  0.00    -0.356 OA
HETATM   17  C   UNL     1      -0.520   5.501 -30.517  1.00  0.00     0.210 C 
ENDBRANCH  11  16
ENDBRANCH   5   8
ENDBRANCH   3   4
ENDBRANCH   1   3
BRANCH   1  18
HETATM   18  C   UNL     1      -8.789   0.936 -32.457  1.00  0.00     0.036 A 
HETATM   19  C   UNL     1      -9.531   1.284 -33.627  1.00  0.00     0.051 A 
HETATM   20  C   UNL     1      -9.046   0.834 -34.865  1.00  0.00     0.032 A 
HETATM   21  C   UNL     1      -7.912   0.022 -34.962  1.00  0.00     0.018 A 
HETATM   22  C   UNL     1      -7.230  -0.381 -33.812  1.00  0.00     0.049 A 
HETATM   23  C   UNL     1      -7.687   0.070 -32.565  1.00  0.00     0.042 A 
BRANCH  19  24
HETATM   24  N   UNL     1     -10.674   2.093 -33.520  1.00  0.00    -0.379 N 
HETATM   25  C   UNL     1     -10.626   3.503 -33.931  1.00  0.00     0.123 C 
HETATM   26  C   UNL     1     -11.145   3.718 -35.355  1.00  0.00     0.020 C 
HETATM   27  C   UNL     1     -12.508   3.067 -35.559  1.00  0.00     0.003 C 
HETATM   28  C   UNL     1     -12.456   1.593 -35.170  1.00  0.00     0.020 C 
HETATM   29  C   UNL     1     -11.967   1.417 -33.734  1.00  0.00     0.123 C 
ENDBRANCH  19  24
BRANCH  22  30
HETATM   30  C   UNL     1      -6.001  -1.247 -33.894  1.00  0.00     0.417 C 
HETATM   31  F   UNL     1      -5.708  -1.891 -32.729  1.00  0.00    -0.166 F 
HETATM   32  F   UNL     1      -6.117  -2.222 -34.840  1.00  0.00    -0.166 F 
HETATM   33  F   UNL     1      -4.881  -0.545 -34.221  1.00  0.00    -0.166 F 
ENDBRANCH  22  30
ENDBRANCH   1  18
TORSDOF 8
ENDMDL
MODEL 8
REMARK VINA RESULT:      -8.0     15.243     16.608
REMARK  8 active torsions:
REMARK  status: ('A' for Active; 'I' for Inactive)
REMARK    1  A    between atoms: O_2  and  C_3 
REMARK    2  A    between atoms: C_5  and  O_6 
REMARK    3  A    between atoms: C_8  and  N_9 
REMARK       I    between atoms: N_9  and  C_10 
REMARK    4  A    between atoms: C_10  and  C_11 
REMARK    5  A    between atoms: C_11  and  N_12 
REMARK    6  A    between atoms: N_12  and  C_13 
REMARK    7  A    between atoms: C_14  and  N_15 
REMARK    8  A    between atoms: C_23  and  C_24 
ROOT
HETATM    1  N   UNL     1      -4.563 -12.132 -37.592  1.00  0.00    -0.282 NA
HETATM    2  H   UNL     1      -5.532 -12.412 -37.390  1.00  0.00     0.128 HD
ENDROOT
BRANCH   1   3
HETATM    3  C   UNL     1      -4.380 -11.862 -39.021  1.00  0.00     0.195 C 
BRANCH   3   4
HETATM    4  C   UNL     1      -5.494 -12.510 -39.851  1.00  0.00     0.235 C 
HETATM    5  N   UNL     1      -6.652 -12.725 -39.126  1.00  0.00    -0.324 N 
HETATM    6  H   UNL     1      -6.592 -12.650 -38.113  1.00  0.00     0.169 HD
HETATM    7  O   UNL     1      -5.324 -12.774 -41.040  1.00  0.00    -0.272 OA
BRANCH   5   8
HETATM    8  C   UNL     1      -7.935 -13.059 -39.615  1.00  0.00     0.068 A 
HETATM    9  C   UNL     1      -8.229 -14.426 -39.796  1.00  0.00     0.097 A 
HETATM   10  C   UNL     1      -9.509 -14.810 -40.212  1.00  0.00     0.075 A 
HETATM   11  C   UNL     1     -10.502 -13.855 -40.446  1.00  0.00     0.070 A 
HETATM   12  C   UNL     1     -10.202 -12.504 -40.291  1.00  0.00     0.039 A 
HETATM   13  C   UNL     1      -8.926 -12.110 -39.875  1.00  0.00     0.035 A 
BRANCH   9  14
HETATM   14  O   UNL     1      -7.201 -15.298 -39.517  1.00  0.00    -0.354 OA
HETATM   15  C   UNL     1      -6.793 -16.167 -40.569  1.00  0.00     0.210 C 
ENDBRANCH   9  14
BRANCH  11  16
HETATM   16  O   UNL     1     -11.714 -14.366 -40.823  1.00  0.00    -0.356 OA
HETATM   17  C   UNL     1     -11.694 -15.413 -41.787  1.00  0.00     0.210 C 
ENDBRANCH  11  16
ENDBRANCH   5   8
ENDBRANCH   3   4
ENDBRANCH   1   3
BRANCH   1  18
HETATM   18  C   UNL     1      -3.758 -13.172 -37.043  1.00  0.00     0.036 A 
HETATM   19  C   UNL     1      -4.233 -13.883 -35.899  1.00  0.00     0.051 A 
HETATM   20  C   UNL     1      -3.447 -14.940 -35.414  1.00  0.00     0.032 A 
HETATM   21  C   UNL     1      -2.210 -15.259 -35.982  1.00  0.00     0.018 A 
HETATM   22  C   UNL     1      -1.710 -14.514 -37.052  1.00  0.00     0.049 A 
HETATM   23  C   UNL     1      -2.486 -13.464 -37.564  1.00  0.00     0.042 A 
BRANCH  19  24
HETATM   24  N   UNL     1      -5.474 -13.551 -35.330  1.00  0.00    -0.379 N 
HETATM   25  C   UNL     1      -6.674 -14.334 -35.657  1.00  0.00     0.123 C 
HETATM   26  C   UNL     1      -6.976 -15.408 -34.610  1.00  0.00     0.020 C 
HETATM   27  C   UNL     1      -6.989 -14.829 -33.200  1.00  0.00     0.003 C 
HETATM   28  C   UNL     1      -5.685 -14.089 -32.919  1.00  0.00     0.020 C 
HETATM   29  C   UNL     1      -5.431 -13.002 -33.961  1.00  0.00     0.123 C 
ENDBRANCH  19  24
BRANCH  22  30
HETATM   30  C   UNL     1      -0.384 -14.847 -37.685  1.00  0.00     0.417 C 
HETATM   31  F   UNL     1       0.223 -13.779 -38.275  1.00  0.00    -0.166 F 
HETATM   32  F   UNL     1       0.514 -15.332 -36.781  1.00  0.00    -0.166 F 
HETATM   33  F   UNL     1      -0.485 -15.798 -38.655  1.00  0.00    -0.166 F 
ENDBRANCH  22  30
ENDBRANCH   1  18
TORSDOF 8
ENDMDL
MODEL 9
REMARK VINA RESULT:      -8.0      3.795      6.954
REMARK  8 active torsions:
REMARK  status: ('A' for Active; 'I' for Inactive)
REMARK    1  A    between atoms: O_2  and  C_3 
REMARK    2  A    between atoms: C_5  and  O_6 
REMARK    3  A    between atoms: C_8  and  N_9 
REMARK       I    between atoms: N_9  and  C_10 
REMARK    4  A    between atoms: C_10  and  C_11 
REMARK    5  A    between atoms: C_11  and  N_12 
REMARK    6  A    between atoms: N_12  and  C_13 
REMARK    7  A    between atoms: C_14  and  N_15 
REMARK    8  A    between atoms: C_23  and  C_24 
ROOT
HETATM    1  N   UNL     1      -5.238   0.496 -31.449  1.00  0.00    -0.282 NA
HETATM    2  H   UNL     1      -5.858   1.312 -31.535  1.00  0.00     0.128 HD
ENDROOT
BRANCH   1   3
HETATM    3  C   UNL     1      -3.829   0.900 -31.494  1.00  0.00     0.195 C 
BRANCH   3   4
HETATM    4  C   UNL     1      -3.693   2.427 -31.499  1.00  0.00     0.235 C 
HETATM    5  N   UNL     1      -4.900   3.075 -31.689  1.00  0.00    -0.324 N 
HETATM    6  H   UNL     1      -5.685   2.517 -32.016  1.00  0.00     0.169 HD
HETATM    7  O   UNL     1      -2.600   2.964 -31.329  1.00  0.00    -0.272 OA
BRANCH   5   8
HETATM    8  C   UNL     1      -5.190   4.444 -31.500  1.00  0.00     0.068 A 
HETATM    9  C   UNL     1      -5.422   5.227 -32.649  1.00  0.00     0.097 A 
HETATM   10  C   UNL     1      -5.782   6.573 -32.510  1.00  0.00     0.075 A 
HETATM   11  C   UNL     1      -5.918   7.150 -31.244  1.00  0.00     0.070 A 
HETATM   12  C   UNL     1      -5.665   6.382 -30.111  1.00  0.00     0.039 A 
HETATM   13  C   UNL     1      -5.305   5.036 -30.240  1.00  0.00     0.035 A 
BRANCH   9  14
HETATM   14  O   UNL     1      -5.291   4.572 -33.853  1.00  0.00    -0.354 OA
HETATM   15  C   UNL     1      -4.290   5.055 -34.741  1.00  0.00     0.210 C 
ENDBRANCH   9  14
BRANCH  11  16
HETATM   16  O   UNL     1      -6.299   8.465 -31.250  1.00  0.00    -0.356 OA
HETATM   17  C   UNL     1      -6.562   9.058 -29.984  1.00  0.00     0.210 C 
ENDBRANCH  11  16
ENDBRANCH   5   8
ENDBRANCH   3   4
ENDBRANCH   1   3
BRANCH   1  18
HETATM   18  C   UNL     1      -5.665  -0.402 -32.469  1.00  0.00     0.036 A 
HETATM   19  C   UNL     1      -6.955  -0.220 -33.054  1.00  0.00     0.051 A 
HETATM   20  C   UNL     1      -7.327  -1.084 -34.095  1.00  0.00     0.032 A 
HETATM   21  C   UNL     1      -6.501  -2.130 -34.517  1.00  0.00     0.018 A 
HETATM   22  C   UNL     1      -5.272  -2.355 -33.893  1.00  0.00     0.049 A 
HETATM   23  C   UNL     1      -4.872  -1.494 -32.861  1.00  0.00     0.042 A 
BRANCH  19  24
HETATM   24  N   UNL     1      -7.783   0.828 -32.618  1.00  0.00    -0.379 N 
HETATM   25  C   UNL     1      -7.907   2.056 -33.417  1.00  0.00     0.123 C 
HETATM   26  C   UNL     1      -9.141   2.044 -34.323  1.00  0.00     0.020 C 
HETATM   27  C   UNL     1     -10.403   1.688 -33.547  1.00  0.00     0.003 C 
HETATM   28  C   UNL     1     -10.213   0.373 -32.798  1.00  0.00     0.020 C 
HETATM   29  C   UNL     1      -8.995   0.431 -31.878  1.00  0.00     0.123 C 
ENDBRANCH  19  24
BRANCH  22  30
HETATM   30  C   UNL     1      -4.361  -3.470 -34.338  1.00  0.00     0.417 C 
HETATM   31  F   UNL     1      -5.026  -4.579 -34.770  1.00  0.00    -0.166 F 
HETATM   32  F   UNL     1      -3.551  -3.097 -35.368  1.00  0.00    -0.166 F 
HETATM   33  F   UNL     1      -3.530  -3.899 -33.347  1.00  0.00    -0.166 F 
ENDBRANCH  22  30
ENDBRANCH   1  18
TORSDOF 8
ENDMDL
MODEL 10
REMARK VINA RESULT:      -8.0      1.587      2.466
REMARK  8 active torsions:
REMARK  status: ('A' for Active; 'I' for Inactive)
REMARK    1  A    between atoms: O_2  and  C_3 
REMARK    2  A    between atoms: C_5  and  O_6 
REMARK    3  A    between atoms: C_8  and  N_9 
REMARK       I    between atoms: N_9  and  C_10 
REMARK    4  A    between atoms: C_10  and  C_11 
REMARK    5  A    between atoms: C_11  and  N_12 
REMARK    6  A    between atoms: N_12  and  C_13 
REMARK    7  A    between atoms: C_14  and  N_15 
REMARK    8  A    between atoms: C_23  and  C_24 
ROOT
HETATM    1  N   UNL     1      -8.405   1.005 -34.457  1.00  0.00    -0.282 NA
HETATM    2  H   UNL     1      -8.131   1.972 -34.240  1.00  0.00     0.128 HD
ENDROOT
BRANCH   1   3
HETATM    3  C   UNL     1      -9.695   0.674 -33.842  1.00  0.00     0.195 C 
BRANCH   3   4
HETATM    4  C   UNL     1     -10.665   1.858 -33.925  1.00  0.00     0.235 C 
HETATM    5  N   UNL     1     -11.807   1.673 -33.167  1.00  0.00    -0.324 N 
HETATM    6  H   UNL     1     -11.997   0.735 -32.826  1.00  0.00     0.169 HD
HETATM    7  O   UNL     1     -10.395   2.850 -34.599  1.00  0.00    -0.272 OA
BRANCH   5   8
HETATM    8  C   UNL     1     -12.777   2.636 -32.810  1.00  0.00     0.068 A 
HETATM    9  C   UNL     1     -14.124   2.221 -32.770  1.00  0.00     0.097 A 
HETATM   10  C   UNL     1     -15.114   3.120 -32.354  1.00  0.00     0.075 A 
HETATM   11  C   UNL     1     -14.783   4.423 -31.972  1.00  0.00     0.070 A 
HETATM   12  C   UNL     1     -13.455   4.838 -32.036  1.00  0.00     0.039 A 
HETATM   13  C   UNL     1     -12.458   3.947 -32.450  1.00  0.00     0.035 A 
BRANCH   9  14
HETATM   14  O   UNL     1     -14.356   0.915 -33.136  1.00  0.00    -0.354 OA
HETATM   15  C   UNL     1     -15.124   0.706 -34.317  1.00  0.00     0.210 C 
ENDBRANCH   9  14
BRANCH  11  16
HETATM   16  O   UNL     1     -15.840   5.189 -31.562  1.00  0.00    -0.356 OA
HETATM   17  C   UNL     1     -15.776   6.578 -31.862  1.00  0.00     0.210 C 
ENDBRANCH  11  16
ENDBRANCH   5   8
ENDBRANCH   3   4
ENDBRANCH   1   3
BRANCH   1  18
HETATM   18  C   UNL     1      -7.296   0.207 -34.053  1.00  0.00     0.036 A 
HETATM   19  C   UNL     1      -6.396   0.722 -33.072  1.00  0.00     0.051 A 
HETATM   20  C   UNL     1      -5.345  -0.107 -32.651  1.00  0.00     0.032 A 
HETATM   21  C   UNL     1      -5.136  -1.372 -33.208  1.00  0.00     0.018 A 
HETATM   22  C   UNL     1      -5.971  -1.845 -34.222  1.00  0.00     0.049 A 
HETATM   23  C   UNL     1      -7.038  -1.040 -34.647  1.00  0.00     0.042 A 
BRANCH  19  24
HETATM   24  N   UNL     1      -6.608   1.999 -32.524  1.00  0.00    -0.379 N 
HETATM   25  C   UNL     1      -7.334   2.149 -31.254  1.00  0.00     0.123 C 
HETATM   26  C   UNL     1      -6.394   2.270 -30.052  1.00  0.00     0.020 C 
HETATM   27  C   UNL     1      -5.329   3.337 -30.278  1.00  0.00     0.003 C 
HETATM   28  C   UNL     1      -4.581   3.072 -31.581  1.00  0.00     0.020 C 
HETATM   29  C   UNL     1      -5.544   2.991 -32.765  1.00  0.00     0.123 C 
ENDBRANCH  19  24
BRANCH  22  30
HETATM   30  C   UNL     1      -5.770  -3.209 -34.829  1.00  0.00     0.417 C 
HETATM   31  F   UNL     1      -5.327  -3.174 -36.117  1.00  0.00    -0.166 F 
HETATM   32  F   UNL     1      -4.857  -3.952 -34.142  1.00  0.00    -0.166 F 
HETATM   33  F   UNL     1      -6.912  -3.951 -34.849  1.00  0.00    -0.166 F 
ENDBRANCH  22  30
ENDBRANCH   1  18
TORSDOF 8
ENDMDL
