MODEL 1
REMARK VINA RESULT:      -9.8      0.000      0.000
REMARK  3 active torsions:
REMARK  status: ('A' for Active; 'I' for Inactive)
REMARK    1  A    between atoms: C_2  and  C_3 
REMARK    2  A    between atoms: C_6  and  N_7 
REMARK    3  A    between atoms: C_14  and  C_15 
REMARK       I    between atoms: C_15  and  N_16 
ROOT
HETATM    1  N   UNL     1      -6.989   0.933 -33.078  1.00  0.00    -0.252 N 
HETATM    2  C   UNL     1      -7.850   1.123 -32.027  1.00  0.00     0.238 C 
HETATM    3  O   UNL     1      -8.315   0.325 -31.226  1.00  0.00    -0.272 OA
HETATM    4  C   UNL     1      -8.054   2.591 -31.825  1.00  0.00     0.135 C 
HETATM    5  C   UNL     1      -7.445   3.246 -33.051  1.00  0.00     0.130 C 
HETATM    6  C   UNL     1      -6.683   2.123 -33.709  1.00  0.00     0.238 C 
HETATM    7  O   UNL     1      -6.081   2.280 -34.758  1.00  0.00    -0.272 OA
HETATM    8  C   UNL     1      -7.271   3.105 -30.629  1.00  0.00     0.298 C 
HETATM    9  N   UNL     1      -6.955   4.546 -31.059  1.00  0.00    -0.028 N 
HETATM   10  H   UNL     1      -7.807   5.105 -30.914  1.00  0.00     0.287 HD
HETATM   11  C   UNL     1      -6.726   4.529 -32.587  1.00  0.00     0.242 C 
HETATM   12  C   UNL     1      -5.926   5.133 -30.251  1.00  0.00     0.203 C 
HETATM   13  C   UNL     1      -4.733   5.456 -30.755  1.00  0.00     0.037 C 
HETATM   14  C   UNL     1      -4.375   5.288 -32.157  1.00  0.00    -0.026 A 
HETATM   15  C   UNL     1      -5.346   4.868 -33.072  1.00  0.00    -0.016 A 
HETATM   16  C   UNL     1      -3.081   5.606 -32.590  1.00  0.00     0.012 A 
HETATM   17  C   UNL     1      -2.757   5.543 -33.943  1.00  0.00     0.001 A 
HETATM   18  C   UNL     1      -3.734   5.199 -34.869  1.00  0.00     0.001 A 
HETATM   19  C   UNL     1      -5.024   4.887 -34.438  1.00  0.00     0.010 A 
ENDROOT
BRANCH   1  20
HETATM   20  C   UNL     1      -6.513  -0.339 -33.519  1.00  0.00     0.045 A 
HETATM   21  C   UNL     1      -5.197  -0.760 -33.269  1.00  0.00     0.031 A 
HETATM   22  C   UNL     1      -4.759  -2.043 -33.633  1.00  0.00     0.017 A 
HETATM   23  C   UNL     1      -5.629  -2.926 -34.273  1.00  0.00     0.009 A 
HETATM   24  C   UNL     1      -6.921  -2.500 -34.586  1.00  0.00     0.017 A 
HETATM   25  C   UNL     1      -7.358  -1.227 -34.205  1.00  0.00     0.031 A 
BRANCH  23  26
HETATM   26  C   UNL     1      -5.241  -4.312 -34.644  1.00  0.00     0.155 C 
HETATM   27  C   UNL     1      -3.981  -4.909 -34.073  1.00  0.00     0.096 C 
HETATM   28  O   UNL     1      -5.988  -4.967 -35.368  1.00  0.00    -0.293 OA
ENDBRANCH  23  26
ENDBRANCH   1  20
BRANCH   8  29
HETATM   29  C   UNL     1      -6.037   2.235 -30.297  1.00  0.00     0.248 C 
HETATM   30  N   UNL     1      -6.150   1.387 -29.237  1.00  0.00    -0.368 N 
HETATM   31  H   UNL     1      -7.043   0.986 -28.961  1.00  0.00     0.159 HD
HETATM   32  H   UNL     1      -5.363   0.755 -29.098  1.00  0.00     0.159 HD
HETATM   33  O   UNL     1      -5.018   2.268 -30.976  1.00  0.00    -0.271 OA
ENDBRANCH   8  29
TORSDOF 3
ENDMDL
MODEL 2
REMARK VINA RESULT:      -9.4      2.081      6.969
REMARK  3 active torsions:
REMARK  status: ('A' for Active; 'I' for Inactive)
REMARK    1  A    between atoms: C_2  and  C_3 
REMARK    2  A    between atoms: C_6  and  N_7 
REMARK    3  A    between atoms: C_14  and  C_15 
REMARK       I    between atoms: C_15  and  N_16 
ROOT
HETATM    1  N   UNL     1      -5.537   3.471 -31.362  1.00  0.00    -0.252 N 
HETATM    2  C   UNL     1      -6.842   3.767 -31.065  1.00  0.00     0.238 C 
HETATM    3  O   UNL     1      -7.449   4.828 -31.120  1.00  0.00    -0.272 OA
HETATM    4  C   UNL     1      -7.584   2.495 -30.803  1.00  0.00     0.135 C 
HETATM    5  C   UNL     1      -6.510   1.428 -30.697  1.00  0.00     0.130 C 
HETATM    6  C   UNL     1      -5.270   2.125 -31.199  1.00  0.00     0.238 C 
HETATM    7  O   UNL     1      -4.184   1.569 -31.228  1.00  0.00    -0.272 OA
HETATM    8  C   UNL     1      -8.461   2.106 -31.981  1.00  0.00     0.298 C 
HETATM    9  N   UNL     1      -8.445   0.572 -31.889  1.00  0.00    -0.028 N 
HETATM   10  H   UNL     1      -9.096   0.301 -31.138  1.00  0.00     0.287 HD
HETATM   11  C   UNL     1      -7.043   0.158 -31.389  1.00  0.00     0.242 C 
HETATM   12  C   UNL     1      -8.917  -0.042 -33.095  1.00  0.00     0.203 C 
HETATM   13  C   UNL     1      -8.115  -0.771 -33.875  1.00  0.00     0.037 C 
HETATM   14  C   UNL     1      -6.718  -1.046 -33.566  1.00  0.00    -0.026 A 
HETATM   15  C   UNL     1      -6.187  -0.629 -32.340  1.00  0.00    -0.016 A 
HETATM   16  C   UNL     1      -5.935  -1.778 -34.467  1.00  0.00     0.012 A 
HETATM   17  C   UNL     1      -4.629  -2.132 -34.137  1.00  0.00     0.001 A 
HETATM   18  C   UNL     1      -4.116  -1.787 -32.893  1.00  0.00     0.001 A 
HETATM   19  C   UNL     1      -4.898  -1.062 -31.993  1.00  0.00     0.010 A 
ENDROOT
BRANCH   1  20
HETATM   20  C   UNL     1      -4.548   4.432 -31.730  1.00  0.00     0.045 A 
HETATM   21  C   UNL     1      -4.061   5.377 -30.813  1.00  0.00     0.031 A 
HETATM   22  C   UNL     1      -3.031   6.267 -31.157  1.00  0.00     0.017 A 
HETATM   23  C   UNL     1      -2.479   6.238 -32.438  1.00  0.00     0.009 A 
HETATM   24  C   UNL     1      -2.994   5.348 -33.381  1.00  0.00     0.017 A 
HETATM   25  C   UNL     1      -4.009   4.452 -33.028  1.00  0.00     0.031 A 
BRANCH  23  26
HETATM   26  C   UNL     1      -1.357   7.121 -32.851  1.00  0.00     0.155 C 
HETATM   27  C   UNL     1      -0.059   7.080 -32.087  1.00  0.00     0.096 C 
HETATM   28  O   UNL     1      -1.491   7.830 -33.846  1.00  0.00    -0.293 OA
ENDBRANCH  23  26
ENDBRANCH   1  20
BRANCH   8  29
HETATM   29  C   UNL     1      -7.962   2.688 -33.322  1.00  0.00     0.248 C 
HETATM   30  N   UNL     1      -8.672   3.726 -33.846  1.00  0.00    -0.368 N 
HETATM   31  H   UNL     1      -9.177   4.383 -33.256  1.00  0.00     0.159 HD
HETATM   32  H   UNL     1      -8.268   4.155 -34.677  1.00  0.00     0.159 HD
HETATM   33  O   UNL     1      -6.951   2.270 -33.875  1.00  0.00    -0.271 OA
ENDBRANCH   8  29
TORSDOF 3
ENDMDL
MODEL 3
REMARK VINA RESULT:      -8.8      1.871      2.349
REMARK  3 active torsions:
REMARK  status: ('A' for Active; 'I' for Inactive)
REMARK    1  A    between atoms: C_2  and  C_3 
REMARK    2  A    between atoms: C_6  and  N_7 
REMARK    3  A    between atoms: C_14  and  C_15 
REMARK       I    between atoms: C_15  and  N_16 
ROOT
HETATM    1  N   UNL     1      -7.633   2.346 -33.806  1.00  0.00    -0.252 N 
HETATM    2  C   UNL     1      -8.964   2.601 -33.594  1.00  0.00     0.238 C 
HETATM    3  O   UNL     1      -9.906   1.835 -33.445  1.00  0.00    -0.272 OA
HETATM    4  C   UNL     1      -9.149   4.067 -33.364  1.00  0.00     0.135 C 
HETATM    5  C   UNL     1      -7.821   4.696 -33.745  1.00  0.00     0.130 C 
HETATM    6  C   UNL     1      -6.896   3.513 -33.880  1.00  0.00     0.238 C 
HETATM    7  O   UNL     1      -5.729   3.640 -34.213  1.00  0.00    -0.272 OA
HETATM    8  C   UNL     1      -9.365   4.379 -31.893  1.00  0.00     0.298 C 
HETATM    9  N   UNL     1      -8.740   5.779 -31.776  1.00  0.00    -0.028 N 
HETATM   10  H   UNL     1      -9.419   6.452 -32.160  1.00  0.00     0.287 HD
HETATM   11  C   UNL     1      -7.529   5.822 -32.733  1.00  0.00     0.242 C 
HETATM   12  C   UNL     1      -8.509   6.150 -30.410  1.00  0.00     0.203 C 
HETATM   13  C   UNL     1      -7.276   6.317 -29.926  1.00  0.00     0.037 C 
HETATM   14  C   UNL     1      -6.067   6.182 -30.727  1.00  0.00    -0.026 A 
HETATM   15  C   UNL     1      -6.173   5.974 -32.107  1.00  0.00    -0.016 A 
HETATM   16  C   UNL     1      -4.811   6.324 -30.124  1.00  0.00     0.012 A 
HETATM   17  C   UNL     1      -3.652   6.297 -30.898  1.00  0.00     0.001 A 
HETATM   18  C   UNL     1      -3.749   6.165 -32.277  1.00  0.00     0.001 A 
HETATM   19  C   UNL     1      -5.001   6.029 -32.878  1.00  0.00     0.010 A 
ENDROOT
BRANCH   1  20
HETATM   20  C   UNL     1      -7.074   1.046 -33.997  1.00  0.00     0.045 A 
HETATM   21  C   UNL     1      -6.236   0.456 -33.037  1.00  0.00     0.031 A 
HETATM   22  C   UNL     1      -5.756  -0.854 -33.193  1.00  0.00     0.017 A 
HETATM   23  C   UNL     1      -6.092  -1.593 -34.327  1.00  0.00     0.009 A 
HETATM   24  C   UNL     1      -6.871  -0.999 -35.321  1.00  0.00     0.017 A 
HETATM   25  C   UNL     1      -7.361   0.300 -35.152  1.00  0.00     0.031 A 
BRANCH  23  26
HETATM   26  C   UNL     1      -5.653  -2.999 -34.531  1.00  0.00     0.155 C 
HETATM   27  C   UNL     1      -6.662  -4.040 -34.944  1.00  0.00     0.096 C 
HETATM   28  O   UNL     1      -4.462  -3.275 -34.412  1.00  0.00    -0.293 OA
ENDBRANCH  23  26
ENDBRANCH   1  20
BRANCH   8  29
HETATM   29  C   UNL     1      -8.760   3.311 -30.954  1.00  0.00     0.248 C 
HETATM   30  N   UNL     1      -9.632   2.459 -30.347  1.00  0.00    -0.368 N 
HETATM   31  H   UNL     1     -10.517   2.200 -30.777  1.00  0.00     0.159 HD
HETATM   32  H   UNL     1      -9.205   1.704 -29.813  1.00  0.00     0.159 HD
HETATM   33  O   UNL     1      -7.550   3.201 -30.791  1.00  0.00    -0.271 OA
ENDBRANCH   8  29
TORSDOF 3
ENDMDL
MODEL 4
REMARK VINA RESULT:      -8.7      3.012      5.649
REMARK  3 active torsions:
REMARK  status: ('A' for Active; 'I' for Inactive)
REMARK    1  A    between atoms: C_2  and  C_3 
REMARK    2  A    between atoms: C_6  and  N_7 
REMARK    3  A    between atoms: C_14  and  C_15 
REMARK       I    between atoms: C_15  and  N_16 
ROOT
HETATM    1  N   UNL     1      -8.090   1.673 -33.287  1.00  0.00    -0.252 N 
HETATM    2  C   UNL     1      -7.632   2.809 -32.671  1.00  0.00     0.238 C 
HETATM    3  O   UNL     1      -8.221   3.636 -31.988  1.00  0.00    -0.272 OA
HETATM    4  C   UNL     1      -6.141   2.856 -32.780  1.00  0.00     0.135 C 
HETATM    5  C   UNL     1      -5.785   1.767 -33.777  1.00  0.00     0.130 C 
HETATM    6  C   UNL     1      -7.072   0.996 -33.931  1.00  0.00     0.238 C 
HETATM    7  O   UNL     1      -7.170   0.048 -34.693  1.00  0.00    -0.272 OA
HETATM    8  C   UNL     1      -5.472   2.473 -31.471  1.00  0.00     0.298 C 
HETATM    9  N   UNL     1      -4.171   1.821 -31.964  1.00  0.00    -0.028 N 
HETATM   10  H   UNL     1      -3.527   2.579 -32.231  1.00  0.00     0.287 HD
HETATM   11  C   UNL     1      -4.500   1.078 -33.278  1.00  0.00     0.242 C 
HETATM   12  C   UNL     1      -3.524   1.066 -30.931  1.00  0.00     0.203 C 
HETATM   13  C   UNL     1      -3.402  -0.261 -31.000  1.00  0.00     0.037 C 
HETATM   14  C   UNL     1      -3.866  -1.059 -32.127  1.00  0.00    -0.026 A 
HETATM   15  C   UNL     1      -4.374  -0.419 -33.263  1.00  0.00    -0.016 A 
HETATM   16  C   UNL     1      -3.744  -2.454 -32.093  1.00  0.00     0.012 A 
HETATM   17  C   UNL     1      -4.092  -3.218 -33.205  1.00  0.00     0.001 A 
HETATM   18  C   UNL     1      -4.527  -2.588 -34.363  1.00  0.00     0.001 A 
HETATM   19  C   UNL     1      -4.644  -1.197 -34.399  1.00  0.00     0.010 A 
ENDROOT
BRANCH   1  20
HETATM   20  C   UNL     1      -9.458   1.263 -33.324  1.00  0.00     0.045 A 
HETATM   21  C   UNL     1     -10.453   2.069 -33.902  1.00  0.00     0.031 A 
HETATM   22  C   UNL     1     -11.781   1.626 -34.008  1.00  0.00     0.017 A 
HETATM   23  C   UNL     1     -12.141   0.369 -33.521  1.00  0.00     0.009 A 
HETATM   24  C   UNL     1     -11.179  -0.417 -32.888  1.00  0.00     0.017 A 
HETATM   25  C   UNL     1      -9.853   0.022 -32.799  1.00  0.00     0.031 A 
BRANCH  23  26
HETATM   26  C   UNL     1     -13.519  -0.176 -33.644  1.00  0.00     0.155 C 
HETATM   27  C   UNL     1     -14.592   0.657 -34.295  1.00  0.00     0.096 C 
HETATM   28  O   UNL     1     -13.743  -1.322 -33.261  1.00  0.00    -0.293 OA
ENDBRANCH  23  26
ENDBRANCH   1  20
BRANCH   8  29
HETATM   29  C   UNL     1      -6.359   1.575 -30.580  1.00  0.00     0.248 C 
HETATM   30  N   UNL     1      -6.946   2.166 -29.502  1.00  0.00    -0.368 N 
HETATM   31  H   UNL     1      -7.195   3.152 -29.498  1.00  0.00     0.159 HD
HETATM   32  H   UNL     1      -7.602   1.580 -28.988  1.00  0.00     0.159 HD
HETATM   33  O   UNL     1      -6.565   0.397 -30.847  1.00  0.00    -0.271 OA
ENDBRANCH   8  29
TORSDOF 3
ENDMDL
MODEL 5
REMARK VINA RESULT:      -8.5      3.033      5.145
REMARK  3 active torsions:
REMARK  status: ('A' for Active; 'I' for Inactive)
REMARK    1  A    between atoms: C_2  and  C_3 
REMARK    2  A    between atoms: C_6  and  N_7 
REMARK    3  A    between atoms: C_14  and  C_15 
REMARK       I    between atoms: C_15  and  N_16 
ROOT
HETATM    1  N   UNL     1      -7.725   1.975 -31.842  1.00  0.00    -0.252 N 
HETATM    2  C   UNL     1      -7.414   3.180 -31.265  1.00  0.00     0.238 C 
HETATM    3  O   UNL     1      -6.328   3.676 -30.998  1.00  0.00    -0.272 OA
HETATM    4  C   UNL     1      -8.661   3.994 -31.134  1.00  0.00     0.135 C 
HETATM    5  C   UNL     1      -9.795   3.031 -31.435  1.00  0.00     0.130 C 
HETATM    6  C   UNL     1      -9.090   1.823 -32.000  1.00  0.00     0.238 C 
HETATM    7  O   UNL     1      -9.696   0.818 -32.331  1.00  0.00    -0.272 OA
HETATM    8  C   UNL     1      -8.731   5.083 -32.191  1.00  0.00     0.298 C 
HETATM    9  N   UNL     1     -10.247   5.208 -32.412  1.00  0.00    -0.028 N 
HETATM   10  H   UNL     1     -10.629   5.755 -31.627  1.00  0.00     0.287 HD
HETATM   11  C   UNL     1     -10.849   3.793 -32.262  1.00  0.00     0.242 C 
HETATM   12  C   UNL     1     -10.557   5.927 -33.613  1.00  0.00     0.203 C 
HETATM   13  C   UNL     1     -11.153   5.338 -34.652  1.00  0.00     0.037 C 
HETATM   14  C   UNL     1     -11.578   3.944 -34.657  1.00  0.00    -0.026 A 
HETATM   15  C   UNL     1     -11.469   3.185 -33.487  1.00  0.00    -0.016 A 
HETATM   16  C   UNL     1     -12.151   3.394 -35.810  1.00  0.00     0.012 A 
HETATM   17  C   UNL     1     -12.652   2.094 -35.795  1.00  0.00     0.001 A 
HETATM   18  C   UNL     1     -12.615   1.357 -34.618  1.00  0.00     0.001 A 
HETATM   19  C   UNL     1     -12.050   1.907 -33.467  1.00  0.00     0.010 A 
ENDROOT
BRANCH   1  20
HETATM   20  C   UNL     1      -6.774   0.965 -32.180  1.00  0.00     0.045 A 
HETATM   21  C   UNL     1      -6.055   0.270 -31.195  1.00  0.00     0.031 A 
HETATM   22  C   UNL     1      -5.182  -0.777 -31.530  1.00  0.00     0.017 A 
HETATM   23  C   UNL     1      -4.999  -1.137 -32.865  1.00  0.00     0.009 A 
HETATM   24  C   UNL     1      -5.657  -0.414 -33.861  1.00  0.00     0.017 A 
HETATM   25  C   UNL     1      -6.539   0.617 -33.520  1.00  0.00     0.031 A 
BRANCH  23  26
HETATM   26  C   UNL     1      -4.124  -2.264 -33.282  1.00  0.00     0.155 C 
HETATM   27  C   UNL     1      -3.277  -2.967 -32.252  1.00  0.00     0.096 C 
HETATM   28  O   UNL     1      -4.150  -2.638 -34.452  1.00  0.00    -0.293 OA
ENDBRANCH  23  26
ENDBRANCH   1  20
BRANCH   8  29
HETATM   29  C   UNL     1      -7.910   4.749 -33.457  1.00  0.00     0.248 C 
HETATM   30  N   UNL     1      -6.783   5.483 -33.671  1.00  0.00    -0.368 N 
HETATM   31  H   UNL     1      -6.244   5.878 -32.904  1.00  0.00     0.159 HD
HETATM   32  H   UNL     1      -6.207   5.179 -34.456  1.00  0.00     0.159 HD
HETATM   33  O   UNL     1      -8.227   3.839 -34.215  1.00  0.00    -0.271 OA
ENDBRANCH   8  29
TORSDOF 3
ENDMDL
MODEL 6
REMARK VINA RESULT:      -8.4      2.048      4.150
REMARK  3 active torsions:
REMARK  status: ('A' for Active; 'I' for Inactive)
REMARK    1  A    between atoms: C_2  and  C_3 
REMARK    2  A    between atoms: C_6  and  N_7 
REMARK    3  A    between atoms: C_14  and  C_15 
REMARK       I    between atoms: C_15  and  N_16 
ROOT
HETATM    1  N   UNL     1      -4.780   1.978 -31.960  1.00  0.00    -0.252 N 
HETATM    2  C   UNL     1      -3.791   2.923 -32.066  1.00  0.00     0.238 C 
HETATM    3  O   UNL     1      -2.766   2.929 -32.733  1.00  0.00    -0.272 OA
HETATM    4  C   UNL     1      -4.217   4.158 -31.338  1.00  0.00     0.135 C 
HETATM    5  C   UNL     1      -5.445   3.745 -30.547  1.00  0.00     0.130 C 
HETATM    6  C   UNL     1      -5.792   2.392 -31.115  1.00  0.00     0.238 C 
HETATM    7  O   UNL     1      -6.726   1.732 -30.689  1.00  0.00    -0.272 OA
HETATM    8  C   UNL     1      -4.671   5.244 -32.298  1.00  0.00     0.298 C 
HETATM    9  N   UNL     1      -5.734   5.975 -31.463  1.00  0.00    -0.028 N 
HETATM   10  H   UNL     1      -5.238   6.582 -30.795  1.00  0.00     0.287 HD
HETATM   11  C   UNL     1      -6.451   4.912 -30.603  1.00  0.00     0.242 C 
HETATM   12  C   UNL     1      -6.558   6.827 -32.271  1.00  0.00     0.203 C 
HETATM   13  C   UNL     1      -7.858   6.586 -32.448  1.00  0.00     0.037 C 
HETATM   14  C   UNL     1      -8.569   5.481 -31.820  1.00  0.00    -0.026 A 
HETATM   15  C   UNL     1      -7.906   4.674 -30.889  1.00  0.00    -0.016 A 
HETATM   16  C   UNL     1      -9.925   5.272 -32.102  1.00  0.00     0.012 A 
HETATM   17  C   UNL     1     -10.639   4.281 -31.432  1.00  0.00     0.001 A 
HETATM   18  C   UNL     1     -10.009   3.523 -30.454  1.00  0.00     0.001 A 
HETATM   19  C   UNL     1      -8.660   3.734 -30.168  1.00  0.00     0.010 A 
ENDROOT
BRANCH   1  20
HETATM   20  C   UNL     1      -4.749   0.695 -32.585  1.00  0.00     0.045 A 
HETATM   21  C   UNL     1      -3.808  -0.281 -32.218  1.00  0.00     0.031 A 
HETATM   22  C   UNL     1      -3.834  -1.568 -32.779  1.00  0.00     0.017 A 
HETATM   23  C   UNL     1      -4.796  -1.897 -33.733  1.00  0.00     0.009 A 
HETATM   24  C   UNL     1      -5.698  -0.920 -34.156  1.00  0.00     0.017 A 
HETATM   25  C   UNL     1      -5.678   0.356 -33.581  1.00  0.00     0.031 A 
BRANCH  23  26
HETATM   26  C   UNL     1      -4.905  -3.254 -34.331  1.00  0.00     0.155 C 
HETATM   27  C   UNL     1      -6.193  -3.674 -34.990  1.00  0.00     0.096 C 
HETATM   28  O   UNL     1      -3.920  -3.989 -34.326  1.00  0.00    -0.293 OA
ENDBRANCH  23  26
ENDBRANCH   1  20
BRANCH   8  29
HETATM   29  C   UNL     1      -5.169   4.685 -33.650  1.00  0.00     0.248 C 
HETATM   30  N   UNL     1      -4.392   4.930 -34.742  1.00  0.00    -0.368 N 
HETATM   31  H   UNL     1      -3.383   5.040 -34.670  1.00  0.00     0.159 HD
HETATM   32  H   UNL     1      -4.689   4.469 -35.600  1.00  0.00     0.159 HD
HETATM   33  O   UNL     1      -6.191   4.015 -33.738  1.00  0.00    -0.271 OA
ENDBRANCH   8  29
TORSDOF 3
ENDMDL
MODEL 7
REMARK VINA RESULT:      -8.4      3.764      6.180
REMARK  3 active torsions:
REMARK  status: ('A' for Active; 'I' for Inactive)
REMARK    1  A    between atoms: C_2  and  C_3 
REMARK    2  A    between atoms: C_6  and  N_7 
REMARK    3  A    between atoms: C_14  and  C_15 
REMARK       I    between atoms: C_15  and  N_16 
ROOT
HETATM    1  N   UNL     1      -3.129   4.879 -32.075  1.00  0.00    -0.252 N 
HETATM    2  C   UNL     1      -3.601   5.891 -32.870  1.00  0.00     0.238 C 
HETATM    3  O   UNL     1      -4.662   6.004 -33.468  1.00  0.00    -0.272 OA
HETATM    4  C   UNL     1      -2.662   7.052 -32.790  1.00  0.00     0.135 C 
HETATM    5  C   UNL     1      -1.431   6.515 -32.083  1.00  0.00     0.130 C 
HETATM    6  C   UNL     1      -1.883   5.176 -31.557  1.00  0.00     0.238 C 
HETATM    7  O   UNL     1      -1.130   4.433 -30.949  1.00  0.00    -0.272 OA
HETATM    8  C   UNL     1      -3.214   8.159 -31.908  1.00  0.00     0.298 C 
HETATM    9  N   UNL     1      -1.928   8.769 -31.329  1.00  0.00    -0.028 N 
HETATM   10  H   UNL     1      -1.516   9.369 -32.058  1.00  0.00     0.287 HD
HETATM   11  C   UNL     1      -0.923   7.613 -31.128  1.00  0.00     0.242 C 
HETATM   12  C   UNL     1      -2.194   9.609 -30.198  1.00  0.00     0.203 C 
HETATM   13  C   UNL     1      -1.772   9.292 -28.972  1.00  0.00     0.037 C 
HETATM   14  C   UNL     1      -0.979   8.108 -28.670  1.00  0.00    -0.026 A 
HETATM   15  C   UNL     1      -0.527   7.296 -29.715  1.00  0.00    -0.016 A 
HETATM   16  C   UNL     1      -0.622   7.827 -27.345  1.00  0.00     0.012 A 
HETATM   17  C   UNL     1       0.219   6.754 -27.056  1.00  0.00     0.001 A 
HETATM   18  C   UNL     1       0.733   5.985 -28.092  1.00  0.00     0.001 A 
HETATM   19  C   UNL     1       0.382   6.269 -29.412  1.00  0.00     0.010 A 
ENDROOT
BRANCH   1  20
HETATM   20  C   UNL     1      -3.800   3.638 -31.855  1.00  0.00     0.045 A 
HETATM   21  C   UNL     1      -4.865   3.527 -30.946  1.00  0.00     0.031 A 
HETATM   22  C   UNL     1      -5.573   2.324 -30.794  1.00  0.00     0.017 A 
HETATM   23  C   UNL     1      -5.214   1.201 -31.538  1.00  0.00     0.009 A 
HETATM   24  C   UNL     1      -4.118   1.276 -32.398  1.00  0.00     0.017 A 
HETATM   25  C   UNL     1      -3.427   2.481 -32.559  1.00  0.00     0.031 A 
BRANCH  23  26
HETATM   26  C   UNL     1      -5.951  -0.088 -31.456  1.00  0.00     0.155 C 
HETATM   27  C   UNL     1      -5.832  -1.084 -32.580  1.00  0.00     0.096 C 
HETATM   28  O   UNL     1      -6.600  -0.340 -30.444  1.00  0.00    -0.293 OA
ENDBRANCH  23  26
ENDBRANCH   1  20
BRANCH   8  29
HETATM   29  C   UNL     1      -4.226   7.645 -30.858  1.00  0.00     0.248 C 
HETATM   30  N   UNL     1      -5.539   7.932 -31.077  1.00  0.00    -0.368 N 
HETATM   31  H   UNL     1      -5.916   8.044 -32.015  1.00  0.00     0.159 HD
HETATM   32  H   UNL     1      -6.194   7.500 -30.427  1.00  0.00     0.159 HD
HETATM   33  O   UNL     1      -3.876   6.974 -29.894  1.00  0.00    -0.271 OA
ENDBRANCH   8  29
TORSDOF 3
ENDMDL
MODEL 8
REMARK VINA RESULT:      -8.3     15.765     18.361
REMARK  3 active torsions:
REMARK  status: ('A' for Active; 'I' for Inactive)
REMARK    1  A    between atoms: C_2  and  C_3 
REMARK    2  A    between atoms: C_6  and  N_7 
REMARK    3  A    between atoms: C_14  and  C_15 
REMARK       I    between atoms: C_15  and  N_16 
ROOT
HETATM    1  N   UNL     1      -4.042 -13.178 -39.125  1.00  0.00    -0.252 N 
HETATM    2  C   UNL     1      -3.442 -12.542 -38.068  1.00  0.00     0.238 C 
HETATM    3  O   UNL     1      -3.931 -11.968 -37.105  1.00  0.00    -0.272 OA
HETATM    4  C   UNL     1      -1.969 -12.792 -38.120  1.00  0.00     0.135 C 
HETATM    5  C   UNL     1      -1.722 -13.411 -39.484  1.00  0.00     0.130 C 
HETATM    6  C   UNL     1      -3.110 -13.734 -39.981  1.00  0.00     0.238 C 
HETATM    7  O   UNL     1      -3.304 -14.224 -41.081  1.00  0.00    -0.272 OA
HETATM    8  C   UNL     1      -1.541 -13.829 -37.095  1.00  0.00     0.298 C 
HETATM    9  N   UNL     1      -0.346 -14.490 -37.800  1.00  0.00    -0.028 N 
HETATM   10  H   UNL     1       0.460 -13.857 -37.699  1.00  0.00     0.287 HD
HETATM   11  C   UNL     1      -0.663 -14.518 -39.312  1.00  0.00     0.242 C 
HETATM   12  C   UNL     1       0.018 -15.734 -37.186  1.00  0.00     0.203 C 
HETATM   13  C   UNL     1      -0.116 -16.899 -37.822  1.00  0.00     0.037 C 
HETATM   14  C   UNL     1      -0.596 -17.022 -39.192  1.00  0.00    -0.026 A 
HETATM   15  C   UNL     1      -0.836 -15.868 -39.946  1.00  0.00    -0.016 A 
HETATM   16  C   UNL     1      -0.754 -18.290 -39.765  1.00  0.00     0.012 A 
HETATM   17  C   UNL     1      -1.117 -18.417 -41.104  1.00  0.00     0.001 A 
HETATM   18  C   UNL     1      -1.285 -17.278 -41.881  1.00  0.00     0.001 A 
HETATM   19  C   UNL     1      -1.122 -16.015 -41.312  1.00  0.00     0.010 A 
ENDROOT
BRANCH   1  20
HETATM   20  C   UNL     1      -5.449 -13.213 -39.361  1.00  0.00     0.045 A 
HETATM   21  C   UNL     1      -6.289 -14.106 -38.676  1.00  0.00     0.031 A 
HETATM   22  C   UNL     1      -7.682 -14.080 -38.853  1.00  0.00     0.017 A 
HETATM   23  C   UNL     1      -8.260 -13.168 -39.736  1.00  0.00     0.009 A 
HETATM   24  C   UNL     1      -7.434 -12.317 -40.472  1.00  0.00     0.017 A 
HETATM   25  C   UNL     1      -6.049 -12.335 -40.279  1.00  0.00     0.031 A 
BRANCH  23  26
HETATM   26  C   UNL     1      -9.729 -13.060 -39.934  1.00  0.00     0.155 C 
HETATM   27  C   UNL     1     -10.331 -11.733 -40.319  1.00  0.00     0.096 C 
HETATM   28  O   UNL     1     -10.420 -14.071 -39.835  1.00  0.00    -0.293 OA
ENDBRANCH  23  26
ENDBRANCH   1  20
BRANCH   8  29
HETATM   29  C   UNL     1      -2.683 -14.792 -36.699  1.00  0.00     0.248 C 
HETATM   30  N   UNL     1      -3.219 -14.632 -35.457  1.00  0.00    -0.368 N 
HETATM   31  H   UNL     1      -3.243 -13.727 -34.993  1.00  0.00     0.159 HD
HETATM   32  H   UNL     1      -4.034 -15.211 -35.256  1.00  0.00     0.159 HD
HETATM   33  O   UNL     1      -3.121 -15.634 -37.474  1.00  0.00    -0.271 OA
ENDBRANCH   8  29
TORSDOF 3
ENDMDL
MODEL 9
REMARK VINA RESULT:      -8.2     15.727     17.548
REMARK  3 active torsions:
REMARK  status: ('A' for Active; 'I' for Inactive)
REMARK    1  A    between atoms: C_2  and  C_3 
REMARK    2  A    between atoms: C_6  and  N_7 
REMARK    3  A    between atoms: C_14  and  C_15 
REMARK       I    between atoms: C_15  and  N_16 
ROOT
HETATM    1  N   UNL     1      -5.969 -13.449 -37.358  1.00  0.00    -0.252 N 
HETATM    2  C   UNL     1      -5.867 -13.549 -35.994  1.00  0.00     0.238 C 
HETATM    3  O   UNL     1      -6.701 -13.863 -35.156  1.00  0.00    -0.272 OA
HETATM    4  C   UNL     1      -4.434 -13.386 -35.599  1.00  0.00     0.135 C 
HETATM    5  C   UNL     1      -3.733 -12.894 -36.852  1.00  0.00     0.130 C 
HETATM    6  C   UNL     1      -4.763 -13.098 -37.935  1.00  0.00     0.238 C 
HETATM    7  O   UNL     1      -4.554 -12.779 -39.094  1.00  0.00    -0.272 OA
HETATM    8  C   UNL     1      -3.796 -14.719 -35.246  1.00  0.00     0.298 C 
HETATM    9  N   UNL     1      -2.336 -14.488 -35.667  1.00  0.00    -0.028 N 
HETATM   10  H   UNL     1      -1.889 -13.923 -34.931  1.00  0.00     0.287 HD
HETATM   11  C   UNL     1      -2.359 -13.589 -36.923  1.00  0.00     0.242 C 
HETATM   12  C   UNL     1      -1.603 -15.717 -35.755  1.00  0.00     0.203 C 
HETATM   13  C   UNL     1      -1.141 -16.179 -36.919  1.00  0.00     0.037 C 
HETATM   14  C   UNL     1      -1.294 -15.475 -38.186  1.00  0.00    -0.026 A 
HETATM   15  C   UNL     1      -1.856 -14.194 -38.201  1.00  0.00    -0.016 A 
HETATM   16  C   UNL     1      -0.821 -16.058 -39.369  1.00  0.00     0.012 A 
HETATM   17  C   UNL     1      -0.872 -15.353 -40.569  1.00  0.00     0.001 A 
HETATM   18  C   UNL     1      -1.360 -14.053 -40.583  1.00  0.00     0.001 A 
HETATM   19  C   UNL     1      -1.825 -13.470 -39.404  1.00  0.00     0.010 A 
ENDROOT
BRANCH   1  20
HETATM   20  C   UNL     1      -7.178 -13.618 -38.098  1.00  0.00     0.045 A 
HETATM   21  C   UNL     1      -7.923 -12.517 -38.554  1.00  0.00     0.031 A 
HETATM   22  C   UNL     1      -9.067 -12.689 -39.350  1.00  0.00     0.017 A 
HETATM   23  C   UNL     1      -9.497 -13.971 -39.691  1.00  0.00     0.009 A 
HETATM   24  C   UNL     1      -8.806 -15.076 -39.194  1.00  0.00     0.017 A 
HETATM   25  C   UNL     1      -7.657 -14.899 -38.415  1.00  0.00     0.031 A 
BRANCH  23  26
HETATM   26  C   UNL     1     -10.673 -14.218 -40.566  1.00  0.00     0.155 C 
HETATM   27  C   UNL     1     -10.653 -15.379 -41.526  1.00  0.00     0.096 C 
HETATM   28  O   UNL     1     -11.665 -13.501 -40.450  1.00  0.00    -0.293 OA
ENDBRANCH  23  26
ENDBRANCH   1  20
BRANCH   8  29
HETATM   29  C   UNL     1      -4.493 -15.919 -35.925  1.00  0.00     0.248 C 
HETATM   30  N   UNL     1      -5.266 -16.712 -35.132  1.00  0.00    -0.368 N 
HETATM   31  H   UNL     1      -5.744 -16.349 -34.311  1.00  0.00     0.159 HD
HETATM   32  H   UNL     1      -5.792 -17.436 -35.619  1.00  0.00     0.159 HD
HETATM   33  O   UNL     1      -4.395 -16.131 -37.128  1.00  0.00    -0.271 OA
ENDBRANCH   8  29
TORSDOF 3
ENDMDL
MODEL 10
REMARK VINA RESULT:      -8.1      2.284      3.287
REMARK  3 active torsions:
REMARK  status: ('A' for Active; 'I' for Inactive)
REMARK    1  A    between atoms: C_2  and  C_3 
REMARK    2  A    between atoms: C_6  and  N_7 
REMARK    3  A    between atoms: C_14  and  C_15 
REMARK       I    between atoms: C_15  and  N_16 
ROOT
HETATM    1  N   UNL     1      -6.450   1.072 -33.602  1.00  0.00    -0.252 N 
HETATM    2  C   UNL     1      -7.649   1.045 -34.267  1.00  0.00     0.238 C 
HETATM    3  O   UNL     1      -8.289   0.103 -34.713  1.00  0.00    -0.272 OA
HETATM    4  C   UNL     1      -8.251   2.413 -34.243  1.00  0.00     0.135 C 
HETATM    5  C   UNL     1      -7.145   3.322 -33.736  1.00  0.00     0.130 C 
HETATM    6  C   UNL     1      -6.099   2.358 -33.235  1.00  0.00     0.238 C 
HETATM    7  O   UNL     1      -5.035   2.740 -32.777  1.00  0.00    -0.272 OA
HETATM    8  C   UNL     1      -9.381   2.509 -33.232  1.00  0.00     0.298 C 
HETATM    9  N   UNL     1      -9.284   3.978 -32.792  1.00  0.00    -0.028 N 
HETATM   10  H   UNL     1      -9.714   4.551 -33.533  1.00  0.00     0.287 HD
HETATM   11  C   UNL     1      -7.787   4.359 -32.793  1.00  0.00     0.242 C 
HETATM   12  C   UNL     1     -10.021   4.228 -31.588  1.00  0.00     0.203 C 
HETATM   13  C   UNL     1      -9.415   4.568 -30.449  1.00  0.00     0.037 C 
HETATM   14  C   UNL     1      -7.975   4.757 -30.324  1.00  0.00    -0.026 A 
HETATM   15  C   UNL     1      -7.169   4.692 -31.466  1.00  0.00    -0.016 A 
HETATM   16  C   UNL     1      -7.418   5.064 -29.077  1.00  0.00     0.012 A 
HETATM   17  C   UNL     1      -6.058   5.345 -28.965  1.00  0.00     0.001 A 
HETATM   18  C   UNL     1      -5.262   5.356 -30.103  1.00  0.00     0.001 A 
HETATM   19  C   UNL     1      -5.818   5.056 -31.346  1.00  0.00     0.010 A 
ENDROOT
BRANCH   1  20
HETATM   20  C   UNL     1      -5.623  -0.068 -33.369  1.00  0.00     0.045 A 
HETATM   21  C   UNL     1      -4.898  -0.221 -32.175  1.00  0.00     0.031 A 
HETATM   22  C   UNL     1      -4.151  -1.382 -31.918  1.00  0.00     0.017 A 
HETATM   23  C   UNL     1      -4.102  -2.407 -32.862  1.00  0.00     0.009 A 
HETATM   24  C   UNL     1      -4.764  -2.244 -34.080  1.00  0.00     0.017 A 
HETATM   25  C   UNL     1      -5.521  -1.092 -34.324  1.00  0.00     0.031 A 
BRANCH  23  26
HETATM   26  C   UNL     1      -3.367  -3.679 -32.632  1.00  0.00     0.155 C 
HETATM   27  C   UNL     1      -3.389  -4.752 -33.690  1.00  0.00     0.096 C 
HETATM   28  O   UNL     1      -2.707  -3.808 -31.604  1.00  0.00    -0.293 OA
ENDBRANCH  23  26
ENDBRANCH   1  20
BRANCH   8  29
HETATM   29  C   UNL     1      -9.259   1.474 -32.090  1.00  0.00     0.248 C 
HETATM   30  N   UNL     1     -10.092   0.398 -32.144  1.00  0.00    -0.368 N 
HETATM   31  H   UNL     1     -10.430   0.023 -33.026  1.00  0.00     0.159 HD
HETATM   32  H   UNL     1      -9.925  -0.318 -31.437  1.00  0.00     0.159 HD
HETATM   33  O   UNL     1      -8.425   1.586 -31.199  1.00  0.00    -0.271 OA
ENDBRANCH   8  29
TORSDOF 3
ENDMDL
