MODEL 1
REMARK VINA RESULT:      -9.6      0.000      0.000
REMARK  7 active torsions:
REMARK  status: ('A' for Active; 'I' for Inactive)
REMARK    1  A    between atoms: C_4  and  C_5 
REMARK    2  A    between atoms: C_9  and  C_10 
REMARK       I    between atoms: C_10  and  N_11 
REMARK    3  A    between atoms: N_11  and  N_12 
REMARK       I    between atoms: N_12  and  C_13 
REMARK    4  A    between atoms: C_13  and  C_14 
REMARK    5  A    between atoms: C_14  and  C_15 
REMARK    6  A    between atoms: C_15  and  C_16 
REMARK    7  A    between atoms: C_16  and  C_17 
ROOT
HETATM    1  N   UNL     1      -3.307   3.515 -32.155  1.00  0.00    -0.267 N 
HETATM    2  C   UNL     1      -4.630   3.878 -32.288  1.00  0.00     0.236 C 
HETATM    3  O   UNL     1      -5.145   4.773 -31.621  1.00  0.00    -0.272 OA
HETATM    4  H   UNL     1      -2.915   2.669 -32.569  1.00  0.00     0.190 HD
ENDROOT
BRANCH   1   5
HETATM    5  N   UNL     1      -2.562   4.122 -31.139  1.00  0.00    -0.262 N 
HETATM    6  C   UNL     1      -1.446   4.861 -31.472  1.00  0.00     0.288 C 
HETATM    7  O   UNL     1      -1.113   5.041 -32.642  1.00  0.00    -0.264 OA
HETATM    8  H   UNL     1      -2.807   3.871 -30.185  1.00  0.00     0.190 HD
BRANCH   6   9
HETATM    9  C   UNL     1      -0.711   5.403 -30.364  1.00  0.00     0.121 A 
HETATM   10  N   UNL     1       0.225   4.669 -29.692  1.00  0.00    -0.272 N 
HETATM   11  N   UNL     1       0.842   5.334 -28.706  1.00  0.00    -0.174 NA
HETATM   12  H   UNL     1       0.493   3.707 -29.877  1.00  0.00     0.189 HD
HETATM   13  C   UNL     1       0.281   6.554 -28.711  1.00  0.00     0.089 A 
HETATM   14  C   UNL     1      -0.704   6.635 -29.738  1.00  0.00     0.071 A 
BRANCH  13  15
HETATM   15  C   UNL     1       0.696   7.600 -27.772  1.00  0.00    -0.006 A 
HETATM   16  C   UNL     1       0.227   8.914 -27.920  1.00  0.00     0.014 A 
HETATM   17  C   UNL     1       0.602   9.914 -27.020  1.00  0.00     0.001 A 
HETATM   18  C   UNL     1       1.457   9.616 -25.962  1.00  0.00     0.000 A 
HETATM   19  C   UNL     1       1.938   8.318 -25.804  1.00  0.00     0.001 A 
HETATM   20  C   UNL     1       1.561   7.315 -26.703  1.00  0.00     0.014 A 
ENDBRANCH  13  15
ENDBRANCH   6   9
ENDBRANCH   1   5
BRANCH   2  21
HETATM   21  C   UNL     1      -5.360   3.084 -33.345  1.00  0.00     0.112 C 
BRANCH  21  22
HETATM   22  C   UNL     1      -5.826   1.735 -32.806  1.00  0.00     0.093 C 
BRANCH  22  23
HETATM   23  C   UNL     1      -6.443   0.883 -33.897  1.00  0.00     0.160 C 
HETATM   24  O   UNL     1      -7.296   1.329 -34.661  1.00  0.00    -0.292 OA
BRANCH  23  25
HETATM   25  C   UNL     1      -5.999  -0.538 -34.037  1.00  0.00     0.013 A 
HETATM   26  C   UNL     1      -4.903  -0.970 -33.277  1.00  0.00     0.054 A 
HETATM   27  C   UNL     1      -4.464  -2.291 -33.369  1.00  0.00     0.103 A 
HETATM   28  C   UNL     1      -5.095  -3.181 -34.240  1.00  0.00     0.102 A 
HETATM   29  O   UNL     1      -3.399  -2.642 -32.580  1.00  0.00    -0.346 OA
HETATM   30  O   UNL     1      -4.699  -4.483 -34.405  1.00  0.00    -0.346 OA
HETATM   31  C   UNL     1      -6.192  -2.763 -34.990  1.00  0.00     0.040 A 
HETATM   32  C   UNL     1      -3.389  -4.702 -33.865  1.00  0.00     0.202 C 
HETATM   33  C   UNL     1      -3.259  -4.064 -32.492  1.00  0.00     0.202 C 
HETATM   34  C   UNL     1      -6.644  -1.443 -34.892  1.00  0.00     0.018 A 
ENDBRANCH  23  25
ENDBRANCH  22  23
ENDBRANCH  21  22
ENDBRANCH   2  21
TORSDOF 7
ENDMDL
MODEL 2
REMARK VINA RESULT:      -9.3      2.878     11.844
REMARK  7 active torsions:
REMARK  status: ('A' for Active; 'I' for Inactive)
REMARK    1  A    between atoms: C_4  and  C_5 
REMARK    2  A    between atoms: C_9  and  C_10 
REMARK       I    between atoms: C_10  and  N_11 
REMARK    3  A    between atoms: N_11  and  N_12 
REMARK       I    between atoms: N_12  and  C_13 
REMARK    4  A    between atoms: C_13  and  C_14 
REMARK    5  A    between atoms: C_14  and  C_15 
REMARK    6  A    between atoms: C_15  and  C_16 
REMARK    7  A    between atoms: C_16  and  C_17 
ROOT
HETATM    1  N   UNL     1      -2.456   4.655 -30.845  1.00  0.00    -0.267 N 
HETATM    2  C   UNL     1      -1.528   5.455 -31.476  1.00  0.00     0.236 C 
HETATM    3  O   UNL     1      -0.944   5.115 -32.502  1.00  0.00    -0.272 OA
HETATM    4  H   UNL     1      -2.815   4.846 -29.909  1.00  0.00     0.190 HD
ENDROOT
BRANCH   1   5
HETATM    5  N   UNL     1      -2.649   3.362 -31.342  1.00  0.00    -0.262 N 
HETATM    6  C   UNL     1      -3.886   2.767 -31.209  1.00  0.00     0.288 C 
HETATM    7  O   UNL     1      -4.841   3.360 -30.708  1.00  0.00    -0.264 OA
HETATM    8  H   UNL     1      -1.818   2.869 -31.658  1.00  0.00     0.190 HD
BRANCH   6   9
HETATM    9  C   UNL     1      -3.980   1.421 -31.699  1.00  0.00     0.121 A 
HETATM   10  N   UNL     1      -3.148   0.433 -31.254  1.00  0.00    -0.272 N 
HETATM   11  N   UNL     1      -3.389  -0.772 -31.787  1.00  0.00    -0.174 NA
HETATM   12  H   UNL     1      -2.402   0.526 -30.571  1.00  0.00     0.189 HD
HETATM   13  C   UNL     1      -4.412  -0.573 -32.635  1.00  0.00     0.089 A 
HETATM   14  C   UNL     1      -4.809   0.795 -32.610  1.00  0.00     0.071 A 
BRANCH  13  15
HETATM   15  C   UNL     1      -4.989  -1.669 -33.420  1.00  0.00    -0.006 A 
HETATM   16  C   UNL     1      -6.308  -1.585 -33.892  1.00  0.00     0.014 A 
HETATM   17  C   UNL     1      -6.862  -2.615 -34.656  1.00  0.00     0.001 A 
HETATM   18  C   UNL     1      -6.107  -3.746 -34.955  1.00  0.00     0.000 A 
HETATM   19  C   UNL     1      -4.798  -3.849 -34.487  1.00  0.00     0.001 A 
HETATM   20  C   UNL     1      -4.241  -2.817 -33.725  1.00  0.00     0.014 A 
ENDBRANCH  13  15
ENDBRANCH   6   9
ENDBRANCH   1   5
BRANCH   2  21
HETATM   21  C   UNL     1      -1.329   6.787 -30.790  1.00  0.00     0.112 C 
BRANCH  21  22
HETATM   22  C   UNL     1       0.143   7.038 -30.477  1.00  0.00     0.093 C 
BRANCH  22  23
HETATM   23  C   UNL     1       0.500   6.577 -29.078  1.00  0.00     0.160 C 
HETATM   24  O   UNL     1       0.812   5.413 -28.840  1.00  0.00    -0.292 OA
BRANCH  23  25
HETATM   25  C   UNL     1       0.465   7.573 -27.963  1.00  0.00     0.013 A 
HETATM   26  C   UNL     1      -0.707   7.679 -27.201  1.00  0.00     0.054 A 
HETATM   27  C   UNL     1      -0.776   8.586 -26.144  1.00  0.00     0.103 A 
HETATM   28  C   UNL     1       0.311   9.415 -25.859  1.00  0.00     0.102 A 
HETATM   29  O   UNL     1      -1.949   8.617 -25.434  1.00  0.00    -0.346 OA
HETATM   30  O   UNL     1       0.302  10.351 -24.857  1.00  0.00    -0.346 OA
HETATM   31  C   UNL     1       1.484   9.308 -26.603  1.00  0.00     0.040 A 
HETATM   32  C   UNL     1      -1.030  10.610 -24.396  1.00  0.00     0.202 C 
HETATM   33  C   UNL     1      -1.791   9.310 -24.192  1.00  0.00     0.202 C 
HETATM   34  C   UNL     1       1.562   8.391 -27.656  1.00  0.00     0.018 A 
ENDBRANCH  23  25
ENDBRANCH  22  23
ENDBRANCH  21  22
ENDBRANCH   2  21
TORSDOF 7
ENDMDL
MODEL 3
REMARK VINA RESULT:      -9.3      2.733     11.146
REMARK  7 active torsions:
REMARK  status: ('A' for Active; 'I' for Inactive)
REMARK    1  A    between atoms: C_4  and  C_5 
REMARK    2  A    between atoms: C_9  and  C_10 
REMARK       I    between atoms: C_10  and  N_11 
REMARK    3  A    between atoms: N_11  and  N_12 
REMARK       I    between atoms: N_12  and  C_13 
REMARK    4  A    between atoms: C_13  and  C_14 
REMARK    5  A    between atoms: C_14  and  C_15 
REMARK    6  A    between atoms: C_15  and  C_16 
REMARK    7  A    between atoms: C_16  and  C_17 
ROOT
HETATM    1  N   UNL     1      -2.803   4.318 -32.274  1.00  0.00    -0.267 N 
HETATM    2  C   UNL     1      -2.323   5.183 -33.234  1.00  0.00     0.236 C 
HETATM    3  O   UNL     1      -2.147   4.848 -34.403  1.00  0.00    -0.272 OA
HETATM    4  H   UNL     1      -2.789   4.527 -31.276  1.00  0.00     0.190 HD
ENDROOT
BRANCH   1   5
HETATM    5  N   UNL     1      -2.988   2.979 -32.634  1.00  0.00    -0.262 N 
HETATM    6  C   UNL     1      -3.770   2.170 -31.839  1.00  0.00     0.288 C 
HETATM    7  O   UNL     1      -4.351   2.603 -30.844  1.00  0.00    -0.264 OA
HETATM    8  H   UNL     1      -2.417   2.633 -33.401  1.00  0.00     0.190 HD
BRANCH   6   9
HETATM    9  C   UNL     1      -3.862   0.798 -32.254  1.00  0.00     0.121 A 
HETATM   10  N   UNL     1      -2.990  -0.151 -31.801  1.00  0.00    -0.272 N 
HETATM   11  N   UNL     1      -3.234  -1.386 -32.259  1.00  0.00    -0.174 NA
HETATM   12  H   UNL     1      -2.213  -0.010 -31.162  1.00  0.00     0.189 HD
HETATM   13  C   UNL     1      -4.301  -1.249 -33.063  1.00  0.00     0.089 A 
HETATM   14  C   UNL     1      -4.723   0.112 -33.088  1.00  0.00     0.071 A 
BRANCH  13  15
HETATM   15  C   UNL     1      -4.895  -2.393 -33.762  1.00  0.00    -0.006 A 
HETATM   16  C   UNL     1      -4.187  -3.599 -33.878  1.00  0.00     0.014 A 
HETATM   17  C   UNL     1      -4.750  -4.701 -34.525  1.00  0.00     0.001 A 
HETATM   18  C   UNL     1      -6.029  -4.612 -35.070  1.00  0.00     0.000 A 
HETATM   19  C   UNL     1      -6.743  -3.420 -34.970  1.00  0.00     0.001 A 
HETATM   20  C   UNL     1      -6.181  -2.316 -34.319  1.00  0.00     0.014 A 
ENDBRANCH  13  15
ENDBRANCH   6   9
ENDBRANCH   1   5
BRANCH   2  21
HETATM   21  C   UNL     1      -2.064   6.573 -32.703  1.00  0.00     0.112 C 
BRANCH  21  22
HETATM   22  C   UNL     1      -0.592   6.771 -32.354  1.00  0.00     0.093 C 
BRANCH  22  23
HETATM   23  C   UNL     1      -0.212   6.008 -31.101  1.00  0.00     0.160 C 
HETATM   24  O   UNL     1       0.133   4.830 -31.140  1.00  0.00    -0.292 OA
BRANCH  23  25
HETATM   25  C   UNL     1      -0.263   6.717 -29.785  1.00  0.00     0.013 A 
HETATM   26  C   UNL     1      -1.433   6.613 -29.018  1.00  0.00     0.054 A 
HETATM   27  C   UNL     1      -1.518   7.248 -27.780  1.00  0.00     0.103 A 
HETATM   28  C   UNL     1      -0.449   8.016 -27.310  1.00  0.00     0.102 A 
HETATM   29  O   UNL     1      -2.687   7.084 -27.082  1.00  0.00    -0.346 OA
HETATM   30  O   UNL     1      -0.475   8.692 -26.118  1.00  0.00    -0.346 OA
HETATM   31  C   UNL     1       0.721   8.114 -28.059  1.00  0.00     0.040 A 
HETATM   32  C   UNL     1      -1.810   8.804 -25.609  1.00  0.00     0.202 C 
HETATM   33  C   UNL     1      -2.538   7.473 -25.712  1.00  0.00     0.202 C 
HETATM   34  C   UNL     1       0.815   7.469 -29.297  1.00  0.00     0.018 A 
ENDBRANCH  23  25
ENDBRANCH  22  23
ENDBRANCH  21  22
ENDBRANCH   2  21
TORSDOF 7
ENDMDL
MODEL 4
REMARK VINA RESULT:      -9.3      2.743     11.084
REMARK  7 active torsions:
REMARK  status: ('A' for Active; 'I' for Inactive)
REMARK    1  A    between atoms: C_4  and  C_5 
REMARK    2  A    between atoms: C_9  and  C_10 
REMARK       I    between atoms: C_10  and  N_11 
REMARK    3  A    between atoms: N_11  and  N_12 
REMARK       I    between atoms: N_12  and  C_13 
REMARK    4  A    between atoms: C_13  and  C_14 
REMARK    5  A    between atoms: C_14  and  C_15 
REMARK    6  A    between atoms: C_15  and  C_16 
REMARK    7  A    between atoms: C_16  and  C_17 
ROOT
HETATM    1  N   UNL     1      -3.618   4.939 -32.625  1.00  0.00    -0.267 N 
HETATM    2  C   UNL     1      -3.322   5.834 -33.631  1.00  0.00     0.236 C 
HETATM    3  O   UNL     1      -3.689   5.674 -34.793  1.00  0.00    -0.272 OA
HETATM    4  H   UNL     1      -3.178   4.966 -31.705  1.00  0.00     0.190 HD
ENDROOT
BRANCH   1   5
HETATM    5  N   UNL     1      -4.268   3.751 -32.977  1.00  0.00    -0.262 N 
HETATM    6  C   UNL     1      -4.039   2.613 -32.235  1.00  0.00     0.288 C 
HETATM    7  O   UNL     1      -3.314   2.621 -31.241  1.00  0.00    -0.264 OA
HETATM    8  H   UNL     1      -4.778   3.758 -33.857  1.00  0.00     0.190 HD
BRANCH   6   9
HETATM    9  C   UNL     1      -4.705   1.428 -32.699  1.00  0.00     0.121 A 
HETATM   10  N   UNL     1      -6.050   1.405 -32.936  1.00  0.00    -0.272 N 
HETATM   11  N   UNL     1      -6.508   0.233 -33.396  1.00  0.00    -0.174 NA
HETATM   12  H   UNL     1      -6.704   2.172 -32.813  1.00  0.00     0.189 HD
HETATM   13  C   UNL     1      -5.426  -0.561 -33.449  1.00  0.00     0.089 A 
HETATM   14  C   UNL     1      -4.273   0.155 -33.015  1.00  0.00     0.071 A 
BRANCH  13  15
HETATM   15  C   UNL     1      -5.506  -1.948 -33.919  1.00  0.00    -0.006 A 
HETATM   16  C   UNL     1      -6.697  -2.441 -34.473  1.00  0.00     0.014 A 
HETATM   17  C   UNL     1      -6.780  -3.755 -34.940  1.00  0.00     0.001 A 
HETATM   18  C   UNL     1      -5.674  -4.596 -34.855  1.00  0.00     0.000 A 
HETATM   19  C   UNL     1      -4.485  -4.125 -34.301  1.00  0.00     0.001 A 
HETATM   20  C   UNL     1      -4.401  -2.808 -33.836  1.00  0.00     0.014 A 
ENDBRANCH  13  15
ENDBRANCH   6   9
ENDBRANCH   1   5
BRANCH   2  21
HETATM   21  C   UNL     1      -2.529   7.026 -33.150  1.00  0.00     0.112 C 
BRANCH  21  22
HETATM   22  C   UNL     1      -1.052   6.683 -32.985  1.00  0.00     0.093 C 
BRANCH  22  23
HETATM   23  C   UNL     1      -0.799   5.918 -31.701  1.00  0.00     0.160 C 
HETATM   24  O   UNL     1      -0.550   4.715 -31.703  1.00  0.00    -0.292 OA
BRANCH  23  25
HETATM   25  C   UNL     1      -0.859   6.656 -30.402  1.00  0.00     0.013 A 
HETATM   26  C   UNL     1       0.337   7.144 -29.857  1.00  0.00     0.054 A 
HETATM   27  C   UNL     1       0.323   7.848 -28.654  1.00  0.00     0.103 A 
HETATM   28  C   UNL     1      -0.879   8.045 -27.970  1.00  0.00     0.102 A 
HETATM   29  O   UNL     1       1.531   8.309 -28.196  1.00  0.00    -0.346 OA
HETATM   30  O   UNL     1      -0.963   8.700 -26.768  1.00  0.00    -0.346 OA
HETATM   31  C   UNL     1      -2.073   7.575 -28.510  1.00  0.00     0.040 A 
HETATM   32  C   UNL     1       0.325   8.832 -26.154  1.00  0.00     0.202 C 
HETATM   33  C   UNL     1       1.361   9.291 -27.168  1.00  0.00     0.202 C 
HETATM   34  C   UNL     1      -2.066   6.879 -29.723  1.00  0.00     0.018 A 
ENDBRANCH  23  25
ENDBRANCH  22  23
ENDBRANCH  21  22
ENDBRANCH   2  21
TORSDOF 7
ENDMDL
MODEL 5
REMARK VINA RESULT:      -9.3      4.092     10.037
REMARK  7 active torsions:
REMARK  status: ('A' for Active; 'I' for Inactive)
REMARK    1  A    between atoms: C_4  and  C_5 
REMARK    2  A    between atoms: C_9  and  C_10 
REMARK       I    between atoms: C_10  and  N_11 
REMARK    3  A    between atoms: N_11  and  N_12 
REMARK       I    between atoms: N_12  and  C_13 
REMARK    4  A    between atoms: C_13  and  C_14 
REMARK    5  A    between atoms: C_14  and  C_15 
REMARK    6  A    between atoms: C_15  and  C_16 
REMARK    7  A    between atoms: C_16  and  C_17 
ROOT
HETATM    1  N   UNL     1      -5.426   3.810 -29.267  1.00  0.00    -0.267 N 
HETATM    2  C   UNL     1      -6.340   4.835 -29.150  1.00  0.00     0.236 C 
HETATM    3  O   UNL     1      -7.413   4.840 -29.749  1.00  0.00    -0.272 OA
HETATM    4  H   UNL     1      -4.469   3.872 -28.919  1.00  0.00     0.190 HD
ENDROOT
BRANCH   1   5
HETATM    5  N   UNL     1      -5.694   2.796 -30.193  1.00  0.00    -0.262 N 
HETATM    6  C   UNL     1      -4.708   2.413 -31.077  1.00  0.00     0.288 C 
HETATM    7  O   UNL     1      -3.581   2.905 -31.044  1.00  0.00    -0.264 OA
HETATM    8  H   UNL     1      -6.660   2.485 -30.256  1.00  0.00     0.190 HD
BRANCH   6   9
HETATM    9  C   UNL     1      -5.087   1.405 -32.026  1.00  0.00     0.121 A 
HETATM   10  N   UNL     1      -5.748   1.715 -33.181  1.00  0.00    -0.272 N 
HETATM   11  N   UNL     1      -5.998   0.663 -33.972  1.00  0.00    -0.174 NA
HETATM   12  H   UNL     1      -6.041   2.639 -33.487  1.00  0.00     0.189 HD
HETATM   13  C   UNL     1      -5.499  -0.392 -33.307  1.00  0.00     0.089 A 
HETATM   14  C   UNL     1      -4.922   0.035 -32.076  1.00  0.00     0.071 A 
BRANCH  13  15
HETATM   15  C   UNL     1      -5.566  -1.751 -33.852  1.00  0.00    -0.006 A 
HETATM   16  C   UNL     1      -4.409  -2.541 -33.931  1.00  0.00     0.014 A 
HETATM   17  C   UNL     1      -4.464  -3.844 -34.433  1.00  0.00     0.001 A 
HETATM   18  C   UNL     1      -5.677  -4.374 -34.867  1.00  0.00     0.000 A 
HETATM   19  C   UNL     1      -6.834  -3.600 -34.803  1.00  0.00     0.001 A 
HETATM   20  C   UNL     1      -6.780  -2.296 -34.298  1.00  0.00     0.014 A 
ENDBRANCH  13  15
ENDBRANCH   6   9
ENDBRANCH   1   5
BRANCH   2  21
HETATM   21  C   UNL     1      -5.895   5.921 -28.200  1.00  0.00     0.112 C 
BRANCH  21  22
HETATM   22  C   UNL     1      -4.545   6.501 -28.610  1.00  0.00     0.093 C 
BRANCH  22  23
HETATM   23  C   UNL     1      -4.687   7.478 -29.760  1.00  0.00     0.160 C 
HETATM   24  O   UNL     1      -5.545   8.358 -29.761  1.00  0.00    -0.292 OA
BRANCH  23  25
HETATM   25  C   UNL     1      -3.755   7.358 -30.923  1.00  0.00     0.013 A 
HETATM   26  C   UNL     1      -3.926   6.281 -31.805  1.00  0.00     0.054 A 
HETATM   27  C   UNL     1      -3.085   6.139 -32.909  1.00  0.00     0.103 A 
HETATM   28  C   UNL     1      -2.051   7.053 -33.126  1.00  0.00     0.102 A 
HETATM   29  O   UNL     1      -3.328   5.071 -33.735  1.00  0.00    -0.346 OA
HETATM   30  O   UNL     1      -1.169   6.958 -34.171  1.00  0.00    -0.346 OA
HETATM   31  C   UNL     1      -1.882   8.132 -32.262  1.00  0.00     0.040 A 
HETATM   32  C   UNL     1      -1.215   5.660 -34.778  1.00  0.00     0.202 C 
HETATM   33  C   UNL     1      -2.654   5.216 -34.989  1.00  0.00     0.202 C 
HETATM   34  C   UNL     1      -2.730   8.286 -31.160  1.00  0.00     0.018 A 
ENDBRANCH  23  25
ENDBRANCH  22  23
ENDBRANCH  21  22
ENDBRANCH   2  21
TORSDOF 7
ENDMDL
MODEL 6
REMARK VINA RESULT:      -9.2      2.724     11.780
REMARK  7 active torsions:
REMARK  status: ('A' for Active; 'I' for Inactive)
REMARK    1  A    between atoms: C_4  and  C_5 
REMARK    2  A    between atoms: C_9  and  C_10 
REMARK       I    between atoms: C_10  and  N_11 
REMARK    3  A    between atoms: N_11  and  N_12 
REMARK       I    between atoms: N_12  and  C_13 
REMARK    4  A    between atoms: C_13  and  C_14 
REMARK    5  A    between atoms: C_14  and  C_15 
REMARK    6  A    between atoms: C_15  and  C_16 
REMARK    7  A    between atoms: C_16  and  C_17 
ROOT
HETATM    1  N   UNL     1      -2.311   4.443 -32.015  1.00  0.00    -0.267 N 
HETATM    2  C   UNL     1      -1.486   5.177 -32.840  1.00  0.00     0.236 C 
HETATM    3  O   UNL     1      -1.420   4.990 -34.053  1.00  0.00    -0.272 OA
HETATM    4  H   UNL     1      -2.248   4.466 -30.997  1.00  0.00     0.190 HD
ENDROOT
BRANCH   1   5
HETATM    5  N   UNL     1      -3.013   3.372 -32.578  1.00  0.00    -0.262 N 
HETATM    6  C   UNL     1      -4.076   2.827 -31.890  1.00  0.00     0.288 C 
HETATM    7  O   UNL     1      -4.455   3.286 -30.813  1.00  0.00    -0.264 OA
HETATM    8  H   UNL     1      -2.612   2.957 -33.416  1.00  0.00     0.190 HD
BRANCH   6   9
HETATM    9  C   UNL     1      -4.704   1.698 -32.516  1.00  0.00     0.121 A 
HETATM   10  N   UNL     1      -5.929   1.795 -33.113  1.00  0.00    -0.272 N 
HETATM   11  N   UNL     1      -6.358   0.659 -33.678  1.00  0.00    -0.174 NA
HETATM   12  H   UNL     1      -6.513   2.625 -33.174  1.00  0.00     0.189 HD
HETATM   13  C   UNL     1      -5.387  -0.235 -33.431  1.00  0.00     0.089 A 
HETATM   14  C   UNL     1      -4.331   0.381 -32.699  1.00  0.00     0.071 A 
BRANCH  13  15
HETATM   15  C   UNL     1      -5.473  -1.620 -33.903  1.00  0.00    -0.006 A 
HETATM   16  C   UNL     1      -4.348  -2.457 -33.857  1.00  0.00     0.014 A 
HETATM   17  C   UNL     1      -4.424  -3.784 -34.286  1.00  0.00     0.001 A 
HETATM   18  C   UNL     1      -5.626  -4.292 -34.774  1.00  0.00     0.000 A 
HETATM   19  C   UNL     1      -6.751  -3.472 -34.834  1.00  0.00     0.001 A 
HETATM   20  C   UNL     1      -6.677  -2.144 -34.401  1.00  0.00     0.014 A 
ENDBRANCH  13  15
ENDBRANCH   6   9
ENDBRANCH   1   5
BRANCH   2  21
HETATM   21  C   UNL     1      -0.702   6.237 -32.103  1.00  0.00     0.112 C 
BRANCH  21  22
HETATM   22  C   UNL     1      -0.460   5.842 -30.650  1.00  0.00     0.093 C 
BRANCH  22  23
HETATM   23  C   UNL     1      -1.251   6.717 -29.698  1.00  0.00     0.160 C 
HETATM   24  O   UNL     1      -2.478   6.770 -29.736  1.00  0.00    -0.292 OA
BRANCH  23  25
HETATM   25  C   UNL     1      -0.509   7.536 -28.690  1.00  0.00     0.013 A 
HETATM   26  C   UNL     1      -1.231   8.095 -27.625  1.00  0.00     0.054 A 
HETATM   27  C   UNL     1      -0.575   8.855 -26.658  1.00  0.00     0.103 A 
HETATM   28  C   UNL     1       0.799   9.088 -26.760  1.00  0.00     0.102 A 
HETATM   29  O   UNL     1      -1.346   9.352 -25.638  1.00  0.00    -0.346 OA
HETATM   30  O   UNL     1       1.502   9.850 -25.863  1.00  0.00    -0.346 OA
HETATM   31  C   UNL     1       1.525   8.526 -27.807  1.00  0.00     0.040 A 
HETATM   32  C   UNL     1       0.627  10.641 -25.049  1.00  0.00     0.202 C 
HETATM   33  C   UNL     1      -0.540   9.806 -24.545  1.00  0.00     0.202 C 
HETATM   34  C   UNL     1       0.873   7.752 -28.774  1.00  0.00     0.018 A 
ENDBRANCH  23  25
ENDBRANCH  22  23
ENDBRANCH  21  22
ENDBRANCH   2  21
TORSDOF 7
ENDMDL
MODEL 7
REMARK VINA RESULT:      -9.2      1.706      2.559
REMARK  7 active torsions:
REMARK  status: ('A' for Active; 'I' for Inactive)
REMARK    1  A    between atoms: C_4  and  C_5 
REMARK    2  A    between atoms: C_9  and  C_10 
REMARK       I    between atoms: C_10  and  N_11 
REMARK    3  A    between atoms: N_11  and  N_12 
REMARK       I    between atoms: N_12  and  C_13 
REMARK    4  A    between atoms: C_13  and  C_14 
REMARK    5  A    between atoms: C_14  and  C_15 
REMARK    6  A    between atoms: C_15  and  C_16 
REMARK    7  A    between atoms: C_16  and  C_17 
ROOT
HETATM    1  N   UNL     1      -1.905   4.134 -31.234  1.00  0.00    -0.267 N 
HETATM    2  C   UNL     1      -3.193   4.057 -31.721  1.00  0.00     0.236 C 
HETATM    3  O   UNL     1      -4.002   4.975 -31.609  1.00  0.00    -0.272 OA
HETATM    4  H   UNL     1      -1.286   3.326 -31.164  1.00  0.00     0.190 HD
ENDROOT
BRANCH   1   5
HETATM    5  N   UNL     1      -1.554   5.264 -30.490  1.00  0.00    -0.262 N 
HETATM    6  C   UNL     1      -0.286   5.352 -29.956  1.00  0.00     0.288 C 
HETATM    7  O   UNL     1       0.563   4.485 -30.156  1.00  0.00    -0.264 OA
HETATM    8  H   UNL     1      -2.307   5.909 -30.263  1.00  0.00     0.190 HD
BRANCH   6   9
HETATM    9  C   UNL     1      -0.029   6.521 -29.162  1.00  0.00     0.121 A 
HETATM   10  N   UNL     1      -0.695   7.695 -29.373  1.00  0.00    -0.272 N 
HETATM   11  N   UNL     1      -0.360   8.677 -28.526  1.00  0.00    -0.174 NA
HETATM   12  H   UNL     1      -1.402   7.877 -30.080  1.00  0.00     0.189 HD
HETATM   13  C   UNL     1       0.578   8.139 -27.730  1.00  0.00     0.089 A 
HETATM   14  C   UNL     1       0.816   6.784 -28.102  1.00  0.00     0.071 A 
BRANCH  13  15
HETATM   15  C   UNL     1       1.202   8.902 -26.644  1.00  0.00    -0.006 A 
HETATM   16  C   UNL     1       2.181   8.310 -25.833  1.00  0.00     0.014 A 
HETATM   17  C   UNL     1       2.795   9.034 -24.807  1.00  0.00     0.001 A 
HETATM   18  C   UNL     1       2.434  10.359 -24.576  1.00  0.00     0.000 A 
HETATM   19  C   UNL     1       1.458  10.960 -25.368  1.00  0.00     0.001 A 
HETATM   20  C   UNL     1       0.845  10.237 -26.397  1.00  0.00     0.014 A 
ENDBRANCH  13  15
ENDBRANCH   6   9
ENDBRANCH   1   5
BRANCH   2  21
HETATM   21  C   UNL     1      -3.487   2.749 -32.417  1.00  0.00     0.112 C 
BRANCH  21  22
HETATM   22  C   UNL     1      -4.156   1.754 -31.473  1.00  0.00     0.093 C 
BRANCH  22  23
HETATM   23  C   UNL     1      -3.654   0.343 -31.707  1.00  0.00     0.160 C 
HETATM   24  O   UNL     1      -2.585  -0.049 -31.245  1.00  0.00    -0.292 OA
BRANCH  23  25
HETATM   25  C   UNL     1      -4.489  -0.589 -32.526  1.00  0.00     0.013 A 
HETATM   26  C   UNL     1      -3.925  -1.809 -32.927  1.00  0.00     0.054 A 
HETATM   27  C   UNL     1      -4.674  -2.712 -33.681  1.00  0.00     0.103 A 
HETATM   28  C   UNL     1      -5.979  -2.394 -34.066  1.00  0.00     0.102 A 
HETATM   29  O   UNL     1      -4.059  -3.891 -34.018  1.00  0.00    -0.346 OA
HETATM   30  O   UNL     1      -6.760  -3.219 -34.832  1.00  0.00    -0.346 OA
HETATM   31  C   UNL     1      -6.550  -1.190 -33.661  1.00  0.00     0.040 A 
HETATM   32  C   UNL     1      -5.979  -4.240 -35.464  1.00  0.00     0.202 C 
HETATM   33  C   UNL     1      -5.006  -4.863 -34.475  1.00  0.00     0.202 C 
HETATM   34  C   UNL     1      -5.808  -0.286 -32.894  1.00  0.00     0.018 A 
ENDBRANCH  23  25
ENDBRANCH  22  23
ENDBRANCH  21  22
ENDBRANCH   2  21
TORSDOF 7
ENDMDL
MODEL 8
REMARK VINA RESULT:      -9.2      2.869     10.663
REMARK  7 active torsions:
REMARK  status: ('A' for Active; 'I' for Inactive)
REMARK    1  A    between atoms: C_4  and  C_5 
REMARK    2  A    between atoms: C_9  and  C_10 
REMARK       I    between atoms: C_10  and  N_11 
REMARK    3  A    between atoms: N_11  and  N_12 
REMARK       I    between atoms: N_12  and  C_13 
REMARK    4  A    between atoms: C_13  and  C_14 
REMARK    5  A    between atoms: C_14  and  C_15 
REMARK    6  A    between atoms: C_15  and  C_16 
REMARK    7  A    between atoms: C_16  and  C_17 
ROOT
HETATM    1  N   UNL     1      -4.312   4.709 -30.169  1.00  0.00    -0.267 N 
HETATM    2  C   UNL     1      -4.508   5.732 -31.072  1.00  0.00     0.236 C 
HETATM    3  O   UNL     1      -4.899   5.539 -32.221  1.00  0.00    -0.272 OA
HETATM    4  H   UNL     1      -3.826   4.834 -29.280  1.00  0.00     0.190 HD
ENDROOT
BRANCH   1   5
HETATM    5  N   UNL     1      -4.463   3.396 -30.625  1.00  0.00    -0.262 N 
HETATM    6  C   UNL     1      -3.385   2.753 -31.196  1.00  0.00     0.288 C 
HETATM    7  O   UNL     1      -2.279   3.286 -31.272  1.00  0.00    -0.264 OA
HETATM    8  H   UNL     1      -5.410   3.026 -30.636  1.00  0.00     0.190 HD
BRANCH   6   9
HETATM    9  C   UNL     1      -3.644   1.428 -31.684  1.00  0.00     0.121 A 
HETATM   10  N   UNL     1      -2.974   0.339 -31.202  1.00  0.00    -0.272 N 
HETATM   11  N   UNL     1      -3.358  -0.826 -31.741  1.00  0.00    -0.174 NA
HETATM   12  H   UNL     1      -2.250   0.336 -30.489  1.00  0.00     0.189 HD
HETATM   13  C   UNL     1      -4.308  -0.496 -32.630  1.00  0.00     0.089 A 
HETATM   14  C   UNL     1      -4.514   0.914 -32.626  1.00  0.00     0.071 A 
BRANCH  13  15
HETATM   15  C   UNL     1      -4.999  -1.509 -33.435  1.00  0.00    -0.006 A 
HETATM   16  C   UNL     1      -4.329  -2.674 -33.835  1.00  0.00     0.014 A 
HETATM   17  C   UNL     1      -4.982  -3.654 -34.586  1.00  0.00     0.001 A 
HETATM   18  C   UNL     1      -6.314  -3.480 -34.952  1.00  0.00     0.000 A 
HETATM   19  C   UNL     1      -6.993  -2.324 -34.570  1.00  0.00     0.001 A 
HETATM   20  C   UNL     1      -6.340  -1.344 -33.815  1.00  0.00     0.014 A 
ENDBRANCH  13  15
ENDBRANCH   6   9
ENDBRANCH   1   5
BRANCH   2  21
HETATM   21  C   UNL     1      -4.215   7.097 -30.496  1.00  0.00     0.112 C 
BRANCH  21  22
HETATM   22  C   UNL     1      -3.797   8.083 -31.582  1.00  0.00     0.093 C 
BRANCH  22  23
HETATM   23  C   UNL     1      -2.302   8.032 -31.832  1.00  0.00     0.160 C 
HETATM   24  O   UNL     1      -1.823   8.271 -32.938  1.00  0.00    -0.292 OA
BRANCH  23  25
HETATM   25  C   UNL     1      -1.396   7.678 -30.697  1.00  0.00     0.013 A 
HETATM   26  C   UNL     1      -1.350   8.537 -29.589  1.00  0.00     0.054 A 
HETATM   27  C   UNL     1      -0.526   8.238 -28.505  1.00  0.00     0.103 A 
HETATM   28  C   UNL     1       0.278   7.096 -28.528  1.00  0.00     0.102 A 
HETATM   29  O   UNL     1      -0.551   9.116 -27.452  1.00  0.00    -0.346 OA
HETATM   30  O   UNL     1       1.133   6.756 -27.512  1.00  0.00    -0.346 OA
HETATM   31  C   UNL     1       0.229   6.231 -29.619  1.00  0.00     0.040 A 
HETATM   32  C   UNL     1       1.356   7.860 -26.625  1.00  0.00     0.202 C 
HETATM   33  C   UNL     1       0.044   8.547 -26.281  1.00  0.00     0.202 C 
HETATM   34  C   UNL     1      -0.604   6.521 -30.704  1.00  0.00     0.018 A 
ENDBRANCH  23  25
ENDBRANCH  22  23
ENDBRANCH  21  22
ENDBRANCH   2  21
TORSDOF 7
ENDMDL
MODEL 9
REMARK VINA RESULT:      -8.7      7.095     10.628
REMARK  7 active torsions:
REMARK  status: ('A' for Active; 'I' for Inactive)
REMARK    1  A    between atoms: C_4  and  C_5 
REMARK    2  A    between atoms: C_9  and  C_10 
REMARK       I    between atoms: C_10  and  N_11 
REMARK    3  A    between atoms: N_11  and  N_12 
REMARK       I    between atoms: N_12  and  C_13 
REMARK    4  A    between atoms: C_13  and  C_14 
REMARK    5  A    between atoms: C_14  and  C_15 
REMARK    6  A    between atoms: C_15  and  C_16 
REMARK    7  A    between atoms: C_16  and  C_17 
ROOT
HETATM    1  N   UNL     1      -8.832   4.424 -33.831  1.00  0.00    -0.267 N 
HETATM    2  C   UNL     1      -8.340   5.598 -33.302  1.00  0.00     0.236 C 
HETATM    3  O   UNL     1      -7.163   5.740 -32.980  1.00  0.00    -0.272 OA
HETATM    4  H   UNL     1      -9.829   4.234 -33.938  1.00  0.00     0.190 HD
ENDROOT
BRANCH   1   5
HETATM    5  N   UNL     1      -7.971   3.324 -33.896  1.00  0.00    -0.262 N 
HETATM    6  C   UNL     1      -8.503   2.053 -33.933  1.00  0.00     0.288 C 
HETATM    7  O   UNL     1      -9.717   1.859 -33.960  1.00  0.00    -0.264 OA
HETATM    8  H   UNL     1      -6.980   3.517 -33.773  1.00  0.00     0.190 HD
BRANCH   6   9
HETATM    9  C   UNL     1      -7.546   0.983 -33.945  1.00  0.00     0.121 A 
HETATM   10  N   UNL     1      -6.255   1.166 -33.535  1.00  0.00    -0.272 N 
HETATM   11  N   UNL     1      -5.502   0.059 -33.578  1.00  0.00    -0.174 NA
HETATM   12  H   UNL     1      -5.839   2.030 -33.202  1.00  0.00     0.189 HD
HETATM   13  C   UNL     1      -6.320  -0.895 -34.052  1.00  0.00     0.089 A 
HETATM   14  C   UNL     1      -7.614  -0.351 -34.298  1.00  0.00     0.071 A 
BRANCH  13  15
HETATM   15  C   UNL     1      -5.868  -2.277 -34.240  1.00  0.00    -0.006 A 
HETATM   16  C   UNL     1      -6.759  -3.257 -34.704  1.00  0.00     0.014 A 
HETATM   17  C   UNL     1      -6.335  -4.573 -34.903  1.00  0.00     0.001 A 
HETATM   18  C   UNL     1      -5.015  -4.929 -34.636  1.00  0.00     0.000 A 
HETATM   19  C   UNL     1      -4.120  -3.970 -34.167  1.00  0.00     0.001 A 
HETATM   20  C   UNL     1      -4.543  -2.651 -33.970  1.00  0.00     0.014 A 
ENDBRANCH  13  15
ENDBRANCH   6   9
ENDBRANCH   1   5
BRANCH   2  21
HETATM   21  C   UNL     1      -9.386   6.681 -33.185  1.00  0.00     0.112 C 
BRANCH  21  22
HETATM   22  C   UNL     1     -10.267   6.741 -34.430  1.00  0.00     0.093 C 
BRANCH  22  23
HETATM   23  C   UNL     1     -11.707   6.394 -34.109  1.00  0.00     0.160 C 
HETATM   24  O   UNL     1     -12.478   7.218 -33.623  1.00  0.00    -0.292 OA
BRANCH  23  25
HETATM   25  C   UNL     1     -12.192   5.008 -34.391  1.00  0.00     0.013 A 
HETATM   26  C   UNL     1     -12.895   4.331 -33.383  1.00  0.00     0.054 A 
HETATM   27  C   UNL     1     -13.375   3.042 -33.610  1.00  0.00     0.103 A 
HETATM   28  C   UNL     1     -13.134   2.407 -34.831  1.00  0.00     0.102 A 
HETATM   29  O   UNL     1     -14.069   2.453 -32.583  1.00  0.00    -0.346 OA
HETATM   30  O   UNL     1     -13.549   1.131 -35.111  1.00  0.00    -0.346 OA
HETATM   31  C   UNL     1     -12.448   3.077 -35.841  1.00  0.00     0.040 A 
HETATM   32  C   UNL     1     -13.927   0.430 -33.919  1.00  0.00     0.202 C 
HETATM   33  C   UNL     1     -14.798   1.307 -33.034  1.00  0.00     0.202 C 
HETATM   34  C   UNL     1     -11.974   4.375 -35.623  1.00  0.00     0.018 A 
ENDBRANCH  23  25
ENDBRANCH  22  23
ENDBRANCH  21  22
ENDBRANCH   2  21
TORSDOF 7
ENDMDL
MODEL 10
REMARK VINA RESULT:      -8.6      3.105     11.039
REMARK  7 active torsions:
REMARK  status: ('A' for Active; 'I' for Inactive)
REMARK    1  A    between atoms: C_4  and  C_5 
REMARK    2  A    between atoms: C_9  and  C_10 
REMARK       I    between atoms: C_10  and  N_11 
REMARK    3  A    between atoms: N_11  and  N_12 
REMARK       I    between atoms: N_12  and  C_13 
REMARK    4  A    between atoms: C_13  and  C_14 
REMARK    5  A    between atoms: C_14  and  C_15 
REMARK    6  A    between atoms: C_15  and  C_16 
REMARK    7  A    between atoms: C_16  and  C_17 
ROOT
HETATM    1  N   UNL     1      -5.193   4.455 -32.467  1.00  0.00    -0.267 N 
HETATM    2  C   UNL     1      -5.077   4.612 -31.102  1.00  0.00     0.236 C 
HETATM    3  O   UNL     1      -4.965   3.662 -30.330  1.00  0.00    -0.272 OA
HETATM    4  H   UNL     1      -5.460   5.213 -33.095  1.00  0.00     0.190 HD
ENDROOT
BRANCH   1   5
HETATM    5  N   UNL     1      -5.298   3.154 -32.969  1.00  0.00    -0.262 N 
HETATM    6  C   UNL     1      -6.504   2.726 -33.482  1.00  0.00     0.288 C 
HETATM    7  O   UNL     1      -7.480   3.472 -33.554  1.00  0.00    -0.264 OA
HETATM    8  H   UNL     1      -4.506   2.539 -32.803  1.00  0.00     0.190 HD
BRANCH   6   9
HETATM    9  C   UNL     1      -6.537   1.361 -33.926  1.00  0.00     0.121 A 
HETATM   10  N   UNL     1      -7.382   0.945 -34.916  1.00  0.00    -0.272 N 
HETATM   11  N   UNL     1      -7.264  -0.351 -35.233  1.00  0.00    -0.174 NA
HETATM   12  H   UNL     1      -8.055   1.514 -35.421  1.00  0.00     0.189 HD
HETATM   13  C   UNL     1      -6.314  -0.820 -34.408  1.00  0.00     0.089 A 
HETATM   14  C   UNL     1      -5.835   0.226 -33.568  1.00  0.00     0.071 A 
BRANCH  13  15
HETATM   15  C   UNL     1      -5.878  -2.220 -34.447  1.00  0.00    -0.006 A 
HETATM   16  C   UNL     1      -4.553  -2.559 -34.135  1.00  0.00     0.014 A 
HETATM   17  C   UNL     1      -4.132  -3.891 -34.152  1.00  0.00     0.001 A 
HETATM   18  C   UNL     1      -5.029  -4.902 -34.487  1.00  0.00     0.000 A 
HETATM   19  C   UNL     1      -6.347  -4.582 -34.808  1.00  0.00     0.001 A 
HETATM   20  C   UNL     1      -6.770  -3.249 -34.788  1.00  0.00     0.014 A 
ENDBRANCH  13  15
ENDBRANCH   6   9
ENDBRANCH   1   5
BRANCH   2  21
HETATM   21  C   UNL     1      -5.077   6.059 -30.668  1.00  0.00     0.112 C 
BRANCH  21  22
HETATM   22  C   UNL     1      -4.555   6.971 -31.774  1.00  0.00     0.093 C 
BRANCH  22  23
HETATM   23  C   UNL     1      -3.589   8.006 -31.231  1.00  0.00     0.160 C 
HETATM   24  O   UNL     1      -3.760   9.209 -31.412  1.00  0.00    -0.292 OA
BRANCH  23  25
HETATM   25  C   UNL     1      -2.397   7.539 -30.458  1.00  0.00     0.013 A 
HETATM   26  C   UNL     1      -2.267   7.948 -29.123  1.00  0.00     0.054 A 
HETATM   27  C   UNL     1      -1.177   7.525 -28.364  1.00  0.00     0.103 A 
HETATM   28  C   UNL     1      -0.193   6.716 -28.937  1.00  0.00     0.102 A 
HETATM   29  O   UNL     1      -1.131   7.952 -27.061  1.00  0.00    -0.346 OA
HETATM   30  O   UNL     1       0.919   6.289 -28.260  1.00  0.00    -0.346 OA
HETATM   31  C   UNL     1      -0.321   6.295 -30.259  1.00  0.00     0.040 A 
HETATM   32  C   UNL     1       1.120   7.041 -27.057  1.00  0.00     0.202 C 
HETATM   33  C   UNL     1      -0.187   7.196 -26.296  1.00  0.00     0.202 C 
HETATM   34  C   UNL     1      -1.419   6.707 -31.021  1.00  0.00     0.018 A 
ENDBRANCH  23  25
ENDBRANCH  22  23
ENDBRANCH  21  22
ENDBRANCH   2  21
TORSDOF 7
ENDMDL
