MODEL 1
REMARK VINA RESULT:      -8.7      0.000      0.000
REMARK  5 active torsions:
REMARK  status: ('A' for Active; 'I' for Inactive)
REMARK    1  A    between atoms: C_2  and  N_3 
REMARK       I    between atoms: N_3  and  C_4 
REMARK    2  A    between atoms: C_4  and  C_5 
REMARK    3  A    between atoms: C_13  and  C_14 
REMARK    4  A    between atoms: C_16  and  O_17 
REMARK    5  A    between atoms: C_19  and  O_20 
ROOT
HETATM    1  C   UNL     1      -9.053   1.682 -32.866  1.00  0.00     0.046 A 
HETATM    2  C   UNL     1      -8.676   2.472 -31.758  1.00  0.00     0.008 A 
HETATM    3  C   UNL     1      -7.446   2.141 -31.157  1.00  0.00     0.068 A 
HETATM    4  C   UNL     1      -7.012   2.880 -30.064  1.00  0.00     0.032 A 
HETATM    5  C   UNL     1      -7.754   3.943 -29.545  1.00  0.00     0.002 A 
HETATM    6  C   UNL     1      -8.962   4.284 -30.132  1.00  0.00     0.001 A 
HETATM    7  C   UNL     1      -9.419   3.559 -31.231  1.00  0.00     0.015 A 
HETATM    8  N   UNL     1      -6.659   1.143 -31.596  1.00  0.00    -0.248 NA
HETATM    9  C   UNL     1      -7.048   0.384 -32.647  1.00  0.00     0.069 A 
HETATM   10  C   UNL     1      -8.241   0.630 -33.304  1.00  0.00     0.050 A 
ENDROOT
BRANCH   9  11
HETATM   11  C   UNL     1      -6.107  -0.680 -33.060  1.00  0.00    -0.004 A 
HETATM   12  C   UNL     1      -6.422  -1.539 -34.133  1.00  0.00     0.053 A 
HETATM   13  C   UNL     1      -5.566  -2.579 -34.524  1.00  0.00     0.102 A 
HETATM   14  C   UNL     1      -4.366  -2.793 -33.824  1.00  0.00     0.101 A 
HETATM   15  C   UNL     1      -4.024  -1.933 -32.779  1.00  0.00     0.040 A 
HETATM   16  C   UNL     1      -4.881  -0.890 -32.407  1.00  0.00     0.017 A 
BRANCH  13  17
HETATM   17  O   UNL     1      -5.833  -3.451 -35.551  1.00  0.00    -0.353 OA
HETATM   18  C   UNL     1      -6.729  -4.520 -35.278  1.00  0.00     0.210 C 
ENDBRANCH  13  17
BRANCH  14  19
HETATM   19  O   UNL     1      -3.589  -3.840 -34.248  1.00  0.00    -0.353 OA
HETATM   20  C   UNL     1      -3.473  -4.957 -33.379  1.00  0.00     0.210 C 
ENDBRANCH  14  19
ENDBRANCH   9  11
BRANCH   1  21
HETATM   21  C   UNL     1     -10.327   1.908 -33.600  1.00  0.00     0.253 C 
HETATM   22  N   UNL     1     -11.372   1.090 -33.213  1.00  0.00    -0.349 N 
HETATM   23  H   UNL     1     -11.139   0.283 -32.648  1.00  0.00     0.163 HD
HETATM   24  O   UNL     1     -10.401   2.771 -34.464  1.00  0.00    -0.268 OA
BRANCH  22  25
HETATM   25  C   UNL     1     -12.716   1.104 -33.812  1.00  0.00     0.022 C 
HETATM   26  C   UNL     1     -13.393  -0.263 -33.643  1.00  0.00     0.037 C 
HETATM   27  C   UNL     1     -12.667   1.491 -35.299  1.00  0.00     0.037 C 
HETATM   28  C   UNL     1     -13.551   2.166 -33.072  1.00  0.00     0.037 C 
ENDBRANCH  22  25
ENDBRANCH   1  21
TORSDOF 5
ENDMDL
MODEL 2
REMARK VINA RESULT:      -8.6      0.801      2.010
REMARK  5 active torsions:
REMARK  status: ('A' for Active; 'I' for Inactive)
REMARK    1  A    between atoms: C_2  and  N_3 
REMARK       I    between atoms: N_3  and  C_4 
REMARK    2  A    between atoms: C_4  and  C_5 
REMARK    3  A    between atoms: C_13  and  C_14 
REMARK    4  A    between atoms: C_16  and  O_17 
REMARK    5  A    between atoms: C_19  and  O_20 
ROOT
HETATM    1  C   UNL     1      -9.471   1.906 -32.744  1.00  0.00     0.046 A 
HETATM    2  C   UNL     1      -8.976   2.697 -31.684  1.00  0.00     0.008 A 
HETATM    3  C   UNL     1      -7.715   2.327 -31.176  1.00  0.00     0.068 A 
HETATM    4  C   UNL     1      -7.168   3.065 -30.135  1.00  0.00     0.032 A 
HETATM    5  C   UNL     1      -7.824   4.164 -29.578  1.00  0.00     0.002 A 
HETATM    6  C   UNL     1      -9.062   4.543 -30.073  1.00  0.00     0.001 A 
HETATM    7  C   UNL     1      -9.633   3.820 -31.119  1.00  0.00     0.015 A 
HETATM    8  N   UNL     1      -7.004   1.293 -31.658  1.00  0.00    -0.248 NA
HETATM    9  C   UNL     1      -7.505   0.534 -32.662  1.00  0.00     0.069 A 
HETATM   10  C   UNL     1      -8.737   0.816 -33.225  1.00  0.00     0.050 A 
ENDROOT
BRANCH   9  11
HETATM   11  C   UNL     1      -6.641  -0.572 -33.129  1.00  0.00    -0.004 A 
HETATM   12  C   UNL     1      -5.391  -0.811 -32.522  1.00  0.00     0.053 A 
HETATM   13  C   UNL     1      -4.535  -1.830 -32.966  1.00  0.00     0.102 A 
HETATM   14  C   UNL     1      -4.914  -2.629 -34.057  1.00  0.00     0.101 A 
HETATM   15  C   UNL     1      -6.161  -2.427 -34.651  1.00  0.00     0.040 A 
HETATM   16  C   UNL     1      -7.012  -1.416 -34.189  1.00  0.00     0.017 A 
BRANCH  13  17
HETATM   17  O   UNL     1      -3.303  -2.093 -32.419  1.00  0.00    -0.353 OA
HETATM   18  C   UNL     1      -2.606  -1.003 -31.832  1.00  0.00     0.210 C 
ENDBRANCH  13  17
BRANCH  14  19
HETATM   19  O   UNL     1      -4.019  -3.592 -34.450  1.00  0.00    -0.353 OA
HETATM   20  C   UNL     1      -4.342  -4.942 -34.149  1.00  0.00     0.210 C 
ENDBRANCH  14  19
ENDBRANCH   9  11
BRANCH   1  21
HETATM   21  C   UNL     1     -10.790   2.171 -33.378  1.00  0.00     0.253 C 
HETATM   22  N   UNL     1     -11.742   1.193 -33.162  1.00  0.00    -0.349 N 
HETATM   23  H   UNL     1     -11.417   0.305 -32.800  1.00  0.00     0.163 HD
HETATM   24  O   UNL     1     -10.975   3.194 -34.022  1.00  0.00    -0.268 OA
BRANCH  22  25
HETATM   25  C   UNL     1     -13.108   1.215 -33.711  1.00  0.00     0.022 C 
HETATM   26  C   UNL     1     -13.086   1.632 -35.187  1.00  0.00     0.037 C 
HETATM   27  C   UNL     1     -14.024   2.154 -32.908  1.00  0.00     0.037 C 
HETATM   28  C   UNL     1     -13.681  -0.210 -33.607  1.00  0.00     0.037 C 
ENDBRANCH  22  25
ENDBRANCH   1  21
TORSDOF 5
ENDMDL
MODEL 3
REMARK VINA RESULT:      -8.5      3.848      6.363
REMARK  5 active torsions:
REMARK  status: ('A' for Active; 'I' for Inactive)
REMARK    1  A    between atoms: C_2  and  N_3 
REMARK       I    between atoms: N_3  and  C_4 
REMARK    2  A    between atoms: C_4  and  C_5 
REMARK    3  A    between atoms: C_13  and  C_14 
REMARK    4  A    between atoms: C_16  and  O_17 
REMARK    5  A    between atoms: C_19  and  O_20 
ROOT
HETATM    1  C   UNL     1      -3.924   3.212 -31.767  1.00  0.00     0.046 A 
HETATM    2  C   UNL     1      -5.011   3.611 -30.959  1.00  0.00     0.008 A 
HETATM    3  C   UNL     1      -6.110   2.731 -30.926  1.00  0.00     0.068 A 
HETATM    4  C   UNL     1      -7.211   3.061 -30.147  1.00  0.00     0.032 A 
HETATM    5  C   UNL     1      -7.262   4.235 -29.392  1.00  0.00     0.002 A 
HETATM    6  C   UNL     1      -6.183   5.105 -29.409  1.00  0.00     0.001 A 
HETATM    7  C   UNL     1      -5.065   4.797 -30.182  1.00  0.00     0.015 A 
HETATM    8  N   UNL     1      -6.145   1.574 -31.609  1.00  0.00    -0.248 NA
HETATM    9  C   UNL     1      -5.102   1.218 -32.395  1.00  0.00     0.069 A 
HETATM   10  C   UNL     1      -3.976   2.017 -32.495  1.00  0.00     0.050 A 
ENDROOT
BRANCH   9  11
HETATM   11  C   UNL     1      -5.232  -0.079 -33.095  1.00  0.00    -0.004 A 
HETATM   12  C   UNL     1      -4.365  -1.147 -32.792  1.00  0.00     0.053 A 
HETATM   13  C   UNL     1      -4.442  -2.376 -33.463  1.00  0.00     0.102 A 
HETATM   14  C   UNL     1      -5.394  -2.554 -34.482  1.00  0.00     0.101 A 
HETATM   15  C   UNL     1      -6.282  -1.517 -34.774  1.00  0.00     0.040 A 
HETATM   16  C   UNL     1      -6.203  -0.300 -34.086  1.00  0.00     0.017 A 
BRANCH  13  17
HETATM   17  O   UNL     1      -3.612  -3.442 -33.217  1.00  0.00    -0.353 OA
HETATM   18  C   UNL     1      -3.017  -3.519 -31.929  1.00  0.00     0.210 C 
ENDBRANCH  13  17
BRANCH  14  19
HETATM   19  O   UNL     1      -5.398  -3.774 -35.110  1.00  0.00    -0.353 OA
HETATM   20  C   UNL     1      -6.633  -4.474 -35.160  1.00  0.00     0.210 C 
ENDBRANCH  14  19
ENDBRANCH   9  11
BRANCH   1  21
HETATM   21  C   UNL     1      -2.696   4.040 -31.907  1.00  0.00     0.253 C 
HETATM   22  N   UNL     1      -2.762   5.013 -32.885  1.00  0.00    -0.349 N 
HETATM   23  H   UNL     1      -3.518   4.941 -33.556  1.00  0.00     0.163 HD
HETATM   24  O   UNL     1      -1.731   3.845 -31.181  1.00  0.00    -0.268 OA
BRANCH  22  25
HETATM   25  C   UNL     1      -1.666   5.932 -33.231  1.00  0.00     0.022 C 
HETATM   26  C   UNL     1      -0.533   5.827 -32.201  1.00  0.00     0.037 C 
HETATM   27  C   UNL     1      -2.159   7.385 -33.331  1.00  0.00     0.037 C 
HETATM   28  C   UNL     1      -1.121   5.519 -34.611  1.00  0.00     0.037 C 
ENDBRANCH  22  25
ENDBRANCH   1  21
TORSDOF 5
ENDMDL
MODEL 4
REMARK VINA RESULT:      -8.0      2.206      4.778
REMARK  5 active torsions:
REMARK  status: ('A' for Active; 'I' for Inactive)
REMARK    1  A    between atoms: C_2  and  N_3 
REMARK       I    between atoms: N_3  and  C_4 
REMARK    2  A    between atoms: C_4  and  C_5 
REMARK    3  A    between atoms: C_13  and  C_14 
REMARK    4  A    between atoms: C_16  and  O_17 
REMARK    5  A    between atoms: C_19  and  O_20 
ROOT
HETATM    1  C   UNL     1      -7.756   2.861 -33.493  1.00  0.00     0.046 A 
HETATM    2  C   UNL     1      -9.143   2.600 -33.490  1.00  0.00     0.008 A 
HETATM    3  C   UNL     1      -9.517   1.248 -33.619  1.00  0.00     0.068 A 
HETATM    4  C   UNL     1     -10.866   0.921 -33.620  1.00  0.00     0.032 A 
HETATM    5  C   UNL     1     -11.865   1.889 -33.491  1.00  0.00     0.002 A 
HETATM    6  C   UNL     1     -11.511   3.222 -33.354  1.00  0.00     0.001 A 
HETATM    7  C   UNL     1     -10.163   3.577 -33.350  1.00  0.00     0.015 A 
HETATM    8  N   UNL     1      -8.626   0.249 -33.735  1.00  0.00    -0.248 NA
HETATM    9  C   UNL     1      -7.299   0.521 -33.757  1.00  0.00     0.069 A 
HETATM   10  C   UNL     1      -6.833   1.818 -33.639  1.00  0.00     0.050 A 
ENDROOT
BRANCH   9  11
HETATM   11  C   UNL     1      -6.401  -0.649 -33.876  1.00  0.00    -0.004 A 
HETATM   12  C   UNL     1      -5.281  -0.782 -33.031  1.00  0.00     0.053 A 
HETATM   13  C   UNL     1      -4.392  -1.861 -33.143  1.00  0.00     0.102 A 
HETATM   14  C   UNL     1      -4.603  -2.834 -34.135  1.00  0.00     0.101 A 
HETATM   15  C   UNL     1      -5.724  -2.736 -34.960  1.00  0.00     0.040 A 
HETATM   16  C   UNL     1      -6.611  -1.660 -34.828  1.00  0.00     0.017 A 
BRANCH  13  17
HETATM   17  O   UNL     1      -3.279  -2.028 -32.356  1.00  0.00    -0.353 OA
HETATM   18  C   UNL     1      -2.671  -0.854 -31.834  1.00  0.00     0.210 C 
ENDBRANCH  13  17
BRANCH  14  19
HETATM   19  O   UNL     1      -3.683  -3.850 -34.200  1.00  0.00    -0.353 OA
HETATM   20  C   UNL     1      -4.085  -5.123 -33.717  1.00  0.00     0.210 C 
ENDBRANCH  14  19
ENDBRANCH   9  11
BRANCH   1  21
HETATM   21  C   UNL     1      -7.210   4.239 -33.371  1.00  0.00     0.253 C 
HETATM   22  N   UNL     1      -6.677   4.543 -32.133  1.00  0.00    -0.349 N 
HETATM   23  H   UNL     1      -6.896   3.914 -31.370  1.00  0.00     0.163 HD
HETATM   24  O   UNL     1      -7.241   5.005 -34.324  1.00  0.00    -0.268 OA
BRANCH  22  25
HETATM   25  C   UNL     1      -6.108   5.848 -31.761  1.00  0.00     0.022 C 
HETATM   26  C   UNL     1      -5.693   5.852 -30.283  1.00  0.00     0.037 C 
HETATM   27  C   UNL     1      -7.096   6.994 -32.037  1.00  0.00     0.037 C 
HETATM   28  C   UNL     1      -4.856   6.082 -32.628  1.00  0.00     0.037 C 
ENDBRANCH  22  25
ENDBRANCH   1  21
TORSDOF 5
ENDMDL
MODEL 5
REMARK VINA RESULT:      -7.9      2.730      7.993
REMARK  5 active torsions:
REMARK  status: ('A' for Active; 'I' for Inactive)
REMARK    1  A    between atoms: C_2  and  N_3 
REMARK       I    between atoms: N_3  and  C_4 
REMARK    2  A    between atoms: C_4  and  C_5 
REMARK    3  A    between atoms: C_13  and  C_14 
REMARK    4  A    between atoms: C_16  and  O_17 
REMARK    5  A    between atoms: C_19  and  O_20 
ROOT
HETATM    1  C   UNL     1      -6.388   1.298 -32.754  1.00  0.00     0.046 A 
HETATM    2  C   UNL     1      -6.049   0.034 -33.282  1.00  0.00     0.008 A 
HETATM    3  C   UNL     1      -7.117  -0.722 -33.804  1.00  0.00     0.068 A 
HETATM    4  C   UNL     1      -6.854  -1.974 -34.343  1.00  0.00     0.032 A 
HETATM    5  C   UNL     1      -5.564  -2.506 -34.389  1.00  0.00     0.002 A 
HETATM    6  C   UNL     1      -4.502  -1.770 -33.887  1.00  0.00     0.001 A 
HETATM    7  C   UNL     1      -4.740  -0.510 -33.341  1.00  0.00     0.015 A 
HETATM    8  N   UNL     1      -8.388  -0.286 -33.815  1.00  0.00    -0.248 NA
HETATM    9  C   UNL     1      -8.696   0.922 -33.285  1.00  0.00     0.069 A 
HETATM   10  C   UNL     1      -7.716   1.737 -32.746  1.00  0.00     0.050 A 
ENDROOT
BRANCH   9  11
HETATM   11  C   UNL     1     -10.121   1.315 -33.356  1.00  0.00    -0.004 A 
HETATM   12  C   UNL     1     -10.497   2.669 -33.246  1.00  0.00     0.053 A 
HETATM   13  C   UNL     1     -11.841   3.069 -33.275  1.00  0.00     0.102 A 
HETATM   14  C   UNL     1     -12.852   2.100 -33.397  1.00  0.00     0.101 A 
HETATM   15  C   UNL     1     -12.497   0.758 -33.538  1.00  0.00     0.040 A 
HETATM   16  C   UNL     1     -11.150   0.373 -33.522  1.00  0.00     0.017 A 
BRANCH  13  17
HETATM   17  O   UNL     1     -12.260   4.371 -33.156  1.00  0.00    -0.353 OA
HETATM   18  C   UNL     1     -11.472   5.237 -32.351  1.00  0.00     0.210 C 
ENDBRANCH  13  17
BRANCH  14  19
HETATM   19  O   UNL     1     -14.144   2.561 -33.397  1.00  0.00    -0.353 OA
HETATM   20  C   UNL     1     -15.092   1.836 -32.627  1.00  0.00     0.210 C 
ENDBRANCH  14  19
ENDBRANCH   9  11
BRANCH   1  21
HETATM   21  C   UNL     1      -5.368   2.207 -32.163  1.00  0.00     0.253 C 
HETATM   22  N   UNL     1      -5.055   3.307 -32.937  1.00  0.00    -0.349 N 
HETATM   23  H   UNL     1      -5.358   3.292 -33.903  1.00  0.00     0.163 HD
HETATM   24  O   UNL     1      -4.882   1.963 -31.067  1.00  0.00    -0.268 OA
BRANCH  22  25
HETATM   25  C   UNL     1      -4.057   4.329 -32.580  1.00  0.00     0.022 C 
HETATM   26  C   UNL     1      -2.642   3.739 -32.637  1.00  0.00     0.037 C 
HETATM   27  C   UNL     1      -4.329   4.920 -31.187  1.00  0.00     0.037 C 
HETATM   28  C   UNL     1      -4.161   5.470 -33.609  1.00  0.00     0.037 C 
ENDBRANCH  22  25
ENDBRANCH   1  21
TORSDOF 5
ENDMDL
MODEL 6
REMARK VINA RESULT:      -7.8      3.249      7.800
REMARK  5 active torsions:
REMARK  status: ('A' for Active; 'I' for Inactive)
REMARK    1  A    between atoms: C_2  and  N_3 
REMARK       I    between atoms: N_3  and  C_4 
REMARK    2  A    between atoms: C_4  and  C_5 
REMARK    3  A    between atoms: C_13  and  C_14 
REMARK    4  A    between atoms: C_16  and  O_17 
REMARK    5  A    between atoms: C_19  and  O_20 
ROOT
HETATM    1  C   UNL     1      -5.231   2.155 -32.505  1.00  0.00     0.046 A 
HETATM    2  C   UNL     1      -4.686   0.853 -32.467  1.00  0.00     0.008 A 
HETATM    3  C   UNL     1      -5.579  -0.197 -32.758  1.00  0.00     0.068 A 
HETATM    4  C   UNL     1      -5.109  -1.503 -32.742  1.00  0.00     0.032 A 
HETATM    5  C   UNL     1      -3.778  -1.809 -32.451  1.00  0.00     0.002 A 
HETATM    6  C   UNL     1      -2.887  -0.785 -32.171  1.00  0.00     0.001 A 
HETATM    7  C   UNL     1      -3.334   0.535 -32.182  1.00  0.00     0.015 A 
HETATM    8  N   UNL     1      -6.873   0.004 -33.061  1.00  0.00    -0.248 NA
HETATM    9  C   UNL     1      -7.382   1.259 -33.073  1.00  0.00     0.069 A 
HETATM   10  C   UNL     1      -6.584   2.356 -32.798  1.00  0.00     0.050 A 
ENDROOT
BRANCH   9  11
HETATM   11  C   UNL     1      -8.813   1.374 -33.430  1.00  0.00    -0.004 A 
HETATM   12  C   UNL     1      -9.286   2.494 -34.144  1.00  0.00     0.053 A 
HETATM   13  C   UNL     1     -10.642   2.647 -34.466  1.00  0.00     0.102 A 
HETATM   14  C   UNL     1     -11.568   1.674 -34.056  1.00  0.00     0.101 A 
HETATM   15  C   UNL     1     -11.114   0.543 -33.376  1.00  0.00     0.040 A 
HETATM   16  C   UNL     1      -9.755   0.395 -33.072  1.00  0.00     0.017 A 
BRANCH  13  17
HETATM   17  O   UNL     1     -11.155   3.725 -35.145  1.00  0.00    -0.353 OA
HETATM   18  C   UNL     1     -11.115   4.986 -34.489  1.00  0.00     0.210 C 
ENDBRANCH  13  17
BRANCH  14  19
HETATM   19  O   UNL     1     -12.881   1.900 -34.388  1.00  0.00    -0.353 OA
HETATM   20  C   UNL     1     -13.848   1.732 -33.362  1.00  0.00     0.210 C 
ENDBRANCH  14  19
ENDBRANCH   9  11
BRANCH   1  21
HETATM   21  C   UNL     1      -4.412   3.363 -32.214  1.00  0.00     0.253 C 
HETATM   22  N   UNL     1      -3.778   3.911 -33.313  1.00  0.00    -0.349 N 
HETATM   23  H   UNL     1      -3.734   3.343 -34.150  1.00  0.00     0.163 HD
HETATM   24  O   UNL     1      -4.345   3.808 -31.077  1.00  0.00    -0.268 OA
BRANCH  22  25
HETATM   25  C   UNL     1      -2.891   5.085 -33.272  1.00  0.00     0.022 C 
HETATM   26  C   UNL     1      -1.659   4.797 -32.404  1.00  0.00     0.037 C 
HETATM   27  C   UNL     1      -3.628   6.330 -32.751  1.00  0.00     0.037 C 
HETATM   28  C   UNL     1      -2.427   5.376 -34.711  1.00  0.00     0.037 C 
ENDBRANCH  22  25
ENDBRANCH   1  21
TORSDOF 5
ENDMDL
MODEL 7
REMARK VINA RESULT:      -7.8      3.068      7.834
REMARK  5 active torsions:
REMARK  status: ('A' for Active; 'I' for Inactive)
REMARK    1  A    between atoms: C_2  and  N_3 
REMARK       I    between atoms: N_3  and  C_4 
REMARK    2  A    between atoms: C_4  and  C_5 
REMARK    3  A    between atoms: C_13  and  C_14 
REMARK    4  A    between atoms: C_16  and  O_17 
REMARK    5  A    between atoms: C_19  and  O_20 
ROOT
HETATM    1  C   UNL     1      -6.080   2.036 -32.750  1.00  0.00     0.046 A 
HETATM    2  C   UNL     1      -5.759   0.697 -33.059  1.00  0.00     0.008 A 
HETATM    3  C   UNL     1      -6.850  -0.152 -33.327  1.00  0.00     0.068 A 
HETATM    4  C   UNL     1      -6.605  -1.482 -33.643  1.00  0.00     0.032 A 
HETATM    5  C   UNL     1      -5.311  -2.004 -33.707  1.00  0.00     0.002 A 
HETATM    6  C   UNL     1      -4.228  -1.177 -33.454  1.00  0.00     0.001 A 
HETATM    7  C   UNL     1      -4.447   0.162 -33.136  1.00  0.00     0.015 A 
HETATM    8  N   UNL     1      -8.127   0.264 -33.301  1.00  0.00    -0.248 NA
HETATM    9  C   UNL     1      -8.417   1.548 -32.982  1.00  0.00     0.069 A 
HETATM   10  C   UNL     1      -7.413   2.458 -32.701  1.00  0.00     0.050 A 
ENDROOT
BRANCH   9  11
HETATM   11  C   UNL     1      -9.851   1.909 -32.993  1.00  0.00    -0.004 A 
HETATM   12  C   UNL     1     -10.795   1.081 -33.634  1.00  0.00     0.053 A 
HETATM   13  C   UNL     1     -12.155   1.415 -33.691  1.00  0.00     0.102 A 
HETATM   14  C   UNL     1     -12.601   2.616 -33.114  1.00  0.00     0.101 A 
HETATM   15  C   UNL     1     -11.687   3.434 -32.449  1.00  0.00     0.040 A 
HETATM   16  C   UNL     1     -10.333   3.082 -32.387  1.00  0.00     0.017 A 
BRANCH  13  17
HETATM   17  O   UNL     1     -13.111   0.651 -34.315  1.00  0.00    -0.353 OA
HETATM   18  C   UNL     1     -13.502  -0.554 -33.672  1.00  0.00     0.210 C 
ENDBRANCH  13  17
BRANCH  14  19
HETATM   19  O   UNL     1     -13.941   2.888 -33.226  1.00  0.00    -0.353 OA
HETATM   20  C   UNL     1     -14.520   3.724 -32.234  1.00  0.00     0.210 C 
ENDBRANCH  14  19
ENDBRANCH   9  11
BRANCH   1  21
HETATM   21  C   UNL     1      -5.035   3.048 -32.438  1.00  0.00     0.253 C 
HETATM   22  N   UNL     1      -4.594   3.778 -33.525  1.00  0.00    -0.349 N 
HETATM   23  H   UNL     1      -4.836   3.429 -34.444  1.00  0.00     0.163 HD
HETATM   24  O   UNL     1      -4.636   3.195 -31.292  1.00  0.00    -0.268 OA
BRANCH  22  25
HETATM   25  C   UNL     1      -3.547   4.812 -33.474  1.00  0.00     0.022 C 
HETATM   26  C   UNL     1      -2.229   4.215 -32.963  1.00  0.00     0.037 C 
HETATM   27  C   UNL     1      -3.968   5.999 -32.591  1.00  0.00     0.037 C 
HETATM   28  C   UNL     1      -3.332   5.337 -34.905  1.00  0.00     0.037 C 
ENDBRANCH  22  25
ENDBRANCH   1  21
TORSDOF 5
ENDMDL
MODEL 8
REMARK VINA RESULT:      -7.8      3.934      6.563
REMARK  5 active torsions:
REMARK  status: ('A' for Active; 'I' for Inactive)
REMARK    1  A    between atoms: C_2  and  N_3 
REMARK       I    between atoms: N_3  and  C_4 
REMARK    2  A    between atoms: C_4  and  C_5 
REMARK    3  A    between atoms: C_13  and  C_14 
REMARK    4  A    between atoms: C_16  and  O_17 
REMARK    5  A    between atoms: C_19  and  O_20 
ROOT
HETATM    1  C   UNL     1      -7.339   1.236 -32.791  1.00  0.00     0.046 A 
HETATM    2  C   UNL     1      -6.749   0.057 -33.298  1.00  0.00     0.008 A 
HETATM    3  C   UNL     1      -5.343   0.054 -33.370  1.00  0.00     0.068 A 
HETATM    4  C   UNL     1      -4.698  -1.076 -33.855  1.00  0.00     0.032 A 
HETATM    5  C   UNL     1      -5.399  -2.210 -34.269  1.00  0.00     0.002 A 
HETATM    6  C   UNL     1      -6.783  -2.224 -34.196  1.00  0.00     0.001 A 
HETATM    7  C   UNL     1      -7.454  -1.102 -33.712  1.00  0.00     0.015 A 
HETATM    8  N   UNL     1      -4.586   1.094 -32.982  1.00  0.00    -0.248 NA
HETATM    9  C   UNL     1      -5.170   2.224 -32.518  1.00  0.00     0.069 A 
HETATM   10  C   UNL     1      -6.546   2.325 -32.412  1.00  0.00     0.050 A 
ENDROOT
BRANCH   9  11
HETATM   11  C   UNL     1      -4.250   3.306 -32.105  1.00  0.00    -0.004 A 
HETATM   12  C   UNL     1      -4.668   4.294 -31.191  1.00  0.00     0.053 A 
HETATM   13  C   UNL     1      -3.830   5.351 -30.808  1.00  0.00     0.102 A 
HETATM   14  C   UNL     1      -2.541   5.451 -31.359  1.00  0.00     0.101 A 
HETATM   15  C   UNL     1      -2.099   4.466 -32.243  1.00  0.00     0.040 A 
HETATM   16  C   UNL     1      -2.941   3.407 -32.606  1.00  0.00     0.017 A 
BRANCH  13  17
HETATM   17  O   UNL     1      -4.195   6.346 -29.934  1.00  0.00    -0.353 OA
HETATM   18  C   UNL     1      -5.253   7.206 -30.332  1.00  0.00     0.210 C 
ENDBRANCH  13  17
BRANCH  14  19
HETATM   19  O   UNL     1      -1.785   6.522 -30.955  1.00  0.00    -0.353 OA
HETATM   20  C   UNL     1      -0.885   7.077 -31.905  1.00  0.00     0.210 C 
ENDBRANCH  14  19
ENDBRANCH   9  11
BRANCH   1  21
HETATM   21  C   UNL     1      -8.813   1.391 -32.662  1.00  0.00     0.253 C 
HETATM   22  N   UNL     1      -9.412   2.107 -33.680  1.00  0.00    -0.349 N 
HETATM   23  H   UNL     1      -8.803   2.643 -34.286  1.00  0.00     0.163 HD
HETATM   24  O   UNL     1      -9.408   0.894 -31.715  1.00  0.00    -0.268 OA
BRANCH  22  25
HETATM   25  C   UNL     1     -10.849   2.417 -33.756  1.00  0.00     0.022 C 
HETATM   26  C   UNL     1     -11.280   3.261 -32.549  1.00  0.00     0.037 C 
HETATM   27  C   UNL     1     -11.699   1.139 -33.839  1.00  0.00     0.037 C 
HETATM   28  C   UNL     1     -11.088   3.231 -35.041  1.00  0.00     0.037 C 
ENDBRANCH  22  25
ENDBRANCH   1  21
TORSDOF 5
ENDMDL
MODEL 9
REMARK VINA RESULT:      -7.7      4.088      6.340
REMARK  5 active torsions:
REMARK  status: ('A' for Active; 'I' for Inactive)
REMARK    1  A    between atoms: C_2  and  N_3 
REMARK       I    between atoms: N_3  and  C_4 
REMARK    2  A    between atoms: C_4  and  C_5 
REMARK    3  A    between atoms: C_13  and  C_14 
REMARK    4  A    between atoms: C_16  and  O_17 
REMARK    5  A    between atoms: C_19  and  O_20 
ROOT
HETATM    1  C   UNL     1      -7.477   1.289 -33.100  1.00  0.00     0.046 A 
HETATM    2  C   UNL     1      -6.838   0.086 -33.470  1.00  0.00     0.008 A 
HETATM    3  C   UNL     1      -5.432   0.087 -33.394  1.00  0.00     0.068 A 
HETATM    4  C   UNL     1      -4.740  -1.066 -33.740  1.00  0.00     0.032 A 
HETATM    5  C   UNL     1      -5.393  -2.227 -34.157  1.00  0.00     0.002 A 
HETATM    6  C   UNL     1      -6.777  -2.244 -34.229  1.00  0.00     0.001 A 
HETATM    7  C   UNL     1      -7.495  -1.100 -33.886  1.00  0.00     0.015 A 
HETATM    8  N   UNL     1      -4.719   1.153 -32.991  1.00  0.00    -0.248 NA
HETATM    9  C   UNL     1      -5.349   2.305 -32.659  1.00  0.00     0.069 A 
HETATM   10  C   UNL     1      -6.729   2.404 -32.704  1.00  0.00     0.050 A 
ENDROOT
BRANCH   9  11
HETATM   11  C   UNL     1      -4.477   3.416 -32.218  1.00  0.00    -0.004 A 
HETATM   12  C   UNL     1      -3.273   3.695 -32.896  1.00  0.00     0.053 A 
HETATM   13  C   UNL     1      -2.409   4.718 -32.480  1.00  0.00     0.102 A 
HETATM   14  C   UNL     1      -2.732   5.481 -31.345  1.00  0.00     0.101 A 
HETATM   15  C   UNL     1      -3.934   5.240 -30.679  1.00  0.00     0.040 A 
HETATM   16  C   UNL     1      -4.795   4.224 -31.114  1.00  0.00     0.017 A 
BRANCH  13  17
HETATM   17  O   UNL     1      -1.219   5.019 -33.095  1.00  0.00    -0.353 OA
HETATM   18  C   UNL     1      -1.286   5.596 -34.393  1.00  0.00     0.210 C 
ENDBRANCH  13  17
BRANCH  14  19
HETATM   19  O   UNL     1      -1.830   6.451 -30.983  1.00  0.00    -0.353 OA
HETATM   20  C   UNL     1      -2.014   7.068 -29.717  1.00  0.00     0.210 C 
ENDBRANCH  14  19
ENDBRANCH   9  11
BRANCH   1  21
HETATM   21  C   UNL     1      -8.957   1.442 -33.135  1.00  0.00     0.253 C 
HETATM   22  N   UNL     1      -9.423   2.355 -34.061  1.00  0.00    -0.349 N 
HETATM   23  H   UNL     1      -8.744   2.988 -34.465  1.00  0.00     0.163 HD
HETATM   24  O   UNL     1      -9.666   0.781 -32.390  1.00  0.00    -0.268 OA
BRANCH  22  25
HETATM   25  C   UNL     1     -10.839   2.701 -34.261  1.00  0.00     0.022 C 
HETATM   26  C   UNL     1     -11.644   1.457 -34.662  1.00  0.00     0.037 C 
HETATM   27  C   UNL     1     -11.007   3.804 -35.318  1.00  0.00     0.037 C 
HETATM   28  C   UNL     1     -11.387   3.236 -32.925  1.00  0.00     0.037 C 
ENDBRANCH  22  25
ENDBRANCH   1  21
TORSDOF 5
ENDMDL
MODEL 10
REMARK VINA RESULT:      -7.7      4.277      7.020
REMARK  5 active torsions:
REMARK  status: ('A' for Active; 'I' for Inactive)
REMARK    1  A    between atoms: C_2  and  N_3 
REMARK       I    between atoms: N_3  and  C_4 
REMARK    2  A    between atoms: C_4  and  C_5 
REMARK    3  A    between atoms: C_13  and  C_14 
REMARK    4  A    between atoms: C_16  and  O_17 
REMARK    5  A    between atoms: C_19  and  O_20 
ROOT
HETATM    1  C   UNL     1      -3.675   4.365 -31.220  1.00  0.00     0.046 A 
HETATM    2  C   UNL     1      -4.824   4.655 -30.452  1.00  0.00     0.008 A 
HETATM    3  C   UNL     1      -5.827   3.666 -30.447  1.00  0.00     0.068 A 
HETATM    4  C   UNL     1      -6.982   3.885 -29.708  1.00  0.00     0.032 A 
HETATM    5  C   UNL     1      -7.179   5.052 -28.967  1.00  0.00     0.002 A 
HETATM    6  C   UNL     1      -6.197   6.029 -28.957  1.00  0.00     0.001 A 
HETATM    7  C   UNL     1      -5.027   5.834 -29.689  1.00  0.00     0.015 A 
HETATM    8  N   UNL     1      -5.719   2.507 -31.119  1.00  0.00    -0.248 NA
HETATM    9  C   UNL     1      -4.618   2.256 -31.867  1.00  0.00     0.069 A 
HETATM   10  C   UNL     1      -3.579   3.167 -31.938  1.00  0.00     0.050 A 
ENDROOT
BRANCH   9  11
HETATM   11  C   UNL     1      -4.590   0.948 -32.558  1.00  0.00    -0.004 A 
HETATM   12  C   UNL     1      -5.670   0.542 -33.368  1.00  0.00     0.053 A 
HETATM   13  C   UNL     1      -5.688  -0.705 -34.008  1.00  0.00     0.102 A 
HETATM   14  C   UNL     1      -4.613  -1.594 -33.828  1.00  0.00     0.101 A 
HETATM   15  C   UNL     1      -3.522  -1.197 -33.054  1.00  0.00     0.040 A 
HETATM   16  C   UNL     1      -3.511   0.058 -32.433  1.00  0.00     0.017 A 
BRANCH  13  17
HETATM   17  O   UNL     1      -6.721  -1.154 -34.794  1.00  0.00    -0.353 OA
HETATM   18  C   UNL     1      -7.733  -0.217 -35.134  1.00  0.00     0.210 C 
ENDBRANCH  13  17
BRANCH  14  19
HETATM   19  O   UNL     1      -4.708  -2.805 -34.466  1.00  0.00    -0.353 OA
HETATM   20  C   UNL     1      -3.981  -3.890 -33.910  1.00  0.00     0.210 C 
ENDBRANCH  14  19
ENDBRANCH   9  11
BRANCH   1  21
HETATM   21  C   UNL     1      -2.535   5.315 -31.328  1.00  0.00     0.253 C 
HETATM   22  N   UNL     1      -1.597   5.209 -30.319  1.00  0.00    -0.349 N 
HETATM   23  H   UNL     1      -1.860   4.677 -29.499  1.00  0.00     0.163 HD
HETATM   24  O   UNL     1      -2.470   6.103 -32.260  1.00  0.00    -0.268 OA
BRANCH  22  25
HETATM   25  C   UNL     1      -0.401   6.058 -30.192  1.00  0.00     0.022 C 
HETATM   26  C   UNL     1      -0.768   7.535 -30.392  1.00  0.00     0.037 C 
HETATM   27  C   UNL     1       0.693   5.644 -31.190  1.00  0.00     0.037 C 
HETATM   28  C   UNL     1       0.159   5.874 -28.770  1.00  0.00     0.037 C 
ENDBRANCH  22  25
ENDBRANCH   1  21
TORSDOF 5
ENDMDL
