MODEL 1
REMARK VINA RESULT:      -8.0      0.000      0.000
REMARK  5 active torsions:
REMARK  status: ('A' for Active; 'I' for Inactive)
REMARK    1  A    between atoms: C_3  and  N_4 
REMARK       I    between atoms: N_4  and  C_5 
REMARK       I    between atoms: C_5  and  N_6 
REMARK    2  A    between atoms: N_6  and  C_7 
REMARK    3  A    between atoms: C_7  and  C_8 
REMARK    4  A    between atoms: C_8  and  O_9 
REMARK    5  A    between atoms: O_9  and  C_10 
ROOT
HETATM    1  N   UNL     1      -2.695   3.296 -32.340  1.00  0.00    -0.307 N 
HETATM    2  C   UNL     1      -3.697   2.911 -31.494  1.00  0.00     0.320 C 
HETATM    3  N   UNL     1      -3.851   1.563 -31.348  1.00  0.00    -0.340 N 
HETATM    4  O   UNL     1      -4.423   3.649 -30.838  1.00  0.00    -0.247 OA
HETATM    5  H   UNL     1      -1.931   2.640 -32.359  1.00  0.00     0.170 HD
HETATM    6  H   UNL     1      -4.656   1.343 -30.770  1.00  0.00     0.164 HD
ENDROOT
BRANCH   3   7
HETATM    7  C   UNL     1      -3.332   0.471 -32.163  1.00  0.00     0.156 C 
BRANCH   7   8
HETATM    8  C   UNL     1      -4.338  -0.687 -32.326  1.00  0.00     0.142 C 
HETATM    9  C   UNL     1      -5.668  -0.383 -31.639  1.00  0.00     0.042 C 
BRANCH   8  10
HETATM   10  O   UNL     1      -4.629  -0.912 -33.714  1.00  0.00    -0.343 OA
BRANCH  10  11
HETATM   11  C   UNL     1      -4.964  -2.185 -34.095  1.00  0.00     0.091 A 
HETATM   12  C   UNL     1      -6.229  -2.378 -34.673  1.00  0.00     0.067 A 
HETATM   13 CL   UNL     1      -7.292  -1.047 -34.966  1.00  0.00    -0.081 Cl
HETATM   14  C   UNL     1      -6.656  -3.657 -35.038  1.00  0.00     0.026 A 
HETATM   15  C   UNL     1      -5.828  -4.757 -34.821  1.00  0.00     0.002 A 
HETATM   16  C   UNL     1      -4.580  -4.578 -34.228  1.00  0.00     0.003 A 
HETATM   17  C   UNL     1      -4.154  -3.298 -33.855  1.00  0.00     0.038 A 
ENDBRANCH  10  11
ENDBRANCH   8  10
ENDBRANCH   7   8
ENDBRANCH   3   7
BRANCH   1  18
HETATM   18  C   UNL     1      -2.365   4.601 -32.784  1.00  0.00     0.059 A 
HETATM   19  C   UNL     1      -1.399   5.463 -32.244  1.00  0.00    -0.032 A 
HETATM   20  C   UNL     1      -0.557   5.173 -31.037  1.00  0.00     0.050 C 
HETATM   21  C   UNL     1      -1.205   6.713 -32.865  1.00  0.00     0.028 A 
HETATM   22  C   UNL     1      -2.001   7.086 -33.935  1.00  0.00     0.117 A 
HETATM   23  N   UNL     1      -2.977   6.310 -34.436  1.00  0.00    -0.271 NA
HETATM   24  C   UNL     1      -3.128   5.098 -33.850  1.00  0.00     0.146 A 
ENDBRANCH   1  18
TORSDOF 5
ENDMDL
MODEL 2
REMARK VINA RESULT:      -7.7      3.010      8.384
REMARK  5 active torsions:
REMARK  status: ('A' for Active; 'I' for Inactive)
REMARK    1  A    between atoms: C_3  and  N_4 
REMARK       I    between atoms: N_4  and  C_5 
REMARK       I    between atoms: C_5  and  N_6 
REMARK    2  A    between atoms: N_6  and  C_7 
REMARK    3  A    between atoms: C_7  and  C_8 
REMARK    4  A    between atoms: C_8  and  O_9 
REMARK    5  A    between atoms: O_9  and  C_10 
ROOT
HETATM    1  N   UNL     1      -4.773  -0.493 -32.742  1.00  0.00    -0.307 N 
HETATM    2  C   UNL     1      -5.273  -0.072 -31.541  1.00  0.00     0.320 C 
HETATM    3  N   UNL     1      -4.624   0.988 -30.980  1.00  0.00    -0.340 N 
HETATM    4  O   UNL     1      -6.253  -0.523 -30.960  1.00  0.00    -0.247 OA
HETATM    5  H   UNL     1      -4.360   0.257 -33.273  1.00  0.00     0.170 HD
HETATM    6  H   UNL     1      -4.994   1.203 -30.058  1.00  0.00     0.164 HD
ENDROOT
BRANCH   3   7
HETATM    7  C   UNL     1      -3.316   1.554 -31.290  1.00  0.00     0.156 C 
BRANCH   7   8
HETATM    8  C   UNL     1      -3.389   3.031 -31.729  1.00  0.00     0.142 C 
HETATM    9  C   UNL     1      -4.480   3.792 -30.978  1.00  0.00     0.042 C 
BRANCH   8  10
HETATM   10  O   UNL     1      -2.150   3.702 -31.456  1.00  0.00    -0.343 OA
BRANCH  10  11
HETATM   11  C   UNL     1      -1.765   4.701 -32.311  1.00  0.00     0.091 A 
HETATM   12  C   UNL     1      -1.157   5.836 -31.752  1.00  0.00     0.067 A 
HETATM   13 CL   UNL     1      -0.832   5.935 -30.057  1.00  0.00    -0.081 Cl
HETATM   14  C   UNL     1      -0.785   6.913 -32.560  1.00  0.00     0.026 A 
HETATM   15  C   UNL     1      -1.026   6.872 -33.931  1.00  0.00     0.002 A 
HETATM   16  C   UNL     1      -1.650   5.760 -34.492  1.00  0.00     0.003 A 
HETATM   17  C   UNL     1      -2.029   4.683 -33.683  1.00  0.00     0.038 A 
ENDBRANCH  10  11
ENDBRANCH   8  10
ENDBRANCH   7   8
ENDBRANCH   3   7
BRANCH   1  18
HETATM   18  C   UNL     1      -5.147  -1.624 -33.508  1.00  0.00     0.059 A 
HETATM   19  C   UNL     1      -6.338  -1.809 -34.225  1.00  0.00    -0.032 A 
HETATM   20  C   UNL     1      -7.482  -0.839 -34.268  1.00  0.00     0.050 C 
HETATM   21  C   UNL     1      -6.496  -3.005 -34.954  1.00  0.00     0.028 A 
HETATM   22  C   UNL     1      -5.517  -3.984 -34.898  1.00  0.00     0.117 A 
HETATM   23  N   UNL     1      -4.394  -3.865 -34.171  1.00  0.00    -0.271 NA
HETATM   24  C   UNL     1      -4.243  -2.696 -33.503  1.00  0.00     0.146 A 
ENDBRANCH   1  18
TORSDOF 5
ENDMDL
MODEL 3
REMARK VINA RESULT:      -7.4      1.997      3.024
REMARK  5 active torsions:
REMARK  status: ('A' for Active; 'I' for Inactive)
REMARK    1  A    between atoms: C_3  and  N_4 
REMARK       I    between atoms: N_4  and  C_5 
REMARK       I    between atoms: C_5  and  N_6 
REMARK    2  A    between atoms: N_6  and  C_7 
REMARK    3  A    between atoms: C_7  and  C_8 
REMARK    4  A    between atoms: C_8  and  O_9 
REMARK    5  A    between atoms: O_9  and  C_10 
ROOT
HETATM    1  N   UNL     1      -4.355   2.945 -31.073  1.00  0.00    -0.307 N 
HETATM    2  C   UNL     1      -5.361   3.343 -30.239  1.00  0.00     0.320 C 
HETATM    3  N   UNL     1      -6.037   2.332 -29.618  1.00  0.00    -0.340 N 
HETATM    4  O   UNL     1      -5.676   4.496 -29.970  1.00  0.00    -0.247 OA
HETATM    5  H   UNL     1      -3.927   2.082 -30.780  1.00  0.00     0.170 HD
HETATM    6  H   UNL     1      -6.817   2.688 -29.074  1.00  0.00     0.164 HD
ENDROOT
BRANCH   3   7
HETATM    7  C   UNL     1      -6.067   0.906 -29.920  1.00  0.00     0.156 C 
BRANCH   7   8
HETATM    8  C   UNL     1      -6.949   0.568 -31.139  1.00  0.00     0.142 C 
HETATM    9  C   UNL     1      -8.133   1.526 -31.264  1.00  0.00     0.042 C 
BRANCH   8  10
HETATM   10  O   UNL     1      -6.195   0.679 -32.355  1.00  0.00    -0.343 OA
BRANCH  10  11
HETATM   11  C   UNL     1      -6.021  -0.457 -33.101  1.00  0.00     0.091 A 
HETATM   12  C   UNL     1      -4.707  -0.917 -33.285  1.00  0.00     0.067 A 
HETATM   13 CL   UNL     1      -3.367  -0.127 -32.533  1.00  0.00    -0.081 Cl
HETATM   14  C   UNL     1      -4.452  -2.041 -34.076  1.00  0.00     0.026 A 
HETATM   15  C   UNL     1      -5.505  -2.709 -34.699  1.00  0.00     0.002 A 
HETATM   16  C   UNL     1      -6.809  -2.246 -34.540  1.00  0.00     0.003 A 
HETATM   17  C   UNL     1      -7.066  -1.117 -33.754  1.00  0.00     0.038 A 
ENDBRANCH  10  11
ENDBRANCH   8  10
ENDBRANCH   7   8
ENDBRANCH   3   7
BRANCH   1  18
HETATM   18  C   UNL     1      -3.559   3.737 -31.938  1.00  0.00     0.059 A 
HETATM   19  C   UNL     1      -3.922   4.260 -33.187  1.00  0.00    -0.032 A 
HETATM   20  C   UNL     1      -5.235   4.026 -33.875  1.00  0.00     0.050 C 
HETATM   21  C   UNL     1      -2.983   5.056 -33.872  1.00  0.00     0.028 A 
HETATM   22  C   UNL     1      -1.720   5.250 -33.338  1.00  0.00     0.117 A 
HETATM   23  N   UNL     1      -1.319   4.712 -32.175  1.00  0.00    -0.271 NA
HETATM   24  C   UNL     1      -2.244   3.977 -31.513  1.00  0.00     0.146 A 
ENDBRANCH   1  18
TORSDOF 5
ENDMDL
MODEL 4
REMARK VINA RESULT:      -7.3      2.425      3.558
REMARK  5 active torsions:
REMARK  status: ('A' for Active; 'I' for Inactive)
REMARK    1  A    between atoms: C_3  and  N_4 
REMARK       I    between atoms: N_4  and  C_5 
REMARK       I    between atoms: C_5  and  N_6 
REMARK    2  A    between atoms: N_6  and  C_7 
REMARK    3  A    between atoms: C_7  and  C_8 
REMARK    4  A    between atoms: C_8  and  O_9 
REMARK    5  A    between atoms: O_9  and  C_10 
ROOT
HETATM    1  N   UNL     1      -5.819   3.334 -33.282  1.00  0.00    -0.307 N 
HETATM    2  C   UNL     1      -6.911   3.805 -32.609  1.00  0.00     0.320 C 
HETATM    3  N   UNL     1      -7.993   2.973 -32.601  1.00  0.00    -0.340 N 
HETATM    4  O   UNL     1      -6.990   4.860 -31.991  1.00  0.00    -0.247 OA
HETATM    5  H   UNL     1      -5.753   2.329 -33.259  1.00  0.00     0.170 HD
HETATM    6  H   UNL     1      -8.792   3.411 -32.151  1.00  0.00     0.164 HD
ENDROOT
BRANCH   3   7
HETATM    7  C   UNL     1      -8.284   1.812 -33.432  1.00  0.00     0.156 C 
BRANCH   7   8
HETATM    8  C   UNL     1      -8.591   0.545 -32.609  1.00  0.00     0.142 C 
HETATM    9  C   UNL     1     -10.040   0.092 -32.785  1.00  0.00     0.042 C 
BRANCH   8  10
HETATM   10  O   UNL     1      -7.760  -0.547 -33.031  1.00  0.00    -0.343 OA
BRANCH  10  11
HETATM   11  C   UNL     1      -6.458  -0.556 -32.606  1.00  0.00     0.091 A 
HETATM   12  C   UNL     1      -5.522  -1.245 -33.395  1.00  0.00     0.067 A 
HETATM   13 CL   UNL     1      -5.982  -1.985 -34.887  1.00  0.00    -0.081 Cl
HETATM   14  C   UNL     1      -4.187  -1.337 -32.995  1.00  0.00     0.026 A 
HETATM   15  C   UNL     1      -3.774  -0.752 -31.800  1.00  0.00     0.002 A 
HETATM   16  C   UNL     1      -4.700  -0.085 -31.000  1.00  0.00     0.003 A 
HETATM   17  C   UNL     1      -6.039   0.002 -31.395  1.00  0.00     0.038 A 
ENDBRANCH  10  11
ENDBRANCH   8  10
ENDBRANCH   7   8
ENDBRANCH   3   7
BRANCH   1  18
HETATM   18  C   UNL     1      -4.601   4.000 -33.566  1.00  0.00     0.059 A 
HETATM   19  C   UNL     1      -3.387   3.885 -32.872  1.00  0.00    -0.032 A 
HETATM   20  C   UNL     1      -3.169   3.055 -31.641  1.00  0.00     0.050 C 
HETATM   21  C   UNL     1      -2.280   4.615 -33.347  1.00  0.00     0.028 A 
HETATM   22  C   UNL     1      -2.424   5.466 -34.431  1.00  0.00     0.117 A 
HETATM   23  N   UNL     1      -3.587   5.646 -35.078  1.00  0.00    -0.271 NA
HETATM   24  C   UNL     1      -4.634   4.913 -34.631  1.00  0.00     0.146 A 
ENDBRANCH   1  18
TORSDOF 5
ENDMDL
MODEL 5
REMARK VINA RESULT:      -7.2      6.131      8.790
REMARK  5 active torsions:
REMARK  status: ('A' for Active; 'I' for Inactive)
REMARK    1  A    between atoms: C_3  and  N_4 
REMARK       I    between atoms: N_4  and  C_5 
REMARK       I    between atoms: C_5  and  N_6 
REMARK    2  A    between atoms: N_6  and  C_7 
REMARK    3  A    between atoms: C_7  and  C_8 
REMARK    4  A    between atoms: C_8  and  O_9 
REMARK    5  A    between atoms: O_9  and  C_10 
ROOT
HETATM    1  N   UNL     1      -7.459  -0.697 -34.009  1.00  0.00    -0.307 N 
HETATM    2  C   UNL     1      -7.744   0.304 -34.895  1.00  0.00     0.320 C 
HETATM    3  N   UNL     1      -8.873   1.021 -34.621  1.00  0.00    -0.340 N 
HETATM    4  O   UNL     1      -7.071   0.636 -35.864  1.00  0.00    -0.247 OA
HETATM    5  H   UNL     1      -7.780  -0.491 -33.077  1.00  0.00     0.170 HD
HETATM    6  H   UNL     1      -9.069   1.696 -35.354  1.00  0.00     0.164 HD
ENDROOT
BRANCH   3   7
HETATM    7  C   UNL     1      -9.980   0.712 -33.723  1.00  0.00     0.156 C 
BRANCH   7   8
HETATM    8  C   UNL     1     -10.563   1.964 -33.037  1.00  0.00     0.142 C 
HETATM    9  C   UNL     1      -9.538   3.094 -32.954  1.00  0.00     0.042 C 
BRANCH   8  10
HETATM   10  O   UNL     1     -11.683   2.472 -33.778  1.00  0.00    -0.343 OA
BRANCH  10  11
HETATM   11  C   UNL     1     -12.877   2.599 -33.118  1.00  0.00     0.091 A 
HETATM   12  C   UNL     1     -13.857   1.622 -33.357  1.00  0.00     0.067 A 
HETATM   13 CL   UNL     1     -13.540   0.267 -34.381  1.00  0.00    -0.081 Cl
HETATM   14  C   UNL     1     -15.115   1.717 -32.757  1.00  0.00     0.026 A 
HETATM   15  C   UNL     1     -15.410   2.793 -31.922  1.00  0.00     0.002 A 
HETATM   16  C   UNL     1     -14.452   3.778 -31.697  1.00  0.00     0.003 A 
HETATM   17  C   UNL     1     -13.194   3.689 -32.303  1.00  0.00     0.038 A 
ENDBRANCH  10  11
ENDBRANCH   8  10
ENDBRANCH   7   8
ENDBRANCH   3   7
BRANCH   1  18
HETATM   18  C   UNL     1      -6.439  -1.677 -34.080  1.00  0.00     0.059 A 
HETATM   19  C   UNL     1      -5.103  -1.544 -33.673  1.00  0.00    -0.032 A 
HETATM   20  C   UNL     1      -4.486  -0.293 -33.123  1.00  0.00     0.050 C 
HETATM   21  C   UNL     1      -4.256  -2.663 -33.801  1.00  0.00     0.028 A 
HETATM   22  C   UNL     1      -4.733  -3.831 -34.375  1.00  0.00     0.117 A 
HETATM   23  N   UNL     1      -5.988  -3.969 -34.833  1.00  0.00    -0.271 NA
HETATM   24  C   UNL     1      -6.799  -2.896 -34.672  1.00  0.00     0.146 A 
ENDBRANCH   1  18
TORSDOF 5
ENDMDL
MODEL 6
REMARK VINA RESULT:      -7.2      1.804      2.429
REMARK  5 active torsions:
REMARK  status: ('A' for Active; 'I' for Inactive)
REMARK    1  A    between atoms: C_3  and  N_4 
REMARK       I    between atoms: N_4  and  C_5 
REMARK       I    between atoms: C_5  and  N_6 
REMARK    2  A    between atoms: N_6  and  C_7 
REMARK    3  A    between atoms: C_7  and  C_8 
REMARK    4  A    between atoms: C_8  and  O_9 
REMARK    5  A    between atoms: O_9  and  C_10 
ROOT
HETATM    1  N   UNL     1      -3.909   4.499 -32.141  1.00  0.00    -0.307 N 
HETATM    2  C   UNL     1      -3.504   3.334 -31.552  1.00  0.00     0.320 C 
HETATM    3  N   UNL     1      -4.493   2.421 -31.326  1.00  0.00    -0.340 N 
HETATM    4  O   UNL     1      -2.357   3.026 -31.254  1.00  0.00    -0.247 OA
HETATM    5  H   UNL     1      -4.702   4.369 -32.749  1.00  0.00     0.170 HD
HETATM    6  H   UNL     1      -4.142   1.613 -30.820  1.00  0.00     0.164 HD
ENDROOT
BRANCH   3   7
HETATM    7  C   UNL     1      -5.941   2.592 -31.331  1.00  0.00     0.156 C 
BRANCH   7   8
HETATM    8  C   UNL     1      -6.674   1.488 -32.120  1.00  0.00     0.142 C 
HETATM    9  C   UNL     1      -8.118   1.879 -32.433  1.00  0.00     0.042 C 
BRANCH   8  10
HETATM   10  O   UNL     1      -6.026   1.252 -33.379  1.00  0.00    -0.343 OA
BRANCH  10  11
HETATM   11  C   UNL     1      -5.650  -0.034 -33.669  1.00  0.00     0.091 A 
HETATM   12  C   UNL     1      -6.436  -0.748 -34.587  1.00  0.00     0.067 A 
HETATM   13 CL   UNL     1      -7.781  -0.008 -35.382  1.00  0.00    -0.081 Cl
HETATM   14  C   UNL     1      -6.140  -2.080 -34.891  1.00  0.00     0.026 A 
HETATM   15  C   UNL     1      -5.063  -2.713 -34.274  1.00  0.00     0.002 A 
HETATM   16  C   UNL     1      -4.291  -2.018 -33.346  1.00  0.00     0.003 A 
HETATM   17  C   UNL     1      -4.590  -0.688 -33.035  1.00  0.00     0.038 A 
ENDBRANCH  10  11
ENDBRANCH   8  10
ENDBRANCH   7   8
ENDBRANCH   3   7
BRANCH   1  18
HETATM   18  C   UNL     1      -3.154   5.670 -32.395  1.00  0.00     0.059 A 
HETATM   19  C   UNL     1      -2.482   6.008 -33.578  1.00  0.00    -0.032 A 
HETATM   20  C   UNL     1      -2.394   5.143 -34.801  1.00  0.00     0.050 C 
HETATM   21  C   UNL     1      -1.814   7.248 -33.632  1.00  0.00     0.028 A 
HETATM   22  C   UNL     1      -1.782   8.066 -32.514  1.00  0.00     0.117 A 
HETATM   23  N   UNL     1      -2.363   7.744 -31.346  1.00  0.00    -0.271 NA
HETATM   24  C   UNL     1      -3.028   6.564 -31.322  1.00  0.00     0.146 A 
ENDBRANCH   1  18
TORSDOF 5
ENDMDL
MODEL 7
REMARK VINA RESULT:      -7.1      2.688      8.280
REMARK  5 active torsions:
REMARK  status: ('A' for Active; 'I' for Inactive)
REMARK    1  A    between atoms: C_3  and  N_4 
REMARK       I    between atoms: N_4  and  C_5 
REMARK       I    between atoms: C_5  and  N_6 
REMARK    2  A    between atoms: N_6  and  C_7 
REMARK    3  A    between atoms: C_7  and  C_8 
REMARK    4  A    between atoms: C_8  and  O_9 
REMARK    5  A    between atoms: O_9  and  C_10 
ROOT
HETATM    1  N   UNL     1      -5.506   0.932 -33.479  1.00  0.00    -0.307 N 
HETATM    2  C   UNL     1      -6.165   1.549 -32.452  1.00  0.00     0.320 C 
HETATM    3  N   UNL     1      -5.760   2.824 -32.183  1.00  0.00    -0.340 N 
HETATM    4  O   UNL     1      -7.091   1.088 -31.797  1.00  0.00    -0.247 OA
HETATM    5  H   UNL     1      -5.193   1.581 -34.182  1.00  0.00     0.170 HD
HETATM    6  H   UNL     1      -6.233   3.198 -31.365  1.00  0.00     0.164 HD
ENDROOT
BRANCH   3   7
HETATM    7  C   UNL     1      -4.553   3.529 -32.600  1.00  0.00     0.156 C 
BRANCH   7   8
HETATM    8  C   UNL     1      -3.403   3.406 -31.581  1.00  0.00     0.142 C 
HETATM    9  C   UNL     1      -3.134   1.951 -31.203  1.00  0.00     0.042 C 
BRANCH   8  10
HETATM   10  O   UNL     1      -2.183   3.926 -32.130  1.00  0.00    -0.343 OA
BRANCH  10  11
HETATM   11  C   UNL     1      -2.023   5.287 -32.149  1.00  0.00     0.091 A 
HETATM   12  C   UNL     1      -1.814   5.898 -33.396  1.00  0.00     0.067 A 
HETATM   13 CL   UNL     1      -1.837   4.978 -34.859  1.00  0.00    -0.081 Cl
HETATM   14  C   UNL     1      -1.593   7.275 -33.485  1.00  0.00     0.026 A 
HETATM   15  C   UNL     1      -1.569   8.053 -32.329  1.00  0.00     0.002 A 
HETATM   16  C   UNL     1      -1.753   7.451 -31.086  1.00  0.00     0.003 A 
HETATM   17  C   UNL     1      -1.967   6.072 -30.994  1.00  0.00     0.038 A 
ENDBRANCH  10  11
ENDBRANCH   8  10
ENDBRANCH   7   8
ENDBRANCH   3   7
BRANCH   1  18
HETATM   18  C   UNL     1      -5.613  -0.410 -33.918  1.00  0.00     0.059 A 
HETATM   19  C   UNL     1      -6.639  -0.972 -34.692  1.00  0.00    -0.032 A 
HETATM   20  C   UNL     1      -7.865  -0.247 -35.163  1.00  0.00     0.050 C 
HETATM   21  C   UNL     1      -6.532  -2.331 -35.050  1.00  0.00     0.028 A 
HETATM   22  C   UNL     1      -5.469  -3.088 -34.586  1.00  0.00     0.117 A 
HETATM   23  N   UNL     1      -4.504  -2.596 -33.791  1.00  0.00    -0.271 NA
HETATM   24  C   UNL     1      -4.603  -1.281 -33.484  1.00  0.00     0.146 A 
ENDBRANCH   1  18
TORSDOF 5
ENDMDL
MODEL 8
REMARK VINA RESULT:      -7.1      3.174      8.024
REMARK  5 active torsions:
REMARK  status: ('A' for Active; 'I' for Inactive)
REMARK    1  A    between atoms: C_3  and  N_4 
REMARK       I    between atoms: N_4  and  C_5 
REMARK       I    between atoms: C_5  and  N_6 
REMARK    2  A    between atoms: N_6  and  C_7 
REMARK    3  A    between atoms: C_7  and  C_8 
REMARK    4  A    between atoms: C_8  and  O_9 
REMARK    5  A    between atoms: O_9  and  C_10 
ROOT
HETATM    1  N   UNL     1      -5.797   1.233 -33.195  1.00  0.00    -0.307 N 
HETATM    2  C   UNL     1      -6.566   1.680 -32.158  1.00  0.00     0.320 C 
HETATM    3  N   UNL     1      -6.456   3.013 -31.884  1.00  0.00    -0.340 N 
HETATM    4  O   UNL     1      -7.357   1.019 -31.497  1.00  0.00    -0.247 OA
HETATM    5  H   UNL     1      -5.646   1.939 -33.898  1.00  0.00     0.170 HD
HETATM    6  H   UNL     1      -6.992   3.266 -31.059  1.00  0.00     0.164 HD
ENDROOT
BRANCH   3   7
HETATM    7  C   UNL     1      -5.444   3.973 -32.309  1.00  0.00     0.156 C 
BRANCH   7   8
HETATM    8  C   UNL     1      -5.831   4.724 -33.598  1.00  0.00     0.142 C 
HETATM    9  C   UNL     1      -7.318   5.077 -33.623  1.00  0.00     0.042 C 
BRANCH   8  10
HETATM   10  O   UNL     1      -5.109   5.960 -33.700  1.00  0.00    -0.343 OA
BRANCH  10  11
HETATM   11  C   UNL     1      -3.747   5.892 -33.838  1.00  0.00     0.091 A 
HETATM   12  C   UNL     1      -2.966   6.640 -32.942  1.00  0.00     0.067 A 
HETATM   13 CL   UNL     1      -3.692   7.550 -31.664  1.00  0.00    -0.081 Cl
HETATM   14  C   UNL     1      -1.574   6.657 -33.057  1.00  0.00     0.026 A 
HETATM   15  C   UNL     1      -0.949   5.935 -34.071  1.00  0.00     0.002 A 
HETATM   16  C   UNL     1      -1.717   5.208 -34.978  1.00  0.00     0.003 A 
HETATM   17  C   UNL     1      -3.112   5.196 -34.869  1.00  0.00     0.038 A 
ENDBRANCH  10  11
ENDBRANCH   8  10
ENDBRANCH   7   8
ENDBRANCH   3   7
BRANCH   1  18
HETATM   18  C   UNL     1      -5.604  -0.098 -33.643  1.00  0.00     0.059 A 
HETATM   19  C   UNL     1      -6.405  -0.817 -34.541  1.00  0.00    -0.032 A 
HETATM   20  C   UNL     1      -7.673  -0.314 -35.165  1.00  0.00     0.050 C 
HETATM   21  C   UNL     1      -6.011  -2.127 -34.880  1.00  0.00     0.028 A 
HETATM   22  C   UNL     1      -4.895  -2.691 -34.282  1.00  0.00     0.117 A 
HETATM   23  N   UNL     1      -4.142  -2.051 -33.372  1.00  0.00    -0.271 NA
HETATM   24  C   UNL     1      -4.516  -0.782 -33.081  1.00  0.00     0.146 A 
ENDBRANCH   1  18
TORSDOF 5
ENDMDL
MODEL 9
REMARK VINA RESULT:      -6.9     15.597     17.075
REMARK  5 active torsions:
REMARK  status: ('A' for Active; 'I' for Inactive)
REMARK    1  A    between atoms: C_3  and  N_4 
REMARK       I    between atoms: N_4  and  C_5 
REMARK       I    between atoms: C_5  and  N_6 
REMARK    2  A    between atoms: N_6  and  C_7 
REMARK    3  A    between atoms: C_7  and  C_8 
REMARK    4  A    between atoms: C_8  and  O_9 
REMARK    5  A    between atoms: O_9  and  C_10 
ROOT
HETATM    1  N   UNL     1      -5.389 -12.963 -37.527  1.00  0.00    -0.307 N 
HETATM    2  C   UNL     1      -4.311 -13.175 -38.340  1.00  0.00     0.320 C 
HETATM    3  N   UNL     1      -4.321 -12.478 -39.513  1.00  0.00    -0.340 N 
HETATM    4  O   UNL     1      -3.341 -13.883 -38.098  1.00  0.00    -0.247 OA
HETATM    5  H   UNL     1      -5.771 -12.036 -37.625  1.00  0.00     0.170 HD
HETATM    6  H   UNL     1      -3.535 -12.735 -40.103  1.00  0.00     0.164 HD
ENDROOT
BRANCH   3   7
HETATM    7  C   UNL     1      -5.417 -11.782 -40.177  1.00  0.00     0.156 C 
BRANCH   7   8
HETATM    8  C   UNL     1      -6.299 -12.721 -41.024  1.00  0.00     0.142 C 
HETATM    9  C   UNL     1      -5.460 -13.636 -41.914  1.00  0.00     0.042 C 
BRANCH   8  10
HETATM   10  O   UNL     1      -7.089 -13.571 -40.180  1.00  0.00    -0.343 OA
BRANCH  10  11
HETATM   11  C   UNL     1      -8.451 -13.442 -40.242  1.00  0.00     0.091 A 
HETATM   12  C   UNL     1      -9.190 -14.557 -40.669  1.00  0.00     0.067 A 
HETATM   13 CL   UNL     1      -8.417 -16.061 -41.025  1.00  0.00    -0.081 Cl
HETATM   14  C   UNL     1     -10.579 -14.480 -40.805  1.00  0.00     0.026 A 
HETATM   15  C   UNL     1     -11.241 -13.286 -40.525  1.00  0.00     0.002 A 
HETATM   16  C   UNL     1     -10.514 -12.169 -40.122  1.00  0.00     0.003 A 
HETATM   17  C   UNL     1      -9.123 -12.242 -39.993  1.00  0.00     0.038 A 
ENDBRANCH  10  11
ENDBRANCH   8  10
ENDBRANCH   7   8
ENDBRANCH   3   7
BRANCH   1  18
HETATM   18  C   UNL     1      -5.724 -13.616 -36.315  1.00  0.00     0.059 A 
HETATM   19  C   UNL     1      -6.705 -14.599 -36.122  1.00  0.00    -0.032 A 
HETATM   20  C   UNL     1      -7.636 -15.112 -37.181  1.00  0.00     0.050 C 
HETATM   21  C   UNL     1      -6.853 -15.146 -34.832  1.00  0.00     0.028 A 
HETATM   22  C   UNL     1      -6.084 -14.665 -33.784  1.00  0.00     0.117 A 
HETATM   23  N   UNL     1      -5.181 -13.681 -33.922  1.00  0.00    -0.271 NA
HETATM   24  C   UNL     1      -5.028 -13.189 -35.174  1.00  0.00     0.146 A 
ENDBRANCH   1  18
TORSDOF 5
ENDMDL
MODEL 10
REMARK VINA RESULT:      -6.8      3.199      4.264
REMARK  5 active torsions:
REMARK  status: ('A' for Active; 'I' for Inactive)
REMARK    1  A    between atoms: C_3  and  N_4 
REMARK       I    between atoms: N_4  and  C_5 
REMARK       I    between atoms: C_5  and  N_6 
REMARK    2  A    between atoms: N_6  and  C_7 
REMARK    3  A    between atoms: C_7  and  C_8 
REMARK    4  A    between atoms: C_8  and  O_9 
REMARK    5  A    between atoms: O_9  and  C_10 
ROOT
HETATM    1  N   UNL     1      -7.316   2.713 -31.322  1.00  0.00    -0.307 N 
HETATM    2  C   UNL     1      -8.676   2.848 -31.309  1.00  0.00     0.320 C 
HETATM    3  N   UNL     1      -9.377   1.677 -31.279  1.00  0.00    -0.340 N 
HETATM    4  O   UNL     1      -9.306   3.898 -31.279  1.00  0.00    -0.247 OA
HETATM    5  H   UNL     1      -7.004   1.886 -30.840  1.00  0.00     0.170 HD
HETATM    6  H   UNL     1     -10.377   1.842 -31.347  1.00  0.00     0.164 HD
ENDROOT
BRANCH   3   7
HETATM    7  C   UNL     1      -8.934   0.316 -31.560  1.00  0.00     0.156 C 
BRANCH   7   8
HETATM    8  C   UNL     1      -8.710   0.055 -33.063  1.00  0.00     0.142 C 
HETATM    9  C   UNL     1      -9.598   0.946 -33.931  1.00  0.00     0.042 C 
BRANCH   8  10
HETATM   10  O   UNL     1      -7.352   0.339 -33.429  1.00  0.00    -0.343 OA
BRANCH  10  11
HETATM   11  C   UNL     1      -6.542  -0.721 -33.741  1.00  0.00     0.091 A 
HETATM   12  C   UNL     1      -5.187  -0.629 -33.385  1.00  0.00     0.067 A 
HETATM   13 CL   UNL     1      -4.579   0.735 -32.515  1.00  0.00    -0.081 Cl
HETATM   14  C   UNL     1      -4.294  -1.652 -33.718  1.00  0.00     0.026 A 
HETATM   15  C   UNL     1      -4.744  -2.770 -34.417  1.00  0.00     0.002 A 
HETATM   16  C   UNL     1      -6.082  -2.859 -34.793  1.00  0.00     0.003 A 
HETATM   17  C   UNL     1      -6.976  -1.833 -34.468  1.00  0.00     0.038 A 
ENDBRANCH  10  11
ENDBRANCH   8  10
ENDBRANCH   7   8
ENDBRANCH   3   7
BRANCH   1  18
HETATM   18  C   UNL     1      -6.329   3.720 -31.468  1.00  0.00     0.059 A 
HETATM   19  C   UNL     1      -5.778   4.202 -32.664  1.00  0.00    -0.032 A 
HETATM   20  C   UNL     1      -6.103   3.691 -34.036  1.00  0.00     0.050 C 
HETATM   21  C   UNL     1      -4.827   5.239 -32.585  1.00  0.00     0.028 A 
HETATM   22  C   UNL     1      -4.415   5.709 -31.348  1.00  0.00     0.117 A 
HETATM   23  N   UNL     1      -4.877   5.225 -30.184  1.00  0.00    -0.271 NA
HETATM   24  C   UNL     1      -5.814   4.252 -30.277  1.00  0.00     0.146 A 
ENDBRANCH   1  18
TORSDOF 5
ENDMDL
