MODEL 1
REMARK VINA RESULT:      -9.3      0.000      0.000
REMARK  4 active torsions:
REMARK  status: ('A' for Active; 'I' for Inactive)
REMARK    1  A    between atoms: C_4  and  C_5 
REMARK    2  A    between atoms: C_9  and  C_10 
REMARK       I    between atoms: C_10  and  N_11 
REMARK    3  A    between atoms: N_11  and  N_12 
REMARK    4  A    between atoms: C_13  and  C_14 
ROOT
HETATM    1  C   UNL     1      -2.206   4.402 -32.090  1.00  0.00     0.289 C 
HETATM    2  N   UNL     1      -2.981   3.505 -31.372  1.00  0.00    -0.242 N 
HETATM    3  O   UNL     1      -2.180   4.462 -33.317  1.00  0.00    -0.264 OA
HETATM    4  H   UNL     1      -2.945   3.490 -30.361  1.00  0.00     0.192 HD
ENDROOT
BRANCH   1   5
HETATM    5  C   UNL     1      -1.399   5.283 -31.283  1.00  0.00     0.121 A 
HETATM    6  N   UNL     1      -0.034   5.219 -31.317  1.00  0.00    -0.272 N 
HETATM    7  N   UNL     1       0.579   6.081 -30.494  1.00  0.00    -0.174 NA
HETATM    8  H   UNL     1       0.531   4.590 -31.883  1.00  0.00     0.189 HD
HETATM    9  C   UNL     1      -0.418   6.763 -29.910  1.00  0.00     0.089 A 
HETATM   10  C   UNL     1      -1.678   6.289 -30.379  1.00  0.00     0.071 A 
BRANCH   9  11
HETATM   11  C   UNL     1      -0.158   7.820 -28.927  1.00  0.00    -0.006 A 
HETATM   12  C   UNL     1      -1.155   8.741 -28.569  1.00  0.00     0.014 A 
HETATM   13  C   UNL     1      -0.897   9.738 -27.623  1.00  0.00     0.001 A 
HETATM   14  C   UNL     1       0.358   9.827 -27.024  1.00  0.00     0.000 A 
HETATM   15  C   UNL     1       1.358   8.923 -27.372  1.00  0.00     0.001 A 
HETATM   16  C   UNL     1       1.102   7.928 -28.319  1.00  0.00     0.014 A 
ENDBRANCH   9  11
ENDBRANCH   1   5
BRANCH   2  17
HETATM   17  N   UNL     1      -3.772   2.603 -32.027  1.00  0.00    -0.182 NA
HETATM   18  C   UNL     1      -3.353   1.379 -32.024  1.00  0.00     0.168 C 
BRANCH  18  19
HETATM   19  C   UNL     1      -4.117   0.365 -32.695  1.00  0.00     0.052 A 
HETATM   20  N   UNL     1      -3.601  -0.865 -33.047  1.00  0.00    -0.358 N 
HETATM   21  H   UNL     1      -2.647  -1.150 -32.859  1.00  0.00     0.166 HD
HETATM   22  C   UNL     1      -4.568  -1.603 -33.666  1.00  0.00     0.016 A 
HETATM   23  C   UNL     1      -5.726  -0.854 -33.714  1.00  0.00    -0.033 A 
HETATM   24  C   UNL     1      -4.398  -2.994 -34.165  1.00  0.00     0.057 C 
HETATM   25  C   UNL     1      -6.981  -1.358 -34.341  1.00  0.00     0.040 C 
HETATM   26  C   UNL     1      -5.440   0.391 -33.105  1.00  0.00     0.040 A 
HETATM   27  C   UNL     1      -6.928  -2.887 -34.531  1.00  0.00     0.005 C 
HETATM   28  C   UNL     1      -5.572  -3.359 -35.092  1.00  0.00     0.006 C 
ENDBRANCH  18  19
ENDBRANCH   2  17
TORSDOF 4
ENDMDL
MODEL 2
REMARK VINA RESULT:      -9.1      1.210      1.896
REMARK  4 active torsions:
REMARK  status: ('A' for Active; 'I' for Inactive)
REMARK    1  A    between atoms: C_4  and  C_5 
REMARK    2  A    between atoms: C_9  and  C_10 
REMARK       I    between atoms: C_10  and  N_11 
REMARK    3  A    between atoms: N_11  and  N_12 
REMARK    4  A    between atoms: C_13  and  C_14 
ROOT
HETATM    1  C   UNL     1      -1.979   4.733 -31.833  1.00  0.00     0.289 C 
HETATM    2  N   UNL     1      -2.703   3.702 -31.254  1.00  0.00    -0.242 N 
HETATM    3  O   UNL     1      -1.559   4.717 -32.987  1.00  0.00    -0.264 OA
HETATM    4  H   UNL     1      -3.005   3.764 -30.291  1.00  0.00     0.192 HD
ENDROOT
BRANCH   1   5
HETATM    5  C   UNL     1      -1.732   5.857 -30.964  1.00  0.00     0.121 A 
HETATM    6  N   UNL     1      -2.627   6.885 -30.867  1.00  0.00    -0.272 N 
HETATM    7  N   UNL     1      -2.248   7.870 -30.042  1.00  0.00    -0.174 NA
HETATM    8  H   UNL     1      -3.514   6.966 -31.358  1.00  0.00     0.189 HD
HETATM    9  C   UNL     1      -1.066   7.468 -29.550  1.00  0.00     0.089 A 
HETATM   10  C   UNL     1      -0.707   6.207 -30.108  1.00  0.00     0.071 A 
BRANCH   9  11
HETATM   11  C   UNL     1      -0.313   8.282 -28.590  1.00  0.00    -0.006 A 
HETATM   12  C   UNL     1       1.041   8.025 -28.324  1.00  0.00     0.014 A 
HETATM   13  C   UNL     1       1.751   8.815 -27.414  1.00  0.00     0.001 A 
HETATM   14  C   UNL     1       1.118   9.870 -26.761  1.00  0.00     0.000 A 
HETATM   15  C   UNL     1      -0.225  10.135 -27.011  1.00  0.00     0.001 A 
HETATM   16  C   UNL     1      -0.937   9.344 -27.919  1.00  0.00     0.014 A 
ENDBRANCH   9  11
ENDBRANCH   1   5
BRANCH   2  17
HETATM   17  N   UNL     1      -2.979   2.572 -31.972  1.00  0.00    -0.182 NA
HETATM   18  C   UNL     1      -4.137   2.035 -31.756  1.00  0.00     0.168 C 
BRANCH  18  19
HETATM   19  C   UNL     1      -4.508   0.841 -32.462  1.00  0.00     0.052 A 
HETATM   20  N   UNL     1      -5.710   0.695 -33.123  1.00  0.00    -0.358 N 
HETATM   21  H   UNL     1      -6.421   1.416 -33.165  1.00  0.00     0.166 HD
HETATM   22  C   UNL     1      -5.767  -0.545 -33.693  1.00  0.00     0.016 A 
HETATM   23  C   UNL     1      -4.593  -1.211 -33.407  1.00  0.00    -0.033 A 
HETATM   24  C   UNL     1      -6.896  -1.061 -34.512  1.00  0.00     0.057 C 
HETATM   25  C   UNL     1      -4.329  -2.604 -33.869  1.00  0.00     0.040 C 
HETATM   26  C   UNL     1      -3.800  -0.337 -32.626  1.00  0.00     0.040 A 
HETATM   27  C   UNL     1      -5.305  -3.007 -34.992  1.00  0.00     0.005 C 
HETATM   28  C   UNL     1      -6.755  -2.585 -34.685  1.00  0.00     0.006 C 
ENDBRANCH  18  19
ENDBRANCH   2  17
TORSDOF 4
ENDMDL
MODEL 3
REMARK VINA RESULT:      -8.8      1.678     10.868
REMARK  4 active torsions:
REMARK  status: ('A' for Active; 'I' for Inactive)
REMARK    1  A    between atoms: C_4  and  C_5 
REMARK    2  A    between atoms: C_9  and  C_10 
REMARK       I    between atoms: C_10  and  N_11 
REMARK    3  A    between atoms: N_11  and  N_12 
REMARK    4  A    between atoms: C_13  and  C_14 
ROOT
HETATM    1  C   UNL     1      -4.859   2.242 -31.699  1.00  0.00     0.289 C 
HETATM    2  N   UNL     1      -3.836   3.050 -32.172  1.00  0.00    -0.242 N 
HETATM    3  O   UNL     1      -5.447   2.425 -30.636  1.00  0.00    -0.264 OA
HETATM    4  H   UNL     1      -3.375   2.836 -33.046  1.00  0.00     0.192 HD
ENDROOT
BRANCH   1   5
HETATM    5  C   UNL     1      -5.195   1.131 -32.555  1.00  0.00     0.121 A 
HETATM    6  N   UNL     1      -5.953   1.309 -33.679  1.00  0.00    -0.272 N 
HETATM    7  N   UNL     1      -6.204   0.181 -34.358  1.00  0.00    -0.174 NA
HETATM    8  H   UNL     1      -6.335   2.187 -34.020  1.00  0.00     0.189 HD
HETATM    9  C   UNL     1      -5.565  -0.780 -33.673  1.00  0.00     0.089 A 
HETATM   10  C   UNL     1      -4.920  -0.222 -32.532  1.00  0.00     0.071 A 
BRANCH   9  11
HETATM   11  C   UNL     1      -5.593  -2.181 -34.103  1.00  0.00    -0.006 A 
HETATM   12  C   UNL     1      -6.757  -2.756 -34.636  1.00  0.00     0.014 A 
HETATM   13  C   UNL     1      -6.767  -4.091 -35.052  1.00  0.00     0.001 A 
HETATM   14  C   UNL     1      -5.616  -4.868 -34.940  1.00  0.00     0.000 A 
HETATM   15  C   UNL     1      -4.455  -4.313 -34.409  1.00  0.00     0.001 A 
HETATM   16  C   UNL     1      -4.444  -2.979 -33.991  1.00  0.00     0.014 A 
ENDBRANCH   9  11
ENDBRANCH   1   5
BRANCH   2  17
HETATM   17  N   UNL     1      -3.413   4.121 -31.435  1.00  0.00    -0.182 NA
HETATM   18  C   UNL     1      -2.132   4.294 -31.376  1.00  0.00     0.168 C 
BRANCH  18  19
HETATM   19  C   UNL     1      -1.599   5.391 -30.619  1.00  0.00     0.052 A 
HETATM   20  N   UNL     1      -2.387   6.308 -29.955  1.00  0.00    -0.358 N 
HETATM   21  H   UNL     1      -3.400   6.279 -29.947  1.00  0.00     0.166 HD
HETATM   22  C   UNL     1      -1.589   7.224 -29.331  1.00  0.00     0.016 A 
HETATM   23  C   UNL     1      -0.272   6.902 -29.584  1.00  0.00    -0.033 A 
HETATM   24  C   UNL     1      -2.074   8.353 -28.493  1.00  0.00     0.057 C 
HETATM   25  C   UNL     1       0.866   7.710 -29.060  1.00  0.00     0.040 C 
HETATM   26  C   UNL     1      -0.278   5.746 -30.401  1.00  0.00     0.040 A 
HETATM   27  C   UNL     1       0.403   8.642 -27.922  1.00  0.00     0.005 C 
HETATM   28  C   UNL     1      -0.926   9.350 -28.252  1.00  0.00     0.006 C 
ENDBRANCH  18  19
ENDBRANCH   2  17
TORSDOF 4
ENDMDL
MODEL 4
REMARK VINA RESULT:      -8.5      8.446     12.170
REMARK  4 active torsions:
REMARK  status: ('A' for Active; 'I' for Inactive)
REMARK    1  A    between atoms: C_4  and  C_5 
REMARK    2  A    between atoms: C_9  and  C_10 
REMARK       I    between atoms: C_10  and  N_11 
REMARK    3  A    between atoms: N_11  and  N_12 
REMARK    4  A    between atoms: C_13  and  C_14 
ROOT
HETATM    1  C   UNL     1      -9.999   1.591 -33.089  1.00  0.00     0.289 C 
HETATM    2  N   UNL     1     -11.205   1.632 -33.770  1.00  0.00    -0.242 N 
HETATM    3  O   UNL     1      -9.761   2.235 -32.069  1.00  0.00    -0.264 OA
HETATM    4  H   UNL     1     -11.335   1.094 -34.617  1.00  0.00     0.192 HD
ENDROOT
BRANCH   1   5
HETATM    5  C   UNL     1      -9.004   0.727 -33.674  1.00  0.00     0.121 A 
HETATM    6  N   UNL     1      -8.675   0.824 -34.997  1.00  0.00    -0.272 N 
HETATM    7  N   UNL     1      -7.755  -0.063 -35.402  1.00  0.00    -0.174 NA
HETATM    8  H   UNL     1      -9.062   1.477 -35.673  1.00  0.00     0.189 HD
HETATM    9  C   UNL     1      -7.441  -0.758 -34.298  1.00  0.00     0.089 A 
HETATM   10  C   UNL     1      -8.207  -0.291 -33.191  1.00  0.00     0.071 A 
BRANCH   9  11
HETATM   11  C   UNL     1      -6.449  -1.838 -34.323  1.00  0.00    -0.006 A 
HETATM   12  C   UNL     1      -5.146  -1.640 -33.841  1.00  0.00     0.014 A 
HETATM   13  C   UNL     1      -4.213  -2.681 -33.860  1.00  0.00     0.001 A 
HETATM   14  C   UNL     1      -4.570  -3.932 -34.360  1.00  0.00     0.000 A 
HETATM   15  C   UNL     1      -5.858  -4.142 -34.845  1.00  0.00     0.001 A 
HETATM   16  C   UNL     1      -6.790  -3.102 -34.828  1.00  0.00     0.014 A 
ENDBRANCH   9  11
ENDBRANCH   1   5
BRANCH   2  17
HETATM   17  N   UNL     1     -12.218   2.434 -33.324  1.00  0.00    -0.182 NA
HETATM   18  C   UNL     1     -13.374   1.866 -33.196  1.00  0.00     0.168 C 
BRANCH  18  19
HETATM   19  C   UNL     1     -14.496   2.635 -32.740  1.00  0.00     0.052 A 
HETATM   20  N   UNL     1     -15.791   2.160 -32.739  1.00  0.00    -0.358 N 
HETATM   21  H   UNL     1     -16.051   1.233 -33.057  1.00  0.00     0.166 HD
HETATM   22  C   UNL     1     -16.628   3.121 -32.249  1.00  0.00     0.016 A 
HETATM   23  C   UNL     1     -15.876   4.230 -31.922  1.00  0.00    -0.033 A 
HETATM   24  C   UNL     1     -18.097   2.969 -32.069  1.00  0.00     0.057 C 
HETATM   25  C   UNL     1     -16.481   5.475 -31.369  1.00  0.00     0.040 C 
HETATM   26  C   UNL     1     -14.530   3.925 -32.236  1.00  0.00     0.040 A 
HETATM   27  C   UNL     1     -17.909   5.211 -30.851  1.00  0.00     0.005 C 
HETATM   28  C   UNL     1     -18.734   4.350 -31.827  1.00  0.00     0.006 C 
ENDBRANCH  18  19
ENDBRANCH   2  17
TORSDOF 4
ENDMDL
MODEL 5
REMARK VINA RESULT:      -8.3      2.260     10.847
REMARK  4 active torsions:
REMARK  status: ('A' for Active; 'I' for Inactive)
REMARK    1  A    between atoms: C_4  and  C_5 
REMARK    2  A    between atoms: C_9  and  C_10 
REMARK       I    between atoms: C_10  and  N_11 
REMARK    3  A    between atoms: N_11  and  N_12 
REMARK    4  A    between atoms: C_13  and  C_14 
ROOT
HETATM    1  C   UNL     1      -6.104   2.730 -33.444  1.00  0.00     0.289 C 
HETATM    2  N   UNL     1      -4.979   3.011 -32.686  1.00  0.00    -0.242 N 
HETATM    3  O   UNL     1      -6.975   3.552 -33.718  1.00  0.00    -0.264 OA
HETATM    4  H   UNL     1      -4.306   2.286 -32.476  1.00  0.00     0.192 HD
ENDROOT
BRANCH   1   5
HETATM    5  C   UNL     1      -6.200   1.364 -33.898  1.00  0.00     0.121 A 
HETATM    6  N   UNL     1      -7.113   0.997 -34.846  1.00  0.00    -0.272 N 
HETATM    7  N   UNL     1      -7.101  -0.310 -35.146  1.00  0.00    -0.174 NA
HETATM    8  H   UNL     1      -7.780   1.605 -35.314  1.00  0.00     0.189 HD
HETATM    9  C   UNL     1      -6.122  -0.826 -34.386  1.00  0.00     0.089 A 
HETATM   10  C   UNL     1      -5.533   0.196 -33.586  1.00  0.00     0.071 A 
BRANCH   9  11
HETATM   11  C   UNL     1      -5.785  -2.252 -34.427  1.00  0.00    -0.006 A 
HETATM   12  C   UNL     1      -6.726  -3.211 -34.832  1.00  0.00     0.014 A 
HETATM   13  C   UNL     1      -6.388  -4.567 -34.876  1.00  0.00     0.001 A 
HETATM   14  C   UNL     1      -5.108  -4.982 -34.517  1.00  0.00     0.000 A 
HETATM   15  C   UNL     1      -4.164  -4.043 -34.109  1.00  0.00     0.001 A 
HETATM   16  C   UNL     1      -4.502  -2.687 -34.062  1.00  0.00     0.014 A 
ENDBRANCH   9  11
ENDBRANCH   1   5
BRANCH   2  17
HETATM   17  N   UNL     1      -4.790   4.267 -32.180  1.00  0.00    -0.182 NA
HETATM   18  C   UNL     1      -3.587   4.543 -31.790  1.00  0.00     0.168 C 
BRANCH  18  19
HETATM   19  C   UNL     1      -3.300   5.837 -31.238  1.00  0.00     0.052 A 
HETATM   20  N   UNL     1      -2.377   6.044 -30.234  1.00  0.00    -0.358 N 
HETATM   21  H   UNL     1      -1.829   5.304 -29.810  1.00  0.00     0.166 HD
HETATM   22  C   UNL     1      -2.330   7.375 -29.928  1.00  0.00     0.016 A 
HETATM   23  C   UNL     1      -3.224   8.041 -30.740  1.00  0.00    -0.033 A 
HETATM   24  C   UNL     1      -1.434   7.990 -28.913  1.00  0.00     0.057 C 
HETATM   25  C   UNL     1      -3.437   9.515 -30.658  1.00  0.00     0.040 C 
HETATM   26  C   UNL     1      -3.839   7.070 -31.565  1.00  0.00     0.040 A 
HETATM   27  C   UNL     1      -2.288  10.196 -29.888  1.00  0.00     0.005 C 
HETATM   28  C   UNL     1      -1.903   9.425 -28.610  1.00  0.00     0.006 C 
ENDBRANCH  18  19
ENDBRANCH   2  17
TORSDOF 4
ENDMDL
MODEL 6
REMARK VINA RESULT:      -7.9      1.735     10.801
REMARK  4 active torsions:
REMARK  status: ('A' for Active; 'I' for Inactive)
REMARK    1  A    between atoms: C_4  and  C_5 
REMARK    2  A    between atoms: C_9  and  C_10 
REMARK       I    between atoms: C_10  and  N_11 
REMARK    3  A    between atoms: N_11  and  N_12 
REMARK    4  A    between atoms: C_13  and  C_14 
ROOT
HETATM    1  C   UNL     1      -4.802   4.305 -31.703  1.00  0.00     0.289 C 
HETATM    2  N   UNL     1      -3.437   4.422 -31.490  1.00  0.00    -0.242 N 
HETATM    3  O   UNL     1      -5.638   5.093 -31.267  1.00  0.00    -0.264 OA
HETATM    4  H   UNL     1      -2.799   3.729 -31.858  1.00  0.00     0.192 HD
ENDROOT
BRANCH   1   5
HETATM    5  C   UNL     1      -5.194   3.158 -32.484  1.00  0.00     0.121 A 
HETATM    6  N   UNL     1      -6.054   3.283 -33.540  1.00  0.00    -0.272 N 
HETATM    7  N   UNL     1      -6.345   2.127 -34.153  1.00  0.00    -0.174 NA
HETATM    8  H   UNL     1      -6.480   4.142 -33.877  1.00  0.00     0.189 HD
HETATM    9  C   UNL     1      -5.631   1.202 -33.494  1.00  0.00     0.089 A 
HETATM   10  C   UNL     1      -4.895   1.811 -32.437  1.00  0.00     0.071 A 
BRANCH   9  11
HETATM   11  C   UNL     1      -5.673  -0.215 -33.869  1.00  0.00    -0.006 A 
HETATM   12  C   UNL     1      -4.574  -1.059 -33.646  1.00  0.00     0.014 A 
HETATM   13  C   UNL     1      -4.631  -2.412 -33.998  1.00  0.00     0.001 A 
HETATM   14  C   UNL     1      -5.785  -2.937 -34.576  1.00  0.00     0.000 A 
HETATM   15  C   UNL     1      -6.881  -2.111 -34.807  1.00  0.00     0.001 A 
HETATM   16  C   UNL     1      -6.825  -0.759 -34.457  1.00  0.00     0.014 A 
ENDBRANCH   9  11
ENDBRANCH   1   5
BRANCH   2  17
HETATM   17  N   UNL     1      -2.946   5.456 -30.743  1.00  0.00    -0.182 NA
HETATM   18  C   UNL     1      -1.671   5.439 -30.525  1.00  0.00     0.168 C 
BRANCH  18  19
HETATM   19  C   UNL     1      -1.070   6.483 -29.744  1.00  0.00     0.052 A 
HETATM   20  N   UNL     1      -1.799   7.445 -29.077  1.00  0.00    -0.358 N 
HETATM   21  H   UNL     1      -2.812   7.490 -29.082  1.00  0.00     0.166 HD
HETATM   22  C   UNL     1      -0.947   8.292 -28.428  1.00  0.00     0.016 A 
HETATM   23  C   UNL     1       0.347   7.878 -28.668  1.00  0.00    -0.033 A 
HETATM   24  C   UNL     1      -1.361   9.440 -27.578  1.00  0.00     0.057 C 
HETATM   25  C   UNL     1       1.533   8.594 -28.117  1.00  0.00     0.040 C 
HETATM   26  C   UNL     1       0.269   6.738 -29.503  1.00  0.00     0.040 A 
HETATM   27  C   UNL     1       1.123   9.541 -26.971  1.00  0.00     0.005 C 
HETATM   28  C   UNL     1      -0.146  10.348 -27.307  1.00  0.00     0.006 C 
ENDBRANCH  18  19
ENDBRANCH   2  17
TORSDOF 4
ENDMDL
MODEL 7
REMARK VINA RESULT:      -7.7     18.757     19.604
REMARK  4 active torsions:
REMARK  status: ('A' for Active; 'I' for Inactive)
REMARK    1  A    between atoms: C_4  and  C_5 
REMARK    2  A    between atoms: C_9  and  C_10 
REMARK       I    between atoms: C_10  and  N_11 
REMARK    3  A    between atoms: N_11  and  N_12 
REMARK    4  A    between atoms: C_13  and  C_14 
ROOT
HETATM    1  C   UNL     1      -5.636 -15.080 -32.320  1.00  0.00     0.289 C 
HETATM    2  N   UNL     1      -4.861 -14.301 -33.164  1.00  0.00    -0.242 N 
HETATM    3  O   UNL     1      -6.809 -15.375 -32.536  1.00  0.00    -0.264 OA
HETATM    4  H   UNL     1      -3.906 -14.075 -32.922  1.00  0.00     0.192 HD
ENDROOT
BRANCH   1   5
HETATM    5  C   UNL     1      -4.962 -15.531 -31.127  1.00  0.00     0.121 A 
HETATM    6  N   UNL     1      -5.655 -15.784 -29.976  1.00  0.00    -0.272 N 
HETATM    7  N   UNL     1      -4.890 -16.169 -28.946  1.00  0.00    -0.174 NA
HETATM    8  H   UNL     1      -6.659 -15.696 -29.841  1.00  0.00     0.189 HD
HETATM    9  C   UNL     1      -3.642 -16.200 -29.439  1.00  0.00     0.089 A 
HETATM   10  C   UNL     1      -3.647 -15.803 -30.808  1.00  0.00     0.071 A 
BRANCH   9  11
HETATM   11  C   UNL     1      -2.495 -16.584 -28.611  1.00  0.00    -0.006 A 
HETATM   12  C   UNL     1      -1.347 -15.780 -28.541  1.00  0.00     0.014 A 
HETATM   13  C   UNL     1      -0.264 -16.153 -27.739  1.00  0.00     0.001 A 
HETATM   14  C   UNL     1      -0.313 -17.332 -26.999  1.00  0.00     0.000 A 
HETATM   15  C   UNL     1      -1.443 -18.143 -27.062  1.00  0.00     0.001 A 
HETATM   16  C   UNL     1      -2.526 -17.772 -27.865  1.00  0.00     0.014 A 
ENDBRANCH   9  11
ENDBRANCH   1   5
BRANCH   2  17
HETATM   17  N   UNL     1      -5.398 -13.795 -34.316  1.00  0.00    -0.182 NA
HETATM   18  C   UNL     1      -4.795 -14.125 -35.412  1.00  0.00     0.168 C 
BRANCH  18  19
HETATM   19  C   UNL     1      -5.286 -13.633 -36.668  1.00  0.00     0.052 A 
HETATM   20  N   UNL     1      -6.615 -13.342 -36.900  1.00  0.00    -0.358 N 
HETATM   21  H   UNL     1      -7.345 -13.450 -36.206  1.00  0.00     0.166 HD
HETATM   22  C   UNL     1      -6.764 -12.897 -38.182  1.00  0.00     0.016 A 
HETATM   23  C   UNL     1      -5.526 -12.891 -38.790  1.00  0.00    -0.033 A 
HETATM   24  C   UNL     1      -8.048 -12.460 -38.794  1.00  0.00     0.057 C 
HETATM   25  C   UNL     1      -5.330 -12.470 -40.207  1.00  0.00     0.040 C 
HETATM   26  C   UNL     1      -4.593 -13.360 -37.835  1.00  0.00     0.040 A 
HETATM   27  C   UNL     1      -6.556 -11.692 -40.726  1.00  0.00     0.005 C 
HETATM   28  C   UNL     1      -7.885 -12.359 -40.322  1.00  0.00     0.006 C 
ENDBRANCH  18  19
ENDBRANCH   2  17
TORSDOF 4
ENDMDL
MODEL 8
REMARK VINA RESULT:      -7.7      8.170      9.696
REMARK  4 active torsions:
REMARK  status: ('A' for Active; 'I' for Inactive)
REMARK    1  A    between atoms: C_4  and  C_5 
REMARK    2  A    between atoms: C_9  and  C_10 
REMARK       I    between atoms: C_10  and  N_11 
REMARK    3  A    between atoms: N_11  and  N_12 
REMARK    4  A    between atoms: C_13  and  C_14 
ROOT
HETATM    1  C   UNL     1      -9.738   2.079 -33.877  1.00  0.00     0.289 C 
HETATM    2  N   UNL     1      -8.923   1.572 -34.878  1.00  0.00    -0.242 N 
HETATM    3  O   UNL     1     -10.008   1.482 -32.839  1.00  0.00    -0.264 OA
HETATM    4  H   UNL     1      -8.753   2.104 -35.721  1.00  0.00     0.192 HD
ENDROOT
BRANCH   1   5
HETATM    5  C   UNL     1     -10.274   3.391 -34.144  1.00  0.00     0.121 A 
HETATM    6  N   UNL     1     -10.025   4.441 -33.304  1.00  0.00    -0.272 N 
HETATM    7  N   UNL     1     -10.612   5.589 -33.668  1.00  0.00    -0.174 NA
HETATM    8  H   UNL     1      -9.464   4.419 -32.456  1.00  0.00     0.189 HD
HETATM    9  C   UNL     1     -11.255   5.298 -34.810  1.00  0.00     0.089 A 
HETATM   10  C   UNL     1     -11.067   3.924 -35.141  1.00  0.00     0.071 A 
BRANCH   9  11
HETATM   11  C   UNL     1     -12.028   6.307 -35.539  1.00  0.00    -0.006 A 
HETATM   12  C   UNL     1     -11.461   7.540 -35.897  1.00  0.00     0.014 A 
HETATM   13  C   UNL     1     -12.207   8.490 -36.602  1.00  0.00     0.001 A 
HETATM   14  C   UNL     1     -13.527   8.221 -36.957  1.00  0.00     0.000 A 
HETATM   15  C   UNL     1     -14.105   7.005 -36.605  1.00  0.00     0.001 A 
HETATM   16  C   UNL     1     -13.361   6.055 -35.899  1.00  0.00     0.014 A 
ENDBRANCH   9  11
ENDBRANCH   1   5
BRANCH   2  17
HETATM   17  N   UNL     1      -8.375   0.326 -34.749  1.00  0.00    -0.182 NA
HETATM   18  C   UNL     1      -7.084   0.283 -34.673  1.00  0.00     0.168 C 
BRANCH  18  19
HETATM   19  C   UNL     1      -6.423  -0.985 -34.543  1.00  0.00     0.052 A 
HETATM   20  N   UNL     1      -5.259  -1.163 -33.824  1.00  0.00    -0.358 N 
HETATM   21  H   UNL     1      -4.783  -0.417 -33.330  1.00  0.00     0.166 HD
HETATM   22  C   UNL     1      -4.881  -2.473 -33.889  1.00  0.00     0.016 A 
HETATM   23  C   UNL     1      -5.806  -3.157 -34.651  1.00  0.00    -0.033 A 
HETATM   24  C   UNL     1      -3.690  -3.056 -33.215  1.00  0.00     0.057 C 
HETATM   25  C   UNL     1      -5.687  -4.616 -34.937  1.00  0.00     0.040 C 
HETATM   26  C   UNL     1      -6.777  -2.217 -35.068  1.00  0.00     0.040 A 
HETATM   27  C   UNL     1      -4.688  -5.288 -33.973  1.00  0.00     0.005 C 
HETATM   28  C   UNL     1      -3.403  -4.455 -33.791  1.00  0.00     0.006 C 
ENDBRANCH  18  19
ENDBRANCH   2  17
TORSDOF 4
ENDMDL
MODEL 9
REMARK VINA RESULT:      -7.5      2.598      2.908
REMARK  4 active torsions:
REMARK  status: ('A' for Active; 'I' for Inactive)
REMARK    1  A    between atoms: C_4  and  C_5 
REMARK    2  A    between atoms: C_9  and  C_10 
REMARK       I    between atoms: C_10  and  N_11 
REMARK    3  A    between atoms: N_11  and  N_12 
REMARK    4  A    between atoms: C_13  and  C_14 
ROOT
HETATM    1  C   UNL     1      -2.756   6.119 -31.176  1.00  0.00     0.289 C 
HETATM    2  N   UNL     1      -3.553   5.201 -30.509  1.00  0.00    -0.242 N 
HETATM    3  O   UNL     1      -2.931   6.466 -32.341  1.00  0.00    -0.264 OA
HETATM    4  H   UNL     1      -3.346   4.939 -29.554  1.00  0.00     0.192 HD
ENDROOT
BRANCH   1   5
HETATM    5  C   UNL     1      -1.667   6.652 -30.394  1.00  0.00     0.121 A 
HETATM    6  N   UNL     1      -0.376   6.571 -30.834  1.00  0.00    -0.272 N 
HETATM    7  N   UNL     1       0.528   7.085 -29.989  1.00  0.00    -0.174 NA
HETATM    8  H   UNL     1      -0.057   6.160 -31.708  1.00  0.00     0.189 HD
HETATM    9  C   UNL     1      -0.194   7.550 -28.958  1.00  0.00     0.089 A 
HETATM   10  C   UNL     1      -1.579   7.295 -29.176  1.00  0.00     0.071 A 
BRANCH   9  11
HETATM   11  C   UNL     1       0.436   8.202 -27.806  1.00  0.00    -0.006 A 
HETATM   12  C   UNL     1       0.067   9.497 -27.411  1.00  0.00     0.014 A 
HETATM   13  C   UNL     1       0.669  10.102 -26.303  1.00  0.00     0.001 A 
HETATM   14  C   UNL     1       1.646   9.424 -25.578  1.00  0.00     0.000 A 
HETATM   15  C   UNL     1       2.026   8.140 -25.961  1.00  0.00     0.001 A 
HETATM   16  C   UNL     1       1.427   7.534 -27.069  1.00  0.00     0.014 A 
ENDBRANCH   9  11
ENDBRANCH   1   5
BRANCH   2  17
HETATM   17  N   UNL     1      -4.603   4.609 -31.154  1.00  0.00    -0.182 NA
HETATM   18  C   UNL     1      -4.593   3.316 -31.179  1.00  0.00     0.168 C 
BRANCH  18  19
HETATM   19  C   UNL     1      -5.654   2.610 -31.840  1.00  0.00     0.052 A 
HETATM   20  N   UNL     1      -6.756   2.107 -31.181  1.00  0.00    -0.358 N 
HETATM   21  H   UNL     1      -6.905   2.198 -30.183  1.00  0.00     0.166 HD
HETATM   22  C   UNL     1      -7.581   1.493 -32.079  1.00  0.00     0.016 A 
HETATM   23  C   UNL     1      -7.018   1.600 -33.334  1.00  0.00    -0.033 A 
HETATM   24  C   UNL     1      -8.883   0.854 -31.749  1.00  0.00     0.057 C 
HETATM   25  C   UNL     1      -7.656   1.021 -34.551  1.00  0.00     0.040 C 
HETATM   26  C   UNL     1      -5.799   2.302 -33.182  1.00  0.00     0.040 A 
HETATM   27  C   UNL     1      -9.138   0.685 -34.290  1.00  0.00     0.005 C 
HETATM   28  C   UNL     1      -9.348  -0.015 -32.933  1.00  0.00     0.006 C 
ENDBRANCH  18  19
ENDBRANCH   2  17
TORSDOF 4
ENDMDL
MODEL 10
REMARK VINA RESULT:      -7.4      3.146      3.574
REMARK  4 active torsions:
REMARK  status: ('A' for Active; 'I' for Inactive)
REMARK    1  A    between atoms: C_4  and  C_5 
REMARK    2  A    between atoms: C_9  and  C_10 
REMARK       I    between atoms: C_10  and  N_11 
REMARK    3  A    between atoms: N_11  and  N_12 
REMARK    4  A    between atoms: C_13  and  C_14 
ROOT
HETATM    1  C   UNL     1      -5.671   3.133 -30.347  1.00  0.00     0.289 C 
HETATM    2  N   UNL     1      -4.660   2.347 -30.877  1.00  0.00    -0.242 N 
HETATM    3  O   UNL     1      -6.840   2.771 -30.236  1.00  0.00    -0.264 OA
HETATM    4  H   UNL     1      -3.719   2.708 -30.961  1.00  0.00     0.192 HD
ENDROOT
BRANCH   1   5
HETATM    5  C   UNL     1      -5.255   4.449 -29.927  1.00  0.00     0.121 A 
HETATM    6  N   UNL     1      -5.400   4.856 -28.631  1.00  0.00    -0.272 N 
HETATM    7  N   UNL     1      -4.993   6.112 -28.399  1.00  0.00    -0.174 NA
HETATM    8  H   UNL     1      -5.785   4.312 -27.863  1.00  0.00     0.189 HD
HETATM    9  C   UNL     1      -4.535   6.547 -29.582  1.00  0.00     0.089 A 
HETATM   10  C   UNL     1      -4.684   5.529 -30.570  1.00  0.00     0.071 A 
BRANCH   9  11
HETATM   11  C   UNL     1      -3.989   7.897 -29.749  1.00  0.00    -0.006 A 
HETATM   12  C   UNL     1      -2.950   8.154 -30.657  1.00  0.00     0.014 A 
HETATM   13  C   UNL     1      -2.445   9.449 -30.814  1.00  0.00     0.001 A 
HETATM   14  C   UNL     1      -2.972  10.501 -30.068  1.00  0.00     0.000 A 
HETATM   15  C   UNL     1      -3.999  10.261 -29.160  1.00  0.00     0.001 A 
HETATM   16  C   UNL     1      -4.503   8.967 -29.001  1.00  0.00     0.014 A 
ENDBRANCH   9  11
ENDBRANCH   1   5
BRANCH   2  17
HETATM   17  N   UNL     1      -4.937   1.088 -31.332  1.00  0.00    -0.182 NA
HETATM   18  C   UNL     1      -4.724   0.882 -32.591  1.00  0.00     0.168 C 
BRANCH  18  19
HETATM   19  C   UNL     1      -4.994  -0.410 -33.155  1.00  0.00     0.052 A 
HETATM   20  N   UNL     1      -4.113  -1.469 -33.079  1.00  0.00    -0.358 N 
HETATM   21  H   UNL     1      -3.212  -1.421 -32.618  1.00  0.00     0.166 HD
HETATM   22  C   UNL     1      -4.654  -2.555 -33.706  1.00  0.00     0.016 A 
HETATM   23  C   UNL     1      -5.897  -2.205 -34.191  1.00  0.00    -0.033 A 
HETATM   24  C   UNL     1      -4.014  -3.893 -33.808  1.00  0.00     0.057 C 
HETATM   25  C   UNL     1      -6.760  -3.158 -34.946  1.00  0.00     0.040 C 
HETATM   26  C   UNL     1      -6.110  -0.849 -33.847  1.00  0.00     0.040 A 
HETATM   27  C   UNL     1      -6.282  -4.611 -34.750  1.00  0.00     0.005 C 
HETATM   28  C   UNL     1      -4.751  -4.741 -34.862  1.00  0.00     0.006 C 
ENDBRANCH  18  19
ENDBRANCH   2  17
TORSDOF 4
ENDMDL
