MODEL 1
REMARK VINA RESULT:      -7.5      0.000      0.000
REMARK  11 active torsions:
REMARK  status: ('A' for Active; 'I' for Inactive)
REMARK    1  A    between atoms: O_1  and  C_2 
REMARK    2  A    between atoms: C_2  and  C_3 
REMARK    3  A    between atoms: C_3  and  O_4 
REMARK    4  A    between atoms: O_4  and  C_5 
REMARK    5  A    between atoms: C_7  and  C_25 
REMARK    6  A    between atoms: C_10  and  N_11 
REMARK       I    between atoms: N_11  and  C_12 
REMARK       I    between atoms: C_12  and  N_14 
REMARK    7  A    between atoms: N_14  and  C_15 
REMARK    8  A    between atoms: N_14  and  C_18 
REMARK    9  A    between atoms: C_15  and  C_16 
REMARK   10  A    between atoms: C_16  and  O_17 
REMARK   11  A    between atoms: C_18  and  C_19 
ROOT
HETATM    1  C   UNL     1      -6.683   0.092 -33.142  1.00  0.00     0.096 A 
HETATM    2  C   UNL     1      -6.640  -1.189 -33.705  1.00  0.00     0.051 A 
HETATM    3  C   UNL     1      -5.437  -1.910 -33.755  1.00  0.00    -0.020 A 
HETATM    4  C   UNL     1      -4.265  -1.321 -33.269  1.00  0.00     0.015 A 
HETATM    5  C   UNL     1      -4.299  -0.048 -32.697  1.00  0.00     0.033 A 
HETATM    6  C   UNL     1      -5.515   0.634 -32.578  1.00  0.00     0.069 A 
ENDROOT
BRANCH   6   7
HETATM    7  N   UNL     1      -5.506   1.866 -31.880  1.00  0.00    -0.306 N 
HETATM    8  C   UNL     1      -5.309   3.056 -32.562  1.00  0.00     0.323 C 
HETATM    9  O   UNL     1      -5.164   3.138 -33.780  1.00  0.00    -0.247 OA
HETATM   10  N   UNL     1      -5.397   4.192 -31.758  1.00  0.00    -0.328 N 
HETATM   11  H   UNL     1      -6.216   1.959 -31.160  1.00  0.00     0.171 HD
BRANCH  10  12
HETATM   12  C   UNL     1      -5.348   4.167 -30.290  1.00  0.00     0.153 C 
BRANCH  12  13
HETATM   13  C   UNL     1      -6.740   4.080 -29.661  1.00  0.00     0.184 C 
BRANCH  13  14
HETATM   14  O   UNL     1      -7.034   2.737 -29.270  1.00  0.00    -0.399 OA
HETATM   15  H   UNL     1      -6.865   2.697 -28.308  1.00  0.00     0.209 HD
ENDBRANCH  13  14
ENDBRANCH  12  13
ENDBRANCH  10  12
BRANCH  10  16
HETATM   16  C   UNL     1      -5.573   5.486 -32.416  1.00  0.00     0.166 C 
BRANCH  16  17
HETATM   17  C   UNL     1      -4.312   6.297 -32.603  1.00  0.00    -0.040 A 
HETATM   18  C   UNL     1      -3.882   7.235 -31.656  1.00  0.00     0.009 A 
HETATM   19  C   UNL     1      -2.674   7.915 -31.825  1.00  0.00     0.001 A 
HETATM   20  C   UNL     1      -1.871   7.651 -32.933  1.00  0.00     0.000 A 
HETATM   21  C   UNL     1      -2.275   6.705 -33.873  1.00  0.00     0.001 A 
HETATM   22  C   UNL     1      -3.485   6.030 -33.707  1.00  0.00     0.009 A 
ENDBRANCH  16  17
ENDBRANCH  10  16
ENDBRANCH   6   7
BRANCH   1  23
HETATM   23  O   UNL     1      -7.805   0.885 -33.131  1.00  0.00    -0.347 OA
BRANCH  23  24
HETATM   24  C   UNL     1      -8.683   0.738 -32.017  1.00  0.00     0.201 C 
BRANCH  24  25
HETATM   25  C   UNL     1      -9.339   2.084 -31.736  1.00  0.00     0.190 C 
BRANCH  25  26
HETATM   26  O   UNL     1      -9.722   2.169 -30.368  1.00  0.00    -0.399 OA
HETATM   27  H   UNL     1      -9.198   1.504 -29.888  1.00  0.00     0.209 HD
ENDBRANCH  25  26
ENDBRANCH  24  25
ENDBRANCH  23  24
ENDBRANCH   1  23
BRANCH   3  28
HETATM   28  C   UNL     1      -5.400  -3.261 -34.283  1.00  0.00     0.010 A 
HETATM   29  C   UNL     1      -6.364  -3.989 -35.017  1.00  0.00     0.152 A 
HETATM   30  N   UNL     1      -5.955  -5.223 -35.323  1.00  0.00    -0.187 NA
HETATM   31  N   UNL     1      -4.723  -5.286 -34.792  1.00  0.00    -0.289 N 
HETATM   32  H   UNL     1      -4.197  -6.146 -34.901  1.00  0.00     0.188 HD
HETATM   33  C   UNL     1      -4.344  -4.138 -34.158  1.00  0.00     0.123 A 
ENDBRANCH   3  28
TORSDOF 11
ENDMDL
MODEL 2
REMARK VINA RESULT:      -7.3      1.721      2.056
REMARK  11 active torsions:
REMARK  status: ('A' for Active; 'I' for Inactive)
REMARK    1  A    between atoms: O_1  and  C_2 
REMARK    2  A    between atoms: C_2  and  C_3 
REMARK    3  A    between atoms: C_3  and  O_4 
REMARK    4  A    between atoms: O_4  and  C_5 
REMARK    5  A    between atoms: C_7  and  C_25 
REMARK    6  A    between atoms: C_10  and  N_11 
REMARK       I    between atoms: N_11  and  C_12 
REMARK       I    between atoms: C_12  and  N_14 
REMARK    7  A    between atoms: N_14  and  C_15 
REMARK    8  A    between atoms: N_14  and  C_18 
REMARK    9  A    between atoms: C_15  and  C_16 
REMARK   10  A    between atoms: C_16  and  O_17 
REMARK   11  A    between atoms: C_18  and  C_19 
ROOT
HETATM    1  C   UNL     1      -5.784   0.334 -33.267  1.00  0.00     0.096 A 
HETATM    2  C   UNL     1      -5.765  -0.984 -33.739  1.00  0.00     0.051 A 
HETATM    3  C   UNL     1      -4.674  -1.826 -33.473  1.00  0.00    -0.020 A 
HETATM    4  C   UNL     1      -3.581  -1.325 -32.759  1.00  0.00     0.015 A 
HETATM    5  C   UNL     1      -3.593  -0.015 -32.276  1.00  0.00     0.033 A 
HETATM    6  C   UNL     1      -4.716   0.795 -32.476  1.00  0.00     0.069 A 
ENDROOT
BRANCH   6   7
HETATM    7  N   UNL     1      -4.720   2.069 -31.859  1.00  0.00    -0.306 N 
HETATM    8  C   UNL     1      -3.788   3.028 -32.224  1.00  0.00     0.323 C 
HETATM    9  O   UNL     1      -2.939   2.867 -33.099  1.00  0.00    -0.247 OA
HETATM   10  N   UNL     1      -3.957   4.256 -31.586  1.00  0.00    -0.328 N 
HETATM   11  H   UNL     1      -5.639   2.476 -31.714  1.00  0.00     0.171 HD
BRANCH  10  12
HETATM   12  C   UNL     1      -4.790   4.454 -30.392  1.00  0.00     0.153 C 
BRANCH  12  13
HETATM   13  C   UNL     1      -6.083   5.210 -30.701  1.00  0.00     0.184 C 
BRANCH  13  14
HETATM   14  O   UNL     1      -6.902   4.462 -31.602  1.00  0.00    -0.399 OA
HETATM   15  H   UNL     1      -6.284   4.003 -32.204  1.00  0.00     0.209 HD
ENDBRANCH  13  14
ENDBRANCH  12  13
ENDBRANCH  10  12
BRANCH  10  16
HETATM   16  C   UNL     1      -3.282   5.422 -32.153  1.00  0.00     0.166 C 
BRANCH  16  17
HETATM   17  C   UNL     1      -2.014   5.845 -31.449  1.00  0.00    -0.040 A 
HETATM   18  C   UNL     1      -0.775   5.252 -31.725  1.00  0.00     0.009 A 
HETATM   19  C   UNL     1       0.389   5.717 -31.108  1.00  0.00     0.001 A 
HETATM   20  C   UNL     1       0.331   6.792 -30.224  1.00  0.00     0.000 A 
HETATM   21  C   UNL     1      -0.890   7.406 -29.956  1.00  0.00     0.001 A 
HETATM   22  C   UNL     1      -2.054   6.938 -30.567  1.00  0.00     0.009 A 
ENDBRANCH  16  17
ENDBRANCH  10  16
ENDBRANCH   6   7
BRANCH   1  23
HETATM   23  O   UNL     1      -6.778   1.236 -33.557  1.00  0.00    -0.347 OA
BRANCH  23  24
HETATM   24  C   UNL     1      -8.106   0.865 -33.190  1.00  0.00     0.201 C 
BRANCH  24  25
HETATM   25  C   UNL     1      -8.338   1.265 -31.739  1.00  0.00     0.190 C 
BRANCH  25  26
HETATM   26  O   UNL     1      -9.349   0.448 -31.159  1.00  0.00    -0.399 OA
HETATM   27  H   UNL     1      -9.607   0.873 -30.322  1.00  0.00     0.209 HD
ENDBRANCH  25  26
ENDBRANCH  24  25
ENDBRANCH  23  24
ENDBRANCH   1  23
BRANCH   3  28
HETATM   28  C   UNL     1      -4.678  -3.210 -33.909  1.00  0.00     0.010 A 
HETATM   29  C   UNL     1      -5.599  -3.918 -34.715  1.00  0.00     0.152 A 
HETATM   30  N   UNL     1      -5.253  -5.196 -34.891  1.00  0.00    -0.187 NA
HETATM   31  N   UNL     1      -4.105  -5.308 -34.204  1.00  0.00    -0.289 N 
HETATM   32  H   UNL     1      -3.638  -6.208 -34.192  1.00  0.00     0.188 HD
HETATM   33  C   UNL     1      -3.718  -4.148 -33.597  1.00  0.00     0.123 A 
ENDBRANCH   3  28
TORSDOF 11
ENDMDL
MODEL 3
REMARK VINA RESULT:      -7.3      3.404      6.772
REMARK  11 active torsions:
REMARK  status: ('A' for Active; 'I' for Inactive)
REMARK    1  A    between atoms: O_1  and  C_2 
REMARK    2  A    between atoms: C_2  and  C_3 
REMARK    3  A    between atoms: C_3  and  O_4 
REMARK    4  A    between atoms: O_4  and  C_5 
REMARK    5  A    between atoms: C_7  and  C_25 
REMARK    6  A    between atoms: C_10  and  N_11 
REMARK       I    between atoms: N_11  and  C_12 
REMARK       I    between atoms: C_12  and  N_14 
REMARK    7  A    between atoms: N_14  and  C_15 
REMARK    8  A    between atoms: N_14  and  C_18 
REMARK    9  A    between atoms: C_15  and  C_16 
REMARK   10  A    between atoms: C_16  and  O_17 
REMARK   11  A    between atoms: C_18  and  C_19 
ROOT
HETATM    1  C   UNL     1      -6.800   1.108 -33.274  1.00  0.00     0.096 A 
HETATM    2  C   UNL     1      -5.872   0.069 -33.129  1.00  0.00     0.051 A 
HETATM    3  C   UNL     1      -5.982  -1.104 -33.891  1.00  0.00    -0.020 A 
HETATM    4  C   UNL     1      -7.055  -1.245 -34.778  1.00  0.00     0.015 A 
HETATM    5  C   UNL     1      -7.980  -0.212 -34.938  1.00  0.00     0.033 A 
HETATM    6  C   UNL     1      -7.821   0.986 -34.233  1.00  0.00     0.069 A 
ENDROOT
BRANCH   6   7
HETATM    7  N   UNL     1      -8.718   2.040 -34.528  1.00  0.00    -0.306 N 
HETATM    8  C   UNL     1      -9.871   2.211 -33.776  1.00  0.00     0.323 C 
HETATM    9  O   UNL     1     -10.177   1.509 -32.814  1.00  0.00    -0.247 OA
HETATM   10  N   UNL     1     -10.621   3.330 -34.133  1.00  0.00    -0.328 N 
HETATM   11  H   UNL     1      -8.282   2.930 -34.752  1.00  0.00     0.171 HD
BRANCH  10  12
HETATM   12  C   UNL     1     -10.443   4.074 -35.388  1.00  0.00     0.153 C 
BRANCH  12  13
HETATM   13  C   UNL     1     -10.381   5.586 -35.166  1.00  0.00     0.184 C 
BRANCH  13  14
HETATM   14  O   UNL     1      -9.062   5.988 -34.793  1.00  0.00    -0.399 OA
HETATM   15  H   UNL     1      -8.718   5.275 -34.220  1.00  0.00     0.209 HD
ENDBRANCH  13  14
ENDBRANCH  12  13
ENDBRANCH  10  12
BRANCH  10  16
HETATM   16  C   UNL     1     -11.632   3.807 -33.191  1.00  0.00     0.166 C 
BRANCH  16  17
HETATM   17  C   UNL     1     -12.941   3.053 -33.206  1.00  0.00    -0.040 A 
HETATM   18  C   UNL     1     -13.259   2.132 -34.213  1.00  0.00     0.009 A 
HETATM   19  C   UNL     1     -14.447   1.399 -34.158  1.00  0.00     0.001 A 
HETATM   20  C   UNL     1     -15.321   1.563 -33.085  1.00  0.00     0.000 A 
HETATM   21  C   UNL     1     -15.009   2.458 -32.065  1.00  0.00     0.001 A 
HETATM   22  C   UNL     1     -13.826   3.196 -32.123  1.00  0.00     0.009 A 
ENDBRANCH  16  17
ENDBRANCH  10  16
ENDBRANCH   6   7
BRANCH   1  23
HETATM   23  O   UNL     1      -6.799   2.247 -32.506  1.00  0.00    -0.347 OA
BRANCH  23  24
HETATM   24  C   UNL     1      -5.691   3.129 -32.670  1.00  0.00     0.201 C 
BRANCH  24  25
HETATM   25  C   UNL     1      -6.224   4.529 -32.951  1.00  0.00     0.190 C 
BRANCH  25  26
HETATM   26  O   UNL     1      -6.824   4.578 -34.240  1.00  0.00    -0.399 OA
HETATM   27  H   UNL     1      -6.486   5.380 -34.677  1.00  0.00     0.209 HD
ENDBRANCH  25  26
ENDBRANCH  24  25
ENDBRANCH  23  24
ENDBRANCH   1  23
BRANCH   3  28
HETATM   28  C   UNL     1      -4.989  -2.156 -33.786  1.00  0.00     0.010 A 
HETATM   29  C   UNL     1      -4.760  -3.290 -34.600  1.00  0.00     0.152 A 
HETATM   30  N   UNL     1      -3.740  -4.036 -34.169  1.00  0.00    -0.187 NA
HETATM   31  N   UNL     1      -3.307  -3.376 -33.082  1.00  0.00    -0.289 N 
HETATM   32  H   UNL     1      -2.517  -3.757 -32.572  1.00  0.00     0.188 HD
HETATM   33  C   UNL     1      -4.022  -2.246 -32.809  1.00  0.00     0.123 A 
ENDBRANCH   3  28
TORSDOF 11
ENDMDL
MODEL 4
REMARK VINA RESULT:      -7.2      2.274      8.272
REMARK  11 active torsions:
REMARK  status: ('A' for Active; 'I' for Inactive)
REMARK    1  A    between atoms: O_1  and  C_2 
REMARK    2  A    between atoms: C_2  and  C_3 
REMARK    3  A    between atoms: C_3  and  O_4 
REMARK    4  A    between atoms: O_4  and  C_5 
REMARK    5  A    between atoms: C_7  and  C_25 
REMARK    6  A    between atoms: C_10  and  N_11 
REMARK       I    between atoms: N_11  and  C_12 
REMARK       I    between atoms: C_12  and  N_14 
REMARK    7  A    between atoms: N_14  and  C_15 
REMARK    8  A    between atoms: N_14  and  C_18 
REMARK    9  A    between atoms: C_15  and  C_16 
REMARK   10  A    between atoms: C_16  and  O_17 
REMARK   11  A    between atoms: C_18  and  C_19 
ROOT
HETATM    1  C   UNL     1      -4.066   2.909 -32.052  1.00  0.00     0.096 A 
HETATM    2  C   UNL     1      -3.302   4.082 -32.100  1.00  0.00     0.051 A 
HETATM    3  C   UNL     1      -3.762   5.210 -32.797  1.00  0.00    -0.020 A 
HETATM    4  C   UNL     1      -4.982   5.142 -33.479  1.00  0.00     0.015 A 
HETATM    5  C   UNL     1      -5.755   3.981 -33.429  1.00  0.00     0.033 A 
HETATM    6  C   UNL     1      -5.329   2.887 -32.669  1.00  0.00     0.069 A 
ENDROOT
BRANCH   6   7
HETATM    7  N   UNL     1      -6.212   1.786 -32.558  1.00  0.00    -0.306 N 
HETATM    8  C   UNL     1      -6.627   1.103 -33.691  1.00  0.00     0.323 C 
HETATM    9  O   UNL     1      -6.252   1.367 -34.832  1.00  0.00    -0.247 OA
HETATM   10  N   UNL     1      -7.435  -0.001 -33.424  1.00  0.00    -0.328 N 
HETATM   11  H   UNL     1      -6.018   1.153 -31.788  1.00  0.00     0.171 HD
BRANCH  10  12
HETATM   12  C   UNL     1      -8.094  -0.244 -32.133  1.00  0.00     0.153 C 
BRANCH  12  13
HETATM   13  C   UNL     1      -9.465   0.429 -32.042  1.00  0.00     0.184 C 
BRANCH  13  14
HETATM   14  O   UNL     1      -9.501   1.356 -30.955  1.00  0.00    -0.399 OA
HETATM   15  H   UNL     1      -9.351   2.236 -31.351  1.00  0.00     0.209 HD
ENDBRANCH  13  14
ENDBRANCH  12  13
ENDBRANCH  10  12
BRANCH  10  16
HETATM   16  C   UNL     1      -7.620  -0.989 -34.486  1.00  0.00     0.166 C 
BRANCH  16  17
HETATM   17  C   UNL     1      -6.608  -2.110 -34.514  1.00  0.00    -0.040 A 
HETATM   18  C   UNL     1      -5.264  -1.909 -34.173  1.00  0.00     0.009 A 
HETATM   19  C   UNL     1      -4.370  -2.982 -34.140  1.00  0.00     0.001 A 
HETATM   20  C   UNL     1      -4.813  -4.271 -34.428  1.00  0.00     0.000 A 
HETATM   21  C   UNL     1      -6.151  -4.490 -34.748  1.00  0.00     0.001 A 
HETATM   22  C   UNL     1      -7.043  -3.417 -34.787  1.00  0.00     0.009 A 
ENDBRANCH  16  17
ENDBRANCH  10  16
ENDBRANCH   6   7
BRANCH   1  23
HETATM   23  O   UNL     1      -3.642   1.745 -31.459  1.00  0.00    -0.347 OA
BRANCH  23  24
HETATM   24  C   UNL     1      -3.226   0.696 -32.331  1.00  0.00     0.201 C 
BRANCH  24  25
HETATM   25  C   UNL     1      -3.074  -0.582 -31.515  1.00  0.00     0.190 C 
BRANCH  25  26
HETATM   26  O   UNL     1      -1.708  -0.788 -31.173  1.00  0.00    -0.399 OA
HETATM   27  H   UNL     1      -1.699  -1.373 -30.395  1.00  0.00     0.209 HD
ENDBRANCH  25  26
ENDBRANCH  24  25
ENDBRANCH  23  24
ENDBRANCH   1  23
BRANCH   3  28
HETATM   28  C   UNL     1      -3.002   6.445 -32.799  1.00  0.00     0.010 A 
HETATM   29  C   UNL     1      -2.113   6.978 -33.761  1.00  0.00     0.152 A 
HETATM   30  N   UNL     1      -1.599   8.154 -33.393  1.00  0.00    -0.187 NA
HETATM   31  N   UNL     1      -2.164   8.382 -32.196  1.00  0.00    -0.289 N 
HETATM   32  H   UNL     1      -1.925   9.238 -31.707  1.00  0.00     0.188 HD
HETATM   33  C   UNL     1      -3.010   7.389 -31.794  1.00  0.00     0.123 A 
ENDBRANCH   3  28
TORSDOF 11
ENDMDL
MODEL 5
REMARK VINA RESULT:      -7.1      3.550      7.459
REMARK  11 active torsions:
REMARK  status: ('A' for Active; 'I' for Inactive)
REMARK    1  A    between atoms: O_1  and  C_2 
REMARK    2  A    between atoms: C_2  and  C_3 
REMARK    3  A    between atoms: C_3  and  O_4 
REMARK    4  A    between atoms: O_4  and  C_5 
REMARK    5  A    between atoms: C_7  and  C_25 
REMARK    6  A    between atoms: C_10  and  N_11 
REMARK       I    between atoms: N_11  and  C_12 
REMARK       I    between atoms: C_12  and  N_14 
REMARK    7  A    between atoms: N_14  and  C_15 
REMARK    8  A    between atoms: N_14  and  C_18 
REMARK    9  A    between atoms: C_15  and  C_16 
REMARK   10  A    between atoms: C_16  and  O_17 
REMARK   11  A    between atoms: C_18  and  C_19 
ROOT
HETATM    1  C   UNL     1      -9.571   2.325 -32.775  1.00  0.00     0.096 A 
HETATM    2  C   UNL     1     -10.930   2.385 -33.109  1.00  0.00     0.051 A 
HETATM    3  C   UNL     1     -11.676   1.211 -33.296  1.00  0.00    -0.020 A 
HETATM    4  C   UNL     1     -11.040  -0.029 -33.182  1.00  0.00     0.015 A 
HETATM    5  C   UNL     1      -9.688  -0.101 -32.841  1.00  0.00     0.033 A 
HETATM    6  C   UNL     1      -8.969   1.069 -32.579  1.00  0.00     0.069 A 
ENDROOT
BRANCH   6   7
HETATM    7  N   UNL     1      -7.637   0.928 -32.120  1.00  0.00    -0.306 N 
HETATM    8  C   UNL     1      -6.730   0.154 -32.827  1.00  0.00     0.323 C 
HETATM    9  O   UNL     1      -6.988  -0.420 -33.883  1.00  0.00    -0.247 OA
HETATM   10  N   UNL     1      -5.440   0.164 -32.297  1.00  0.00    -0.328 N 
HETATM   11  H   UNL     1      -7.209   1.778 -31.766  1.00  0.00     0.171 HD
BRANCH  10  12
HETATM   12  C   UNL     1      -5.111   0.635 -30.945  1.00  0.00     0.153 C 
BRANCH  12  13
HETATM   13  C   UNL     1      -3.737   1.305 -30.878  1.00  0.00     0.184 C 
BRANCH  13  14
HETATM   14  O   UNL     1      -3.869   2.727 -30.855  1.00  0.00    -0.399 OA
HETATM   15  H   UNL     1      -2.975   3.081 -31.033  1.00  0.00     0.209 HD
ENDBRANCH  13  14
ENDBRANCH  12  13
ENDBRANCH  10  12
BRANCH  10  16
HETATM   16  C   UNL     1      -4.346  -0.301 -33.147  1.00  0.00     0.166 C 
BRANCH  16  17
HETATM   17  C   UNL     1      -4.069  -1.785 -33.096  1.00  0.00    -0.040 A 
HETATM   18  C   UNL     1      -4.429  -2.647 -34.140  1.00  0.00     0.009 A 
HETATM   19  C   UNL     1      -4.094  -4.002 -34.092  1.00  0.00     0.001 A 
HETATM   20  C   UNL     1      -3.379  -4.508 -33.009  1.00  0.00     0.000 A 
HETATM   21  C   UNL     1      -2.995  -3.660 -31.973  1.00  0.00     0.001 A 
HETATM   22  C   UNL     1      -3.335  -2.307 -32.018  1.00  0.00     0.009 A 
ENDBRANCH  16  17
ENDBRANCH  10  16
ENDBRANCH   6   7
BRANCH   1  23
HETATM   23  O   UNL     1      -8.763   3.429 -32.657  1.00  0.00    -0.347 OA
BRANCH  23  24
HETATM   24  C   UNL     1      -8.155   3.909 -33.854  1.00  0.00     0.201 C 
BRANCH  24  25
HETATM   25  C   UNL     1      -6.648   3.981 -33.636  1.00  0.00     0.190 C 
BRANCH  25  26
HETATM   26  O   UNL     1      -6.098   5.072 -34.366  1.00  0.00    -0.399 OA
HETATM   27  H   UNL     1      -6.785   5.370 -34.987  1.00  0.00     0.209 HD
ENDBRANCH  25  26
ENDBRANCH  24  25
ENDBRANCH  23  24
ENDBRANCH   1  23
BRANCH   3  28
HETATM   28  C   UNL     1     -13.097   1.270 -33.582  1.00  0.00     0.010 A 
HETATM   29  C   UNL     1     -13.910   0.438 -34.385  1.00  0.00     0.152 A 
HETATM   30  N   UNL     1     -15.188   0.825 -34.401  1.00  0.00    -0.187 NA
HETATM   31  N   UNL     1     -15.198   1.903 -33.600  1.00  0.00    -0.289 N 
HETATM   32  H   UNL     1     -16.081   2.381 -33.450  1.00  0.00     0.188 HD
HETATM   33  C   UNL     1     -13.973   2.212 -33.086  1.00  0.00     0.123 A 
ENDBRANCH   3  28
TORSDOF 11
ENDMDL
MODEL 6
REMARK VINA RESULT:      -7.1      2.206      4.150
REMARK  11 active torsions:
REMARK  status: ('A' for Active; 'I' for Inactive)
REMARK    1  A    between atoms: O_1  and  C_2 
REMARK    2  A    between atoms: C_2  and  C_3 
REMARK    3  A    between atoms: C_3  and  O_4 
REMARK    4  A    between atoms: O_4  and  C_5 
REMARK    5  A    between atoms: C_7  and  C_25 
REMARK    6  A    between atoms: C_10  and  N_11 
REMARK       I    between atoms: N_11  and  C_12 
REMARK       I    between atoms: C_12  and  N_14 
REMARK    7  A    between atoms: N_14  and  C_15 
REMARK    8  A    between atoms: N_14  and  C_18 
REMARK    9  A    between atoms: C_15  and  C_16 
REMARK   10  A    between atoms: C_16  and  O_17 
REMARK   11  A    between atoms: C_18  and  C_19 
ROOT
HETATM    1  C   UNL     1      -6.180   0.145 -34.128  1.00  0.00     0.096 A 
HETATM    2  C   UNL     1      -5.997  -1.202 -34.464  1.00  0.00     0.051 A 
HETATM    3  C   UNL     1      -5.008  -1.971 -33.832  1.00  0.00    -0.020 A 
HETATM    4  C   UNL     1      -4.175  -1.369 -32.883  1.00  0.00     0.015 A 
HETATM    5  C   UNL     1      -4.355  -0.029 -32.534  1.00  0.00     0.033 A 
HETATM    6  C   UNL     1      -5.393   0.711 -33.110  1.00  0.00     0.069 A 
ENDROOT
BRANCH   6   7
HETATM    7  N   UNL     1      -5.602   2.025 -32.627  1.00  0.00    -0.306 N 
HETATM    8  C   UNL     1      -6.618   2.286 -31.721  1.00  0.00     0.323 C 
HETATM    9  O   UNL     1      -7.367   1.428 -31.258  1.00  0.00    -0.247 OA
HETATM   10  N   UNL     1      -6.660   3.608 -31.280  1.00  0.00    -0.328 N 
HETATM   11  H   UNL     1      -4.758   2.543 -32.403  1.00  0.00     0.171 HD
BRANCH  10  12
HETATM   12  C   UNL     1      -5.957   4.717 -31.938  1.00  0.00     0.153 C 
BRANCH  12  13
HETATM   13  C   UNL     1      -6.716   5.248 -33.157  1.00  0.00     0.184 C 
BRANCH  13  14
HETATM   14  O   UNL     1      -6.247   4.625 -34.354  1.00  0.00    -0.399 OA
HETATM   15  H   UNL     1      -6.773   5.013 -35.080  1.00  0.00     0.209 HD
ENDBRANCH  13  14
ENDBRANCH  12  13
ENDBRANCH  10  12
BRANCH  10  16
HETATM   16  C   UNL     1      -7.432   3.905 -30.074  1.00  0.00     0.166 C 
BRANCH  16  17
HETATM   17  C   UNL     1      -8.810   4.478 -30.310  1.00  0.00    -0.040 A 
HETATM   18  C   UNL     1      -9.919   3.666 -30.582  1.00  0.00     0.009 A 
HETATM   19  C   UNL     1     -11.192   4.224 -30.724  1.00  0.00     0.001 A 
HETATM   20  C   UNL     1     -11.374   5.597 -30.576  1.00  0.00     0.000 A 
HETATM   21  C   UNL     1     -10.285   6.415 -30.284  1.00  0.00     0.001 A 
HETATM   22  C   UNL     1      -9.012   5.859 -30.149  1.00  0.00     0.009 A 
ENDBRANCH  16  17
ENDBRANCH  10  16
ENDBRANCH   6   7
BRANCH   1  23
HETATM   23  O   UNL     1      -7.072   0.976 -34.761  1.00  0.00    -0.347 OA
BRANCH  23  24
HETATM   24  C   UNL     1      -8.369   0.444 -35.023  1.00  0.00     0.201 C 
BRANCH  24  25
HETATM   25  C   UNL     1      -9.382   1.191 -34.166  1.00  0.00     0.190 C 
BRANCH  25  26
HETATM   26  O   UNL     1      -9.552   0.532 -32.916  1.00  0.00    -0.399 OA
HETATM   27  H   UNL     1      -9.213   1.135 -32.232  1.00  0.00     0.209 HD
ENDBRANCH  25  26
ENDBRANCH  24  25
ENDBRANCH  23  24
ENDBRANCH   1  23
BRANCH   3  28
HETATM   28  C   UNL     1      -4.856  -3.382 -34.135  1.00  0.00     0.010 A 
HETATM   29  C   UNL     1      -5.695  -4.265 -34.852  1.00  0.00     0.152 A 
HETATM   30  N   UNL     1      -5.205  -5.507 -34.912  1.00  0.00    -0.187 NA
HETATM   31  N   UNL     1      -4.046  -5.419 -34.240  1.00  0.00    -0.289 N 
HETATM   32  H   UNL     1      -3.478  -6.254 -34.151  1.00  0.00     0.188 HD
HETATM   33  C   UNL     1      -3.791  -4.169 -33.753  1.00  0.00     0.123 A 
ENDBRANCH   3  28
TORSDOF 11
ENDMDL
MODEL 7
REMARK VINA RESULT:      -7.0      2.050      3.436
REMARK  11 active torsions:
REMARK  status: ('A' for Active; 'I' for Inactive)
REMARK    1  A    between atoms: O_1  and  C_2 
REMARK    2  A    between atoms: C_2  and  C_3 
REMARK    3  A    between atoms: C_3  and  O_4 
REMARK    4  A    between atoms: O_4  and  C_5 
REMARK    5  A    between atoms: C_7  and  C_25 
REMARK    6  A    between atoms: C_10  and  N_11 
REMARK       I    between atoms: N_11  and  C_12 
REMARK       I    between atoms: C_12  and  N_14 
REMARK    7  A    between atoms: N_14  and  C_15 
REMARK    8  A    between atoms: N_14  and  C_18 
REMARK    9  A    between atoms: C_15  and  C_16 
REMARK   10  A    between atoms: C_16  and  O_17 
REMARK   11  A    between atoms: C_18  and  C_19 
ROOT
HETATM    1  C   UNL     1      -5.529   0.313 -32.908  1.00  0.00     0.096 A 
HETATM    2  C   UNL     1      -5.262  -1.040 -33.153  1.00  0.00     0.051 A 
HETATM    3  C   UNL     1      -5.957  -1.740 -34.151  1.00  0.00    -0.020 A 
HETATM    4  C   UNL     1      -6.952  -1.081 -34.882  1.00  0.00     0.015 A 
HETATM    5  C   UNL     1      -7.220   0.269 -34.652  1.00  0.00     0.033 A 
HETATM    6  C   UNL     1      -6.470   0.982 -33.711  1.00  0.00     0.069 A 
ENDROOT
BRANCH   6   7
HETATM    7  N   UNL     1      -6.704   2.374 -33.609  1.00  0.00    -0.306 N 
HETATM    8  C   UNL     1      -7.594   2.870 -32.669  1.00  0.00     0.323 C 
HETATM    9  O   UNL     1      -8.202   2.172 -31.860  1.00  0.00    -0.247 OA
HETATM   10  N   UNL     1      -7.668   4.262 -32.635  1.00  0.00    -0.328 N 
HETATM   11  H   UNL     1      -5.876   2.958 -33.686  1.00  0.00     0.171 HD
BRANCH  10  12
HETATM   12  C   UNL     1      -7.153   5.138 -33.696  1.00  0.00     0.153 C 
BRANCH  12  13
HETATM   13  C   UNL     1      -5.637   5.330 -33.609  1.00  0.00     0.184 C 
BRANCH  13  14
HETATM   14  O   UNL     1      -4.997   4.832 -34.786  1.00  0.00    -0.399 OA
HETATM   15  H   UNL     1      -5.676   4.860 -35.489  1.00  0.00     0.209 HD
ENDBRANCH  13  14
ENDBRANCH  12  13
ENDBRANCH  10  12
BRANCH  10  16
HETATM   16  C   UNL     1      -8.277   4.888 -31.463  1.00  0.00     0.166 C 
BRANCH  16  17
HETATM   17  C   UNL     1      -7.321   5.615 -30.546  1.00  0.00    -0.040 A 
HETATM   18  C   UNL     1      -7.283   7.013 -30.466  1.00  0.00     0.009 A 
HETATM   19  C   UNL     1      -6.437   7.651 -29.555  1.00  0.00     0.001 A 
HETATM   20  C   UNL     1      -5.636   6.899 -28.699  1.00  0.00     0.000 A 
HETATM   21  C   UNL     1      -5.679   5.507 -28.751  1.00  0.00     0.001 A 
HETATM   22  C   UNL     1      -6.518   4.870 -29.666  1.00  0.00     0.009 A 
ENDBRANCH  16  17
ENDBRANCH  10  16
ENDBRANCH   6   7
BRANCH   1  23
HETATM   23  O   UNL     1      -4.946   1.036 -31.897  1.00  0.00    -0.347 OA
BRANCH  23  24
HETATM   24  C   UNL     1      -4.726   0.353 -30.665  1.00  0.00     0.201 C 
BRANCH  24  25
HETATM   25  C   UNL     1      -6.047   0.276 -29.910  1.00  0.00     0.190 C 
BRANCH  25  26
HETATM   26  O   UNL     1      -6.441   1.573 -29.476  1.00  0.00    -0.399 OA
HETATM   27  H   UNL     1      -5.718   2.180 -29.711  1.00  0.00     0.209 HD
ENDBRANCH  25  26
ENDBRANCH  24  25
ENDBRANCH  23  24
ENDBRANCH   1  23
BRANCH   3  28
HETATM   28  C   UNL     1      -5.641  -3.124 -34.448  1.00  0.00     0.010 A 
HETATM   29  C   UNL     1      -6.411  -4.130 -35.076  1.00  0.00     0.152 A 
HETATM   30  N   UNL     1      -5.764  -5.295 -35.163  1.00  0.00    -0.187 NA
HETATM   31  N   UNL     1      -4.574  -5.036 -34.598  1.00  0.00    -0.289 N 
HETATM   32  H   UNL     1      -3.892  -5.785 -34.549  1.00  0.00     0.188 HD
HETATM   33  C   UNL     1      -4.450  -3.752 -34.152  1.00  0.00     0.123 A 
ENDBRANCH   3  28
TORSDOF 11
ENDMDL
MODEL 8
REMARK VINA RESULT:      -7.0      1.711      3.578
REMARK  11 active torsions:
REMARK  status: ('A' for Active; 'I' for Inactive)
REMARK    1  A    between atoms: O_1  and  C_2 
REMARK    2  A    between atoms: C_2  and  C_3 
REMARK    3  A    between atoms: C_3  and  O_4 
REMARK    4  A    between atoms: O_4  and  C_5 
REMARK    5  A    between atoms: C_7  and  C_25 
REMARK    6  A    between atoms: C_10  and  N_11 
REMARK       I    between atoms: N_11  and  C_12 
REMARK       I    between atoms: C_12  and  N_14 
REMARK    7  A    between atoms: N_14  and  C_15 
REMARK    8  A    between atoms: N_14  and  C_18 
REMARK    9  A    between atoms: C_15  and  C_16 
REMARK   10  A    between atoms: C_16  and  O_17 
REMARK   11  A    between atoms: C_18  and  C_19 
ROOT
HETATM    1  C   UNL     1      -6.024   0.319 -33.911  1.00  0.00     0.096 A 
HETATM    2  C   UNL     1      -6.032  -1.023 -34.314  1.00  0.00     0.051 A 
HETATM    3  C   UNL     1      -5.002  -1.894 -33.927  1.00  0.00    -0.020 A 
HETATM    4  C   UNL     1      -3.940  -1.401 -33.161  1.00  0.00     0.015 A 
HETATM    5  C   UNL     1      -3.927  -0.068 -32.747  1.00  0.00     0.033 A 
HETATM    6  C   UNL     1      -4.995   0.776 -33.069  1.00  0.00     0.069 A 
ENDROOT
BRANCH   6   7
HETATM    7  N   UNL     1      -4.985   2.080 -32.518  1.00  0.00    -0.306 N 
HETATM    8  C   UNL     1      -5.725   2.367 -31.382  1.00  0.00     0.323 C 
HETATM    9  O   UNL     1      -6.395   1.539 -30.767  1.00  0.00    -0.247 OA
HETATM   10  N   UNL     1      -5.563   3.670 -30.912  1.00  0.00    -0.328 N 
HETATM   11  H   UNL     1      -4.077   2.534 -32.499  1.00  0.00     0.171 HD
BRANCH  10  12
HETATM   12  C   UNL     1      -4.967   4.759 -31.699  1.00  0.00     0.153 C 
BRANCH  12  13
HETATM   13  C   UNL     1      -3.525   5.057 -31.284  1.00  0.00     0.184 C 
BRANCH  13  14
HETATM   14  O   UNL     1      -2.635   4.067 -31.804  1.00  0.00    -0.399 OA
HETATM   15  H   UNL     1      -2.341   3.543 -31.034  1.00  0.00     0.209 HD
ENDBRANCH  13  14
ENDBRANCH  12  13
ENDBRANCH  10  12
BRANCH  10  16
HETATM   16  C   UNL     1      -5.990   3.965 -29.546  1.00  0.00     0.166 C 
BRANCH  16  17
HETATM   17  C   UNL     1      -7.117   4.963 -29.419  1.00  0.00    -0.040 A 
HETATM   18  C   UNL     1      -8.277   4.881 -30.201  1.00  0.00     0.009 A 
HETATM   19  C   UNL     1      -9.330   5.777 -30.008  1.00  0.00     0.001 A 
HETATM   20  C   UNL     1      -9.246   6.753 -29.018  1.00  0.00     0.000 A 
HETATM   21  C   UNL     1      -8.109   6.834 -28.217  1.00  0.00     0.001 A 
HETATM   22  C   UNL     1      -7.053   5.943 -28.414  1.00  0.00     0.009 A 
ENDBRANCH  16  17
ENDBRANCH  10  16
ENDBRANCH   6   7
BRANCH   1  23
HETATM   23  O   UNL     1      -6.954   1.244 -34.318  1.00  0.00    -0.347 OA
BRANCH  23  24
HETATM   24  C   UNL     1      -8.251   0.749 -34.643  1.00  0.00     0.201 C 
BRANCH  24  25
HETATM   25  C   UNL     1      -9.122   0.815 -33.395  1.00  0.00     0.190 C 
BRANCH  25  26
HETATM   26  O   UNL     1      -8.814   1.982 -32.641  1.00  0.00    -0.399 OA
HETATM   27  H   UNL     1      -9.645   2.479 -32.543  1.00  0.00     0.209 HD
ENDBRANCH  25  26
ENDBRANCH  24  25
ENDBRANCH  23  24
ENDBRANCH   1  23
BRANCH   3  28
HETATM   28  C   UNL     1      -5.038  -3.298 -34.292  1.00  0.00     0.010 A 
HETATM   29  C   UNL     1      -6.000  -4.035 -35.020  1.00  0.00     0.152 A 
HETATM   30  N   UNL     1      -5.674  -5.324 -35.146  1.00  0.00    -0.187 NA
HETATM   31  N   UNL     1      -4.497  -5.413 -34.506  1.00  0.00    -0.289 N 
HETATM   32  H   UNL     1      -4.037  -6.317 -34.470  1.00  0.00     0.188 HD
HETATM   33  C   UNL     1      -4.073  -4.229 -33.976  1.00  0.00     0.123 A 
ENDBRANCH   3  28
TORSDOF 11
ENDMDL
MODEL 9
REMARK VINA RESULT:      -6.9      3.256      5.481
REMARK  11 active torsions:
REMARK  status: ('A' for Active; 'I' for Inactive)
REMARK    1  A    between atoms: O_1  and  C_2 
REMARK    2  A    between atoms: C_2  and  C_3 
REMARK    3  A    between atoms: C_3  and  O_4 
REMARK    4  A    between atoms: O_4  and  C_5 
REMARK    5  A    between atoms: C_7  and  C_25 
REMARK    6  A    between atoms: C_10  and  N_11 
REMARK       I    between atoms: N_11  and  C_12 
REMARK       I    between atoms: C_12  and  N_14 
REMARK    7  A    between atoms: N_14  and  C_15 
REMARK    8  A    between atoms: N_14  and  C_18 
REMARK    9  A    between atoms: C_15  and  C_16 
REMARK   10  A    between atoms: C_16  and  O_17 
REMARK   11  A    between atoms: C_18  and  C_19 
ROOT
HETATM    1  C   UNL     1      -8.218   0.857 -34.225  1.00  0.00     0.096 A 
HETATM    2  C   UNL     1      -9.584   0.987 -34.510  1.00  0.00     0.051 A 
HETATM    3  C   UNL     1     -10.458   1.574 -33.582  1.00  0.00    -0.020 A 
HETATM    4  C   UNL     1      -9.959   1.998 -32.345  1.00  0.00     0.015 A 
HETATM    5  C   UNL     1      -8.598   1.882 -32.055  1.00  0.00     0.033 A 
HETATM    6  C   UNL     1      -7.719   1.369 -33.014  1.00  0.00     0.069 A 
ENDROOT
BRANCH   6   7
HETATM    7  N   UNL     1      -6.337   1.389 -32.709  1.00  0.00    -0.306 N 
HETATM    8  C   UNL     1      -5.678   2.594 -32.521  1.00  0.00     0.323 C 
HETATM    9  O   UNL     1      -6.225   3.695 -32.569  1.00  0.00    -0.247 OA
HETATM   10  N   UNL     1      -4.339   2.459 -32.156  1.00  0.00    -0.328 N 
HETATM   11  H   UNL     1      -6.031   0.686 -32.042  1.00  0.00     0.171 HD
BRANCH  10  12
HETATM   12  C   UNL     1      -3.572   1.213 -32.291  1.00  0.00     0.153 C 
BRANCH  12  13
HETATM   13  C   UNL     1      -3.282   0.556 -30.940  1.00  0.00     0.184 C 
BRANCH  13  14
HETATM   14  O   UNL     1      -2.158  -0.322 -31.036  1.00  0.00    -0.399 OA
HETATM   15  H   UNL     1      -1.786  -0.377 -30.134  1.00  0.00     0.209 HD
ENDBRANCH  13  14
ENDBRANCH  12  13
ENDBRANCH  10  12
BRANCH  10  16
HETATM   16  C   UNL     1      -3.663   3.621 -31.582  1.00  0.00     0.166 C 
BRANCH  16  17
HETATM   17  C   UNL     1      -2.782   4.395 -32.534  1.00  0.00    -0.040 A 
HETATM   18  C   UNL     1      -3.123   4.584 -33.880  1.00  0.00     0.009 A 
HETATM   19  C   UNL     1      -2.321   5.365 -34.715  1.00  0.00     0.001 A 
HETATM   20  C   UNL     1      -1.179   5.984 -34.210  1.00  0.00     0.000 A 
HETATM   21  C   UNL     1      -0.838   5.823 -32.869  1.00  0.00     0.001 A 
HETATM   22  C   UNL     1      -1.635   5.037 -32.036  1.00  0.00     0.009 A 
ENDBRANCH  16  17
ENDBRANCH  10  16
ENDBRANCH   6   7
BRANCH   1  23
HETATM   23  O   UNL     1      -7.322   0.223 -35.050  1.00  0.00    -0.347 OA
BRANCH  23  24
HETATM   24  C   UNL     1      -7.275  -1.201 -34.970  1.00  0.00     0.201 C 
BRANCH  24  25
HETATM   25  C   UNL     1      -5.852  -1.620 -34.622  1.00  0.00     0.190 C 
BRANCH  25  26
HETATM   26  O   UNL     1      -5.641  -1.524 -33.218  1.00  0.00    -0.399 OA
HETATM   27  H   UNL     1      -5.414  -2.417 -32.907  1.00  0.00     0.209 HD
ENDBRANCH  25  26
ENDBRANCH  24  25
ENDBRANCH  23  24
ENDBRANCH   1  23
BRANCH   3  28
HETATM   28  C   UNL     1     -11.861   1.764 -33.898  1.00  0.00     0.010 A 
HETATM   29  C   UNL     1     -12.790   0.898 -34.519  1.00  0.00     0.152 A 
HETATM   30  N   UNL     1     -14.003   1.444 -34.639  1.00  0.00    -0.187 NA
HETATM   31  N   UNL     1     -13.855   2.659 -34.086  1.00  0.00    -0.289 N 
HETATM   32  H   UNL     1     -14.662   3.274 -34.056  1.00  0.00     0.188 HD
HETATM   33  C   UNL     1     -12.592   2.900 -33.629  1.00  0.00     0.123 A 
ENDBRANCH   3  28
TORSDOF 11
ENDMDL
MODEL 10
REMARK VINA RESULT:      -6.8      2.151      3.452
REMARK  11 active torsions:
REMARK  status: ('A' for Active; 'I' for Inactive)
REMARK    1  A    between atoms: O_1  and  C_2 
REMARK    2  A    between atoms: C_2  and  C_3 
REMARK    3  A    between atoms: C_3  and  O_4 
REMARK    4  A    between atoms: O_4  and  C_5 
REMARK    5  A    between atoms: C_7  and  C_25 
REMARK    6  A    between atoms: C_10  and  N_11 
REMARK       I    between atoms: N_11  and  C_12 
REMARK       I    between atoms: C_12  and  N_14 
REMARK    7  A    between atoms: N_14  and  C_15 
REMARK    8  A    between atoms: N_14  and  C_18 
REMARK    9  A    between atoms: C_15  and  C_16 
REMARK   10  A    between atoms: C_16  and  O_17 
REMARK   11  A    between atoms: C_18  and  C_19 
ROOT
HETATM    1  C   UNL     1      -7.159  -0.080 -33.213  1.00  0.00     0.096 A 
HETATM    2  C   UNL     1      -6.961  -1.378 -33.700  1.00  0.00     0.051 A 
HETATM    3  C   UNL     1      -5.666  -1.888 -33.880  1.00  0.00    -0.020 A 
HETATM    4  C   UNL     1      -4.564  -1.071 -33.601  1.00  0.00     0.015 A 
HETATM    5  C   UNL     1      -4.751   0.221 -33.106  1.00  0.00     0.033 A 
HETATM    6  C   UNL     1      -6.042   0.695 -32.855  1.00  0.00     0.069 A 
ENDROOT
BRANCH   6   7
HETATM    7  N   UNL     1      -6.162   1.964 -32.239  1.00  0.00    -0.306 N 
HETATM    8  C   UNL     1      -6.171   3.118 -33.006  1.00  0.00     0.323 C 
HETATM    9  O   UNL     1      -6.110   3.130 -34.235  1.00  0.00    -0.247 OA
HETATM   10  N   UNL     1      -6.368   4.287 -32.273  1.00  0.00    -0.328 N 
HETATM   11  H   UNL     1      -6.835   2.014 -31.479  1.00  0.00     0.171 HD
BRANCH  10  12
HETATM   12  C   UNL     1      -6.230   4.374 -30.812  1.00  0.00     0.153 C 
BRANCH  12  13
HETATM   13  C   UNL     1      -7.495   3.925 -30.078  1.00  0.00     0.184 C 
BRANCH  13  14
HETATM   14  O   UNL     1      -7.287   2.663 -29.441  1.00  0.00    -0.399 OA
HETATM   15  H   UNL     1      -7.821   2.687 -28.623  1.00  0.00     0.209 HD
ENDBRANCH  13  14
ENDBRANCH  12  13
ENDBRANCH  10  12
BRANCH  10  16
HETATM   16  C   UNL     1      -6.758   5.495 -32.998  1.00  0.00     0.166 C 
BRANCH  16  17
HETATM   17  C   UNL     1      -8.246   5.703 -33.160  1.00  0.00    -0.040 A 
HETATM   18  C   UNL     1      -8.991   5.028 -34.135  1.00  0.00     0.009 A 
HETATM   19  C   UNL     1     -10.377   5.189 -34.211  1.00  0.00     0.001 A 
HETATM   20  C   UNL     1     -11.036   6.012 -33.300  1.00  0.00     0.000 A 
HETATM   21  C   UNL     1     -10.312   6.674 -32.311  1.00  0.00     0.001 A 
HETATM   22  C   UNL     1      -8.927   6.518 -32.240  1.00  0.00     0.009 A 
ENDBRANCH  16  17
ENDBRANCH  10  16
ENDBRANCH   6   7
BRANCH   1  23
HETATM   23  O   UNL     1      -8.393   0.510 -33.089  1.00  0.00    -0.347 OA
BRANCH  23  24
HETATM   24  C   UNL     1      -9.046   0.889 -34.298  1.00  0.00     0.201 C 
BRANCH  24  25
HETATM   25  C   UNL     1     -10.477   1.296 -33.969  1.00  0.00     0.190 C 
BRANCH  25  26
HETATM   26  O   UNL     1     -11.044   0.389 -33.030  1.00  0.00    -0.399 OA
HETATM   27  H   UNL     1     -12.003   0.382 -33.191  1.00  0.00     0.209 HD
ENDBRANCH  25  26
ENDBRANCH  24  25
ENDBRANCH  23  24
ENDBRANCH   1  23
BRANCH   3  28
HETATM   28  C   UNL     1      -5.458  -3.252 -34.327  1.00  0.00     0.010 A 
HETATM   29  C   UNL     1      -6.291  -4.111 -35.080  1.00  0.00     0.152 A 
HETATM   30  N   UNL     1      -5.741  -5.310 -35.289  1.00  0.00    -0.187 NA
HETATM   31  N   UNL     1      -4.549  -5.219 -34.678  1.00  0.00    -0.289 N 
HETATM   32  H   UNL     1      -3.933  -6.024 -34.703  1.00  0.00     0.188 HD
HETATM   33  C   UNL     1      -4.331  -4.008 -34.085  1.00  0.00     0.123 A 
ENDBRANCH   3  28
TORSDOF 11
ENDMDL
