MODEL 1
REMARK VINA RESULT:      -8.3      0.000      0.000
REMARK  7 active torsions:
REMARK  status: ('A' for Active; 'I' for Inactive)
REMARK    1  A    between atoms: C_2  and  C_3 
REMARK    2  A    between atoms: C_3  and  C_4 
REMARK    3  A    between atoms: C_4  and  O_5 
REMARK    4  A    between atoms: O_5  and  C_6 
REMARK    5  A    between atoms: C_9  and  C_10 
REMARK       I    between atoms: C_10  and  N_11 
REMARK    6  A    between atoms: N_11  and  C_12 
REMARK    7  A    between atoms: C_19  and  C_20 
REMARK       I    between atoms: C_20  and  N_21 
ROOT
HETATM    1  C   UNL     1      -5.134   1.848 -31.833  1.00  0.00     0.256 C 
HETATM    2  N   UNL     1      -4.912   1.294 -33.082  1.00  0.00    -0.323 N 
HETATM    3  O   UNL     1      -5.842   1.379 -30.950  1.00  0.00    -0.267 OA
HETATM    4  H   UNL     1      -4.312   1.798 -33.717  1.00  0.00     0.169 HD
ENDROOT
BRANCH   2   5
HETATM    5  C   UNL     1      -5.386   0.053 -33.567  1.00  0.00     0.036 A 
HETATM    6  C   UNL     1      -4.718  -1.164 -33.384  1.00  0.00     0.046 A 
HETATM    7  C   UNL     1      -5.249  -2.346 -33.948  1.00  0.00     0.030 A 
HETATM    8  C   UNL     1      -6.444  -2.271 -34.654  1.00  0.00     0.063 A 
HETATM    9  C   UNL     1      -4.864  -3.718 -34.021  1.00  0.00     0.156 A 
HETATM   10  N   UNL     1      -6.704  -3.549 -35.064  1.00  0.00    -0.277 N 
HETATM   11  C   UNL     1      -7.144  -1.079 -34.846  1.00  0.00     0.034 A 
HETATM   12  H   UNL     1      -7.500  -3.871 -35.602  1.00  0.00     0.189 HD
HETATM   13  N   UNL     1      -5.772  -4.448 -34.709  1.00  0.00    -0.168 NA
HETATM   14  C   UNL     1      -6.583   0.081 -34.298  1.00  0.00     0.032 A 
BRANCH   9  15
HETATM   15  C   UNL     1      -3.652  -4.341 -33.468  1.00  0.00     0.270 C 
HETATM   16  N   UNL     1      -3.121  -5.324 -34.260  1.00  0.00    -0.365 N 
HETATM   17  H   UNL     1      -3.571  -5.533 -35.143  1.00  0.00     0.159 HD
HETATM   18  H   UNL     1      -2.273  -5.788 -33.975  1.00  0.00     0.159 HD
HETATM   19  O   UNL     1      -3.126  -4.031 -32.406  1.00  0.00    -0.266 OA
ENDBRANCH   9  15
ENDBRANCH   2   5
BRANCH   1  20
HETATM   20  C   UNL     1      -4.409   3.127 -31.546  1.00  0.00     0.032 A 
HETATM   21  C   UNL     1      -5.014   4.237 -30.943  1.00  0.00     0.020 A 
HETATM   22  C   UNL     1      -4.289   5.421 -30.745  1.00  0.00     0.038 A 
HETATM   23  C   UNL     1      -2.952   5.501 -31.135  1.00  0.00     0.068 A 
HETATM   24  C   UNL     1      -2.334   4.381 -31.691  1.00  0.00     0.038 A 
HETATM   25  C   UNL     1      -3.055   3.202 -31.899  1.00  0.00     0.020 A 
BRANCH  23  26
HETATM   26  O   UNL     1      -2.146   6.597 -31.002  1.00  0.00    -0.351 OA
BRANCH  26  27
HETATM   27  C   UNL     1      -1.077   6.723 -31.943  1.00  0.00     0.176 C 
BRANCH  27  28
HETATM   28  C   UNL     1       0.216   6.917 -31.151  1.00  0.00     0.030 C 
BRANCH  28  29
HETATM   29  C   UNL     1       0.063   6.668 -29.642  1.00  0.00    -0.021 C 
HETATM   30  C   UNL     1       0.763   7.739 -28.802  1.00  0.00     0.009 C 
HETATM   31  C   UNL     1       0.619   5.288 -29.283  1.00  0.00     0.009 C 
ENDBRANCH  28  29
ENDBRANCH  27  28
ENDBRANCH  26  27
ENDBRANCH  23  26
ENDBRANCH   1  20
TORSDOF 7
ENDMDL
MODEL 2
REMARK VINA RESULT:      -8.2      1.286      2.186
REMARK  7 active torsions:
REMARK  status: ('A' for Active; 'I' for Inactive)
REMARK    1  A    between atoms: C_2  and  C_3 
REMARK    2  A    between atoms: C_3  and  C_4 
REMARK    3  A    between atoms: C_4  and  O_5 
REMARK    4  A    between atoms: O_5  and  C_6 
REMARK    5  A    between atoms: C_9  and  C_10 
REMARK       I    between atoms: C_10  and  N_11 
REMARK    6  A    between atoms: N_11  and  C_12 
REMARK    7  A    between atoms: C_19  and  C_20 
REMARK       I    between atoms: C_20  and  N_21 
ROOT
HETATM    1  C   UNL     1      -5.338   1.639 -31.895  1.00  0.00     0.256 C 
HETATM    2  N   UNL     1      -5.035   1.038 -33.105  1.00  0.00    -0.323 N 
HETATM    3  O   UNL     1      -6.115   1.212 -31.050  1.00  0.00    -0.267 OA
HETATM    4  H   UNL     1      -4.383   1.510 -33.712  1.00  0.00     0.169 HD
ENDROOT
BRANCH   2   5
HETATM    5  C   UNL     1      -5.491  -0.214 -33.578  1.00  0.00     0.036 A 
HETATM    6  C   UNL     1      -4.779  -1.411 -33.434  1.00  0.00     0.046 A 
HETATM    7  C   UNL     1      -5.298  -2.605 -33.984  1.00  0.00     0.030 A 
HETATM    8  C   UNL     1      -6.524  -2.562 -34.638  1.00  0.00     0.063 A 
HETATM    9  C   UNL     1      -4.875  -3.964 -34.084  1.00  0.00     0.156 A 
HETATM   10  N   UNL     1      -6.762  -3.845 -35.047  1.00  0.00    -0.277 N 
HETATM   11  C   UNL     1      -7.267  -1.391 -34.791  1.00  0.00     0.034 A 
HETATM   12  H   UNL     1      -7.571  -4.187 -35.552  1.00  0.00     0.189 HD
HETATM   13  N   UNL     1      -5.789  -4.717 -34.738  1.00  0.00    -0.168 NA
HETATM   14  C   UNL     1      -6.719  -0.218 -34.257  1.00  0.00     0.032 A 
BRANCH   9  15
HETATM   15  C   UNL     1      -3.623  -4.554 -33.589  1.00  0.00     0.270 C 
HETATM   16  N   UNL     1      -2.949  -5.295 -34.521  1.00  0.00    -0.365 N 
HETATM   17  H   UNL     1      -3.336  -5.368 -35.455  1.00  0.00     0.159 HD
HETATM   18  H   UNL     1      -2.065  -5.714 -34.280  1.00  0.00     0.159 HD
HETATM   19  O   UNL     1      -3.179  -4.409 -32.455  1.00  0.00    -0.266 OA
ENDBRANCH   9  15
ENDBRANCH   2   5
BRANCH   1  20
HETATM   20  C   UNL     1      -4.616   2.919 -31.602  1.00  0.00     0.032 A 
HETATM   21  C   UNL     1      -5.266   4.100 -31.219  1.00  0.00     0.020 A 
HETATM   22  C   UNL     1      -4.532   5.276 -31.005  1.00  0.00     0.038 A 
HETATM   23  C   UNL     1      -3.146   5.279 -31.157  1.00  0.00     0.068 A 
HETATM   24  C   UNL     1      -2.492   4.092 -31.490  1.00  0.00     0.038 A 
HETATM   25  C   UNL     1      -3.219   2.920 -31.714  1.00  0.00     0.020 A 
BRANCH  23  26
HETATM   26  O   UNL     1      -2.326   6.358 -30.983  1.00  0.00    -0.351 OA
BRANCH  26  27
HETATM   27  C   UNL     1      -1.443   6.673 -32.063  1.00  0.00     0.176 C 
BRANCH  27  28
HETATM   28  C   UNL     1      -2.286   7.269 -33.191  1.00  0.00     0.030 C 
BRANCH  28  29
HETATM   29  C   UNL     1      -2.253   6.448 -34.491  1.00  0.00    -0.021 C 
HETATM   30  C   UNL     1      -3.493   5.568 -34.655  1.00  0.00     0.009 C 
HETATM   31  C   UNL     1      -0.995   5.577 -34.524  1.00  0.00     0.009 C 
ENDBRANCH  28  29
ENDBRANCH  27  28
ENDBRANCH  26  27
ENDBRANCH  23  26
ENDBRANCH   1  20
TORSDOF 7
ENDMDL
MODEL 3
REMARK VINA RESULT:      -7.7      4.303      5.863
REMARK  7 active torsions:
REMARK  status: ('A' for Active; 'I' for Inactive)
REMARK    1  A    between atoms: C_2  and  C_3 
REMARK    2  A    between atoms: C_3  and  C_4 
REMARK    3  A    between atoms: C_4  and  O_5 
REMARK    4  A    between atoms: O_5  and  C_6 
REMARK    5  A    between atoms: C_9  and  C_10 
REMARK       I    between atoms: C_10  and  N_11 
REMARK    6  A    between atoms: N_11  and  C_12 
REMARK    7  A    between atoms: C_19  and  C_20 
REMARK       I    between atoms: C_20  and  N_21 
ROOT
HETATM    1  C   UNL     1      -6.799   3.735 -33.858  1.00  0.00     0.256 C 
HETATM    2  N   UNL     1      -7.090   2.417 -33.550  1.00  0.00    -0.323 N 
HETATM    3  O   UNL     1      -7.603   4.588 -34.218  1.00  0.00    -0.267 OA
HETATM    4  H   UNL     1      -6.324   1.820 -33.279  1.00  0.00     0.169 HD
ENDROOT
BRANCH   2   5
HETATM    5  C   UNL     1      -8.365   1.806 -33.510  1.00  0.00     0.036 A 
HETATM    6  C   UNL     1      -9.469   2.254 -34.246  1.00  0.00     0.046 A 
HETATM    7  C   UNL     1     -10.715   1.604 -34.102  1.00  0.00     0.030 A 
HETATM    8  C   UNL     1     -10.806   0.513 -33.246  1.00  0.00     0.063 A 
HETATM    9  C   UNL     1     -12.034   1.775 -34.621  1.00  0.00     0.156 A 
HETATM   10  N   UNL     1     -12.107   0.099 -33.321  1.00  0.00    -0.277 N 
HETATM   11  C   UNL     1      -9.725   0.032 -32.506  1.00  0.00     0.034 A 
HETATM   12  H   UNL     1     -12.532  -0.680 -32.831  1.00  0.00     0.189 HD
HETATM   13  N   UNL     1     -12.880   0.838 -34.133  1.00  0.00    -0.168 NA
HETATM   14  C   UNL     1      -8.507   0.709 -32.649  1.00  0.00     0.032 A 
BRANCH   9  15
HETATM   15  C   UNL     1     -12.506   2.811 -35.550  1.00  0.00     0.270 C 
HETATM   16  N   UNL     1     -13.046   3.908 -34.933  1.00  0.00    -0.365 N 
HETATM   17  H   UNL     1     -13.066   3.935 -33.921  1.00  0.00     0.159 HD
HETATM   18  H   UNL     1     -13.370   4.682 -35.490  1.00  0.00     0.159 HD
HETATM   19  O   UNL     1     -12.432   2.745 -36.772  1.00  0.00    -0.266 OA
ENDBRANCH   9  15
ENDBRANCH   2   5
BRANCH   1  20
HETATM   20  C   UNL     1      -5.366   4.142 -33.705  1.00  0.00     0.032 A 
HETATM   21  C   UNL     1      -4.797   5.230 -34.381  1.00  0.00     0.020 A 
HETATM   22  C   UNL     1      -3.435   5.528 -34.227  1.00  0.00     0.038 A 
HETATM   23  C   UNL     1      -2.635   4.752 -33.389  1.00  0.00     0.068 A 
HETATM   24  C   UNL     1      -3.210   3.698 -32.678  1.00  0.00     0.038 A 
HETATM   25  C   UNL     1      -4.564   3.391 -32.836  1.00  0.00     0.020 A 
BRANCH  23  26
HETATM   26  O   UNL     1      -1.300   4.937 -33.164  1.00  0.00    -0.351 OA
BRANCH  26  27
HETATM   27  C   UNL     1      -0.860   6.288 -32.997  1.00  0.00     0.176 C 
BRANCH  27  28
HETATM   28  C   UNL     1      -0.937   6.619 -31.507  1.00  0.00     0.030 C 
BRANCH  28  29
HETATM   29  C   UNL     1       0.406   6.483 -30.770  1.00  0.00    -0.021 C 
HETATM   30  C   UNL     1       0.693   5.041 -30.347  1.00  0.00     0.009 C 
HETATM   31  C   UNL     1       0.418   7.393 -29.540  1.00  0.00     0.009 C 
ENDBRANCH  28  29
ENDBRANCH  27  28
ENDBRANCH  26  27
ENDBRANCH  23  26
ENDBRANCH   1  20
TORSDOF 7
ENDMDL
MODEL 4
REMARK VINA RESULT:      -7.6      6.311     10.079
REMARK  7 active torsions:
REMARK  status: ('A' for Active; 'I' for Inactive)
REMARK    1  A    between atoms: C_2  and  C_3 
REMARK    2  A    between atoms: C_3  and  C_4 
REMARK    3  A    between atoms: C_4  and  O_5 
REMARK    4  A    between atoms: O_5  and  C_6 
REMARK    5  A    between atoms: C_9  and  C_10 
REMARK       I    between atoms: C_10  and  N_11 
REMARK    6  A    between atoms: N_11  and  C_12 
REMARK    7  A    between atoms: C_19  and  C_20 
REMARK       I    between atoms: C_20  and  N_21 
ROOT
HETATM    1  C   UNL     1      -9.844   1.456 -32.800  1.00  0.00     0.256 C 
HETATM    2  N   UNL     1     -10.878   0.928 -33.554  1.00  0.00    -0.323 N 
HETATM    3  O   UNL     1      -9.943   2.332 -31.950  1.00  0.00    -0.267 OA
HETATM    4  H   UNL     1     -10.648   0.216 -34.230  1.00  0.00     0.169 HD
ENDROOT
BRANCH   2   5
HETATM    5  C   UNL     1     -12.256   1.229 -33.449  1.00  0.00     0.036 A 
HETATM    6  C   UNL     1     -12.760   2.377 -32.826  1.00  0.00     0.046 A 
HETATM    7  C   UNL     1     -14.158   2.564 -32.731  1.00  0.00     0.030 A 
HETATM    8  C   UNL     1     -15.000   1.608 -33.284  1.00  0.00     0.063 A 
HETATM    9  C   UNL     1     -15.031   3.538 -32.159  1.00  0.00     0.156 A 
HETATM   10  N   UNL     1     -16.268   2.060 -33.046  1.00  0.00    -0.277 N 
HETATM   11  C   UNL     1     -14.534   0.458 -33.923  1.00  0.00     0.034 A 
HETATM   12  H   UNL     1     -17.138   1.616 -33.317  1.00  0.00     0.189 HD
HETATM   13  N   UNL     1     -16.329   3.215 -32.365  1.00  0.00    -0.168 NA
HETATM   14  C   UNL     1     -13.146   0.285 -33.983  1.00  0.00     0.032 A 
BRANCH   9  15
HETATM   15  C   UNL     1     -14.661   4.750 -31.414  1.00  0.00     0.270 C 
HETATM   16  N   UNL     1     -15.149   5.908 -31.956  1.00  0.00    -0.365 N 
HETATM   17  H   UNL     1     -15.722   5.850 -32.790  1.00  0.00     0.159 HD
HETATM   18  H   UNL     1     -14.969   6.787 -31.498  1.00  0.00     0.159 HD
HETATM   19  O   UNL     1     -13.988   4.765 -30.389  1.00  0.00    -0.266 OA
ENDBRANCH   9  15
ENDBRANCH   2   5
BRANCH   1  20
HETATM   20  C   UNL     1      -8.489   0.866 -33.046  1.00  0.00     0.032 A 
HETATM   21  C   UNL     1      -7.662   0.381 -32.023  1.00  0.00     0.020 A 
HETATM   22  C   UNL     1      -6.385  -0.117 -32.319  1.00  0.00     0.038 A 
HETATM   23  C   UNL     1      -5.929  -0.148 -33.636  1.00  0.00     0.068 A 
HETATM   24  C   UNL     1      -6.770   0.288 -34.661  1.00  0.00     0.038 A 
HETATM   25  C   UNL     1      -8.039   0.795 -34.370  1.00  0.00     0.020 A 
BRANCH  23  26
HETATM   26  O   UNL     1      -4.707  -0.601 -34.048  1.00  0.00    -0.351 OA
BRANCH  26  27
HETATM   27  C   UNL     1      -4.427  -1.985 -33.820  1.00  0.00     0.176 C 
BRANCH  27  28
HETATM   28  C   UNL     1      -5.086  -2.782 -34.946  1.00  0.00     0.030 C 
BRANCH  28  29
HETATM   29  C   UNL     1      -5.679  -4.126 -34.492  1.00  0.00    -0.021 C 
HETATM   30  C   UNL     1      -4.598  -5.171 -34.207  1.00  0.00     0.009 C 
HETATM   31  C   UNL     1      -6.641  -4.657 -35.557  1.00  0.00     0.009 C 
ENDBRANCH  28  29
ENDBRANCH  27  28
ENDBRANCH  26  27
ENDBRANCH  23  26
ENDBRANCH   1  20
TORSDOF 7
ENDMDL
MODEL 5
REMARK VINA RESULT:      -7.5      5.797      8.453
REMARK  7 active torsions:
REMARK  status: ('A' for Active; 'I' for Inactive)
REMARK    1  A    between atoms: C_2  and  C_3 
REMARK    2  A    between atoms: C_3  and  C_4 
REMARK    3  A    between atoms: C_4  and  O_5 
REMARK    4  A    between atoms: O_5  and  C_6 
REMARK    5  A    between atoms: C_9  and  C_10 
REMARK       I    between atoms: C_10  and  N_11 
REMARK    6  A    between atoms: N_11  and  C_12 
REMARK    7  A    between atoms: C_19  and  C_20 
REMARK       I    between atoms: C_20  and  N_21 
ROOT
HETATM    1  C   UNL     1      -0.427   6.888 -29.669  1.00  0.00     0.256 C 
HETATM    2  N   UNL     1      -1.233   7.553 -30.578  1.00  0.00    -0.323 N 
HETATM    3  O   UNL     1      -0.089   5.712 -29.727  1.00  0.00    -0.267 OA
HETATM    4  H   UNL     1      -1.440   8.523 -30.398  1.00  0.00     0.169 HD
ENDROOT
BRANCH   2   5
HETATM    5  C   UNL     1      -1.763   7.044 -31.786  1.00  0.00     0.036 A 
HETATM    6  C   UNL     1      -3.086   6.610 -31.938  1.00  0.00     0.046 A 
HETATM    7  C   UNL     1      -3.508   6.072 -33.174  1.00  0.00     0.030 A 
HETATM    8  C   UNL     1      -2.599   6.010 -34.223  1.00  0.00     0.063 A 
HETATM    9  C   UNL     1      -4.710   5.505 -33.696  1.00  0.00     0.156 A 
HETATM   10  N   UNL     1      -3.287   5.462 -35.269  1.00  0.00    -0.277 N 
HETATM   11  C   UNL     1      -1.277   6.444 -34.113  1.00  0.00     0.034 A 
HETATM   12  H   UNL     1      -2.938   5.274 -36.202  1.00  0.00     0.189 HD
HETATM   13  N   UNL     1      -4.559   5.138 -34.989  1.00  0.00    -0.168 NA
HETATM   14  C   UNL     1      -0.877   6.951 -32.870  1.00  0.00     0.032 A 
BRANCH   9  15
HETATM   15  C   UNL     1      -5.983   5.294 -32.992  1.00  0.00     0.270 C 
HETATM   16  N   UNL     1      -6.858   6.341 -33.096  1.00  0.00    -0.365 N 
HETATM   17  H   UNL     1      -6.585   7.149 -33.643  1.00  0.00     0.159 HD
HETATM   18  H   UNL     1      -7.768   6.274 -32.668  1.00  0.00     0.159 HD
HETATM   19  O   UNL     1      -6.279   4.282 -32.366  1.00  0.00    -0.266 OA
ENDBRANCH   9  15
ENDBRANCH   2   5
BRANCH   1  20
HETATM   20  C   UNL     1       0.090   7.712 -28.530  1.00  0.00     0.032 A 
HETATM   21  C   UNL     1       1.187   7.336 -27.742  1.00  0.00     0.020 A 
HETATM   22  C   UNL     1       1.590   8.133 -26.661  1.00  0.00     0.038 A 
HETATM   23  C   UNL     1       0.912   9.316 -26.366  1.00  0.00     0.068 A 
HETATM   24  C   UNL     1      -0.148   9.717 -27.180  1.00  0.00     0.038 A 
HETATM   25  C   UNL     1      -0.560   8.922 -28.252  1.00  0.00     0.020 A 
BRANCH  23  26
HETATM   26  O   UNL     1       1.205  10.169 -25.340  1.00  0.00    -0.351 OA
BRANCH  26  27
HETATM   27  C   UNL     1       0.782   9.769 -24.033  1.00  0.00     0.176 C 
BRANCH  27  28
HETATM   28  C   UNL     1       1.975   9.934 -23.091  1.00  0.00     0.030 C 
BRANCH  28  29
HETATM   29  C   UNL     1       3.022   8.814 -23.213  1.00  0.00    -0.021 C 
HETATM   30  C   UNL     1       3.443   8.262 -21.850  1.00  0.00     0.009 C 
HETATM   31  C   UNL     1       4.252   9.332 -23.962  1.00  0.00     0.009 C 
ENDBRANCH  28  29
ENDBRANCH  27  28
ENDBRANCH  26  27
ENDBRANCH  23  26
ENDBRANCH   1  20
TORSDOF 7
ENDMDL
MODEL 6
REMARK VINA RESULT:      -7.5      5.290      8.731
REMARK  7 active torsions:
REMARK  status: ('A' for Active; 'I' for Inactive)
REMARK    1  A    between atoms: C_2  and  C_3 
REMARK    2  A    between atoms: C_3  and  C_4 
REMARK    3  A    between atoms: C_4  and  O_5 
REMARK    4  A    between atoms: O_5  and  C_6 
REMARK    5  A    between atoms: C_9  and  C_10 
REMARK       I    between atoms: C_10  and  N_11 
REMARK    6  A    between atoms: N_11  and  C_12 
REMARK    7  A    between atoms: C_19  and  C_20 
REMARK       I    between atoms: C_20  and  N_21 
ROOT
HETATM    1  C   UNL     1      -8.395   1.696 -33.562  1.00  0.00     0.256 C 
HETATM    2  N   UNL     1      -8.031   0.759 -32.610  1.00  0.00    -0.323 N 
HETATM    3  O   UNL     1      -7.631   2.387 -34.226  1.00  0.00    -0.267 OA
HETATM    4  H   UNL     1      -8.769   0.270 -32.129  1.00  0.00     0.169 HD
ENDROOT
BRANCH   2   5
HETATM    5  C   UNL     1      -6.721   0.352 -32.264  1.00  0.00     0.036 A 
HETATM    6  C   UNL     1      -6.065  -0.742 -32.841  1.00  0.00     0.046 A 
HETATM    7  C   UNL     1      -4.773  -1.098 -32.393  1.00  0.00     0.030 A 
HETATM    8  C   UNL     1      -4.173  -0.330 -31.402  1.00  0.00     0.063 A 
HETATM    9  C   UNL     1      -3.827  -2.128 -32.683  1.00  0.00     0.156 A 
HETATM   10  N   UNL     1      -2.950  -0.903 -31.189  1.00  0.00    -0.277 N 
HETATM   11  C   UNL     1      -4.791   0.774 -30.814  1.00  0.00     0.034 A 
HETATM   12  H   UNL     1      -2.237  -0.601 -30.535  1.00  0.00     0.189 HD
HETATM   13  N   UNL     1      -2.708  -1.992 -31.936  1.00  0.00    -0.168 NA
HETATM   14  C   UNL     1      -6.081   1.091 -31.258  1.00  0.00     0.032 A 
BRANCH   9  15
HETATM   15  C   UNL     1      -3.972  -3.237 -33.637  1.00  0.00     0.270 C 
HETATM   16  N   UNL     1      -3.450  -4.422 -33.196  1.00  0.00    -0.365 N 
HETATM   17  H   UNL     1      -3.032  -4.456 -32.273  1.00  0.00     0.159 HD
HETATM   18  H   UNL     1      -3.529  -5.246 -33.771  1.00  0.00     0.159 HD
HETATM   19  O   UNL     1      -4.515  -3.153 -34.733  1.00  0.00    -0.266 OA
ENDBRANCH   9  15
ENDBRANCH   2   5
BRANCH   1  20
HETATM   20  C   UNL     1      -9.866   1.844 -33.805  1.00  0.00     0.032 A 
HETATM   21  C   UNL     1     -10.437   2.968 -34.417  1.00  0.00     0.020 A 
HETATM   22  C   UNL     1     -11.828   3.061 -34.572  1.00  0.00     0.038 A 
HETATM   23  C   UNL     1     -12.657   2.030 -34.131  1.00  0.00     0.068 A 
HETATM   24  C   UNL     1     -12.086   0.889 -33.567  1.00  0.00     0.038 A 
HETATM   25  C   UNL     1     -10.702   0.795 -33.400  1.00  0.00     0.020 A 
BRANCH  23  26
HETATM   26  O   UNL     1     -14.020   2.008 -34.220  1.00  0.00    -0.351 OA
BRANCH  26  27
HETATM   27  C   UNL     1     -14.707   1.141 -33.314  1.00  0.00     0.176 C 
BRANCH  27  28
HETATM   28  C   UNL     1     -15.457   2.019 -32.312  1.00  0.00     0.030 C 
BRANCH  28  29
HETATM   29  C   UNL     1     -14.941   3.466 -32.246  1.00  0.00    -0.021 C 
HETATM   30  C   UNL     1     -13.876   3.655 -31.164  1.00  0.00     0.009 C 
HETATM   31  C   UNL     1     -16.108   4.423 -31.993  1.00  0.00     0.009 C 
ENDBRANCH  28  29
ENDBRANCH  27  28
ENDBRANCH  26  27
ENDBRANCH  23  26
ENDBRANCH   1  20
TORSDOF 7
ENDMDL
MODEL 7
REMARK VINA RESULT:      -7.5      2.297      4.003
REMARK  7 active torsions:
REMARK  status: ('A' for Active; 'I' for Inactive)
REMARK    1  A    between atoms: C_2  and  C_3 
REMARK    2  A    between atoms: C_3  and  C_4 
REMARK    3  A    between atoms: C_4  and  O_5 
REMARK    4  A    between atoms: O_5  and  C_6 
REMARK    5  A    between atoms: C_9  and  C_10 
REMARK       I    between atoms: C_10  and  N_11 
REMARK    6  A    between atoms: N_11  and  C_12 
REMARK    7  A    between atoms: C_19  and  C_20 
REMARK       I    between atoms: C_20  and  N_21 
ROOT
HETATM    1  C   UNL     1      -2.259   4.270 -32.065  1.00  0.00     0.256 C 
HETATM    2  N   UNL     1      -3.070   3.462 -31.286  1.00  0.00    -0.323 N 
HETATM    3  O   UNL     1      -2.216   4.285 -33.289  1.00  0.00    -0.267 OA
HETATM    4  H   UNL     1      -2.992   3.547 -30.284  1.00  0.00     0.169 HD
ENDROOT
BRANCH   2   5
HETATM    5  C   UNL     1      -4.058   2.554 -31.732  1.00  0.00     0.036 A 
HETATM    6  C   UNL     1      -3.827   1.190 -31.948  1.00  0.00     0.046 A 
HETATM    7  C   UNL     1      -4.869   0.373 -32.441  1.00  0.00     0.030 A 
HETATM    8  C   UNL     1      -6.113   0.945 -32.675  1.00  0.00     0.063 A 
HETATM    9  C   UNL     1      -5.016  -0.996 -32.817  1.00  0.00     0.156 A 
HETATM   10  N   UNL     1      -6.902  -0.074 -33.131  1.00  0.00    -0.277 N 
HETATM   11  C   UNL     1      -6.385   2.297 -32.460  1.00  0.00     0.034 A 
HETATM   12  H   UNL     1      -7.878  -0.023 -33.396  1.00  0.00     0.189 HD
HETATM   13  N   UNL     1      -6.276  -1.258 -33.237  1.00  0.00    -0.168 NA
HETATM   14  C   UNL     1      -5.328   3.090 -31.995  1.00  0.00     0.032 A 
BRANCH   9  15
HETATM   15  C   UNL     1      -3.989  -2.047 -32.801  1.00  0.00     0.270 C 
HETATM   16  N   UNL     1      -4.073  -2.924 -33.849  1.00  0.00    -0.365 N 
HETATM   17  H   UNL     1      -4.797  -2.783 -34.543  1.00  0.00     0.159 HD
HETATM   18  H   UNL     1      -3.393  -3.662 -33.936  1.00  0.00     0.159 HD
HETATM   19  O   UNL     1      -3.112  -2.158 -31.952  1.00  0.00    -0.266 OA
ENDBRANCH   9  15
ENDBRANCH   2   5
BRANCH   1  20
HETATM   20  C   UNL     1      -1.379   5.226 -31.319  1.00  0.00     0.032 A 
HETATM   21  C   UNL     1       0.007   5.307 -31.510  1.00  0.00     0.020 A 
HETATM   22  C   UNL     1       0.778   6.194 -30.745  1.00  0.00     0.038 A 
HETATM   23  C   UNL     1       0.171   7.015 -29.795  1.00  0.00     0.068 A 
HETATM   24  C   UNL     1      -1.215   6.972 -29.639  1.00  0.00     0.038 A 
HETATM   25  C   UNL     1      -1.986   6.083 -30.391  1.00  0.00     0.020 A 
BRANCH  23  26
HETATM   26  O   UNL     1       0.814   7.911 -28.987  1.00  0.00    -0.351 OA
BRANCH  26  27
HETATM   27  C   UNL     1       0.996   7.526 -27.621  1.00  0.00     0.176 C 
BRANCH  27  28
HETATM   28  C   UNL     1       1.855   8.598 -26.950  1.00  0.00     0.030 C 
BRANCH  28  29
HETATM   29  C   UNL     1       1.724   8.629 -25.418  1.00  0.00    -0.021 C 
HETATM   30  C   UNL     1       0.549   9.491 -24.953  1.00  0.00     0.009 C 
HETATM   31  C   UNL     1       3.022   9.148 -24.796  1.00  0.00     0.009 C 
ENDBRANCH  28  29
ENDBRANCH  27  28
ENDBRANCH  26  27
ENDBRANCH  23  26
ENDBRANCH   1  20
TORSDOF 7
ENDMDL
MODEL 8
REMARK VINA RESULT:      -7.4     16.263     18.587
REMARK  7 active torsions:
REMARK  status: ('A' for Active; 'I' for Inactive)
REMARK    1  A    between atoms: C_2  and  C_3 
REMARK    2  A    between atoms: C_3  and  C_4 
REMARK    3  A    between atoms: C_4  and  O_5 
REMARK    4  A    between atoms: O_5  and  C_6 
REMARK    5  A    between atoms: C_9  and  C_10 
REMARK       I    between atoms: C_10  and  N_11 
REMARK    6  A    between atoms: N_11  and  C_12 
REMARK    7  A    between atoms: C_19  and  C_20 
REMARK       I    between atoms: C_20  and  N_21 
ROOT
HETATM    1  C   UNL     1      -3.971 -12.914 -38.628  1.00  0.00     0.256 C 
HETATM    2  N   UNL     1      -3.335 -14.042 -39.120  1.00  0.00    -0.323 N 
HETATM    3  O   UNL     1      -3.484 -12.082 -37.872  1.00  0.00    -0.267 OA
HETATM    4  H   UNL     1      -3.863 -14.649 -39.728  1.00  0.00     0.169 HD
ENDROOT
BRANCH   2   5
HETATM    5  C   UNL     1      -1.988 -14.424 -38.919  1.00  0.00     0.036 A 
HETATM    6  C   UNL     1      -1.513 -15.023 -37.746  1.00  0.00     0.046 A 
HETATM    7  C   UNL     1      -0.138 -15.325 -37.622  1.00  0.00     0.030 A 
HETATM    8  C   UNL     1       0.708 -15.039 -38.687  1.00  0.00     0.063 A 
HETATM    9  C   UNL     1       0.711 -15.875 -36.615  1.00  0.00     0.156 A 
HETATM   10  N   UNL     1       1.950 -15.442 -38.283  1.00  0.00    -0.277 N 
HETATM   11  C   UNL     1       0.269 -14.454 -39.875  1.00  0.00     0.034 A 
HETATM   12  H   UNL     1       2.814 -15.391 -38.810  1.00  0.00     0.189 HD
HETATM   13  N   UNL     1       1.994 -15.944 -37.038  1.00  0.00    -0.168 NA
HETATM   14  C   UNL     1      -1.094 -14.143 -39.962  1.00  0.00     0.032 A 
BRANCH   9  15
HETATM   15  C   UNL     1       0.333 -16.317 -35.265  1.00  0.00     0.270 C 
HETATM   16  N   UNL     1       1.134 -15.822 -34.272  1.00  0.00    -0.365 N 
HETATM   17  H   UNL     1       1.890 -15.196 -34.525  1.00  0.00     0.159 HD
HETATM   18  H   UNL     1       0.934 -16.048 -33.311  1.00  0.00     0.159 HD
HETATM   19  O   UNL     1      -0.613 -17.052 -35.007  1.00  0.00    -0.266 OA
ENDBRANCH   9  15
ENDBRANCH   2   5
BRANCH   1  20
HETATM   20  C   UNL     1      -5.376 -12.698 -39.100  1.00  0.00     0.032 A 
HETATM   21  C   UNL     1      -5.720 -12.546 -40.450  1.00  0.00     0.020 A 
HETATM   22  C   UNL     1      -7.051 -12.301 -40.820  1.00  0.00     0.038 A 
HETATM   23  C   UNL     1      -8.048 -12.219 -39.848  1.00  0.00     0.068 A 
HETATM   24  C   UNL     1      -7.714 -12.420 -38.508  1.00  0.00     0.038 A 
HETATM   25  C   UNL     1      -6.389 -12.655 -38.134  1.00  0.00     0.020 A 
BRANCH  23  26
HETATM   26  O   UNL     1      -9.373 -11.979 -40.081  1.00  0.00    -0.351 OA
BRANCH  26  27
HETATM   27  C   UNL     1     -10.304 -12.877 -39.472  1.00  0.00     0.176 C 
BRANCH  27  28
HETATM   28  C   UNL     1     -10.897 -13.750 -40.578  1.00  0.00     0.030 C 
BRANCH  28  29
HETATM   29  C   UNL     1     -10.170 -15.091 -40.768  1.00  0.00    -0.021 C 
HETATM   30  C   UNL     1     -11.092 -16.178 -41.324  1.00  0.00     0.009 C 
HETATM   31  C   UNL     1      -9.575 -15.553 -39.436  1.00  0.00     0.009 C 
ENDBRANCH  28  29
ENDBRANCH  27  28
ENDBRANCH  26  27
ENDBRANCH  23  26
ENDBRANCH   1  20
TORSDOF 7
ENDMDL
MODEL 9
REMARK VINA RESULT:      -7.3      2.948      4.668
REMARK  7 active torsions:
REMARK  status: ('A' for Active; 'I' for Inactive)
REMARK    1  A    between atoms: C_2  and  C_3 
REMARK    2  A    between atoms: C_3  and  C_4 
REMARK    3  A    between atoms: C_4  and  O_5 
REMARK    4  A    between atoms: O_5  and  C_6 
REMARK    5  A    between atoms: C_9  and  C_10 
REMARK       I    between atoms: C_10  and  N_11 
REMARK    6  A    between atoms: N_11  and  C_12 
REMARK    7  A    between atoms: C_19  and  C_20 
REMARK       I    between atoms: C_20  and  N_21 
ROOT
HETATM    1  C   UNL     1      -2.512   4.038 -32.025  1.00  0.00     0.256 C 
HETATM    2  N   UNL     1      -3.174   3.042 -31.327  1.00  0.00    -0.323 N 
HETATM    3  O   UNL     1      -2.443   4.143 -33.244  1.00  0.00    -0.267 OA
HETATM    4  H   UNL     1      -3.137   3.074 -30.319  1.00  0.00     0.169 HD
ENDROOT
BRANCH   2   5
HETATM    5  C   UNL     1      -3.963   1.999 -31.862  1.00  0.00     0.036 A 
HETATM    6  C   UNL     1      -5.361   2.037 -31.941  1.00  0.00     0.046 A 
HETATM    7  C   UNL     1      -6.063   0.921 -32.450  1.00  0.00     0.030 A 
HETATM    8  C   UNL     1      -5.341  -0.182 -32.886  1.00  0.00     0.063 A 
HETATM    9  C   UNL     1      -7.432   0.566 -32.647  1.00  0.00     0.156 A 
HETATM   10  N   UNL     1      -6.275  -1.080 -33.323  1.00  0.00    -0.277 N 
HETATM   11  C   UNL     1      -3.948  -0.251 -32.835  1.00  0.00     0.034 A 
HETATM   12  H   UNL     1      -6.107  -1.998 -33.716  1.00  0.00     0.189 HD
HETATM   13  N   UNL     1      -7.547  -0.668 -33.188  1.00  0.00    -0.168 NA
HETATM   14  C   UNL     1      -3.277   0.857 -32.304  1.00  0.00     0.032 A 
BRANCH   9  15
HETATM   15  C   UNL     1      -8.623   1.363 -32.317  1.00  0.00     0.270 C 
HETATM   16  N   UNL     1      -9.275   0.948 -31.188  1.00  0.00    -0.365 N 
HETATM   17  H   UNL     1      -8.898   0.164 -30.669  1.00  0.00     0.159 HD
HETATM   18  H   UNL     1     -10.087   1.453 -30.869  1.00  0.00     0.159 HD
HETATM   19  O   UNL     1      -9.023   2.326 -32.962  1.00  0.00    -0.266 OA
ENDBRANCH   9  15
ENDBRANCH   2   5
BRANCH   1  20
HETATM   20  C   UNL     1      -1.845   5.089 -31.191  1.00  0.00     0.032 A 
HETATM   21  C   UNL     1      -2.520   6.199 -30.667  1.00  0.00     0.020 A 
HETATM   22  C   UNL     1      -1.825   7.170 -29.932  1.00  0.00     0.038 A 
HETATM   23  C   UNL     1      -0.456   7.034 -29.703  1.00  0.00     0.068 A 
HETATM   24  C   UNL     1       0.208   5.904 -30.182  1.00  0.00     0.038 A 
HETATM   25  C   UNL     1      -0.478   4.939 -30.923  1.00  0.00     0.020 A 
BRANCH  23  26
HETATM   26  O   UNL     1       0.329   7.913 -29.011  1.00  0.00    -0.351 OA
BRANCH  26  27
HETATM   27  C   UNL     1       1.028   7.392 -27.877  1.00  0.00     0.176 C 
BRANCH  27  28
HETATM   28  C   UNL     1       1.705   8.566 -27.171  1.00  0.00     0.030 C 
BRANCH  28  29
HETATM   29  C   UNL     1       1.573   8.530 -25.639  1.00  0.00    -0.021 C 
HETATM   30  C   UNL     1       0.395   9.368 -25.138  1.00  0.00     0.009 C 
HETATM   31  C   UNL     1       2.869   9.026 -24.994  1.00  0.00     0.009 C 
ENDBRANCH  28  29
ENDBRANCH  27  28
ENDBRANCH  26  27
ENDBRANCH  23  26
ENDBRANCH   1  20
TORSDOF 7
ENDMDL
MODEL 10
REMARK VINA RESULT:      -7.2      2.234      3.257
REMARK  7 active torsions:
REMARK  status: ('A' for Active; 'I' for Inactive)
REMARK    1  A    between atoms: C_2  and  C_3 
REMARK    2  A    between atoms: C_3  and  C_4 
REMARK    3  A    between atoms: C_4  and  O_5 
REMARK    4  A    between atoms: O_5  and  C_6 
REMARK    5  A    between atoms: C_9  and  C_10 
REMARK       I    between atoms: C_10  and  N_11 
REMARK    6  A    between atoms: N_11  and  C_12 
REMARK    7  A    between atoms: C_19  and  C_20 
REMARK       I    between atoms: C_20  and  N_21 
ROOT
HETATM    1  C   UNL     1      -2.826   4.455 -32.430  1.00  0.00     0.256 C 
HETATM    2  N   UNL     1      -3.859   3.719 -31.874  1.00  0.00    -0.323 N 
HETATM    3  O   UNL     1      -2.164   4.143 -33.413  1.00  0.00    -0.267 OA
HETATM    4  H   UNL     1      -4.310   4.092 -31.054  1.00  0.00     0.169 HD
ENDROOT
BRANCH   2   5
HETATM    5  C   UNL     1      -4.410   2.512 -32.361  1.00  0.00     0.036 A 
HETATM    6  C   UNL     1      -3.879   1.244 -32.092  1.00  0.00     0.046 A 
HETATM    7  C   UNL     1      -4.476   0.099 -32.665  1.00  0.00     0.030 A 
HETATM    8  C   UNL     1      -5.600   0.261 -33.467  1.00  0.00     0.063 A 
HETATM    9  C   UNL     1      -4.220  -1.305 -32.670  1.00  0.00     0.156 A 
HETATM   10  N   UNL     1      -5.949  -1.001 -33.862  1.00  0.00    -0.277 N 
HETATM   11  C   UNL     1      -6.165   1.506 -33.747  1.00  0.00     0.034 A 
HETATM   12  H   UNL     1      -6.729  -1.265 -34.453  1.00  0.00     0.189 HD
HETATM   13  N   UNL     1      -5.138  -1.970 -33.408  1.00  0.00    -0.168 NA
HETATM   14  C   UNL     1      -5.539   2.626 -33.187  1.00  0.00     0.032 A 
BRANCH   9  15
HETATM   15  C   UNL     1      -3.121  -2.020 -32.005  1.00  0.00     0.270 C 
HETATM   16  N   UNL     1      -2.102  -1.207 -31.585  1.00  0.00    -0.365 N 
HETATM   17  H   UNL     1      -2.182  -0.209 -31.740  1.00  0.00     0.159 HD
HETATM   18  H   UNL     1      -1.319  -1.606 -31.093  1.00  0.00     0.159 HD
HETATM   19  O   UNL     1      -3.085  -3.230 -31.812  1.00  0.00    -0.266 OA
ENDBRANCH   9  15
ENDBRANCH   2   5
BRANCH   1  20
HETATM   20  C   UNL     1      -2.523   5.763 -31.766  1.00  0.00     0.032 A 
HETATM   21  C   UNL     1      -1.601   6.689 -32.271  1.00  0.00     0.020 A 
HETATM   22  C   UNL     1      -1.332   7.876 -31.574  1.00  0.00     0.038 A 
HETATM   23  C   UNL     1      -1.990   8.153 -30.376  1.00  0.00     0.068 A 
HETATM   24  C   UNL     1      -2.945   7.255 -29.897  1.00  0.00     0.038 A 
HETATM   25  C   UNL     1      -3.209   6.067 -30.583  1.00  0.00     0.020 A 
BRANCH  23  26
HETATM   26  O   UNL     1      -1.809   9.267 -29.605  1.00  0.00    -0.351 OA
BRANCH  26  27
HETATM   27  C   UNL     1      -1.434   9.049 -28.242  1.00  0.00     0.176 C 
BRANCH  27  28
HETATM   28  C   UNL     1       0.042   8.648 -28.228  1.00  0.00     0.030 C 
BRANCH  28  29
HETATM   29  C   UNL     1       0.325   7.351 -27.452  1.00  0.00    -0.021 C 
HETATM   30  C   UNL     1       1.541   7.478 -26.533  1.00  0.00     0.009 C 
HETATM   31  C   UNL     1       0.537   6.195 -28.431  1.00  0.00     0.009 C 
ENDBRANCH  28  29
ENDBRANCH  27  28
ENDBRANCH  26  27
ENDBRANCH  23  26
ENDBRANCH   1  20
TORSDOF 7
ENDMDL
