MODEL 1
REMARK VINA RESULT:      -8.4      0.000      0.000
REMARK  14 active torsions:
REMARK  status: ('A' for Active; 'I' for Inactive)
REMARK    1  A    between atoms: C_2  and  N_3 
REMARK    2  A    between atoms: N_3  and  C_5 
REMARK    3  A    between atoms: N_3  and  C_37 
REMARK    4  A    between atoms: C_5  and  C_6 
REMARK    5  A    between atoms: C_6  and  N_7 
REMARK    6  A    between atoms: C_10  and  O_11 
REMARK    7  A    between atoms: C_12  and  C_13 
REMARK    8  A    between atoms: C_13  and  C_14 
REMARK    9  A    between atoms: C_18  and  O_19 
REMARK   10  A    between atoms: O_19  and  C_20 
REMARK   11  A    between atoms: C_26  and  C_27 
REMARK   12  A    between atoms: C_29  and  O_30 
REMARK   13  A    between atoms: O_30  and  C_31 
REMARK   14  A    between atoms: C_33  and  O_34 
ROOT
HETATM    1  N   UNL     1      -8.288   1.791 -31.923  1.00  0.00    -0.332 N 
HETATM    2  C   UNL     1      -8.360   2.879 -31.087  1.00  0.00     0.278 C 
HETATM    3  O   UNL     1      -9.121   3.035 -30.148  1.00  0.00    -0.265 OA
HETATM    4  C   UNL     1      -7.363   3.868 -31.553  1.00  0.00     0.146 C 
HETATM    5  C   UNL     1      -6.735   3.330 -32.606  1.00  0.00     0.059 C 
HETATM    6  C   UNL     1      -7.193   1.920 -32.871  1.00  0.00     0.161 C 
ENDROOT
BRANCH   5   7
HETATM    7  C   UNL     1      -5.721   3.875 -33.537  1.00  0.00     0.193 C 
HETATM    8  O   UNL     1      -6.020   4.041 -34.719  1.00  0.00    -0.287 OA
BRANCH   7   9
HETATM    9  C   UNL     1      -4.353   4.219 -33.107  1.00  0.00     0.015 A 
HETATM   10  C   UNL     1      -3.434   4.818 -33.971  1.00  0.00     0.025 A 
HETATM   11  C   UNL     1      -2.115   5.052 -33.548  1.00  0.00    -0.028 A 
HETATM   12  C   UNL     1      -1.134   5.713 -34.477  1.00  0.00     0.051 C 
HETATM   13  C   UNL     1      -1.712   4.610 -32.275  1.00  0.00     0.075 A 
HETATM   14  C   UNL     1      -2.636   4.019 -31.412  1.00  0.00     0.038 A 
HETATM   15  C   UNL     1      -3.952   3.812 -31.832  1.00  0.00     0.018 A 
BRANCH  13  16
HETATM   16  O   UNL     1      -0.403   4.825 -31.936  1.00  0.00    -0.346 OA
BRANCH  16  17
HETATM   17  C   UNL     1      -0.161   5.529 -30.707  1.00  0.00     0.121 C 
HETATM   18  C   UNL     1       0.804   4.759 -29.805  1.00  0.00     0.040 C 
HETATM   19  C   UNL     1       0.457   6.872 -31.093  1.00  0.00     0.040 C 
ENDBRANCH  16  17
ENDBRANCH  13  16
ENDBRANCH   7   9
ENDBRANCH   5   7
BRANCH   4  20
HETATM   20  O   UNL     1      -7.216   5.091 -30.978  1.00  0.00    -0.355 OA
HETATM   21  H   UNL     1      -6.519   5.003 -30.295  1.00  0.00     0.218 HD
ENDBRANCH   4  20
BRANCH   6  22
HETATM   22  C   UNL     1      -6.138   0.846 -32.647  1.00  0.00    -0.028 A 
HETATM   23  C   UNL     1      -5.977  -0.173 -33.610  1.00  0.00     0.049 A 
HETATM   24  C   UNL     1      -5.073  -1.215 -33.400  1.00  0.00     0.102 A 
HETATM   25  C   UNL     1      -4.318  -1.224 -32.224  1.00  0.00     0.099 A 
HETATM   26  C   UNL     1      -4.439  -0.220 -31.273  1.00  0.00     0.040 A 
HETATM   27  C   UNL     1      -5.346   0.816 -31.484  1.00  0.00     0.012 A 
BRANCH  24  28
HETATM   28  O   UNL     1      -4.851  -2.276 -34.238  1.00  0.00    -0.349 OA
BRANCH  28  29
HETATM   29  C   UNL     1      -5.965  -2.748 -34.997  1.00  0.00     0.171 C 
HETATM   30  C   UNL     1      -5.951  -4.266 -34.952  1.00  0.00     0.034 C 
ENDBRANCH  28  29
ENDBRANCH  24  28
BRANCH  25  31
HETATM   31  O   UNL     1      -3.431  -2.236 -31.980  1.00  0.00    -0.358 OA
HETATM   32  H   UNL     1      -3.310  -2.247 -31.010  1.00  0.00     0.218 HD
ENDBRANCH  25  31
ENDBRANCH   6  22
BRANCH   1  33
HETATM   33  C   UNL     1      -9.020   0.556 -31.692  1.00  0.00     0.155 C 
BRANCH  33  34
HETATM   34  C   UNL     1      -9.786   0.084 -32.938  1.00  0.00     0.254 C 
BRANCH  34  35
HETATM   35  N   UNL     1     -11.031   0.914 -33.244  1.00  0.00    -0.070 N 
HETATM   36  H   UNL     1     -11.240   1.425 -32.375  1.00  0.00     0.279 HD
BRANCH  35  37
HETATM   37  C   UNL     1     -12.275   0.081 -33.526  1.00  0.00     0.230 C 
HETATM   38  C   UNL     1     -13.521   0.946 -33.582  1.00  0.00     0.034 C 
ENDBRANCH  35  37
BRANCH  35  39
HETATM   39  C   UNL     1     -10.850   1.981 -34.313  1.00  0.00     0.230 C 
HETATM   40  C   UNL     1     -10.883   3.376 -33.716  1.00  0.00     0.034 C 
ENDBRANCH  35  39
ENDBRANCH  34  35
ENDBRANCH  33  34
ENDBRANCH   1  33
TORSDOF 14
ENDMDL
MODEL 2
REMARK VINA RESULT:      -7.9      2.532      7.694
REMARK  14 active torsions:
REMARK  status: ('A' for Active; 'I' for Inactive)
REMARK    1  A    between atoms: C_2  and  N_3 
REMARK    2  A    between atoms: N_3  and  C_5 
REMARK    3  A    between atoms: N_3  and  C_37 
REMARK    4  A    between atoms: C_5  and  C_6 
REMARK    5  A    between atoms: C_6  and  N_7 
REMARK    6  A    between atoms: C_10  and  O_11 
REMARK    7  A    between atoms: C_12  and  C_13 
REMARK    8  A    between atoms: C_13  and  C_14 
REMARK    9  A    between atoms: C_18  and  O_19 
REMARK   10  A    between atoms: O_19  and  C_20 
REMARK   11  A    between atoms: C_26  and  C_27 
REMARK   12  A    between atoms: C_29  and  O_30 
REMARK   13  A    between atoms: O_30  and  C_31 
REMARK   14  A    between atoms: C_33  and  O_34 
ROOT
HETATM    1  N   UNL     1      -7.009   4.642 -30.273  1.00  0.00    -0.332 N 
HETATM    2  C   UNL     1      -8.255   4.131 -30.546  1.00  0.00     0.278 C 
HETATM    3  O   UNL     1      -9.295   4.754 -30.664  1.00  0.00    -0.265 OA
HETATM    4  C   UNL     1      -8.125   2.660 -30.635  1.00  0.00     0.146 C 
HETATM    5  C   UNL     1      -6.832   2.365 -30.442  1.00  0.00     0.059 C 
HETATM    6  C   UNL     1      -5.990   3.605 -30.300  1.00  0.00     0.161 C 
ENDROOT
BRANCH   5   7
HETATM    7  C   UNL     1      -6.120   1.073 -30.325  1.00  0.00     0.193 C 
HETATM    8  O   UNL     1      -5.775   0.678 -29.212  1.00  0.00    -0.287 OA
BRANCH   7   9
HETATM    9  C   UNL     1      -5.795   0.237 -31.495  1.00  0.00     0.015 A 
HETATM   10  C   UNL     1      -6.641   0.149 -32.602  1.00  0.00     0.025 A 
HETATM   11  C   UNL     1      -6.335  -0.724 -33.659  1.00  0.00    -0.028 A 
HETATM   12  C   UNL     1      -7.242  -0.803 -34.856  1.00  0.00     0.051 C 
HETATM   13  C   UNL     1      -5.209  -1.560 -33.557  1.00  0.00     0.075 A 
HETATM   14  C   UNL     1      -4.361  -1.463 -32.453  1.00  0.00     0.038 A 
HETATM   15  C   UNL     1      -4.659  -0.575 -31.417  1.00  0.00     0.018 A 
BRANCH  13  16
HETATM   16  O   UNL     1      -4.987  -2.423 -34.597  1.00  0.00    -0.346 OA
BRANCH  16  17
HETATM   17  C   UNL     1      -5.247  -3.814 -34.349  1.00  0.00     0.121 C 
HETATM   18  C   UNL     1      -6.086  -4.431 -35.469  1.00  0.00     0.040 C 
HETATM   19  C   UNL     1      -3.885  -4.504 -34.287  1.00  0.00     0.040 C 
ENDBRANCH  16  17
ENDBRANCH  13  16
ENDBRANCH   7   9
ENDBRANCH   5   7
BRANCH   4  20
HETATM   20  O   UNL     1      -9.189   1.839 -30.836  1.00  0.00    -0.355 OA
HETATM   21  H   UNL     1      -9.063   1.417 -31.711  1.00  0.00     0.218 HD
ENDBRANCH   4  20
BRANCH   6  22
HETATM   22  C   UNL     1      -4.992   3.840 -31.424  1.00  0.00    -0.028 A 
HETATM   23  C   UNL     1      -3.618   3.938 -31.116  1.00  0.00     0.049 A 
HETATM   24  C   UNL     1      -2.684   4.228 -32.112  1.00  0.00     0.102 A 
HETATM   25  C   UNL     1      -3.132   4.406 -33.423  1.00  0.00     0.099 A 
HETATM   26  C   UNL     1      -4.474   4.289 -33.757  1.00  0.00     0.040 A 
HETATM   27  C   UNL     1      -5.405   4.005 -32.760  1.00  0.00     0.012 A 
BRANCH  24  28
HETATM   28  O   UNL     1      -1.334   4.384 -31.935  1.00  0.00    -0.349 OA
BRANCH  28  29
HETATM   29  C   UNL     1      -0.912   5.210 -30.849  1.00  0.00     0.171 C 
HETATM   30  C   UNL     1      -0.135   6.380 -31.427  1.00  0.00     0.034 C 
ENDBRANCH  28  29
ENDBRANCH  24  28
BRANCH  25  31
HETATM   31  O   UNL     1      -2.246   4.703 -34.421  1.00  0.00    -0.358 OA
HETATM   32  H   UNL     1      -2.713   4.493 -35.255  1.00  0.00     0.218 HD
ENDBRANCH  25  31
ENDBRANCH   6  22
BRANCH   1  33
HETATM   33  C   UNL     1      -6.717   6.066 -30.255  1.00  0.00     0.155 C 
BRANCH  33  34
HETATM   34  C   UNL     1      -5.893   6.483 -29.026  1.00  0.00     0.254 C 
BRANCH  34  35
HETATM   35  N   UNL     1      -4.550   7.118 -29.374  1.00  0.00    -0.070 N 
HETATM   36  H   UNL     1      -3.959   6.344 -29.708  1.00  0.00     0.279 HD
BRANCH  35  37
HETATM   37  C   UNL     1      -3.810   7.695 -28.173  1.00  0.00     0.230 C 
HETATM   38  C   UNL     1      -2.340   7.316 -28.192  1.00  0.00     0.034 C 
ENDBRANCH  35  37
BRANCH  35  39
HETATM   39  C   UNL     1      -4.586   8.125 -30.513  1.00  0.00     0.230 C 
HETATM   40  C   UNL     1      -3.651   7.724 -31.640  1.00  0.00     0.034 C 
ENDBRANCH  35  39
ENDBRANCH  34  35
ENDBRANCH  33  34
ENDBRANCH   1  33
TORSDOF 14
ENDMDL
MODEL 3
REMARK VINA RESULT:      -7.8      2.144      8.268
REMARK  14 active torsions:
REMARK  status: ('A' for Active; 'I' for Inactive)
REMARK    1  A    between atoms: C_2  and  N_3 
REMARK    2  A    between atoms: N_3  and  C_5 
REMARK    3  A    between atoms: N_3  and  C_37 
REMARK    4  A    between atoms: C_5  and  C_6 
REMARK    5  A    between atoms: C_6  and  N_7 
REMARK    6  A    between atoms: C_10  and  O_11 
REMARK    7  A    between atoms: C_12  and  C_13 
REMARK    8  A    between atoms: C_13  and  C_14 
REMARK    9  A    between atoms: C_18  and  O_19 
REMARK   10  A    between atoms: O_19  and  C_20 
REMARK   11  A    between atoms: C_26  and  C_27 
REMARK   12  A    between atoms: C_29  and  O_30 
REMARK   13  A    between atoms: O_30  and  C_31 
REMARK   14  A    between atoms: C_33  and  O_34 
ROOT
HETATM    1  N   UNL     1      -4.889   3.918 -32.766  1.00  0.00    -0.332 N 
HETATM    2  C   UNL     1      -5.427   4.970 -33.467  1.00  0.00     0.278 C 
HETATM    3  O   UNL     1      -4.823   5.806 -34.115  1.00  0.00    -0.265 OA
HETATM    4  C   UNL     1      -6.892   4.938 -33.266  1.00  0.00     0.146 C 
HETATM    5  C   UNL     1      -7.163   3.879 -32.493  1.00  0.00     0.059 C 
HETATM    6  C   UNL     1      -5.926   3.074 -32.192  1.00  0.00     0.161 C 
ENDROOT
BRANCH   5   7
HETATM    7  C   UNL     1      -8.423   3.395 -31.884  1.00  0.00     0.193 C 
HETATM    8  O   UNL     1      -8.567   3.471 -30.665  1.00  0.00    -0.287 OA
BRANCH   7   9
HETATM    9  C   UNL     1      -9.516   2.809 -32.682  1.00  0.00     0.015 A 
HETATM   10  C   UNL     1     -10.502   3.597 -33.280  1.00  0.00     0.025 A 
HETATM   11  C   UNL     1     -11.572   2.995 -33.961  1.00  0.00    -0.028 A 
HETATM   12  C   UNL     1     -12.623   3.849 -34.616  1.00  0.00     0.051 C 
HETATM   13  C   UNL     1     -11.680   1.593 -33.970  1.00  0.00     0.075 A 
HETATM   14  C   UNL     1     -10.688   0.809 -33.379  1.00  0.00     0.038 A 
HETATM   15  C   UNL     1      -9.614   1.416 -32.725  1.00  0.00     0.018 A 
BRANCH  13  16
HETATM   16  O   UNL     1     -12.769   1.064 -34.609  1.00  0.00    -0.346 OA
BRANCH  16  17
HETATM   17  C   UNL     1     -13.828   0.566 -33.776  1.00  0.00     0.121 C 
HETATM   18  C   UNL     1     -15.190   0.723 -34.454  1.00  0.00     0.040 C 
HETATM   19  C   UNL     1     -13.537  -0.916 -33.546  1.00  0.00     0.040 C 
ENDBRANCH  16  17
ENDBRANCH  13  16
ENDBRANCH   7   9
ENDBRANCH   5   7
BRANCH   4  20
HETATM   20  O   UNL     1      -7.725   5.883 -33.779  1.00  0.00    -0.355 OA
HETATM   21  H   UNL     1      -7.821   5.691 -34.735  1.00  0.00     0.218 HD
ENDBRANCH   4  20
BRANCH   6  22
HETATM   22  C   UNL     1      -5.900   1.679 -32.797  1.00  0.00    -0.028 A 
HETATM   23  C   UNL     1      -5.357   0.613 -32.048  1.00  0.00     0.049 A 
HETATM   24  C   UNL     1      -5.249  -0.664 -32.601  1.00  0.00     0.102 A 
HETATM   25  C   UNL     1      -5.702  -0.872 -33.907  1.00  0.00     0.099 A 
HETATM   26  C   UNL     1      -6.264   0.153 -34.655  1.00  0.00     0.040 A 
HETATM   27  C   UNL     1      -6.365   1.428 -34.102  1.00  0.00     0.012 A 
BRANCH  24  28
HETATM   28  O   UNL     1      -4.711  -1.767 -31.993  1.00  0.00    -0.349 OA
BRANCH  28  29
HETATM   29  C   UNL     1      -3.287  -1.864 -31.966  1.00  0.00     0.171 C 
HETATM   30  C   UNL     1      -2.921  -3.329 -31.809  1.00  0.00     0.034 C 
ENDBRANCH  28  29
ENDBRANCH  24  28
BRANCH  25  31
HETATM   31  O   UNL     1      -5.601  -2.107 -34.485  1.00  0.00    -0.358 OA
HETATM   32  H   UNL     1      -6.460  -2.260 -34.925  1.00  0.00     0.218 HD
ENDBRANCH  25  31
ENDBRANCH   6  22
BRANCH   1  33
HETATM   33  C   UNL     1      -3.487   3.542 -32.840  1.00  0.00     0.155 C 
BRANCH  33  34
HETATM   34  C   UNL     1      -2.641   4.201 -31.739  1.00  0.00     0.254 C 
BRANCH  34  35
HETATM   35  N   UNL     1      -1.348   4.831 -32.251  1.00  0.00    -0.070 N 
HETATM   36  H   UNL     1      -0.868   4.084 -32.772  1.00  0.00     0.279 HD
BRANCH  35  37
HETATM   37  C   UNL     1      -0.379   5.236 -31.148  1.00  0.00     0.230 C 
HETATM   38  C   UNL     1       0.377   6.502 -31.510  1.00  0.00     0.034 C 
ENDBRANCH  35  37
BRANCH  35  39
HETATM   39  C   UNL     1      -1.532   5.969 -33.244  1.00  0.00     0.230 C 
HETATM   40  C   UNL     1      -1.253   5.516 -34.665  1.00  0.00     0.034 C 
ENDBRANCH  35  39
ENDBRANCH  34  35
ENDBRANCH  33  34
ENDBRANCH   1  33
TORSDOF 14
ENDMDL
MODEL 4
REMARK VINA RESULT:      -7.8      2.289      7.986
REMARK  14 active torsions:
REMARK  status: ('A' for Active; 'I' for Inactive)
REMARK    1  A    between atoms: C_2  and  N_3 
REMARK    2  A    between atoms: N_3  and  C_5 
REMARK    3  A    between atoms: N_3  and  C_37 
REMARK    4  A    between atoms: C_5  and  C_6 
REMARK    5  A    between atoms: C_6  and  N_7 
REMARK    6  A    between atoms: C_10  and  O_11 
REMARK    7  A    between atoms: C_12  and  C_13 
REMARK    8  A    between atoms: C_13  and  C_14 
REMARK    9  A    between atoms: C_18  and  O_19 
REMARK   10  A    between atoms: O_19  and  C_20 
REMARK   11  A    between atoms: C_26  and  C_27 
REMARK   12  A    between atoms: C_29  and  O_30 
REMARK   13  A    between atoms: O_30  and  C_31 
REMARK   14  A    between atoms: C_33  and  O_34 
ROOT
HETATM    1  N   UNL     1      -3.801   4.379 -33.005  1.00  0.00    -0.332 N 
HETATM    2  C   UNL     1      -4.595   4.979 -33.952  1.00  0.00     0.278 C 
HETATM    3  O   UNL     1      -4.228   5.573 -34.949  1.00  0.00    -0.265 OA
HETATM    4  C   UNL     1      -6.002   4.810 -33.526  1.00  0.00     0.146 C 
HETATM    5  C   UNL     1      -5.989   4.111 -32.383  1.00  0.00     0.059 C 
HETATM    6  C   UNL     1      -4.596   3.683 -32.005  1.00  0.00     0.161 C 
ENDROOT
BRANCH   5   7
HETATM    7  C   UNL     1      -7.070   3.722 -31.450  1.00  0.00     0.193 C 
HETATM    8  O   UNL     1      -6.912   3.901 -30.243  1.00  0.00    -0.287 OA
BRANCH   7   9
HETATM    9  C   UNL     1      -8.333   3.114 -31.907  1.00  0.00     0.015 A 
HETATM   10  C   UNL     1      -8.489   1.732 -32.028  1.00  0.00     0.025 A 
HETATM   11  C   UNL     1      -9.679   1.197 -32.547  1.00  0.00    -0.028 A 
HETATM   12  C   UNL     1      -9.847  -0.293 -32.661  1.00  0.00     0.051 C 
HETATM   13  C   UNL     1     -10.680   2.069 -33.012  1.00  0.00     0.075 A 
HETATM   14  C   UNL     1     -10.524   3.450 -32.882  1.00  0.00     0.038 A 
HETATM   15  C   UNL     1      -9.347   3.973 -32.341  1.00  0.00     0.018 A 
BRANCH  13  16
HETATM   16  O   UNL     1     -11.798   1.491 -33.550  1.00  0.00    -0.346 OA
BRANCH  16  17
HETATM   17  C   UNL     1     -12.766   2.377 -34.135  1.00  0.00     0.121 C 
HETATM   18  C   UNL     1     -12.504   2.580 -35.628  1.00  0.00     0.040 C 
HETATM   19  C   UNL     1     -14.130   1.719 -33.938  1.00  0.00     0.040 C 
ENDBRANCH  16  17
ENDBRANCH  13  16
ENDBRANCH   7   9
ENDBRANCH   5   7
BRANCH   4  20
HETATM   20  O   UNL     1      -7.047   5.342 -34.214  1.00  0.00    -0.355 OA
HETATM   21  H   UNL     1      -6.767   5.412 -35.150  1.00  0.00     0.218 HD
ENDBRANCH   4  20
BRANCH   6  22
HETATM   22  C   UNL     1      -4.347   2.183 -32.046  1.00  0.00    -0.028 A 
HETATM   23  C   UNL     1      -4.912   1.419 -33.089  1.00  0.00     0.049 A 
HETATM   24  C   UNL     1      -4.767   0.032 -33.116  1.00  0.00     0.102 A 
HETATM   25  C   UNL     1      -4.039  -0.588 -32.097  1.00  0.00     0.099 A 
HETATM   26  C   UNL     1      -3.450   0.142 -31.074  1.00  0.00     0.040 A 
HETATM   27  C   UNL     1      -3.602   1.527 -31.048  1.00  0.00     0.012 A 
BRANCH  24  28
HETATM   28  O   UNL     1      -5.295  -0.820 -34.050  1.00  0.00    -0.349 OA
BRANCH  28  29
HETATM   29  C   UNL     1      -6.717  -0.949 -34.081  1.00  0.00     0.171 C 
HETATM   30  C   UNL     1      -7.234  -0.128 -35.249  1.00  0.00     0.034 C 
ENDBRANCH  28  29
ENDBRANCH  24  28
BRANCH  25  31
HETATM   31  O   UNL     1      -3.886  -1.947 -32.085  1.00  0.00    -0.358 OA
HETATM   32  H   UNL     1      -2.936  -2.101 -31.916  1.00  0.00     0.218 HD
ENDBRANCH  25  31
ENDBRANCH   6  22
BRANCH   1  33
HETATM   33  C   UNL     1      -2.364   4.218 -33.154  1.00  0.00     0.155 C 
BRANCH  33  34
HETATM   34  C   UNL     1      -1.575   4.867 -32.005  1.00  0.00     0.254 C 
BRANCH  34  35
HETATM   35  N   UNL     1      -0.722   6.055 -32.441  1.00  0.00    -0.070 N 
HETATM   36  H   UNL     1      -0.091   5.687 -33.167  1.00  0.00     0.279 HD
BRANCH  35  37
HETATM   37  C   UNL     1       0.196   6.591 -31.349  1.00  0.00     0.230 C 
HETATM   38  C   UNL     1       0.547   5.511 -30.341  1.00  0.00     0.034 C 
ENDBRANCH  35  37
BRANCH  35  39
HETATM   39  C   UNL     1      -1.485   7.193 -33.102  1.00  0.00     0.230 C 
HETATM   40  C   UNL     1      -1.950   8.216 -32.082  1.00  0.00     0.034 C 
ENDBRANCH  35  39
ENDBRANCH  34  35
ENDBRANCH  33  34
ENDBRANCH   1  33
TORSDOF 14
ENDMDL
MODEL 5
REMARK VINA RESULT:      -7.6      2.484      7.108
REMARK  14 active torsions:
REMARK  status: ('A' for Active; 'I' for Inactive)
REMARK    1  A    between atoms: C_2  and  N_3 
REMARK    2  A    between atoms: N_3  and  C_5 
REMARK    3  A    between atoms: N_3  and  C_37 
REMARK    4  A    between atoms: C_5  and  C_6 
REMARK    5  A    between atoms: C_6  and  N_7 
REMARK    6  A    between atoms: C_10  and  O_11 
REMARK    7  A    between atoms: C_12  and  C_13 
REMARK    8  A    between atoms: C_13  and  C_14 
REMARK    9  A    between atoms: C_18  and  O_19 
REMARK   10  A    between atoms: O_19  and  C_20 
REMARK   11  A    between atoms: C_26  and  C_27 
REMARK   12  A    between atoms: C_29  and  O_30 
REMARK   13  A    between atoms: O_30  and  C_31 
REMARK   14  A    between atoms: C_33  and  O_34 
ROOT
HETATM    1  N   UNL     1      -8.417   4.974 -32.785  1.00  0.00    -0.332 N 
HETATM    2  C   UNL     1      -8.949   4.624 -34.003  1.00  0.00     0.278 C 
HETATM    3  O   UNL     1      -9.289   5.375 -34.899  1.00  0.00    -0.265 OA
HETATM    4  C   UNL     1      -9.077   3.150 -34.027  1.00  0.00     0.146 C 
HETATM    5  C   UNL     1      -8.605   2.692 -32.861  1.00  0.00     0.059 C 
HETATM    6  C   UNL     1      -8.045   3.801 -32.009  1.00  0.00     0.161 C 
ENDROOT
BRANCH   5   7
HETATM    7  C   UNL     1      -8.562   1.333 -32.277  1.00  0.00     0.193 C 
HETATM    8  O   UNL     1      -9.299   1.065 -31.328  1.00  0.00    -0.287 OA
BRANCH   7   9
HETATM    9  C   UNL     1      -7.659   0.281 -32.779  1.00  0.00     0.015 A 
HETATM   10  C   UNL     1      -6.414   0.033 -32.197  1.00  0.00     0.025 A 
HETATM   11  C   UNL     1      -5.549  -0.921 -32.758  1.00  0.00    -0.028 A 
HETATM   12  C   UNL     1      -4.216  -1.195 -32.117  1.00  0.00     0.051 C 
HETATM   13  C   UNL     1      -5.917  -1.567 -33.951  1.00  0.00     0.075 A 
HETATM   14  C   UNL     1      -7.166  -1.322 -34.525  1.00  0.00     0.038 A 
HETATM   15  C   UNL     1      -8.031  -0.390 -33.947  1.00  0.00     0.018 A 
BRANCH  13  16
HETATM   16  O   UNL     1      -5.013  -2.452 -34.476  1.00  0.00    -0.346 OA
BRANCH  16  17
HETATM   17  C   UNL     1      -5.269  -3.847 -34.248  1.00  0.00     0.121 C 
HETATM   18  C   UNL     1      -5.992  -4.481 -35.437  1.00  0.00     0.040 C 
HETATM   19  C   UNL     1      -3.905  -4.511 -34.063  1.00  0.00     0.040 C 
ENDBRANCH  16  17
ENDBRANCH  13  16
ENDBRANCH   7   9
ENDBRANCH   5   7
BRANCH   4  20
HETATM   20  O   UNL     1      -9.629   2.478 -35.072  1.00  0.00    -0.355 OA
HETATM   21  H   UNL     1     -10.594   2.435 -34.907  1.00  0.00     0.218 HD
ENDBRANCH   4  20
BRANCH   6  22
HETATM   22  C   UNL     1      -6.542   3.744 -31.780  1.00  0.00    -0.028 A 
HETATM   23  C   UNL     1      -5.670   4.036 -32.850  1.00  0.00     0.049 A 
HETATM   24  C   UNL     1      -4.288   3.920 -32.695  1.00  0.00     0.102 A 
HETATM   25  C   UNL     1      -3.782   3.521 -31.455  1.00  0.00     0.099 A 
HETATM   26  C   UNL     1      -4.616   3.253 -30.379  1.00  0.00     0.040 A 
HETATM   27  C   UNL     1      -5.995   3.365 -30.539  1.00  0.00     0.012 A 
BRANCH  24  28
HETATM   28  O   UNL     1      -3.344   4.140 -33.662  1.00  0.00    -0.349 OA
BRANCH  28  29
HETATM   29  C   UNL     1      -3.448   5.353 -34.408  1.00  0.00     0.171 C 
HETATM   30  C   UNL     1      -2.863   6.472 -33.564  1.00  0.00     0.034 C 
ENDBRANCH  28  29
ENDBRANCH  24  28
BRANCH  25  31
HETATM   31  O   UNL     1      -2.433   3.385 -31.272  1.00  0.00    -0.358 OA
HETATM   32  H   UNL     1      -2.292   3.472 -30.308  1.00  0.00     0.218 HD
ENDBRANCH  25  31
ENDBRANCH   6  22
BRANCH   1  33
HETATM   33  C   UNL     1      -8.014   6.329 -32.449  1.00  0.00     0.155 C 
BRANCH  33  34
HETATM   34  C   UNL     1      -8.267   6.671 -30.972  1.00  0.00     0.254 C 
BRANCH  34  35
HETATM   35  N   UNL     1      -7.081   7.343 -30.285  1.00  0.00    -0.070 N 
HETATM   36  H   UNL     1      -7.295   8.350 -30.293  1.00  0.00     0.279 HD
BRANCH  35  37
HETATM   37  C   UNL     1      -5.768   7.208 -31.046  1.00  0.00     0.230 C 
HETATM   38  C   UNL     1      -4.601   6.977 -30.102  1.00  0.00     0.034 C 
ENDBRANCH  35  37
BRANCH  35  39
HETATM   39  C   UNL     1      -6.890   6.979 -28.821  1.00  0.00     0.230 C 
HETATM   40  C   UNL     1      -7.709   5.759 -28.440  1.00  0.00     0.034 C 
ENDBRANCH  35  39
ENDBRANCH  34  35
ENDBRANCH  33  34
ENDBRANCH   1  33
TORSDOF 14
ENDMDL
MODEL 6
REMARK VINA RESULT:      -7.6      1.841      2.711
REMARK  14 active torsions:
REMARK  status: ('A' for Active; 'I' for Inactive)
REMARK    1  A    between atoms: C_2  and  N_3 
REMARK    2  A    between atoms: N_3  and  C_5 
REMARK    3  A    between atoms: N_3  and  C_37 
REMARK    4  A    between atoms: C_5  and  C_6 
REMARK    5  A    between atoms: C_6  and  N_7 
REMARK    6  A    between atoms: C_10  and  O_11 
REMARK    7  A    between atoms: C_12  and  C_13 
REMARK    8  A    between atoms: C_13  and  C_14 
REMARK    9  A    between atoms: C_18  and  O_19 
REMARK   10  A    between atoms: O_19  and  C_20 
REMARK   11  A    between atoms: C_26  and  C_27 
REMARK   12  A    between atoms: C_29  and  O_30 
REMARK   13  A    between atoms: O_30  and  C_31 
REMARK   14  A    between atoms: C_33  and  O_34 
ROOT
HETATM    1  N   UNL     1      -6.571   2.725 -31.271  1.00  0.00    -0.332 N 
HETATM    2  C   UNL     1      -6.515   3.662 -30.267  1.00  0.00     0.278 C 
HETATM    3  O   UNL     1      -7.294   3.795 -29.342  1.00  0.00    -0.265 OA
HETATM    4  C   UNL     1      -5.342   4.526 -30.529  1.00  0.00     0.146 C 
HETATM    5  C   UNL     1      -4.748   4.063 -31.637  1.00  0.00     0.059 C 
HETATM    6  C   UNL     1      -5.414   2.813 -32.148  1.00  0.00     0.161 C 
ENDROOT
BRANCH   5   7
HETATM    7  C   UNL     1      -3.604   4.566 -32.429  1.00  0.00     0.193 C 
HETATM    8  O   UNL     1      -3.591   4.382 -33.646  1.00  0.00    -0.287 OA
BRANCH   7   9
HETATM    9  C   UNL     1      -2.465   5.274 -31.817  1.00  0.00     0.015 A 
HETATM   10  C   UNL     1      -1.416   4.593 -31.196  1.00  0.00     0.025 A 
HETATM   11  C   UNL     1      -0.393   5.307 -30.551  1.00  0.00    -0.028 A 
HETATM   12  C   UNL     1       0.742   4.568 -29.897  1.00  0.00     0.051 C 
HETATM   13  C   UNL     1      -0.474   6.708 -30.474  1.00  0.00     0.075 A 
HETATM   14  C   UNL     1      -1.520   7.386 -31.103  1.00  0.00     0.038 A 
HETATM   15  C   UNL     1      -2.521   6.670 -31.763  1.00  0.00     0.018 A 
BRANCH  13  16
HETATM   16  O   UNL     1       0.527   7.346 -29.793  1.00  0.00    -0.346 OA
BRANCH  16  17
HETATM   17  C   UNL     1       0.146   8.072 -28.613  1.00  0.00     0.121 C 
HETATM   18  C   UNL     1      -0.686   7.202 -27.670  1.00  0.00     0.040 C 
HETATM   19  C   UNL     1       1.444   8.485 -27.921  1.00  0.00     0.040 C 
ENDBRANCH  16  17
ENDBRANCH  13  16
ENDBRANCH   7   9
ENDBRANCH   5   7
BRANCH   4  20
HETATM   20  O   UNL     1      -5.032   5.598 -29.753  1.00  0.00    -0.355 OA
HETATM   21  H   UNL     1      -4.076   5.533 -29.545  1.00  0.00     0.218 HD
ENDBRANCH   4  20
BRANCH   6  22
HETATM   22  C   UNL     1      -4.567   1.552 -32.072  1.00  0.00    -0.028 A 
HETATM   23  C   UNL     1      -4.731   0.551 -33.054  1.00  0.00     0.049 A 
HETATM   24  C   UNL     1      -4.024  -0.650 -32.972  1.00  0.00     0.102 A 
HETATM   25  C   UNL     1      -3.139  -0.838 -31.907  1.00  0.00     0.099 A 
HETATM   26  C   UNL     1      -2.940   0.141 -30.943  1.00  0.00     0.040 A 
HETATM   27  C   UNL     1      -3.651   1.336 -31.025  1.00  0.00     0.012 A 
BRANCH  24  28
HETATM   28  O   UNL     1      -4.121  -1.707 -33.837  1.00  0.00    -0.349 OA
BRANCH  28  29
HETATM   29  C   UNL     1      -5.429  -2.057 -34.291  1.00  0.00     0.171 C 
HETATM   30  C   UNL     1      -5.414  -3.526 -34.673  1.00  0.00     0.034 C 
ENDBRANCH  28  29
ENDBRANCH  24  28
BRANCH  25  31
HETATM   31  O   UNL     1      -2.439  -2.007 -31.789  1.00  0.00    -0.358 OA
HETATM   32  H   UNL     1      -3.072  -2.652 -31.416  1.00  0.00     0.218 HD
ENDBRANCH  25  31
ENDBRANCH   6  22
BRANCH   1  33
HETATM   33  C   UNL     1      -7.509   1.614 -31.273  1.00  0.00     0.155 C 
BRANCH  33  34
HETATM   34  C   UNL     1      -8.856   1.982 -31.915  1.00  0.00     0.254 C 
BRANCH  34  35
HETATM   35  N   UNL     1      -9.388   0.923 -32.877  1.00  0.00    -0.070 N 
HETATM   36  H   UNL     1      -9.960   0.290 -32.299  1.00  0.00     0.279 HD
BRANCH  35  37
HETATM   37  C   UNL     1      -8.305   0.039 -33.483  1.00  0.00     0.230 C 
HETATM   38  C   UNL     1      -8.019   0.422 -34.925  1.00  0.00     0.034 C 
ENDBRANCH  35  37
BRANCH  35  39
HETATM   39  C   UNL     1     -10.321   1.442 -33.960  1.00  0.00     0.230 C 
HETATM   40  C   UNL     1     -11.765   1.071 -33.675  1.00  0.00     0.034 C 
ENDBRANCH  35  39
ENDBRANCH  34  35
ENDBRANCH  33  34
ENDBRANCH   1  33
TORSDOF 14
ENDMDL
MODEL 7
REMARK VINA RESULT:      -7.6      3.474      7.143
REMARK  14 active torsions:
REMARK  status: ('A' for Active; 'I' for Inactive)
REMARK    1  A    between atoms: C_2  and  N_3 
REMARK    2  A    between atoms: N_3  and  C_5 
REMARK    3  A    between atoms: N_3  and  C_37 
REMARK    4  A    between atoms: C_5  and  C_6 
REMARK    5  A    between atoms: C_6  and  N_7 
REMARK    6  A    between atoms: C_10  and  O_11 
REMARK    7  A    between atoms: C_12  and  C_13 
REMARK    8  A    between atoms: C_13  and  C_14 
REMARK    9  A    between atoms: C_18  and  O_19 
REMARK   10  A    between atoms: O_19  and  C_20 
REMARK   11  A    between atoms: C_26  and  C_27 
REMARK   12  A    between atoms: C_29  and  O_30 
REMARK   13  A    between atoms: O_30  and  C_31 
REMARK   14  A    between atoms: C_33  and  O_34 
ROOT
HETATM    1  N   UNL     1      -4.865   4.462 -32.405  1.00  0.00    -0.332 N 
HETATM    2  C   UNL     1      -4.938   4.494 -33.776  1.00  0.00     0.278 C 
HETATM    3  O   UNL     1      -5.686   3.847 -34.487  1.00  0.00    -0.265 OA
HETATM    4  C   UNL     1      -3.907   5.440 -34.257  1.00  0.00     0.146 C 
HETATM    5  C   UNL     1      -3.294   5.940 -33.176  1.00  0.00     0.059 C 
HETATM    6  C   UNL     1      -3.918   5.443 -31.898  1.00  0.00     0.161 C 
ENDROOT
BRANCH   5   7
HETATM    7  C   UNL     1      -2.133   6.845 -33.028  1.00  0.00     0.193 C 
HETATM    8  O   UNL     1      -1.876   7.643 -33.929  1.00  0.00    -0.287 OA
BRANCH   7   9
HETATM    9  C   UNL     1      -1.256   6.824 -31.843  1.00  0.00     0.015 A 
HETATM   10  C   UNL     1      -0.401   5.753 -31.572  1.00  0.00     0.025 A 
HETATM   11  C   UNL     1       0.356   5.734 -30.389  1.00  0.00    -0.028 A 
HETATM   12  C   UNL     1       1.287   4.585 -30.111  1.00  0.00     0.051 C 
HETATM   13  C   UNL     1       0.188   6.764 -29.448  1.00  0.00     0.075 A 
HETATM   14  C   UNL     1      -0.662   7.836 -29.725  1.00  0.00     0.038 A 
HETATM   15  C   UNL     1      -1.392   7.860 -30.915  1.00  0.00     0.018 A 
BRANCH  13  16
HETATM   16  O   UNL     1       0.917   6.667 -28.293  1.00  0.00    -0.346 OA
BRANCH  16  17
HETATM   17  C   UNL     1       0.315   7.203 -27.103  1.00  0.00     0.121 C 
HETATM   18  C   UNL     1      -0.490   6.137 -26.359  1.00  0.00     0.040 C 
HETATM   19  C   UNL     1       1.464   7.689 -26.220  1.00  0.00     0.040 C 
ENDBRANCH  16  17
ENDBRANCH  13  16
ENDBRANCH   7   9
ENDBRANCH   5   7
BRANCH   4  20
HETATM   20  O   UNL     1      -3.671   5.661 -35.577  1.00  0.00    -0.355 OA
HETATM   21  H   UNL     1      -3.696   4.789 -36.022  1.00  0.00     0.218 HD
ENDBRANCH   4  20
BRANCH   6  22
HETATM   22  C   UNL     1      -4.617   6.507 -31.065  1.00  0.00    -0.028 A 
HETATM   23  C   UNL     1      -4.488   6.475 -29.660  1.00  0.00     0.049 A 
HETATM   24  C   UNL     1      -5.177   7.390 -28.861  1.00  0.00     0.102 A 
HETATM   25  C   UNL     1      -5.986   8.347 -29.479  1.00  0.00     0.099 A 
HETATM   26  C   UNL     1      -6.109   8.416 -30.860  1.00  0.00     0.040 A 
HETATM   27  C   UNL     1      -5.424   7.498 -31.654  1.00  0.00     0.012 A 
BRANCH  24  28
HETATM   28  O   UNL     1      -5.163   7.441 -27.492  1.00  0.00    -0.349 OA
BRANCH  28  29
HETATM   29  C   UNL     1      -3.886   7.404 -26.854  1.00  0.00     0.171 C 
HETATM   30  C   UNL     1      -3.225   8.756 -27.055  1.00  0.00     0.034 C 
ENDBRANCH  28  29
ENDBRANCH  24  28
BRANCH  25  31
HETATM   31  O   UNL     1      -6.684   9.251 -28.727  1.00  0.00    -0.358 OA
HETATM   32  H   UNL     1      -6.111   9.449 -27.960  1.00  0.00     0.218 HD
ENDBRANCH  25  31
ENDBRANCH   6  22
BRANCH   1  33
HETATM   33  C   UNL     1      -5.820   3.750 -31.570  1.00  0.00     0.155 C 
BRANCH  33  34
HETATM   34  C   UNL     1      -5.175   2.590 -30.795  1.00  0.00     0.254 C 
BRANCH  34  35
HETATM   35  N   UNL     1      -4.989   1.324 -31.627  1.00  0.00    -0.070 N 
HETATM   36  H   UNL     1      -4.294   1.569 -32.346  1.00  0.00     0.279 HD
BRANCH  35  37
HETATM   37  C   UNL     1      -6.233   0.904 -32.400  1.00  0.00     0.230 C 
HETATM   38  C   UNL     1      -5.870   0.238 -33.716  1.00  0.00     0.034 C 
ENDBRANCH  35  37
BRANCH  35  39
HETATM   39  C   UNL     1      -4.401   0.138 -30.878  1.00  0.00     0.230 C 
HETATM   40  C   UNL     1      -2.938  -0.069 -31.226  1.00  0.00     0.034 C 
ENDBRANCH  35  39
ENDBRANCH  34  35
ENDBRANCH  33  34
ENDBRANCH   1  33
TORSDOF 14
ENDMDL
MODEL 8
REMARK VINA RESULT:      -7.4      2.524      8.090
REMARK  14 active torsions:
REMARK  status: ('A' for Active; 'I' for Inactive)
REMARK    1  A    between atoms: C_2  and  N_3 
REMARK    2  A    between atoms: N_3  and  C_5 
REMARK    3  A    between atoms: N_3  and  C_37 
REMARK    4  A    between atoms: C_5  and  C_6 
REMARK    5  A    between atoms: C_6  and  N_7 
REMARK    6  A    between atoms: C_10  and  O_11 
REMARK    7  A    between atoms: C_12  and  C_13 
REMARK    8  A    between atoms: C_13  and  C_14 
REMARK    9  A    between atoms: C_18  and  O_19 
REMARK   10  A    between atoms: O_19  and  C_20 
REMARK   11  A    between atoms: C_26  and  C_27 
REMARK   12  A    between atoms: C_29  and  O_30 
REMARK   13  A    between atoms: O_30  and  C_31 
REMARK   14  A    between atoms: C_33  and  O_34 
ROOT
HETATM    1  N   UNL     1      -6.621   4.531 -31.852  1.00  0.00    -0.332 N 
HETATM    2  C   UNL     1      -6.409   4.181 -30.540  1.00  0.00     0.278 C 
HETATM    3  O   UNL     1      -5.839   4.839 -29.688  1.00  0.00    -0.265 OA
HETATM    4  C   UNL     1      -6.968   2.826 -30.343  1.00  0.00     0.146 C 
HETATM    5  C   UNL     1      -7.500   2.443 -31.511  1.00  0.00     0.059 C 
HETATM    6  C   UNL     1      -7.421   3.534 -32.546  1.00  0.00     0.161 C 
ENDROOT
BRANCH   5   7
HETATM    7  C   UNL     1      -8.108   1.167 -31.949  1.00  0.00     0.193 C 
HETATM    8  O   UNL     1      -9.315   0.992 -31.788  1.00  0.00    -0.287 OA
BRANCH   7   9
HETATM    9  C   UNL     1      -7.321   0.083 -32.565  1.00  0.00     0.015 A 
HETATM   10  C   UNL     1      -6.029  -0.230 -32.138  1.00  0.00     0.025 A 
HETATM   11  C   UNL     1      -5.281  -1.213 -32.806  1.00  0.00    -0.028 A 
HETATM   12  C   UNL     1      -3.896  -1.557 -32.331  1.00  0.00     0.051 C 
HETATM   13  C   UNL     1      -5.818  -1.824 -33.954  1.00  0.00     0.075 A 
HETATM   14  C   UNL     1      -7.112  -1.514 -34.374  1.00  0.00     0.038 A 
HETATM   15  C   UNL     1      -7.859  -0.553 -33.688  1.00  0.00     0.018 A 
BRANCH  13  16
HETATM   16  O   UNL     1      -5.025  -2.740 -34.591  1.00  0.00    -0.346 OA
BRANCH  16  17
HETATM   17  C   UNL     1      -5.329  -4.126 -34.364  1.00  0.00     0.121 C 
HETATM   18  C   UNL     1      -6.053  -4.740 -35.563  1.00  0.00     0.040 C 
HETATM   19  C   UNL     1      -3.991  -4.834 -34.155  1.00  0.00     0.040 C 
ENDBRANCH  16  17
ENDBRANCH  13  16
ENDBRANCH   7   9
ENDBRANCH   5   7
BRANCH   4  20
HETATM   20  O   UNL     1      -6.871   2.155 -29.164  1.00  0.00    -0.355 OA
HETATM   21  H   UNL     1      -6.415   2.751 -28.533  1.00  0.00     0.218 HD
ENDBRANCH   4  20
BRANCH   6  22
HETATM   22  C   UNL     1      -8.761   4.107 -32.984  1.00  0.00    -0.028 A 
HETATM   23  C   UNL     1      -9.701   4.486 -32.003  1.00  0.00     0.049 A 
HETATM   24  C   UNL     1     -10.967   4.945 -32.369  1.00  0.00     0.102 A 
HETATM   25  C   UNL     1     -11.283   5.035 -33.728  1.00  0.00     0.099 A 
HETATM   26  C   UNL     1     -10.367   4.693 -34.713  1.00  0.00     0.040 A 
HETATM   27  C   UNL     1      -9.106   4.231 -34.343  1.00  0.00     0.012 A 
BRANCH  24  28
HETATM   28  O   UNL     1     -11.976   5.308 -31.516  1.00  0.00    -0.349 OA
BRANCH  28  29
HETATM   29  C   UNL     1     -12.467   4.304 -30.627  1.00  0.00     0.171 C 
HETATM   30  C   UNL     1     -13.765   3.765 -31.204  1.00  0.00     0.034 C 
ENDBRANCH  28  29
ENDBRANCH  24  28
BRANCH  25  31
HETATM   31  O   UNL     1     -12.518   5.469 -34.123  1.00  0.00    -0.358 OA
HETATM   32  H   UNL     1     -13.092   4.678 -34.097  1.00  0.00     0.218 HD
ENDBRANCH  25  31
ENDBRANCH   6  22
BRANCH   1  33
HETATM   33  C   UNL     1      -6.333   5.853 -32.383  1.00  0.00     0.155 C 
BRANCH  33  34
HETATM   34  C   UNL     1      -5.120   5.858 -33.326  1.00  0.00     0.254 C 
BRANCH  34  35
HETATM   35  N   UNL     1      -3.803   5.517 -32.635  1.00  0.00    -0.070 N 
HETATM   36  H   UNL     1      -4.057   5.273 -31.667  1.00  0.00     0.279 HD
BRANCH  35  37
HETATM   37  C   UNL     1      -2.846   6.697 -32.510  1.00  0.00     0.230 C 
HETATM   38  C   UNL     1      -1.527   6.278 -31.885  1.00  0.00     0.034 C 
ENDBRANCH  35  37
BRANCH  35  39
HETATM   39  C   UNL     1      -3.078   4.299 -33.187  1.00  0.00     0.230 C 
HETATM   40  C   UNL     1      -3.383   3.055 -32.373  1.00  0.00     0.034 C 
ENDBRANCH  35  39
ENDBRANCH  34  35
ENDBRANCH  33  34
ENDBRANCH   1  33
TORSDOF 14
ENDMDL
MODEL 9
REMARK VINA RESULT:      -7.4      2.127      7.896
REMARK  14 active torsions:
REMARK  status: ('A' for Active; 'I' for Inactive)
REMARK    1  A    between atoms: C_2  and  N_3 
REMARK    2  A    between atoms: N_3  and  C_5 
REMARK    3  A    between atoms: N_3  and  C_37 
REMARK    4  A    between atoms: C_5  and  C_6 
REMARK    5  A    between atoms: C_6  and  N_7 
REMARK    6  A    between atoms: C_10  and  O_11 
REMARK    7  A    between atoms: C_12  and  C_13 
REMARK    8  A    between atoms: C_13  and  C_14 
REMARK    9  A    between atoms: C_18  and  O_19 
REMARK   10  A    between atoms: O_19  and  C_20 
REMARK   11  A    between atoms: C_26  and  C_27 
REMARK   12  A    between atoms: C_29  and  O_30 
REMARK   13  A    between atoms: O_30  and  C_31 
REMARK   14  A    between atoms: C_33  and  O_34 
ROOT
HETATM    1  N   UNL     1      -5.406   1.118 -32.185  1.00  0.00    -0.332 N 
HETATM    2  C   UNL     1      -5.583   1.020 -30.826  1.00  0.00     0.278 C 
HETATM    3  O   UNL     1      -5.095   0.191 -30.080  1.00  0.00    -0.265 OA
HETATM    4  C   UNL     1      -6.518   2.092 -30.419  1.00  0.00     0.146 C 
HETATM    5  C   UNL     1      -6.831   2.785 -31.523  1.00  0.00     0.059 C 
HETATM    6  C   UNL     1      -6.071   2.294 -32.726  1.00  0.00     0.161 C 
ENDROOT
BRANCH   5   7
HETATM    7  C   UNL     1      -7.783   3.894 -31.757  1.00  0.00     0.193 C 
HETATM    8  O   UNL     1      -7.380   5.054 -31.686  1.00  0.00    -0.287 OA
BRANCH   7   9
HETATM    9  C   UNL     1      -9.207   3.666 -32.063  1.00  0.00     0.015 A 
HETATM   10  C   UNL     1      -9.652   2.508 -32.705  1.00  0.00     0.025 A 
HETATM   11  C   UNL     1     -11.005   2.368 -33.053  1.00  0.00    -0.028 A 
HETATM   12  C   UNL     1     -11.481   1.112 -33.730  1.00  0.00     0.051 C 
HETATM   13  C   UNL     1     -11.890   3.434 -32.817  1.00  0.00     0.075 A 
HETATM   14  C   UNL     1     -11.444   4.587 -32.168  1.00  0.00     0.038 A 
HETATM   15  C   UNL     1     -10.101   4.708 -31.803  1.00  0.00     0.018 A 
BRANCH  13  16
HETATM   16  O   UNL     1     -13.187   3.258 -33.220  1.00  0.00    -0.346 OA
BRANCH  16  17
HETATM   17  C   UNL     1     -14.168   3.087 -32.184  1.00  0.00     0.121 C 
HETATM   18  C   UNL     1     -15.043   4.332 -32.036  1.00  0.00     0.040 C 
HETATM   19  C   UNL     1     -15.032   1.898 -32.600  1.00  0.00     0.040 C 
ENDBRANCH  16  17
ENDBRANCH  13  16
ENDBRANCH   7   9
ENDBRANCH   5   7
BRANCH   4  20
HETATM   20  O   UNL     1      -6.955   2.240 -29.141  1.00  0.00    -0.355 OA
HETATM   21  H   UNL     1      -7.720   2.852 -29.169  1.00  0.00     0.218 HD
ENDBRANCH   4  20
BRANCH   6  22
HETATM   22  C   UNL     1      -5.067   3.281 -33.303  1.00  0.00    -0.028 A 
HETATM   23  C   UNL     1      -3.803   3.414 -32.690  1.00  0.00     0.049 A 
HETATM   24  C   UNL     1      -2.887   4.363 -33.147  1.00  0.00     0.102 A 
HETATM   25  C   UNL     1      -3.239   5.171 -34.231  1.00  0.00     0.099 A 
HETATM   26  C   UNL     1      -4.466   5.042 -34.868  1.00  0.00     0.040 A 
HETATM   27  C   UNL     1      -5.380   4.097 -34.406  1.00  0.00     0.012 A 
BRANCH  24  28
HETATM   28  O   UNL     1      -1.648   4.613 -32.618  1.00  0.00    -0.349 OA
BRANCH  28  29
HETATM   29  C   UNL     1      -1.600   5.085 -31.271  1.00  0.00     0.171 C 
HETATM   30  C   UNL     1      -0.366   5.958 -31.125  1.00  0.00     0.034 C 
ENDBRANCH  28  29
ENDBRANCH  24  28
BRANCH  25  31
HETATM   31  O   UNL     1      -2.371   6.119 -34.697  1.00  0.00    -0.358 OA
HETATM   32  H   UNL     1      -2.757   6.435 -35.538  1.00  0.00     0.218 HD
ENDBRANCH  25  31
ENDBRANCH   6  22
BRANCH   1  33
HETATM   33  C   UNL     1      -4.442   0.320 -32.924  1.00  0.00     0.155 C 
BRANCH  33  34
HETATM   34  C   UNL     1      -4.883  -1.145 -33.077  1.00  0.00     0.254 C 
BRANCH  34  35
HETATM   35  N   UNL     1      -5.697  -1.412 -34.341  1.00  0.00    -0.070 N 
HETATM   36  H   UNL     1      -5.350  -0.738 -35.038  1.00  0.00     0.279 HD
BRANCH  35  37
HETATM   37  C   UNL     1      -7.183  -1.105 -34.196  1.00  0.00     0.230 C 
HETATM   38  C   UNL     1      -7.622  -0.018 -35.160  1.00  0.00     0.034 C 
ENDBRANCH  35  37
BRANCH  35  39
HETATM   39  C   UNL     1      -5.494  -2.784 -34.964  1.00  0.00     0.230 C 
HETATM   40  C   UNL     1      -6.732  -3.650 -34.816  1.00  0.00     0.034 C 
ENDBRANCH  35  39
ENDBRANCH  34  35
ENDBRANCH  33  34
ENDBRANCH   1  33
TORSDOF 14
ENDMDL
MODEL 10
REMARK VINA RESULT:      -7.3      2.681      5.420
REMARK  14 active torsions:
REMARK  status: ('A' for Active; 'I' for Inactive)
REMARK    1  A    between atoms: C_2  and  N_3 
REMARK    2  A    between atoms: N_3  and  C_5 
REMARK    3  A    between atoms: N_3  and  C_37 
REMARK    4  A    between atoms: C_5  and  C_6 
REMARK    5  A    between atoms: C_6  and  N_7 
REMARK    6  A    between atoms: C_10  and  O_11 
REMARK    7  A    between atoms: C_12  and  C_13 
REMARK    8  A    between atoms: C_13  and  C_14 
REMARK    9  A    between atoms: C_18  and  O_19 
REMARK   10  A    between atoms: O_19  and  C_20 
REMARK   11  A    between atoms: C_26  and  C_27 
REMARK   12  A    between atoms: C_29  and  O_30 
REMARK   13  A    between atoms: O_30  and  C_31 
REMARK   14  A    between atoms: C_33  and  O_34 
ROOT
HETATM    1  N   UNL     1      -5.788   2.813 -32.108  1.00  0.00    -0.332 N 
HETATM    2  C   UNL     1      -5.704   2.488 -30.775  1.00  0.00     0.278 C 
HETATM    3  O   UNL     1      -5.723   1.372 -30.289  1.00  0.00    -0.265 OA
HETATM    4  C   UNL     1      -5.625   3.753 -30.012  1.00  0.00     0.146 C 
HETATM    5  C   UNL     1      -5.638   4.755 -30.901  1.00  0.00     0.059 C 
HETATM    6  C   UNL     1      -5.636   4.244 -32.318  1.00  0.00     0.161 C 
ENDROOT
BRANCH   5   7
HETATM    7  C   UNL     1      -5.678   6.224 -30.735  1.00  0.00     0.193 C 
HETATM    8  O   UNL     1      -6.714   6.831 -31.006  1.00  0.00    -0.287 OA
BRANCH   7   9
HETATM    9  C   UNL     1      -4.516   7.001 -30.265  1.00  0.00     0.015 A 
HETATM   10  C   UNL     1      -3.797   7.847 -31.114  1.00  0.00     0.025 A 
HETATM   11  C   UNL     1      -2.646   8.504 -30.649  1.00  0.00    -0.028 A 
HETATM   12  C   UNL     1      -1.886   9.425 -31.562  1.00  0.00     0.051 C 
HETATM   13  C   UNL     1      -2.184   8.244 -29.346  1.00  0.00     0.075 A 
HETATM   14  C   UNL     1      -2.910   7.405 -28.499  1.00  0.00     0.038 A 
HETATM   15  C   UNL     1      -4.067   6.774 -28.961  1.00  0.00     0.018 A 
BRANCH  13  16
HETATM   16  O   UNL     1      -1.032   8.877 -28.964  1.00  0.00    -0.346 OA
BRANCH  16  17
HETATM   17  C   UNL     1      -0.418   8.421 -27.748  1.00  0.00     0.121 C 
HETATM   18  C   UNL     1       1.043   8.030 -27.976  1.00  0.00     0.040 C 
HETATM   19  C   UNL     1      -0.489   9.588 -26.764  1.00  0.00     0.040 C 
ENDBRANCH  16  17
ENDBRANCH  13  16
ENDBRANCH   7   9
ENDBRANCH   5   7
BRANCH   4  20
HETATM   20  O   UNL     1      -5.592   3.790 -28.653  1.00  0.00    -0.355 OA
HETATM   21  H   UNL     1      -6.392   4.276 -28.362  1.00  0.00     0.218 HD
ENDBRANCH   4  20
BRANCH   6  22
HETATM   22  C   UNL     1      -4.378   4.556 -33.115  1.00  0.00    -0.028 A 
HETATM   23  C   UNL     1      -3.122   4.482 -32.477  1.00  0.00     0.049 A 
HETATM   24  C   UNL     1      -1.955   4.834 -33.157  1.00  0.00     0.102 A 
HETATM   25  C   UNL     1      -2.052   5.248 -34.488  1.00  0.00     0.099 A 
HETATM   26  C   UNL     1      -3.272   5.305 -35.147  1.00  0.00     0.040 A 
HETATM   27  C   UNL     1      -4.435   4.958 -34.464  1.00  0.00     0.012 A 
BRANCH  24  28
HETATM   28  O   UNL     1      -0.687   4.838 -32.641  1.00  0.00    -0.349 OA
BRANCH  28  29
HETATM   29  C   UNL     1      -0.534   5.297 -31.297  1.00  0.00     0.171 C 
HETATM   30  C   UNL     1       0.425   6.474 -31.312  1.00  0.00     0.034 C 
ENDBRANCH  28  29
ENDBRANCH  24  28
BRANCH  25  31
HETATM   31  O   UNL     1      -0.931   5.612 -35.182  1.00  0.00    -0.358 OA
HETATM   32  H   UNL     1      -1.240   5.824 -36.084  1.00  0.00     0.218 HD
ENDBRANCH  25  31
ENDBRANCH   6  22
BRANCH   1  33
HETATM   33  C   UNL     1      -5.738   1.827 -33.175  1.00  0.00     0.155 C 
BRANCH  33  34
HETATM   34  C   UNL     1      -7.135   1.448 -33.693  1.00  0.00     0.254 C 
BRANCH  34  35
HETATM   35  N   UNL     1      -7.751   0.249 -32.977  1.00  0.00    -0.070 N 
HETATM   36  H   UNL     1      -7.579   0.411 -31.974  1.00  0.00     0.279 HD
BRANCH  35  37
HETATM   37  C   UNL     1      -7.068  -1.076 -33.290  1.00  0.00     0.230 C 
HETATM   38  C   UNL     1      -6.951  -1.300 -34.787  1.00  0.00     0.034 C 
ENDBRANCH  35  37
BRANCH  35  39
HETATM   39  C   UNL     1      -9.260   0.117 -33.116  1.00  0.00     0.230 C 
HETATM   40  C   UNL     1      -9.817   1.126 -34.104  1.00  0.00     0.034 C 
ENDBRANCH  35  39
ENDBRANCH  34  35
ENDBRANCH  33  34
ENDBRANCH   1  33
TORSDOF 14
ENDMDL
