MODEL 1
REMARK VINA RESULT:      -8.4      0.000      0.000
REMARK  6 active torsions:
REMARK  status: ('A' for Active; 'I' for Inactive)
REMARK    1  A    between atoms: C_4  and  C_5 
REMARK    2  A    between atoms: C_5  and  N_6 
REMARK    3  A    between atoms: N_6  and  N_7 
REMARK    4  A    between atoms: N_6  and  C_21 
REMARK       I    between atoms: N_7  and  C_8 
REMARK    5  A    between atoms: C_8  and  C_9 
REMARK    6  A    between atoms: C_9  and  C_10 
ROOT
HETATM    1  N   UNL     1      -5.154  -0.791 -32.727  1.00  0.00    -0.267 N 
HETATM    2  C   UNL     1      -3.911  -0.258 -32.397  1.00  0.00     0.240 C 
HETATM    3  O   UNL     1      -3.012  -0.059 -33.212  1.00  0.00    -0.272 OA
HETATM    4  H   UNL     1      -5.886  -0.974 -32.051  1.00  0.00     0.190 HD
ENDROOT
BRANCH   1   5
HETATM    5  N   UNL     1      -5.479  -1.073 -34.074  1.00  0.00    -0.286 N 
BRANCH   5   6
HETATM    6  C   UNL     1      -6.366  -0.083 -34.720  1.00  0.00     0.187 C 
BRANCH   6   7
HETATM    7  C   UNL     1      -7.347   0.534 -33.741  1.00  0.00    -0.038 A 
HETATM    8  C   UNL     1      -7.371   1.923 -33.548  1.00  0.00     0.009 A 
HETATM    9  C   UNL     1      -8.304   2.506 -32.687  1.00  0.00     0.001 A 
HETATM   10  C   UNL     1      -9.230   1.709 -32.018  1.00  0.00     0.000 A 
HETATM   11  C   UNL     1      -9.228   0.330 -32.210  1.00  0.00     0.001 A 
HETATM   12  C   UNL     1      -8.296  -0.254 -33.070  1.00  0.00     0.009 A 
ENDBRANCH   6   7
ENDBRANCH   5   6
BRANCH   5  13
HETATM   13  C   UNL     1      -5.555  -2.450 -34.374  1.00  0.00     0.051 A 
HETATM   14  C   UNL     1      -4.461  -3.302 -34.120  1.00  0.00     0.031 A 
HETATM   15  C   UNL     1      -4.502  -4.671 -34.410  1.00  0.00     0.002 A 
HETATM   16  C   UNL     1      -5.643  -5.229 -34.971  1.00  0.00     0.000 A 
HETATM   17  C   UNL     1      -6.734  -4.414 -35.250  1.00  0.00     0.002 A 
HETATM   18  C   UNL     1      -6.684  -3.043 -34.962  1.00  0.00     0.031 A 
ENDBRANCH   5  13
ENDBRANCH   1   5
BRANCH   2  19
HETATM   19  C   UNL     1      -3.810   0.075 -30.915  1.00  0.00     0.145 C 
BRANCH  19  20
HETATM   20  C   UNL     1      -4.867   1.022 -30.445  1.00  0.00    -0.021 A 
HETATM   21  C   UNL     1      -4.920   2.433 -30.692  1.00  0.00    -0.001 A 
HETATM   22  C   UNL     1      -6.081   2.921 -30.096  1.00  0.00     0.042 A 
HETATM   23  C   UNL     1      -4.079   3.342 -31.368  1.00  0.00     0.014 A 
HETATM   24  C   UNL     1      -6.451   4.271 -30.147  1.00  0.00     0.030 A 
HETATM   25  N   UNL     1      -6.707   1.853 -29.496  1.00  0.00    -0.365 N 
HETATM   26  C   UNL     1      -5.603   5.149 -30.828  1.00  0.00     0.002 A 
HETATM   27  C   UNL     1      -4.432   4.694 -31.429  1.00  0.00     0.001 A 
HETATM   28  H   UNL     1      -7.570   1.917 -28.976  1.00  0.00     0.165 HD
HETATM   29  C   UNL     1      -5.991   0.705 -29.707  1.00  0.00     0.097 A 
ENDBRANCH  19  20
ENDBRANCH   2  19
TORSDOF 6
ENDMDL
MODEL 2
REMARK VINA RESULT:      -8.3      2.408      6.579
REMARK  6 active torsions:
REMARK  status: ('A' for Active; 'I' for Inactive)
REMARK    1  A    between atoms: C_4  and  C_5 
REMARK    2  A    between atoms: C_5  and  N_6 
REMARK    3  A    between atoms: N_6  and  N_7 
REMARK    4  A    between atoms: N_6  and  C_21 
REMARK       I    between atoms: N_7  and  C_8 
REMARK    5  A    between atoms: C_8  and  C_9 
REMARK    6  A    between atoms: C_9  and  C_10 
ROOT
HETATM    1  N   UNL     1      -8.566  -0.097 -33.774  1.00  0.00    -0.267 N 
HETATM    2  C   UNL     1      -7.571   0.251 -34.684  1.00  0.00     0.240 C 
HETATM    3  O   UNL     1      -7.295   1.410 -34.988  1.00  0.00    -0.272 OA
HETATM    4  H   UNL     1      -8.806  -1.053 -33.540  1.00  0.00     0.190 HD
ENDROOT
BRANCH   1   5
HETATM    5  N   UNL     1      -9.285   0.903 -33.080  1.00  0.00    -0.286 N 
BRANCH   5   6
HETATM    6  C   UNL     1      -9.061   0.930 -31.620  1.00  0.00     0.187 C 
BRANCH   6   7
HETATM    7  C   UNL     1      -7.620   1.244 -31.266  1.00  0.00    -0.038 A 
HETATM    8  C   UNL     1      -6.838   0.296 -30.589  1.00  0.00     0.009 A 
HETATM    9  C   UNL     1      -5.496   0.555 -30.301  1.00  0.00     0.001 A 
HETATM   10  C   UNL     1      -4.917   1.759 -30.697  1.00  0.00     0.000 A 
HETATM   11  C   UNL     1      -5.676   2.704 -31.383  1.00  0.00     0.001 A 
HETATM   12  C   UNL     1      -7.017   2.446 -31.670  1.00  0.00     0.009 A 
ENDBRANCH   6   7
ENDBRANCH   5   6
BRANCH   5  13
HETATM   13  C   UNL     1     -10.539   1.212 -33.648  1.00  0.00     0.051 A 
HETATM   14  C   UNL     1     -10.714   2.384 -34.412  1.00  0.00     0.031 A 
HETATM   15  C   UNL     1     -11.946   2.722 -34.986  1.00  0.00     0.002 A 
HETATM   16  C   UNL     1     -13.046   1.894 -34.805  1.00  0.00     0.000 A 
HETATM   17  C   UNL     1     -12.913   0.740 -34.043  1.00  0.00     0.002 A 
HETATM   18  C   UNL     1     -11.678   0.411 -33.467  1.00  0.00     0.031 A 
ENDBRANCH   5  13
ENDBRANCH   1   5
BRANCH   2  19
HETATM   19  C   UNL     1      -6.847  -0.971 -35.230  1.00  0.00     0.145 C 
BRANCH  19  20
HETATM   20  C   UNL     1      -5.700  -1.415 -34.380  1.00  0.00    -0.021 A 
HETATM   21  C   UNL     1      -5.215  -2.755 -34.233  1.00  0.00    -0.001 A 
HETATM   22  C   UNL     1      -4.121  -2.714 -33.370  1.00  0.00     0.042 A 
HETATM   23  C   UNL     1      -5.613  -4.004 -34.754  1.00  0.00     0.014 A 
HETATM   24  C   UNL     1      -3.397  -3.857 -33.007  1.00  0.00     0.030 A 
HETATM   25  N   UNL     1      -3.952  -1.402 -32.994  1.00  0.00    -0.365 N 
HETATM   26  C   UNL     1      -3.809  -5.080 -33.543  1.00  0.00     0.002 A 
HETATM   27  C   UNL     1      -4.902  -5.156 -34.402  1.00  0.00     0.001 A 
HETATM   28  H   UNL     1      -3.237  -1.078 -32.359  1.00  0.00     0.165 HD
HETATM   29  C   UNL     1      -4.890  -0.610 -33.602  1.00  0.00     0.097 A 
ENDBRANCH  19  20
ENDBRANCH   2  19
TORSDOF 6
ENDMDL
MODEL 3
REMARK VINA RESULT:      -8.2      2.969      7.084
REMARK  6 active torsions:
REMARK  status: ('A' for Active; 'I' for Inactive)
REMARK    1  A    between atoms: C_4  and  C_5 
REMARK    2  A    between atoms: C_5  and  N_6 
REMARK    3  A    between atoms: N_6  and  N_7 
REMARK    4  A    between atoms: N_6  and  C_21 
REMARK       I    between atoms: N_7  and  C_8 
REMARK    5  A    between atoms: C_8  and  C_9 
REMARK    6  A    between atoms: C_9  and  C_10 
ROOT
HETATM    1  N   UNL     1      -8.689   1.490 -34.541  1.00  0.00    -0.267 N 
HETATM    2  C   UNL     1      -8.245   0.224 -34.169  1.00  0.00     0.240 C 
HETATM    3  O   UNL     1      -8.625  -0.366 -33.159  1.00  0.00    -0.272 OA
HETATM    4  H   UNL     1      -8.360   1.983 -35.362  1.00  0.00     0.190 HD
ENDROOT
BRANCH   1   5
HETATM    5  N   UNL     1      -9.685   2.151 -33.787  1.00  0.00    -0.286 N 
BRANCH   5   6
HETATM    6  C   UNL     1     -10.872   2.574 -34.559  1.00  0.00     0.187 C 
BRANCH   6   7
HETATM    7  C   UNL     1     -12.063   1.665 -34.326  1.00  0.00    -0.038 A 
HETATM    8  C   UNL     1     -11.886   0.417 -33.710  1.00  0.00     0.009 A 
HETATM    9  C   UNL     1     -12.983  -0.408 -33.445  1.00  0.00     0.001 A 
HETATM   10  C   UNL     1     -14.268   0.011 -33.783  1.00  0.00     0.000 A 
HETATM   11  C   UNL     1     -14.461   1.253 -34.382  1.00  0.00     0.001 A 
HETATM   12  C   UNL     1     -13.366   2.077 -34.647  1.00  0.00     0.009 A 
ENDBRANCH   6   7
ENDBRANCH   5   6
BRANCH   5  13
HETATM   13  C   UNL     1      -9.184   2.915 -32.711  1.00  0.00     0.051 A 
HETATM   14  C   UNL     1      -8.286   3.976 -32.941  1.00  0.00     0.031 A 
HETATM   15  C   UNL     1      -7.766   4.751 -31.896  1.00  0.00     0.002 A 
HETATM   16  C   UNL     1      -8.128   4.478 -30.583  1.00  0.00     0.000 A 
HETATM   17  C   UNL     1      -8.999   3.428 -30.320  1.00  0.00     0.002 A 
HETATM   18  C   UNL     1      -9.510   2.653 -31.371  1.00  0.00     0.031 A 
ENDBRANCH   5  13
ENDBRANCH   1   5
BRANCH   2  19
HETATM   19  C   UNL     1      -7.260  -0.352 -35.176  1.00  0.00     0.145 C 
BRANCH  19  20
HETATM   20  C   UNL     1      -6.092  -1.038 -34.542  1.00  0.00    -0.021 A 
HETATM   21  C   UNL     1      -5.803  -2.441 -34.579  1.00  0.00    -0.001 A 
HETATM   22  C   UNL     1      -4.611  -2.643 -33.885  1.00  0.00     0.042 A 
HETATM   23  C   UNL     1      -6.454  -3.561 -35.138  1.00  0.00     0.014 A 
HETATM   24  C   UNL     1      -4.030  -3.908 -33.728  1.00  0.00     0.030 A 
HETATM   25  N   UNL     1      -4.195  -1.414 -33.430  1.00  0.00    -0.365 N 
HETATM   26  C   UNL     1      -4.692  -5.000 -34.297  1.00  0.00     0.002 A 
HETATM   27  C   UNL     1      -5.888  -4.832 -34.991  1.00  0.00     0.001 A 
HETATM   28  H   UNL     1      -3.361  -1.261 -32.882  1.00  0.00     0.165 HD
HETATM   29  C   UNL     1      -5.072  -0.440 -33.826  1.00  0.00     0.097 A 
ENDBRANCH  19  20
ENDBRANCH   2  19
TORSDOF 6
ENDMDL
MODEL 4
REMARK VINA RESULT:      -8.2      1.025      1.591
REMARK  6 active torsions:
REMARK  status: ('A' for Active; 'I' for Inactive)
REMARK    1  A    between atoms: C_4  and  C_5 
REMARK    2  A    between atoms: C_5  and  N_6 
REMARK    3  A    between atoms: N_6  and  N_7 
REMARK    4  A    between atoms: N_6  and  C_21 
REMARK       I    between atoms: N_7  and  C_8 
REMARK    5  A    between atoms: C_8  and  C_9 
REMARK    6  A    between atoms: C_9  and  C_10 
ROOT
HETATM    1  N   UNL     1      -5.321  -0.434 -32.851  1.00  0.00    -0.267 N 
HETATM    2  C   UNL     1      -4.048   0.025 -32.525  1.00  0.00     0.240 C 
HETATM    3  O   UNL     1      -3.099   0.027 -33.307  1.00  0.00    -0.272 OA
HETATM    4  H   UNL     1      -6.097  -0.454 -32.200  1.00  0.00     0.190 HD
ENDROOT
BRANCH   1   5
HETATM    5  N   UNL     1      -5.612  -0.870 -34.164  1.00  0.00    -0.286 N 
BRANCH   5   6
HETATM    6  C   UNL     1      -6.569  -0.021 -34.904  1.00  0.00     0.187 C 
BRANCH   6   7
HETATM    7  C   UNL     1      -7.603   0.608 -33.990  1.00  0.00    -0.038 A 
HETATM    8  C   UNL     1      -7.694   2.005 -33.886  1.00  0.00     0.009 A 
HETATM    9  C   UNL     1      -8.675   2.596 -33.086  1.00  0.00     0.001 A 
HETATM   10  C   UNL     1      -9.583   1.799 -32.392  1.00  0.00     0.000 A 
HETATM   11  C   UNL     1      -9.515   0.413 -32.497  1.00  0.00     0.001 A 
HETATM   12  C   UNL     1      -8.535  -0.179 -33.295  1.00  0.00     0.009 A 
ENDBRANCH   6   7
ENDBRANCH   5   6
BRANCH   5  13
HETATM   13  C   UNL     1      -5.576  -2.271 -34.328  1.00  0.00     0.051 A 
HETATM   14  C   UNL     1      -4.384  -2.990 -34.110  1.00  0.00     0.031 A 
HETATM   15  C   UNL     1      -4.313  -4.380 -34.269  1.00  0.00     0.002 A 
HETATM   16  C   UNL     1      -5.440  -5.093 -34.658  1.00  0.00     0.000 A 
HETATM   17  C   UNL     1      -6.627  -4.413 -34.898  1.00  0.00     0.002 A 
HETATM   18  C   UNL     1      -6.689  -3.021 -34.742  1.00  0.00     0.031 A 
ENDBRANCH   5  13
ENDBRANCH   1   5
BRANCH   2  19
HETATM   19  C   UNL     1      -3.982   0.552 -31.098  1.00  0.00     0.145 C 
BRANCH  19  20
HETATM   20  C   UNL     1      -4.162   2.033 -31.000  1.00  0.00    -0.021 A 
HETATM   21  C   UNL     1      -5.330   2.721 -30.533  1.00  0.00    -0.001 A 
HETATM   22  C   UNL     1      -5.060   4.088 -30.585  1.00  0.00     0.042 A 
HETATM   23  C   UNL     1      -6.596   2.302 -30.075  1.00  0.00     0.014 A 
HETATM   24  C   UNL     1      -5.990   5.059 -30.193  1.00  0.00     0.030 A 
HETATM   25  N   UNL     1      -3.784   4.229 -31.077  1.00  0.00    -0.365 N 
HETATM   26  C   UNL     1      -7.235   4.617 -29.737  1.00  0.00     0.002 A 
HETATM   27  C   UNL     1      -7.537   3.259 -29.680  1.00  0.00     0.001 A 
HETATM   28  H   UNL     1      -3.328   5.117 -31.232  1.00  0.00     0.165 HD
HETATM   29  C   UNL     1      -3.231   3.001 -31.322  1.00  0.00     0.097 A 
ENDBRANCH  19  20
ENDBRANCH   2  19
TORSDOF 6
ENDMDL
MODEL 5
REMARK VINA RESULT:      -8.1      2.227      5.863
REMARK  6 active torsions:
REMARK  status: ('A' for Active; 'I' for Inactive)
REMARK    1  A    between atoms: C_4  and  C_5 
REMARK    2  A    between atoms: C_5  and  N_6 
REMARK    3  A    between atoms: N_6  and  N_7 
REMARK    4  A    between atoms: N_6  and  C_21 
REMARK       I    between atoms: N_7  and  C_8 
REMARK    5  A    between atoms: C_8  and  C_9 
REMARK    6  A    between atoms: C_9  and  C_10 
ROOT
HETATM    1  N   UNL     1      -5.525   2.428 -31.883  1.00  0.00    -0.267 N 
HETATM    2  C   UNL     1      -5.395   2.224 -30.512  1.00  0.00     0.240 C 
HETATM    3  O   UNL     1      -5.344   3.132 -29.685  1.00  0.00    -0.272 OA
HETATM    4  H   UNL     1      -5.546   1.680 -32.565  1.00  0.00     0.190 HD
ENDROOT
BRANCH   1   5
HETATM    5  N   UNL     1      -5.681   3.734 -32.402  1.00  0.00    -0.286 N 
BRANCH   5   6
HETATM    6  C   UNL     1      -7.072   4.115 -32.720  1.00  0.00     0.187 C 
BRANCH   6   7
HETATM    7  C   UNL     1      -7.963   2.907 -32.939  1.00  0.00    -0.038 A 
HETATM    8  C   UNL     1      -8.745   2.409 -31.886  1.00  0.00     0.009 A 
HETATM    9  C   UNL     1      -9.606   1.327 -32.090  1.00  0.00     0.001 A 
HETATM   10  C   UNL     1      -9.703   0.740 -33.350  1.00  0.00     0.000 A 
HETATM   11  C   UNL     1      -8.943   1.232 -34.407  1.00  0.00     0.001 A 
HETATM   12  C   UNL     1      -8.082   2.312 -34.205  1.00  0.00     0.009 A 
ENDBRANCH   6   7
ENDBRANCH   5   6
BRANCH   5  13
HETATM   13  C   UNL     1      -4.589   4.182 -33.177  1.00  0.00     0.051 A 
HETATM   14  C   UNL     1      -4.800   4.820 -34.415  1.00  0.00     0.031 A 
HETATM   15  C   UNL     1      -3.740   5.272 -35.210  1.00  0.00     0.002 A 
HETATM   16  C   UNL     1      -2.429   5.091 -34.787  1.00  0.00     0.000 A 
HETATM   17  C   UNL     1      -2.185   4.451 -33.579  1.00  0.00     0.002 A 
HETATM   18  C   UNL     1      -3.252   3.996 -32.791  1.00  0.00     0.031 A 
ENDBRANCH   5  13
ENDBRANCH   1   5
BRANCH   2  19
HETATM   19  C   UNL     1      -5.354   0.744 -30.160  1.00  0.00     0.145 C 
BRANCH  19  20
HETATM   20  C   UNL     1      -4.630  -0.090 -31.168  1.00  0.00    -0.021 A 
HETATM   21  C   UNL     1      -5.212  -0.779 -32.282  1.00  0.00    -0.001 A 
HETATM   22  C   UNL     1      -4.178  -1.408 -32.973  1.00  0.00     0.042 A 
HETATM   23  C   UNL     1      -6.530  -0.928 -32.762  1.00  0.00     0.014 A 
HETATM   24  C   UNL     1      -4.392  -2.173 -34.127  1.00  0.00     0.030 A 
HETATM   25  N   UNL     1      -3.012  -1.126 -32.301  1.00  0.00    -0.365 N 
HETATM   26  C   UNL     1      -5.707  -2.299 -34.585  1.00  0.00     0.002 A 
HETATM   27  C   UNL     1      -6.763  -1.688 -33.913  1.00  0.00     0.001 A 
HETATM   28  H   UNL     1      -2.101  -1.465 -32.573  1.00  0.00     0.165 HD
HETATM   29  C   UNL     1      -3.270  -0.327 -31.219  1.00  0.00     0.097 A 
ENDBRANCH  19  20
ENDBRANCH   2  19
TORSDOF 6
ENDMDL
MODEL 6
REMARK VINA RESULT:      -8.0      2.418      3.370
REMARK  6 active torsions:
REMARK  status: ('A' for Active; 'I' for Inactive)
REMARK    1  A    between atoms: C_4  and  C_5 
REMARK    2  A    between atoms: C_5  and  N_6 
REMARK    3  A    between atoms: N_6  and  N_7 
REMARK    4  A    between atoms: N_6  and  C_21 
REMARK       I    between atoms: N_7  and  C_8 
REMARK    5  A    between atoms: C_8  and  C_9 
REMARK    6  A    between atoms: C_9  and  C_10 
ROOT
HETATM    1  N   UNL     1      -5.168   0.773 -32.109  1.00  0.00    -0.267 N 
HETATM    2  C   UNL     1      -4.800   2.054 -32.511  1.00  0.00     0.240 C 
HETATM    3  O   UNL     1      -5.382   2.692 -33.386  1.00  0.00    -0.272 OA
HETATM    4  H   UNL     1      -4.675   0.241 -31.402  1.00  0.00     0.190 HD
ENDROOT
BRANCH   1   5
HETATM    5  N   UNL     1      -6.311   0.150 -32.659  1.00  0.00    -0.286 N 
BRANCH   5   6
HETATM    6  C   UNL     1      -7.548   0.308 -31.867  1.00  0.00     0.187 C 
BRANCH   6   7
HETATM    7  C   UNL     1      -8.725   0.743 -32.719  1.00  0.00    -0.038 A 
HETATM    8  C   UNL     1      -9.942   0.049 -32.647  1.00  0.00     0.009 A 
HETATM    9  C   UNL     1     -11.047   0.471 -33.390  1.00  0.00     0.001 A 
HETATM   10  C   UNL     1     -10.951   1.597 -34.205  1.00  0.00     0.000 A 
HETATM   11  C   UNL     1      -9.754   2.305 -34.276  1.00  0.00     0.001 A 
HETATM   12  C   UNL     1      -8.650   1.884 -33.534  1.00  0.00     0.009 A 
ENDBRANCH   6   7
ENDBRANCH   5   6
BRANCH   5  13
HETATM   13  C   UNL     1      -6.035  -1.030 -33.382  1.00  0.00     0.051 A 
HETATM   14  C   UNL     1      -4.709  -1.483 -33.539  1.00  0.00     0.031 A 
HETATM   15  C   UNL     1      -4.400  -2.647 -34.254  1.00  0.00     0.002 A 
HETATM   16  C   UNL     1      -5.415  -3.392 -34.840  1.00  0.00     0.000 A 
HETATM   17  C   UNL     1      -6.732  -2.964 -34.719  1.00  0.00     0.002 A 
HETATM   18  C   UNL     1      -7.033  -1.795 -34.007  1.00  0.00     0.031 A 
ENDBRANCH   5  13
ENDBRANCH   1   5
BRANCH   2  19
HETATM   19  C   UNL     1      -3.613   2.580 -31.715  1.00  0.00     0.145 C 
BRANCH  19  20
HETATM   20  C   UNL     1      -3.531   4.073 -31.685  1.00  0.00    -0.021 A 
HETATM   21  C   UNL     1      -2.783   4.904 -32.581  1.00  0.00    -0.001 A 
HETATM   22  C   UNL     1      -3.007   6.229 -32.210  1.00  0.00     0.042 A 
HETATM   23  C   UNL     1      -1.929   4.648 -33.674  1.00  0.00     0.014 A 
HETATM   24  C   UNL     1      -2.428   7.313 -32.881  1.00  0.00     0.030 A 
HETATM   25  N   UNL     1      -3.847   6.208 -31.122  1.00  0.00    -0.365 N 
HETATM   26  C   UNL     1      -1.592   7.032 -33.965  1.00  0.00     0.002 A 
HETATM   27  C   UNL     1      -1.343   5.719 -34.357  1.00  0.00     0.001 A 
HETATM   28  H   UNL     1      -4.170   7.031 -30.633  1.00  0.00     0.165 HD
HETATM   29  C   UNL     1      -4.176   4.917 -30.802  1.00  0.00     0.097 A 
ENDBRANCH  19  20
ENDBRANCH   2  19
TORSDOF 6
ENDMDL
MODEL 7
REMARK VINA RESULT:      -7.8      2.666      5.272
REMARK  6 active torsions:
REMARK  status: ('A' for Active; 'I' for Inactive)
REMARK    1  A    between atoms: C_4  and  C_5 
REMARK    2  A    between atoms: C_5  and  N_6 
REMARK    3  A    between atoms: N_6  and  N_7 
REMARK    4  A    between atoms: N_6  and  C_21 
REMARK       I    between atoms: N_7  and  C_8 
REMARK    5  A    between atoms: C_8  and  C_9 
REMARK    6  A    between atoms: C_9  and  C_10 
ROOT
HETATM    1  N   UNL     1      -7.429   2.742 -33.376  1.00  0.00    -0.267 N 
HETATM    2  C   UNL     1      -7.100   2.870 -32.029  1.00  0.00     0.240 C 
HETATM    3  O   UNL     1      -7.254   1.977 -31.198  1.00  0.00    -0.272 OA
HETATM    4  H   UNL     1      -7.321   3.485 -34.055  1.00  0.00     0.190 HD
ENDROOT
BRANCH   1   5
HETATM    5  N   UNL     1      -7.908   1.513 -33.883  1.00  0.00    -0.286 N 
BRANCH   5   6
HETATM    6  C   UNL     1      -7.098   0.933 -34.974  1.00  0.00     0.187 C 
BRANCH   6   7
HETATM    7  C   UNL     1      -6.344  -0.307 -34.533  1.00  0.00    -0.038 A 
HETATM    8  C   UNL     1      -6.739  -1.573 -34.992  1.00  0.00     0.009 A 
HETATM    9  C   UNL     1      -6.022  -2.716 -34.632  1.00  0.00     0.001 A 
HETATM   10  C   UNL     1      -4.895  -2.606 -33.819  1.00  0.00     0.000 A 
HETATM   11  C   UNL     1      -4.482  -1.355 -33.368  1.00  0.00     0.001 A 
HETATM   12  C   UNL     1      -5.199  -0.212 -33.726  1.00  0.00     0.009 A 
ENDBRANCH   6   7
ENDBRANCH   5   6
BRANCH   5  13
HETATM   13  C   UNL     1      -9.313   1.379 -33.844  1.00  0.00     0.051 A 
HETATM   14  C   UNL     1     -10.144   2.363 -34.415  1.00  0.00     0.031 A 
HETATM   15  C   UNL     1     -11.541   2.264 -34.390  1.00  0.00     0.002 A 
HETATM   16  C   UNL     1     -12.148   1.172 -33.783  1.00  0.00     0.000 A 
HETATM   17  C   UNL     1     -11.358   0.192 -33.195  1.00  0.00     0.002 A 
HETATM   18  C   UNL     1      -9.960   0.301 -33.220  1.00  0.00     0.031 A 
ENDBRANCH   5  13
ENDBRANCH   1   5
BRANCH   2  19
HETATM   19  C   UNL     1      -6.500   4.234 -31.718  1.00  0.00     0.145 C 
BRANCH  19  20
HETATM   20  C   UNL     1      -5.008   4.265 -31.819  1.00  0.00    -0.021 A 
HETATM   21  C   UNL     1      -4.239   4.618 -32.976  1.00  0.00    -0.001 A 
HETATM   22  C   UNL     1      -2.892   4.539 -32.624  1.00  0.00     0.042 A 
HETATM   23  C   UNL     1      -4.568   4.993 -34.295  1.00  0.00     0.014 A 
HETATM   24  C   UNL     1      -1.856   4.824 -33.522  1.00  0.00     0.030 A 
HETATM   25  N   UNL     1      -2.840   4.141 -31.309  1.00  0.00    -0.365 N 
HETATM   26  C   UNL     1      -2.210   5.200 -34.821  1.00  0.00     0.002 A 
HETATM   27  C   UNL     1      -3.546   5.282 -35.205  1.00  0.00     0.001 A 
HETATM   28  H   UNL     1      -1.986   3.989 -30.792  1.00  0.00     0.165 HD
HETATM   29  C   UNL     1      -4.106   3.982 -30.811  1.00  0.00     0.097 A 
ENDBRANCH  19  20
ENDBRANCH   2  19
TORSDOF 6
ENDMDL
MODEL 8
REMARK VINA RESULT:      -7.8      2.832      5.345
REMARK  6 active torsions:
REMARK  status: ('A' for Active; 'I' for Inactive)
REMARK    1  A    between atoms: C_4  and  C_5 
REMARK    2  A    between atoms: C_5  and  N_6 
REMARK    3  A    between atoms: N_6  and  N_7 
REMARK    4  A    between atoms: N_6  and  C_21 
REMARK       I    between atoms: N_7  and  C_8 
REMARK    5  A    between atoms: C_8  and  C_9 
REMARK    6  A    between atoms: C_9  and  C_10 
ROOT
HETATM    1  N   UNL     1      -6.791   2.153 -33.272  1.00  0.00    -0.267 N 
HETATM    2  C   UNL     1      -6.305   3.356 -32.766  1.00  0.00     0.240 C 
HETATM    3  O   UNL     1      -6.750   3.907 -31.761  1.00  0.00    -0.272 OA
HETATM    4  H   UNL     1      -6.437   1.711 -34.111  1.00  0.00     0.190 HD
ENDROOT
BRANCH   1   5
HETATM    5  N   UNL     1      -7.811   1.449 -32.591  1.00  0.00    -0.286 N 
BRANCH   5   6
HETATM    6  C   UNL     1      -7.366   0.214 -31.913  1.00  0.00     0.187 C 
BRANCH   6   7
HETATM    7  C   UNL     1      -6.541  -0.676 -32.822  1.00  0.00    -0.038 A 
HETATM    8  C   UNL     1      -5.174  -0.865 -32.571  1.00  0.00     0.009 A 
HETATM    9  C   UNL     1      -4.415  -1.722 -33.373  1.00  0.00     0.001 A 
HETATM   10  C   UNL     1      -5.017  -2.407 -34.427  1.00  0.00     0.000 A 
HETATM   11  C   UNL     1      -6.376  -2.240 -34.679  1.00  0.00     0.001 A 
HETATM   12  C   UNL     1      -7.135  -1.384 -33.880  1.00  0.00     0.009 A 
ENDBRANCH   6   7
ENDBRANCH   5   6
BRANCH   5  13
HETATM   13  C   UNL     1      -9.084   1.554 -33.190  1.00  0.00     0.051 A 
HETATM   14  C   UNL     1     -10.075   0.582 -32.948  1.00  0.00     0.031 A 
HETATM   15  C   UNL     1     -11.347   0.654 -33.529  1.00  0.00     0.002 A 
HETATM   16  C   UNL     1     -11.663   1.706 -34.379  1.00  0.00     0.000 A 
HETATM   17  C   UNL     1     -10.704   2.673 -34.653  1.00  0.00     0.002 A 
HETATM   18  C   UNL     1      -9.430   2.591 -34.071  1.00  0.00     0.031 A 
ENDBRANCH   5  13
ENDBRANCH   1   5
BRANCH   2  19
HETATM   19  C   UNL     1      -5.138   3.887 -33.586  1.00  0.00     0.145 C 
BRANCH  19  20
HETATM   20  C   UNL     1      -3.898   4.115 -32.781  1.00  0.00    -0.021 A 
HETATM   21  C   UNL     1      -2.950   5.175 -32.957  1.00  0.00    -0.001 A 
HETATM   22  C   UNL     1      -1.966   5.024 -31.981  1.00  0.00     0.042 A 
HETATM   23  C   UNL     1      -2.838   6.249 -33.864  1.00  0.00     0.014 A 
HETATM   24  C   UNL     1      -0.878   5.898 -31.859  1.00  0.00     0.030 A 
HETATM   25  N   UNL     1      -2.293   3.908 -31.247  1.00  0.00    -0.365 N 
HETATM   26  C   UNL     1      -0.795   6.958 -32.767  1.00  0.00     0.002 A 
HETATM   27  C   UNL     1      -1.758   7.132 -33.758  1.00  0.00     0.001 A 
HETATM   28  H   UNL     1      -1.746   3.552 -30.476  1.00  0.00     0.165 HD
HETATM   29  C   UNL     1      -3.457   3.358 -31.713  1.00  0.00     0.097 A 
ENDBRANCH  19  20
ENDBRANCH   2  19
TORSDOF 6
ENDMDL
MODEL 9
REMARK VINA RESULT:      -7.8      2.784      4.091
REMARK  6 active torsions:
REMARK  status: ('A' for Active; 'I' for Inactive)
REMARK    1  A    between atoms: C_4  and  C_5 
REMARK    2  A    between atoms: C_5  and  N_6 
REMARK    3  A    between atoms: N_6  and  N_7 
REMARK    4  A    between atoms: N_6  and  C_21 
REMARK       I    between atoms: N_7  and  C_8 
REMARK    5  A    between atoms: C_8  and  C_9 
REMARK    6  A    between atoms: C_9  and  C_10 
ROOT
HETATM    1  N   UNL     1      -7.502   1.816 -32.222  1.00  0.00    -0.267 N 
HETATM    2  C   UNL     1      -7.091   2.905 -32.986  1.00  0.00     0.240 C 
HETATM    3  O   UNL     1      -7.157   2.946 -34.213  1.00  0.00    -0.272 OA
HETATM    4  H   UNL     1      -7.428   1.776 -31.212  1.00  0.00     0.190 HD
ENDROOT
BRANCH   1   5
HETATM    5  N   UNL     1      -8.100   0.693 -32.838  1.00  0.00    -0.286 N 
BRANCH   5   6
HETATM    6  C   UNL     1      -9.426   0.323 -32.302  1.00  0.00     0.187 C 
BRANCH   6   7
HETATM    7  C   UNL     1     -10.552   0.694 -33.249  1.00  0.00    -0.038 A 
HETATM    8  C   UNL     1     -11.761  -0.017 -33.220  1.00  0.00     0.009 A 
HETATM    9  C   UNL     1     -12.821   0.348 -34.053  1.00  0.00     0.001 A 
HETATM   10  C   UNL     1     -12.689   1.433 -34.916  1.00  0.00     0.000 A 
HETATM   11  C   UNL     1     -11.501   2.158 -34.946  1.00  0.00     0.001 A 
HETATM   12  C   UNL     1     -10.440   1.794 -34.115  1.00  0.00     0.009 A 
ENDBRANCH   6   7
ENDBRANCH   5   6
BRANCH   5  13
HETATM   13  C   UNL     1      -7.180  -0.278 -33.287  1.00  0.00     0.051 A 
HETATM   14  C   UNL     1      -7.484  -1.101 -34.389  1.00  0.00     0.031 A 
HETATM   15  C   UNL     1      -6.595  -2.077 -34.857  1.00  0.00     0.002 A 
HETATM   16  C   UNL     1      -5.371  -2.261 -34.227  1.00  0.00     0.000 A 
HETATM   17  C   UNL     1      -5.046  -1.478 -33.126  1.00  0.00     0.002 A 
HETATM   18  C   UNL     1      -5.944  -0.506 -32.660  1.00  0.00     0.031 A 
ENDBRANCH   5  13
ENDBRANCH   1   5
BRANCH   2  19
HETATM   19  C   UNL     1      -6.582   4.048 -32.119  1.00  0.00     0.145 C 
BRANCH  19  20
HETATM   20  C   UNL     1      -5.091   4.097 -32.014  1.00  0.00    -0.021 A 
HETATM   21  C   UNL     1      -4.179   4.542 -33.026  1.00  0.00    -0.001 A 
HETATM   22  C   UNL     1      -2.890   4.446 -32.502  1.00  0.00     0.042 A 
HETATM   23  C   UNL     1      -4.333   5.014 -34.346  1.00  0.00     0.014 A 
HETATM   24  C   UNL     1      -1.748   4.806 -33.226  1.00  0.00     0.030 A 
HETATM   25  N   UNL     1      -3.010   3.949 -31.225  1.00  0.00    -0.365 N 
HETATM   26  C   UNL     1      -1.930   5.277 -34.530  1.00  0.00     0.002 A 
HETATM   27  C   UNL     1      -3.203   5.379 -35.085  1.00  0.00     0.001 A 
HETATM   28  H   UNL     1      -2.231   3.764 -30.610  1.00  0.00     0.165 HD
HETATM   29  C   UNL     1      -4.328   3.744 -30.917  1.00  0.00     0.097 A 
ENDBRANCH  19  20
ENDBRANCH   2  19
TORSDOF 6
ENDMDL
MODEL 10
REMARK VINA RESULT:      -7.8      2.567      5.974
REMARK  6 active torsions:
REMARK  status: ('A' for Active; 'I' for Inactive)
REMARK    1  A    between atoms: C_4  and  C_5 
REMARK    2  A    between atoms: C_5  and  N_6 
REMARK    3  A    between atoms: N_6  and  N_7 
REMARK    4  A    between atoms: N_6  and  C_21 
REMARK       I    between atoms: N_7  and  C_8 
REMARK    5  A    between atoms: C_8  and  C_9 
REMARK    6  A    between atoms: C_9  and  C_10 
ROOT
HETATM    1  N   UNL     1      -8.924   0.457 -33.046  1.00  0.00    -0.267 N 
HETATM    2  C   UNL     1      -8.094   0.023 -34.076  1.00  0.00     0.240 C 
HETATM    3  O   UNL     1      -7.729   0.736 -35.009  1.00  0.00    -0.272 OA
HETATM    4  H   UNL     1      -9.241  -0.137 -32.289  1.00  0.00     0.190 HD
ENDROOT
BRANCH   1   5
HETATM    5  N   UNL     1      -9.346   1.805 -32.985  1.00  0.00    -0.286 N 
BRANCH   5   6
HETATM    6  C   UNL     1      -9.226   2.435 -31.654  1.00  0.00     0.187 C 
BRANCH   6   7
HETATM    7  C   UNL     1      -7.833   2.980 -31.401  1.00  0.00    -0.038 A 
HETATM    8  C   UNL     1      -7.344   3.081 -30.090  1.00  0.00     0.009 A 
HETATM    9  C   UNL     1      -6.044   3.535 -29.849  1.00  0.00     0.001 A 
HETATM   10  C   UNL     1      -5.217   3.882 -30.915  1.00  0.00     0.000 A 
HETATM   11  C   UNL     1      -5.684   3.773 -32.222  1.00  0.00     0.001 A 
HETATM   12  C   UNL     1      -6.981   3.320 -32.465  1.00  0.00     0.009 A 
ENDBRANCH   6   7
ENDBRANCH   5   6
BRANCH   5  13
HETATM   13  C   UNL     1     -10.403   2.120 -33.866  1.00  0.00     0.051 A 
HETATM   14  C   UNL     1     -10.395   3.325 -34.597  1.00  0.00     0.031 A 
HETATM   15  C   UNL     1     -11.430   3.670 -35.475  1.00  0.00     0.002 A 
HETATM   16  C   UNL     1     -12.511   2.815 -35.644  1.00  0.00     0.000 A 
HETATM   17  C   UNL     1     -12.559   1.626 -34.927  1.00  0.00     0.002 A 
HETATM   18  C   UNL     1     -11.522   1.290 -34.045  1.00  0.00     0.031 A 
ENDBRANCH   5  13
ENDBRANCH   1   5
BRANCH   2  19
HETATM   19  C   UNL     1      -7.668  -1.426 -33.890  1.00  0.00     0.145 C 
BRANCH  19  20
HETATM   20  C   UNL     1      -6.190  -1.600 -33.748  1.00  0.00    -0.021 A 
HETATM   21  C   UNL     1      -5.352  -0.998 -32.752  1.00  0.00    -0.001 A 
HETATM   22  C   UNL     1      -4.051  -1.447 -32.971  1.00  0.00     0.042 A 
HETATM   23  C   UNL     1      -5.584  -0.105 -31.685  1.00  0.00     0.014 A 
HETATM   24  C   UNL     1      -2.969  -1.057 -32.172  1.00  0.00     0.030 A 
HETATM   25  N   UNL     1      -4.089  -2.280 -34.065  1.00  0.00    -0.365 N 
HETATM   26  C   UNL     1      -3.228  -0.176 -31.117  1.00  0.00     0.002 A 
HETATM   27  C   UNL     1      -4.516   0.296 -30.876  1.00  0.00     0.001 A 
HETATM   28  H   UNL     1      -3.282  -2.741 -34.459  1.00  0.00     0.165 HD
HETATM   29  C   UNL     1      -5.371  -2.386 -34.535  1.00  0.00     0.097 A 
ENDBRANCH  19  20
ENDBRANCH   2  19
TORSDOF 6
ENDMDL
