MODEL 1
REMARK VINA RESULT:     -10.2      0.000      0.000
REMARK  8 active torsions:
REMARK  status: ('A' for Active; 'I' for Inactive)
REMARK    1  A    between atoms: C_4  and  C_5 
REMARK    2  A    between atoms: C_5  and  C_6 
REMARK    3  A    between atoms: C_6  and  N_7 
REMARK    4  A    between atoms: C_8  and  S_9 
REMARK    5  A    between atoms: S_9  and  C_10 
REMARK    6  A    between atoms: C_10  and  C_11 
REMARK    7  A    between atoms: C_24  and  C_25 
REMARK    8  A    between atoms: C_26  and  O_27 
ROOT
HETATM    1  N   UNL     1      -8.021   0.860 -33.343  1.00  0.00    -0.307 N 
HETATM    2  C   UNL     1      -7.039   1.680 -32.846  1.00  0.00     0.192 C 
HETATM    3  N   UNL     1      -7.465   2.919 -32.816  1.00  0.00    -0.122 NA
HETATM    4  N   UNL     1      -8.767   2.923 -33.216  1.00  0.00    -0.128 NA
HETATM    5  C   UNL     1      -9.142   1.676 -33.452  1.00  0.00     0.167 C 
ENDROOT
BRANCH   2   6
HETATM    6  S   UNL     1      -5.476   1.176 -32.305  1.00  0.00    -0.083 SA
BRANCH   6   7
HETATM    7  C   UNL     1      -5.011   2.620 -31.299  1.00  0.00     0.161 C 
BRANCH   7   8
HETATM    8  C   UNL     1      -4.196   3.658 -32.049  1.00  0.00     0.117 A 
HETATM    9  N   UNL     1      -3.156   4.171 -31.472  1.00  0.00    -0.234 NA
HETATM   10  C   UNL     1      -2.420   5.148 -32.163  1.00  0.00     0.074 A 
HETATM   11  C   UNL     1      -2.767   5.584 -33.444  1.00  0.00     0.061 A 
HETATM   12  C   UNL     1      -1.305   5.714 -31.546  1.00  0.00     0.032 A 
HETATM   13  C   UNL     1      -3.951   4.970 -34.066  1.00  0.00     0.259 A 
HETATM   14  C   UNL     1      -2.024   6.564 -34.108  1.00  0.00     0.019 A 
HETATM   15  O   UNL     1      -4.338   5.279 -35.187  1.00  0.00    -0.267 OA
HETATM   16  N   UNL     1      -4.596   4.031 -33.303  1.00  0.00    -0.310 N 
HETATM   17  H   UNL     1      -5.412   3.601 -33.720  1.00  0.00     0.170 HD
HETATM   18  C   UNL     1      -0.911   7.122 -33.477  1.00  0.00     0.001 A 
HETATM   19  C   UNL     1      -0.552   6.697 -32.197  1.00  0.00     0.002 A 
ENDBRANCH   7   8
ENDBRANCH   6   7
ENDBRANCH   2   6
BRANCH   1  20
HETATM   20  C   UNL     1      -7.956  -0.552 -33.675  1.00  0.00     0.137 C 
BRANCH  20  21
HETATM   21  C   UNL     1      -7.048  -0.955 -34.847  1.00  0.00     0.059 C 
BRANCH  21  22
HETATM   22  C   UNL     1      -6.292  -2.261 -34.695  1.00  0.00    -0.057 A 
HETATM   23  C   UNL     1      -4.966  -2.202 -34.233  1.00  0.00     0.007 A 
HETATM   24  C   UNL     1      -4.210  -3.364 -34.060  1.00  0.00     0.001 A 
HETATM   25  C   UNL     1      -4.768  -4.606 -34.347  1.00  0.00     0.000 A 
HETATM   26  C   UNL     1      -6.081  -4.685 -34.799  1.00  0.00     0.001 A 
HETATM   27  C   UNL     1      -6.841  -3.523 -34.968  1.00  0.00     0.007 A 
ENDBRANCH  21  22
ENDBRANCH  20  21
ENDBRANCH   1  20
BRANCH   5  28
HETATM   28  C   UNL     1     -10.516   1.312 -33.814  1.00  0.00     0.045 A 
HETATM   29  C   UNL     1     -11.216   2.064 -34.776  1.00  0.00     0.079 A 
HETATM   30  C   UNL     1     -12.522   1.741 -35.141  1.00  0.00     0.037 A 
HETATM   31  C   UNL     1     -13.168   0.671 -34.527  1.00  0.00     0.003 A 
HETATM   32  C   UNL     1     -12.512  -0.061 -33.540  1.00  0.00     0.001 A 
HETATM   33  C   UNL     1     -11.200   0.266 -33.177  1.00  0.00     0.018 A 
BRANCH  29  34
HETATM   34  O   UNL     1     -10.670   3.158 -35.398  1.00  0.00    -0.360 OA
HETATM   35  H   UNL     1     -10.986   3.960 -34.932  1.00  0.00     0.217 HD
ENDBRANCH  29  34
ENDBRANCH   5  28
TORSDOF 8
ENDMDL
MODEL 2
REMARK VINA RESULT:     -10.2      3.370      9.482
REMARK  8 active torsions:
REMARK  status: ('A' for Active; 'I' for Inactive)
REMARK    1  A    between atoms: C_4  and  C_5 
REMARK    2  A    between atoms: C_5  and  C_6 
REMARK    3  A    between atoms: C_6  and  N_7 
REMARK    4  A    between atoms: C_8  and  S_9 
REMARK    5  A    between atoms: S_9  and  C_10 
REMARK    6  A    between atoms: C_10  and  C_11 
REMARK    7  A    between atoms: C_24  and  C_25 
REMARK    8  A    between atoms: C_26  and  O_27 
ROOT
HETATM    1  N   UNL     1      -4.549   5.534 -32.801  1.00  0.00    -0.307 N 
HETATM    2  C   UNL     1      -5.297   5.071 -33.854  1.00  0.00     0.192 C 
HETATM    3  N   UNL     1      -4.537   4.927 -34.912  1.00  0.00    -0.122 NA
HETATM    4  N   UNL     1      -3.256   5.216 -34.549  1.00  0.00    -0.128 NA
HETATM    5  C   UNL     1      -3.236   5.497 -33.256  1.00  0.00     0.167 C 
ENDROOT
BRANCH   2   6
HETATM    6  S   UNL     1      -6.984   4.696 -33.812  1.00  0.00    -0.083 SA
BRANCH   6   7
HETATM    7  C   UNL     1      -7.009   3.512 -32.430  1.00  0.00     0.161 C 
BRANCH   7   8
HETATM    8  C   UNL     1      -6.215   2.245 -32.688  1.00  0.00     0.117 A 
HETATM    9  N   UNL     1      -6.740   1.319 -33.426  1.00  0.00    -0.234 NA
HETATM   10  C   UNL     1      -6.008   0.138 -33.642  1.00  0.00     0.074 A 
HETATM   11  C   UNL     1      -4.741  -0.071 -33.092  1.00  0.00     0.061 A 
HETATM   12  C   UNL     1      -6.569  -0.869 -34.426  1.00  0.00     0.032 A 
HETATM   13  C   UNL     1      -4.179   1.009 -32.266  1.00  0.00     0.259 A 
HETATM   14  C   UNL     1      -4.037  -1.258 -33.314  1.00  0.00     0.019 A 
HETATM   15  O   UNL     1      -3.075   0.926 -31.741  1.00  0.00    -0.267 OA
HETATM   16  N   UNL     1      -4.977   2.114 -32.119  1.00  0.00    -0.310 N 
HETATM   17  H   UNL     1      -4.602   2.864 -31.553  1.00  0.00     0.170 HD
HETATM   18  C   UNL     1      -4.612  -2.256 -34.100  1.00  0.00     0.001 A 
HETATM   19  C   UNL     1      -5.877  -2.062 -34.656  1.00  0.00     0.002 A 
ENDBRANCH   7   8
ENDBRANCH   6   7
ENDBRANCH   2   6
BRANCH   1  20
HETATM   20  C   UNL     1      -4.986   5.959 -31.483  1.00  0.00     0.137 C 
BRANCH  20  21
HETATM   21  C   UNL     1      -5.053   7.470 -31.221  1.00  0.00     0.059 C 
BRANCH  21  22
HETATM   22  C   UNL     1      -3.870   8.082 -30.494  1.00  0.00    -0.057 A 
HETATM   23  C   UNL     1      -3.261   7.326 -29.478  1.00  0.00     0.007 A 
HETATM   24  C   UNL     1      -2.162   7.819 -28.773  1.00  0.00     0.001 A 
HETATM   25  C   UNL     1      -1.652   9.079 -29.071  1.00  0.00     0.000 A 
HETATM   26  C   UNL     1      -2.237   9.840 -30.078  1.00  0.00     0.001 A 
HETATM   27  C   UNL     1      -3.335   9.345 -30.789  1.00  0.00     0.007 A 
ENDBRANCH  21  22
ENDBRANCH  20  21
ENDBRANCH   1  20
BRANCH   5  28
HETATM   28  C   UNL     1      -1.996   5.764 -32.518  1.00  0.00     0.045 A 
HETATM   29  C   UNL     1      -1.546   4.857 -31.541  1.00  0.00     0.079 A 
HETATM   30  C   UNL     1      -0.372   5.084 -30.826  1.00  0.00     0.037 A 
HETATM   31  C   UNL     1       0.366   6.243 -31.054  1.00  0.00     0.003 A 
HETATM   32  C   UNL     1      -0.083   7.177 -31.985  1.00  0.00     0.001 A 
HETATM   33  C   UNL     1      -1.262   6.946 -32.702  1.00  0.00     0.018 A 
BRANCH  29  34
HETATM   34  O   UNL     1      -2.234   3.714 -31.223  1.00  0.00    -0.360 OA
HETATM   35  H   UNL     1      -1.595   2.971 -31.207  1.00  0.00     0.217 HD
ENDBRANCH  29  34
ENDBRANCH   5  28
TORSDOF 8
ENDMDL
MODEL 3
REMARK VINA RESULT:     -10.0      1.793      2.722
REMARK  8 active torsions:
REMARK  status: ('A' for Active; 'I' for Inactive)
REMARK    1  A    between atoms: C_4  and  C_5 
REMARK    2  A    between atoms: C_5  and  C_6 
REMARK    3  A    between atoms: C_6  and  N_7 
REMARK    4  A    between atoms: C_8  and  S_9 
REMARK    5  A    between atoms: S_9  and  C_10 
REMARK    6  A    between atoms: C_10  and  C_11 
REMARK    7  A    between atoms: C_24  and  C_25 
REMARK    8  A    between atoms: C_26  and  O_27 
ROOT
HETATM    1  N   UNL     1      -8.548   2.081 -32.501  1.00  0.00    -0.307 N 
HETATM    2  C   UNL     1      -8.159   2.290 -31.202  1.00  0.00     0.192 C 
HETATM    3  N   UNL     1      -9.043   3.037 -30.586  1.00  0.00    -0.122 NA
HETATM    4  N   UNL     1     -10.072   3.263 -31.448  1.00  0.00    -0.128 NA
HETATM    5  C   UNL     1      -9.829   2.618 -32.578  1.00  0.00     0.167 C 
ENDROOT
BRANCH   2   6
HETATM    6  S   UNL     1      -6.737   1.651 -30.455  1.00  0.00    -0.083 SA
BRANCH   6   7
HETATM    7  C   UNL     1      -5.898   3.201 -29.999  1.00  0.00     0.161 C 
BRANCH   7   8
HETATM    8  C   UNL     1      -4.871   3.669 -31.014  1.00  0.00     0.117 A 
HETATM    9  N   UNL     1      -5.277   4.039 -32.187  1.00  0.00    -0.234 NA
HETATM   10  C   UNL     1      -4.319   4.449 -33.130  1.00  0.00     0.074 A 
HETATM   11  C   UNL     1      -2.950   4.472 -32.848  1.00  0.00     0.061 A 
HETATM   12  C   UNL     1      -4.745   4.839 -34.399  1.00  0.00     0.032 A 
HETATM   13  C   UNL     1      -2.534   4.051 -31.502  1.00  0.00     0.259 A 
HETATM   14  C   UNL     1      -2.016   4.875 -33.806  1.00  0.00     0.019 A 
HETATM   15  O   UNL     1      -1.359   4.038 -31.153  1.00  0.00    -0.267 OA
HETATM   16  N   UNL     1      -3.549   3.669 -30.663  1.00  0.00    -0.310 N 
HETATM   17  H   UNL     1      -3.275   3.377 -29.734  1.00  0.00     0.170 HD
HETATM   18  C   UNL     1      -2.458   5.262 -35.071  1.00  0.00     0.001 A 
HETATM   19  C   UNL     1      -3.821   5.244 -35.368  1.00  0.00     0.002 A 
ENDBRANCH   7   8
ENDBRANCH   6   7
ENDBRANCH   2   6
BRANCH   1  20
HETATM   20  C   UNL     1      -7.827   1.431 -33.581  1.00  0.00     0.137 C 
BRANCH  20  21
HETATM   21  C   UNL     1      -8.033  -0.082 -33.750  1.00  0.00     0.059 C 
BRANCH  21  22
HETATM   22  C   UNL     1      -6.777  -0.921 -33.891  1.00  0.00    -0.057 A 
HETATM   23  C   UNL     1      -6.828  -2.040 -34.741  1.00  0.00     0.007 A 
HETATM   24  C   UNL     1      -5.709  -2.853 -34.929  1.00  0.00     0.001 A 
HETATM   25  C   UNL     1      -4.518  -2.563 -34.269  1.00  0.00     0.000 A 
HETATM   26  C   UNL     1      -4.447  -1.456 -33.429  1.00  0.00     0.001 A 
HETATM   27  C   UNL     1      -5.565  -0.637 -33.244  1.00  0.00     0.007 A 
ENDBRANCH  21  22
ENDBRANCH  20  21
ENDBRANCH   1  20
BRANCH   5  28
HETATM   28  C   UNL     1     -10.782   2.574 -33.692  1.00  0.00     0.045 A 
HETATM   29  C   UNL     1     -11.584   1.435 -33.891  1.00  0.00     0.079 A 
HETATM   30  C   UNL     1     -12.499   1.366 -34.940  1.00  0.00     0.037 A 
HETATM   31  C   UNL     1     -12.611   2.428 -35.833  1.00  0.00     0.003 A 
HETATM   32  C   UNL     1     -11.798   3.549 -35.683  1.00  0.00     0.001 A 
HETATM   33  C   UNL     1     -10.881   3.615 -34.628  1.00  0.00     0.018 A 
BRANCH  29  34
HETATM   34  O   UNL     1     -11.506   0.328 -33.085  1.00  0.00    -0.360 OA
HETATM   35  H   UNL     1     -11.596   0.623 -32.156  1.00  0.00     0.217 HD
ENDBRANCH  29  34
ENDBRANCH   5  28
TORSDOF 8
ENDMDL
MODEL 4
REMARK VINA RESULT:     -10.0      3.278      5.770
REMARK  8 active torsions:
REMARK  status: ('A' for Active; 'I' for Inactive)
REMARK    1  A    between atoms: C_4  and  C_5 
REMARK    2  A    between atoms: C_5  and  C_6 
REMARK    3  A    between atoms: C_6  and  N_7 
REMARK    4  A    between atoms: C_8  and  S_9 
REMARK    5  A    between atoms: S_9  and  C_10 
REMARK    6  A    between atoms: C_10  and  C_11 
REMARK    7  A    between atoms: C_24  and  C_25 
REMARK    8  A    between atoms: C_26  and  O_27 
ROOT
HETATM    1  N   UNL     1      -5.533   3.119 -31.930  1.00  0.00    -0.307 N 
HETATM    2  C   UNL     1      -4.404   3.754 -31.477  1.00  0.00     0.192 C 
HETATM    3  N   UNL     1      -3.353   2.999 -31.688  1.00  0.00    -0.122 NA
HETATM    4  N   UNL     1      -3.764   1.888 -32.360  1.00  0.00    -0.128 NA
HETATM    5  C   UNL     1      -5.064   1.989 -32.591  1.00  0.00     0.167 C 
ENDROOT
BRANCH   2   6
HETATM    6  S   UNL     1      -4.343   5.325 -30.759  1.00  0.00    -0.083 SA
BRANCH   6   7
HETATM    7  C   UNL     1      -2.777   5.932 -31.461  1.00  0.00     0.161 C 
BRANCH   7   8
HETATM    8  C   UNL     1      -1.734   6.297 -30.421  1.00  0.00     0.117 A 
HETATM    9  N   UNL     1      -1.810   7.452 -29.840  1.00  0.00    -0.234 NA
HETATM   10  C   UNL     1      -0.828   7.793 -28.894  1.00  0.00     0.074 A 
HETATM   11  C   UNL     1       0.223   6.934 -28.560  1.00  0.00     0.061 A 
HETATM   12  C   UNL     1      -0.894   9.039 -28.272  1.00  0.00     0.032 A 
HETATM   13  C   UNL     1       0.266   5.629 -29.237  1.00  0.00     0.259 A 
HETATM   14  C   UNL     1       1.193   7.300 -27.622  1.00  0.00     0.019 A 
HETATM   15  O   UNL     1       1.143   4.803 -29.013  1.00  0.00    -0.267 OA
HETATM   16  N   UNL     1      -0.738   5.401 -30.142  1.00  0.00    -0.310 N 
HETATM   17  H   UNL     1      -0.719   4.506 -30.615  1.00  0.00     0.170 HD
HETATM   18  C   UNL     1       1.113   8.550 -27.008  1.00  0.00     0.001 A 
HETATM   19  C   UNL     1       0.070   9.419 -27.333  1.00  0.00     0.002 A 
ENDBRANCH   7   8
ENDBRANCH   6   7
ENDBRANCH   2   6
BRANCH   1  20
HETATM   20  C   UNL     1      -6.924   3.513 -31.792  1.00  0.00     0.137 C 
BRANCH  20  21
HETATM   21  C   UNL     1      -7.854   2.547 -31.042  1.00  0.00     0.059 C 
BRANCH  21  22
HETATM   22  C   UNL     1      -8.890   1.822 -31.880  1.00  0.00    -0.057 A 
HETATM   23  C   UNL     1      -9.651   2.582 -32.785  1.00  0.00     0.007 A 
HETATM   24  C   UNL     1     -10.616   1.982 -33.596  1.00  0.00     0.001 A 
HETATM   25  C   UNL     1     -10.839   0.611 -33.516  1.00  0.00     0.000 A 
HETATM   26  C   UNL     1     -10.091  -0.159 -32.630  1.00  0.00     0.001 A 
HETATM   27  C   UNL     1      -9.119   0.439 -31.821  1.00  0.00     0.007 A 
ENDBRANCH  21  22
ENDBRANCH  20  21
ENDBRANCH   1  20
BRANCH   5  28
HETATM   28  C   UNL     1      -5.812   1.003 -33.378  1.00  0.00     0.045 A 
HETATM   29  C   UNL     1      -5.761  -0.361 -33.033  1.00  0.00     0.079 A 
HETATM   30  C   UNL     1      -6.463  -1.320 -33.761  1.00  0.00     0.037 A 
HETATM   31  C   UNL     1      -7.211  -0.937 -34.871  1.00  0.00     0.003 A 
HETATM   32  C   UNL     1      -7.241   0.401 -35.258  1.00  0.00     0.001 A 
HETATM   33  C   UNL     1      -6.537   1.361 -34.524  1.00  0.00     0.018 A 
BRANCH  29  34
HETATM   34  O   UNL     1      -5.014  -0.829 -31.982  1.00  0.00    -0.360 OA
HETATM   35  H   UNL     1      -4.111  -0.457 -32.063  1.00  0.00     0.217 HD
ENDBRANCH  29  34
ENDBRANCH   5  28
TORSDOF 8
ENDMDL
MODEL 5
REMARK VINA RESULT:     -10.0      4.239     11.271
REMARK  8 active torsions:
REMARK  status: ('A' for Active; 'I' for Inactive)
REMARK    1  A    between atoms: C_4  and  C_5 
REMARK    2  A    between atoms: C_5  and  C_6 
REMARK    3  A    between atoms: C_6  and  N_7 
REMARK    4  A    between atoms: C_8  and  S_9 
REMARK    5  A    between atoms: S_9  and  C_10 
REMARK    6  A    between atoms: C_10  and  C_11 
REMARK    7  A    between atoms: C_24  and  C_25 
REMARK    8  A    between atoms: C_26  and  O_27 
ROOT
HETATM    1  N   UNL     1      -1.538   6.316 -30.180  1.00  0.00    -0.307 N 
HETATM    2  C   UNL     1      -1.772   5.197 -30.939  1.00  0.00     0.192 C 
HETATM    3  N   UNL     1      -0.722   4.413 -30.914  1.00  0.00    -0.122 NA
HETATM    4  N   UNL     1       0.192   4.966 -30.069  1.00  0.00    -0.128 NA
HETATM    5  C   UNL     1      -0.323   6.069 -29.550  1.00  0.00     0.167 C 
ENDROOT
BRANCH   2   6
HETATM    6  S   UNL     1      -3.234   4.835 -31.788  1.00  0.00    -0.083 SA
BRANCH   6   7
HETATM    7  C   UNL     1      -3.336   3.042 -31.488  1.00  0.00     0.161 C 
BRANCH   7   8
HETATM    8  C   UNL     1      -4.390   2.336 -32.322  1.00  0.00     0.117 A 
HETATM    9  N   UNL     1      -4.270   1.063 -32.531  1.00  0.00    -0.234 NA
HETATM   10  C   UNL     1      -5.237   0.420 -33.323  1.00  0.00     0.074 A 
HETATM   11  C   UNL     1      -6.317   1.101 -33.890  1.00  0.00     0.061 A 
HETATM   12  C   UNL     1      -5.111  -0.948 -33.562  1.00  0.00     0.032 A 
HETATM   13  C   UNL     1      -6.419   2.543 -33.621  1.00  0.00     0.259 A 
HETATM   14  C   UNL     1      -7.261   0.440 -34.682  1.00  0.00     0.019 A 
HETATM   15  O   UNL     1      -7.329   3.231 -34.069  1.00  0.00    -0.267 OA
HETATM   16  N   UNL     1      -5.422   3.069 -32.839  1.00  0.00    -0.310 N 
HETATM   17  H   UNL     1      -5.481   4.061 -32.647  1.00  0.00     0.170 HD
HETATM   18  C   UNL     1      -7.121  -0.928 -34.913  1.00  0.00     0.001 A 
HETATM   19  C   UNL     1      -6.047  -1.622 -34.354  1.00  0.00     0.002 A 
ENDBRANCH   7   8
ENDBRANCH   6   7
ENDBRANCH   2   6
BRANCH   1  20
HETATM   20  C   UNL     1      -2.357   7.505 -30.023  1.00  0.00     0.137 C 
BRANCH  20  21
HETATM   21  C   UNL     1      -3.365   7.513 -28.865  1.00  0.00     0.059 C 
BRANCH  21  22
HETATM   22  C   UNL     1      -2.885   8.114 -27.557  1.00  0.00    -0.057 A 
HETATM   23  C   UNL     1      -3.136   7.397 -26.374  1.00  0.00     0.007 A 
HETATM   24  C   UNL     1      -2.715   7.883 -25.134  1.00  0.00     0.001 A 
HETATM   25  C   UNL     1      -2.036   9.095 -25.055  1.00  0.00     0.000 A 
HETATM   26  C   UNL     1      -1.773   9.816 -26.216  1.00  0.00     0.001 A 
HETATM   27  C   UNL     1      -2.189   9.328 -27.460  1.00  0.00     0.007 A 
ENDBRANCH  21  22
ENDBRANCH  20  21
ENDBRANCH   1  20
BRANCH   5  28
HETATM   28  C   UNL     1       0.363   6.864 -28.526  1.00  0.00     0.045 A 
HETATM   29  C   UNL     1       0.319   6.468 -27.177  1.00  0.00     0.079 A 
HETATM   30  C   UNL     1       0.963   7.203 -26.183  1.00  0.00     0.037 A 
HETATM   31  C   UNL     1       1.643   8.371 -26.516  1.00  0.00     0.003 A 
HETATM   32  C   UNL     1       1.664   8.808 -27.839  1.00  0.00     0.001 A 
HETATM   33  C   UNL     1       1.018   8.067 -28.834  1.00  0.00     0.018 A 
BRANCH  29  34
HETATM   34  O   UNL     1      -0.365   5.356 -26.756  1.00  0.00    -0.360 OA
HETATM   35  H   UNL     1      -0.684   4.879 -27.550  1.00  0.00     0.217 HD
ENDBRANCH  29  34
ENDBRANCH   5  28
TORSDOF 8
ENDMDL
MODEL 6
REMARK VINA RESULT:      -9.9      3.061      7.210
REMARK  8 active torsions:
REMARK  status: ('A' for Active; 'I' for Inactive)
REMARK    1  A    between atoms: C_4  and  C_5 
REMARK    2  A    between atoms: C_5  and  C_6 
REMARK    3  A    between atoms: C_6  and  N_7 
REMARK    4  A    between atoms: C_8  and  S_9 
REMARK    5  A    between atoms: S_9  and  C_10 
REMARK    6  A    between atoms: C_10  and  C_11 
REMARK    7  A    between atoms: C_24  and  C_25 
REMARK    8  A    between atoms: C_26  and  O_27 
ROOT
HETATM    1  N   UNL     1      -8.025   3.682 -32.171  1.00  0.00    -0.307 N 
HETATM    2  C   UNL     1      -9.129   2.953 -31.806  1.00  0.00     0.192 C 
HETATM    3  N   UNL     1      -9.299   3.020 -30.508  1.00  0.00    -0.122 NA
HETATM    4  N   UNL     1      -8.355   3.865 -30.006  1.00  0.00    -0.128 NA
HETATM    5  C   UNL     1      -7.635   4.341 -31.010  1.00  0.00     0.167 C 
ENDROOT
BRANCH   2   6
HETATM    6  S   UNL     1     -10.175   2.091 -32.879  1.00  0.00    -0.083 SA
BRANCH   6   7
HETATM    7  C   UNL     1      -9.696   0.381 -32.478  1.00  0.00     0.161 C 
BRANCH   7   8
HETATM    8  C   UNL     1      -8.216   0.206 -32.190  1.00  0.00     0.117 A 
HETATM    9  N   UNL     1      -7.461  -0.320 -33.102  1.00  0.00    -0.234 NA
HETATM   10  C   UNL     1      -6.096  -0.501 -32.820  1.00  0.00     0.074 A 
HETATM   11  C   UNL     1      -5.527  -0.135 -31.597  1.00  0.00     0.061 A 
HETATM   12  C   UNL     1      -5.277  -1.077 -33.790  1.00  0.00     0.032 A 
HETATM   13  C   UNL     1      -6.419   0.466 -30.593  1.00  0.00     0.259 A 
HETATM   14  C   UNL     1      -4.168  -0.333 -31.337  1.00  0.00     0.019 A 
HETATM   15  O   UNL     1      -6.019   0.825 -29.492  1.00  0.00    -0.267 OA
HETATM   16  N   UNL     1      -7.730   0.594 -30.971  1.00  0.00    -0.310 N 
HETATM   17  H   UNL     1      -8.354   1.006 -30.289  1.00  0.00     0.170 HD
HETATM   18  C   UNL     1      -3.362  -0.910 -32.318  1.00  0.00     0.001 A 
HETATM   19  C   UNL     1      -3.915  -1.282 -33.544  1.00  0.00     0.002 A 
ENDBRANCH   7   8
ENDBRANCH   6   7
ENDBRANCH   2   6
BRANCH   1  20
HETATM   20  C   UNL     1      -7.386   3.789 -33.471  1.00  0.00     0.137 C 
BRANCH  20  21
HETATM   21  C   UNL     1      -6.097   2.981 -33.685  1.00  0.00     0.059 C 
BRANCH  21  22
HETATM   22  C   UNL     1      -4.795   3.691 -33.365  1.00  0.00    -0.057 A 
HETATM   23  C   UNL     1      -4.578   4.954 -33.941  1.00  0.00     0.007 A 
HETATM   24  C   UNL     1      -3.407   5.671 -33.685  1.00  0.00     0.001 A 
HETATM   25  C   UNL     1      -2.433   5.137 -32.848  1.00  0.00     0.000 A 
HETATM   26  C   UNL     1      -2.632   3.890 -32.264  1.00  0.00     0.001 A 
HETATM   27  C   UNL     1      -3.807   3.172 -32.515  1.00  0.00     0.007 A 
ENDBRANCH  21  22
ENDBRANCH  20  21
ENDBRANCH   1  20
BRANCH   5  28
HETATM   28  C   UNL     1      -6.588   5.352 -30.831  1.00  0.00     0.045 A 
HETATM   29  C   UNL     1      -5.499   5.097 -29.977  1.00  0.00     0.079 A 
HETATM   30  C   UNL     1      -4.488   6.038 -29.788  1.00  0.00     0.037 A 
HETATM   31  C   UNL     1      -4.562   7.272 -30.429  1.00  0.00     0.003 A 
HETATM   32  C   UNL     1      -5.653   7.564 -31.245  1.00  0.00     0.001 A 
HETATM   33  C   UNL     1      -6.665   6.617 -31.433  1.00  0.00     0.018 A 
BRANCH  29  34
HETATM   34  O   UNL     1      -5.371   3.926 -29.274  1.00  0.00    -0.360 OA
HETATM   35  H   UNL     1      -5.305   3.191 -29.919  1.00  0.00     0.217 HD
ENDBRANCH  29  34
ENDBRANCH   5  28
TORSDOF 8
ENDMDL
MODEL 7
REMARK VINA RESULT:      -9.7      2.497      3.398
REMARK  8 active torsions:
REMARK  status: ('A' for Active; 'I' for Inactive)
REMARK    1  A    between atoms: C_4  and  C_5 
REMARK    2  A    between atoms: C_5  and  C_6 
REMARK    3  A    between atoms: C_6  and  N_7 
REMARK    4  A    between atoms: C_8  and  S_9 
REMARK    5  A    between atoms: S_9  and  C_10 
REMARK    6  A    between atoms: C_10  and  C_11 
REMARK    7  A    between atoms: C_24  and  C_25 
REMARK    8  A    between atoms: C_26  and  O_27 
ROOT
HETATM    1  N   UNL     1      -6.150   2.345 -32.577  1.00  0.00    -0.307 N 
HETATM    2  C   UNL     1      -5.446   3.256 -31.830  1.00  0.00     0.192 C 
HETATM    3  N   UNL     1      -6.272   4.099 -31.261  1.00  0.00    -0.122 NA
HETATM    4  N   UNL     1      -7.542   3.705 -31.557  1.00  0.00    -0.128 NA
HETATM    5  C   UNL     1      -7.484   2.596 -32.277  1.00  0.00     0.167 C 
ENDROOT
BRANCH   2   6
HETATM    6  S   UNL     1      -3.729   3.292 -31.630  1.00  0.00    -0.083 SA
BRANCH   6   7
HETATM    7  C   UNL     1      -3.431   5.081 -31.789  1.00  0.00     0.161 C 
BRANCH   7   8
HETATM    8  C   UNL     1      -2.306   5.599 -30.912  1.00  0.00     0.117 A 
HETATM    9  N   UNL     1      -2.438   6.758 -30.347  1.00  0.00    -0.234 NA
HETATM   10  C   UNL     1      -1.382   7.242 -29.556  1.00  0.00     0.074 A 
HETATM   11  C   UNL     1      -0.201   6.522 -29.358  1.00  0.00     0.061 A 
HETATM   12  C   UNL     1      -1.511   8.492 -28.953  1.00  0.00     0.032 A 
HETATM   13  C   UNL     1      -0.096   5.208 -30.011  1.00  0.00     0.259 A 
HETATM   14  C   UNL     1       0.838   7.029 -28.573  1.00  0.00     0.019 A 
HETATM   15  O   UNL     1       0.895   4.497 -29.898  1.00  0.00    -0.267 OA
HETATM   16  N   UNL     1      -1.182   4.834 -30.761  1.00  0.00    -0.310 N 
HETATM   17  H   UNL     1      -1.122   3.933 -31.215  1.00  0.00     0.170 HD
HETATM   18  C   UNL     1       0.695   8.282 -27.976  1.00  0.00     0.001 A 
HETATM   19  C   UNL     1      -0.478   9.013 -28.166  1.00  0.00     0.002 A 
ENDBRANCH   7   8
ENDBRANCH   6   7
ENDBRANCH   2   6
BRANCH   1  20
HETATM   20  C   UNL     1      -5.655   1.317 -33.475  1.00  0.00     0.137 C 
BRANCH  20  21
HETATM   21  C   UNL     1      -5.103   0.035 -32.836  1.00  0.00     0.059 C 
BRANCH  21  22
HETATM   22  C   UNL     1      -5.399  -1.264 -33.564  1.00  0.00    -0.057 A 
HETATM   23  C   UNL     1      -4.332  -2.153 -33.780  1.00  0.00     0.007 A 
HETATM   24  C   UNL     1      -4.531  -3.370 -34.434  1.00  0.00     0.001 A 
HETATM   25  C   UNL     1      -5.800  -3.720 -34.884  1.00  0.00     0.000 A 
HETATM   26  C   UNL     1      -6.870  -2.856 -34.673  1.00  0.00     0.001 A 
HETATM   27  C   UNL     1      -6.674  -1.638 -34.013  1.00  0.00     0.007 A 
ENDBRANCH  21  22
ENDBRANCH  20  21
ENDBRANCH   1  20
BRANCH   5  28
HETATM   28  C   UNL     1      -8.679   1.851 -32.690  1.00  0.00     0.045 A 
HETATM   29  C   UNL     1      -9.611   2.440 -33.565  1.00  0.00     0.079 A 
HETATM   30  C   UNL     1     -10.754   1.756 -33.975  1.00  0.00     0.037 A 
HETATM   31  C   UNL     1     -11.004   0.474 -33.493  1.00  0.00     0.003 A 
HETATM   32  C   UNL     1     -10.119  -0.113 -32.592  1.00  0.00     0.001 A 
HETATM   33  C   UNL     1      -8.972   0.576 -32.183  1.00  0.00     0.018 A 
BRANCH  29  34
HETATM   34  O   UNL     1      -9.464   3.714 -34.052  1.00  0.00    -0.360 OA
HETATM   35  H   UNL     1      -8.811   3.685 -34.782  1.00  0.00     0.217 HD
ENDBRANCH  29  34
ENDBRANCH   5  28
TORSDOF 8
ENDMDL
MODEL 8
REMARK VINA RESULT:      -9.6      3.415      8.968
REMARK  8 active torsions:
REMARK  status: ('A' for Active; 'I' for Inactive)
REMARK    1  A    between atoms: C_4  and  C_5 
REMARK    2  A    between atoms: C_5  and  C_6 
REMARK    3  A    between atoms: C_6  and  N_7 
REMARK    4  A    between atoms: C_8  and  S_9 
REMARK    5  A    between atoms: S_9  and  C_10 
REMARK    6  A    between atoms: C_10  and  C_11 
REMARK    7  A    between atoms: C_24  and  C_25 
REMARK    8  A    between atoms: C_26  and  O_27 
ROOT
HETATM    1  N   UNL     1      -4.996   5.005 -32.161  1.00  0.00    -0.307 N 
HETATM    2  C   UNL     1      -6.104   4.826 -32.950  1.00  0.00     0.192 C 
HETATM    3  N   UNL     1      -6.915   5.847 -32.819  1.00  0.00    -0.122 NA
HETATM    4  N   UNL     1      -6.314   6.756 -32.002  1.00  0.00    -0.128 NA
HETATM    5  C   UNL     1      -5.117   6.300 -31.669  1.00  0.00     0.167 C 
ENDROOT
BRANCH   2   6
HETATM    6  S   UNL     1      -6.399   3.479 -33.994  1.00  0.00    -0.083 SA
BRANCH   6   7
HETATM    7  C   UNL     1      -6.696   2.180 -32.754  1.00  0.00     0.161 C 
BRANCH   7   8
HETATM    8  C   UNL     1      -6.053   0.847 -33.090  1.00  0.00     0.117 A 
HETATM    9  N   UNL     1      -6.768  -0.062 -33.674  1.00  0.00    -0.234 NA
HETATM   10  C   UNL     1      -6.172  -1.301 -33.962  1.00  0.00     0.074 A 
HETATM   11  C   UNL     1      -4.842  -1.588 -33.642  1.00  0.00     0.061 A 
HETATM   12  C   UNL     1      -6.937  -2.290 -34.580  1.00  0.00     0.032 A 
HETATM   13  C   UNL     1      -4.064  -0.525 -32.987  1.00  0.00     0.259 A 
HETATM   14  C   UNL     1      -4.275  -2.832 -33.930  1.00  0.00     0.019 A 
HETATM   15  O   UNL     1      -2.890  -0.674 -32.668  1.00  0.00    -0.267 OA
HETATM   16  N   UNL     1      -4.743   0.642 -32.751  1.00  0.00    -0.310 N 
HETATM   17  H   UNL     1      -4.219   1.381 -32.301  1.00  0.00     0.170 HD
HETATM   18  C   UNL     1      -5.053  -3.811 -34.549  1.00  0.00     0.001 A 
HETATM   19  C   UNL     1      -6.383  -3.540 -34.874  1.00  0.00     0.002 A 
ENDBRANCH   7   8
ENDBRANCH   6   7
ENDBRANCH   2   6
BRANCH   1  20
HETATM   20  C   UNL     1      -3.907   4.084 -31.887  1.00  0.00     0.137 C 
BRANCH  20  21
HETATM   21  C   UNL     1      -2.630   4.243 -32.726  1.00  0.00     0.059 C 
BRANCH  21  22
HETATM   22  C   UNL     1      -1.544   5.126 -32.141  1.00  0.00    -0.057 A 
HETATM   23  C   UNL     1      -1.110   4.853 -30.832  1.00  0.00     0.007 A 
HETATM   24  C   UNL     1      -0.108   5.617 -30.231  1.00  0.00     0.001 A 
HETATM   25  C   UNL     1       0.478   6.669 -30.928  1.00  0.00     0.000 A 
HETATM   26  C   UNL     1       0.066   6.951 -32.227  1.00  0.00     0.001 A 
HETATM   27  C   UNL     1      -0.934   6.183 -32.833  1.00  0.00     0.007 A 
ENDBRANCH  21  22
ENDBRANCH  20  21
ENDBRANCH   1  20
BRANCH   5  28
HETATM   28  C   UNL     1      -4.163   7.075 -30.868  1.00  0.00     0.045 A 
HETATM   29  C   UNL     1      -3.973   6.773 -29.507  1.00  0.00     0.079 A 
HETATM   30  C   UNL     1      -3.073   7.492 -28.723  1.00  0.00     0.037 A 
HETATM   31  C   UNL     1      -2.362   8.552 -29.279  1.00  0.00     0.003 A 
HETATM   32  C   UNL     1      -2.565   8.898 -30.613  1.00  0.00     0.001 A 
HETATM   33  C   UNL     1      -3.469   8.174 -31.398  1.00  0.00     0.018 A 
BRANCH  29  34
HETATM   34  O   UNL     1      -4.664   5.773 -28.870  1.00  0.00    -0.360 OA
HETATM   35  H   UNL     1      -5.587   5.786 -29.199  1.00  0.00     0.217 HD
ENDBRANCH  29  34
ENDBRANCH   5  28
TORSDOF 8
ENDMDL
MODEL 9
REMARK VINA RESULT:      -9.6     15.944     17.211
REMARK  8 active torsions:
REMARK  status: ('A' for Active; 'I' for Inactive)
REMARK    1  A    between atoms: C_4  and  C_5 
REMARK    2  A    between atoms: C_5  and  C_6 
REMARK    3  A    between atoms: C_6  and  N_7 
REMARK    4  A    between atoms: C_8  and  S_9 
REMARK    5  A    between atoms: S_9  and  C_10 
REMARK    6  A    between atoms: C_10  and  C_11 
REMARK    7  A    between atoms: C_24  and  C_25 
REMARK    8  A    between atoms: C_26  and  O_27 
ROOT
HETATM    1  N   UNL     1      -6.528 -15.404 -36.560  1.00  0.00    -0.307 N 
HETATM    2  C   UNL     1      -6.262 -15.419 -35.214  1.00  0.00     0.192 C 
HETATM    3  N   UNL     1      -6.680 -14.305 -34.664  1.00  0.00    -0.122 NA
HETATM    4  N   UNL     1      -7.304 -13.571 -35.628  1.00  0.00    -0.128 NA
HETATM    5  C   UNL     1      -7.297 -14.262 -36.757  1.00  0.00     0.167 C 
ENDROOT
BRANCH   2   6
HETATM    6  S   UNL     1      -5.517 -16.712 -34.342  1.00  0.00    -0.083 SA
BRANCH   6   7
HETATM    7  C   UNL     1      -3.934 -15.926 -33.905  1.00  0.00     0.161 C 
BRANCH   7   8
HETATM    8  C   UNL     1      -3.265 -15.202 -35.059  1.00  0.00     0.117 A 
HETATM    9  N   UNL     1      -2.185 -15.704 -35.568  1.00  0.00    -0.234 NA
HETATM   10  C   UNL     1      -1.558 -15.016 -36.621  1.00  0.00     0.074 A 
HETATM   11  C   UNL     1      -2.055 -13.816 -37.136  1.00  0.00     0.061 A 
HETATM   12  C   UNL     1      -0.388 -15.543 -37.168  1.00  0.00     0.032 A 
HETATM   13  C   UNL     1      -3.288 -13.286 -36.534  1.00  0.00     0.259 A 
HETATM   14  C   UNL     1      -1.408 -13.146 -38.178  1.00  0.00     0.019 A 
HETATM   15  O   UNL     1      -3.808 -12.243 -36.914  1.00  0.00    -0.267 OA
HETATM   16  N   UNL     1      -3.815 -14.034 -35.513  1.00  0.00    -0.310 N 
HETATM   17  H   UNL     1      -4.663 -13.680 -35.090  1.00  0.00     0.170 HD
HETATM   18  C   UNL     1      -0.239 -13.686 -38.715  1.00  0.00     0.001 A 
HETATM   19  C   UNL     1       0.271 -14.883 -38.210  1.00  0.00     0.002 A 
ENDBRANCH   7   8
ENDBRANCH   6   7
ENDBRANCH   2   6
BRANCH   1  20
HETATM   20  C   UNL     1      -6.133 -16.355 -37.583  1.00  0.00     0.137 C 
BRANCH  20  21
HETATM   21  C   UNL     1      -4.878 -16.021 -38.404  1.00  0.00     0.059 C 
BRANCH  21  22
HETATM   22  C   UNL     1      -5.100 -15.235 -39.683  1.00  0.00    -0.057 A 
HETATM   23  C   UNL     1      -6.143 -15.644 -40.532  1.00  0.00     0.007 A 
HETATM   24  C   UNL     1      -6.412 -14.964 -41.721  1.00  0.00     0.001 A 
HETATM   25  C   UNL     1      -5.642 -13.863 -42.084  1.00  0.00     0.000 A 
HETATM   26  C   UNL     1      -4.609 -13.440 -41.254  1.00  0.00     0.001 A 
HETATM   27  C   UNL     1      -4.341 -14.116 -40.059  1.00  0.00     0.007 A 
ENDBRANCH  21  22
ENDBRANCH  20  21
ENDBRANCH   1  20
BRANCH   5  28
HETATM   28  C   UNL     1      -7.969 -13.802 -37.977  1.00  0.00     0.045 A 
HETATM   29  C   UNL     1      -7.499 -12.662 -38.654  1.00  0.00     0.079 A 
HETATM   30  C   UNL     1      -8.117 -12.202 -39.816  1.00  0.00     0.037 A 
HETATM   31  C   UNL     1      -9.240 -12.859 -40.310  1.00  0.00     0.003 A 
HETATM   32  C   UNL     1      -9.751 -13.964 -39.633  1.00  0.00     0.001 A 
HETATM   33  C   UNL     1      -9.127 -14.423 -38.467  1.00  0.00     0.018 A 
BRANCH  29  34
HETATM   34  O   UNL     1      -6.426 -11.930 -38.212  1.00  0.00    -0.360 OA
HETATM   35  H   UNL     1      -6.509 -11.023 -38.573  1.00  0.00     0.217 HD
ENDBRANCH  29  34
ENDBRANCH   5  28
TORSDOF 8
ENDMDL
MODEL 10
REMARK VINA RESULT:      -9.6      3.350      9.664
REMARK  8 active torsions:
REMARK  status: ('A' for Active; 'I' for Inactive)
REMARK    1  A    between atoms: C_4  and  C_5 
REMARK    2  A    between atoms: C_5  and  C_6 
REMARK    3  A    between atoms: C_6  and  N_7 
REMARK    4  A    between atoms: C_8  and  S_9 
REMARK    5  A    between atoms: S_9  and  C_10 
REMARK    6  A    between atoms: C_10  and  C_11 
REMARK    7  A    between atoms: C_24  and  C_25 
REMARK    8  A    between atoms: C_26  and  O_27 
ROOT
HETATM    1  N   UNL     1      -4.552   4.564 -31.258  1.00  0.00    -0.307 N 
HETATM    2  C   UNL     1      -5.333   3.580 -31.813  1.00  0.00     0.192 C 
HETATM    3  N   UNL     1      -4.765   3.122 -32.902  1.00  0.00    -0.122 NA
HETATM    4  N   UNL     1      -3.559   3.741 -33.038  1.00  0.00    -0.128 NA
HETATM    5  C   UNL     1      -3.379   4.548 -32.004  1.00  0.00     0.167 C 
ENDROOT
BRANCH   2   6
HETATM    6  S   UNL     1      -6.829   2.993 -31.176  1.00  0.00    -0.083 SA
BRANCH   6   7
HETATM    7  C   UNL     1      -6.251   1.464 -30.376  1.00  0.00     0.161 C 
BRANCH   7   8
HETATM    8  C   UNL     1      -5.746   0.412 -31.346  1.00  0.00     0.117 A 
HETATM    9  N   UNL     1      -6.585  -0.132 -32.170  1.00  0.00    -0.234 NA
HETATM   10  C   UNL     1      -6.114  -1.121 -33.050  1.00  0.00     0.074 A 
HETATM   11  C   UNL     1      -4.780  -1.538 -33.068  1.00  0.00     0.061 A 
HETATM   12  C   UNL     1      -7.012  -1.721 -33.933  1.00  0.00     0.032 A 
HETATM   13  C   UNL     1      -3.860  -0.888 -32.122  1.00  0.00     0.259 A 
HETATM   14  C   UNL     1      -4.339  -2.531 -33.947  1.00  0.00     0.019 A 
HETATM   15  O   UNL     1      -2.671  -1.179 -32.060  1.00  0.00    -0.267 OA
HETATM   16  N   UNL     1      -4.424   0.060 -31.308  1.00  0.00    -0.310 N 
HETATM   17  H   UNL     1      -3.801   0.514 -30.653  1.00  0.00     0.170 HD
HETATM   18  C   UNL     1      -5.249  -3.121 -34.824  1.00  0.00     0.001 A 
HETATM   19  C   UNL     1      -6.584  -2.717 -34.817  1.00  0.00     0.002 A 
ENDBRANCH   7   8
ENDBRANCH   6   7
ENDBRANCH   2   6
BRANCH   1  20
HETATM   20  C   UNL     1      -4.838   5.435 -30.133  1.00  0.00     0.137 C 
BRANCH  20  21
HETATM   21  C   UNL     1      -4.883   6.945 -30.410  1.00  0.00     0.059 C 
BRANCH  21  22
HETATM   22  C   UNL     1      -3.716   7.762 -29.887  1.00  0.00    -0.057 A 
HETATM   23  C   UNL     1      -3.397   8.955 -30.558  1.00  0.00     0.007 A 
HETATM   24  C   UNL     1      -2.343   9.763 -30.129  1.00  0.00     0.001 A 
HETATM   25  C   UNL     1      -1.588   9.393 -29.020  1.00  0.00     0.000 A 
HETATM   26  C   UNL     1      -1.892   8.218 -28.339  1.00  0.00     0.001 A 
HETATM   27  C   UNL     1      -2.952   7.410 -28.765  1.00  0.00     0.007 A 
ENDBRANCH  21  22
ENDBRANCH  20  21
ENDBRANCH   1  20
BRANCH   5  28
HETATM   28  C   UNL     1      -2.138   5.301 -31.788  1.00  0.00     0.045 A 
HETATM   29  C   UNL     1      -1.817   6.386 -32.624  1.00  0.00     0.079 A 
HETATM   30  C   UNL     1      -0.646   7.120 -32.442  1.00  0.00     0.037 A 
HETATM   31  C   UNL     1       0.246   6.764 -31.434  1.00  0.00     0.003 A 
HETATM   32  C   UNL     1      -0.030   5.666 -30.622  1.00  0.00     0.001 A 
HETATM   33  C   UNL     1      -1.206   4.932 -30.807  1.00  0.00     0.018 A 
BRANCH  29  34
HETATM   34  O   UNL     1      -2.617   6.777 -33.668  1.00  0.00    -0.360 OA
HETATM   35  H   UNL     1      -2.547   7.751 -33.754  1.00  0.00     0.217 HD
ENDBRANCH  29  34
ENDBRANCH   5  28
TORSDOF 8
ENDMDL
