MODEL 1
REMARK VINA RESULT:     -10.2      0.000      0.000
REMARK  6 active torsions:
REMARK  status: ('A' for Active; 'I' for Inactive)
REMARK    1  A    between atoms: C_9  and  C_10 
REMARK       I    between atoms: C_10  and  N_11 
REMARK    2  A    between atoms: N_11  and  N_12 
REMARK       I    between atoms: N_12  and  C_13 
REMARK       I    between atoms: C_13  and  N_14 
REMARK    3  A    between atoms: N_14  and  C_15 
REMARK    4  A    between atoms: C_15  and  C_16 
REMARK    5  A    between atoms: C_16  and  C_17 
REMARK    6  A    between atoms: C_16  and  C_27 
ROOT
HETATM    1  N   UNL     1     -10.140   1.178 -34.793  1.00  0.00    -0.249 N 
HETATM    2  C   UNL     1      -8.908   1.542 -34.301  1.00  0.00     0.334 C 
HETATM    3  N   UNL     1      -7.882   1.002 -35.037  1.00  0.00    -0.341 N 
HETATM    4  O   UNL     1      -8.759   2.245 -33.309  1.00  0.00    -0.246 OA
HETATM    5  H   UNL     1     -10.250   0.885 -35.759  1.00  0.00     0.192 HD
HETATM    6  H   UNL     1      -8.113   0.122 -35.480  1.00  0.00     0.164 HD
ENDROOT
BRANCH   1   7
HETATM    7  N   UNL     1     -11.285   1.674 -34.153  1.00  0.00    -0.261 N 
HETATM    8  C   UNL     1     -12.394   1.937 -34.935  1.00  0.00     0.291 C 
HETATM    9  O   UNL     1     -12.382   2.024 -36.154  1.00  0.00    -0.264 OA
HETATM   10  H   UNL     1     -11.442   1.346 -33.195  1.00  0.00     0.190 HD
BRANCH   8  11
HETATM   11  C   UNL     1     -13.685   2.068 -34.122  1.00  0.00     0.157 A 
HETATM   12  C   UNL     1     -13.859   3.133 -33.107  1.00  0.00     0.016 A 
HETATM   13  C   UNL     1     -12.864   4.047 -32.746  1.00  0.00     0.015 A 
HETATM   14  C   UNL     1     -15.104   3.206 -32.478  1.00  0.00     0.046 A 
HETATM   15  C   UNL     1     -13.127   5.037 -31.791  1.00  0.00     0.001 A 
HETATM   16  C   UNL     1     -14.379   5.115 -31.185  1.00  0.00     0.001 A 
HETATM   17  C   UNL     1     -15.369   4.196 -31.523  1.00  0.00     0.018 A 
HETATM   18  C   UNL     1     -16.144   2.218 -32.813  1.00  0.00     0.272 A 
HETATM   19  O   UNL     1     -17.250   2.246 -32.285  1.00  0.00    -0.266 OA
HETATM   20  N   UNL     1     -15.794   1.262 -33.736  1.00  0.00    -0.242 N 
HETATM   21  N   UNL     1     -14.608   1.186 -34.397  1.00  0.00    -0.166 NA
HETATM   22  H   UNL     1     -16.501   0.575 -33.980  1.00  0.00     0.192 HD
ENDBRANCH   8  11
ENDBRANCH   1   7
BRANCH   3  23
HETATM   23  C   UNL     1      -6.510   1.137 -34.558  1.00  0.00     0.139 C 
BRANCH  23  24
HETATM   24  C   UNL     1      -6.266   0.470 -33.185  1.00  0.00     0.079 C 
BRANCH  24  25
HETATM   25  C   UNL     1      -5.342  -0.723 -33.297  1.00  0.00    -0.020 A 
HETATM   26  C   UNL     1      -5.659  -1.994 -33.890  1.00  0.00    -0.001 A 
HETATM   27  C   UNL     1      -4.525  -2.801 -33.787  1.00  0.00     0.042 A 
HETATM   28  C   UNL     1      -6.807  -2.534 -34.507  1.00  0.00     0.014 A 
HETATM   29  C   UNL     1      -4.479  -4.115 -34.270  1.00  0.00     0.030 A 
HETATM   30  N   UNL     1      -3.556  -2.061 -33.152  1.00  0.00    -0.365 N 
HETATM   31  C   UNL     1      -5.629  -4.622 -34.879  1.00  0.00     0.002 A 
HETATM   32  C   UNL     1      -6.779  -3.845 -34.997  1.00  0.00     0.001 A 
HETATM   33  H   UNL     1      -2.628  -2.397 -32.938  1.00  0.00     0.165 HD
HETATM   34  C   UNL     1      -4.031  -0.812 -32.859  1.00  0.00     0.097 A 
ENDBRANCH  24  25
BRANCH  24  35
HETATM   35  C   UNL     1      -5.749   1.467 -32.156  1.00  0.00    -0.007 A 
HETATM   36  S   UNL     1      -6.219   1.312 -30.510  1.00  0.00    -0.106 SA
HETATM   37  C   UNL     1      -5.310   2.683 -30.050  1.00  0.00     0.050 A 
HETATM   38  C   UNL     1      -4.663   3.258 -31.120  1.00  0.00     0.008 A 
HETATM   39  C   UNL     1      -4.913   2.556 -32.333  1.00  0.00     0.016 A 
ENDBRANCH  24  35
ENDBRANCH  23  24
ENDBRANCH   3  23
TORSDOF 6
ENDMDL
MODEL 2
REMARK VINA RESULT:     -10.1      2.897      5.098
REMARK  6 active torsions:
REMARK  status: ('A' for Active; 'I' for Inactive)
REMARK    1  A    between atoms: C_9  and  C_10 
REMARK       I    between atoms: C_10  and  N_11 
REMARK    2  A    between atoms: N_11  and  N_12 
REMARK       I    between atoms: N_12  and  C_13 
REMARK       I    between atoms: C_13  and  N_14 
REMARK    3  A    between atoms: N_14  and  C_15 
REMARK    4  A    between atoms: C_15  and  C_16 
REMARK    5  A    between atoms: C_16  and  C_17 
REMARK    6  A    between atoms: C_16  and  C_27 
ROOT
HETATM    1  N   UNL     1     -10.066   3.957 -30.107  1.00  0.00    -0.249 N 
HETATM    2  C   UNL     1      -9.183   2.983 -30.513  1.00  0.00     0.334 C 
HETATM    3  N   UNL     1      -7.884   3.306 -30.205  1.00  0.00    -0.341 N 
HETATM    4  O   UNL     1      -9.526   1.964 -31.101  1.00  0.00    -0.246 OA
HETATM    5  H   UNL     1      -9.821   4.606 -29.364  1.00  0.00     0.192 HD
HETATM    6  H   UNL     1      -7.705   4.302 -30.176  1.00  0.00     0.164 HD
ENDROOT
BRANCH   1   7
HETATM    7  N   UNL     1     -11.434   3.752 -30.336  1.00  0.00    -0.261 N 
HETATM    8  C   UNL     1     -11.987   4.328 -31.464  1.00  0.00     0.291 C 
HETATM    9  O   UNL     1     -11.459   5.207 -32.129  1.00  0.00    -0.264 OA
HETATM   10  H   UNL     1     -11.812   2.852 -30.024  1.00  0.00     0.190 HD
BRANCH   8  11
HETATM   11  C   UNL     1     -13.341   3.720 -31.847  1.00  0.00     0.157 A 
HETATM   12  C   UNL     1     -13.440   2.562 -32.765  1.00  0.00     0.016 A 
HETATM   13  C   UNL     1     -12.348   1.976 -33.415  1.00  0.00     0.015 A 
HETATM   14  C   UNL     1     -14.717   2.041 -32.985  1.00  0.00     0.046 A 
HETATM   15  C   UNL     1     -12.535   0.867 -34.248  1.00  0.00     0.001 A 
HETATM   16  C   UNL     1     -13.810   0.341 -34.444  1.00  0.00     0.001 A 
HETATM   17  C   UNL     1     -14.905   0.930 -33.818  1.00  0.00     0.018 A 
HETATM   18  C   UNL     1     -15.880   2.680 -32.346  1.00  0.00     0.272 A 
HETATM   19  O   UNL     1     -17.017   2.255 -32.512  1.00  0.00    -0.266 OA
HETATM   20  N   UNL     1     -15.613   3.782 -31.570  1.00  0.00    -0.242 N 
HETATM   21  N   UNL     1     -14.380   4.290 -31.300  1.00  0.00    -0.166 NA
HETATM   22  H   UNL     1     -16.405   4.232 -31.120  1.00  0.00     0.192 HD
ENDBRANCH   8  11
ENDBRANCH   1   7
BRANCH   3  23
HETATM   23  C   UNL     1      -6.799   2.475 -30.716  1.00  0.00     0.139 C 
BRANCH  23  24
HETATM   24  C   UNL     1      -6.307   2.895 -32.121  1.00  0.00     0.079 C 
BRANCH  24  25
HETATM   25  C   UNL     1      -4.858   3.330 -32.100  1.00  0.00    -0.020 A 
HETATM   26  C   UNL     1      -4.176   4.072 -33.125  1.00  0.00    -0.001 A 
HETATM   27  C   UNL     1      -2.860   4.263 -32.702  1.00  0.00     0.042 A 
HETATM   28  C   UNL     1      -4.556   4.601 -34.377  1.00  0.00     0.014 A 
HETATM   29  C   UNL     1      -1.909   4.956 -33.461  1.00  0.00     0.030 A 
HETATM   30  N   UNL     1      -2.737   3.658 -31.474  1.00  0.00    -0.365 N 
HETATM   31  C   UNL     1      -2.315   5.471 -34.694  1.00  0.00     0.002 A 
HETATM   32  C   UNL     1      -3.619   5.298 -35.148  1.00  0.00     0.001 A 
HETATM   33  H   UNL     1      -1.886   3.635 -30.931  1.00  0.00     0.165 HD
HETATM   34  C   UNL     1      -3.929   3.101 -31.099  1.00  0.00     0.097 A 
ENDBRANCH  24  25
BRANCH  24  35
HETATM   35  C   UNL     1      -6.535   1.797 -33.151  1.00  0.00    -0.007 A 
HETATM   36  S   UNL     1      -5.796   0.260 -32.935  1.00  0.00    -0.106 SA
HETATM   37  C   UNL     1      -6.473  -0.346 -34.381  1.00  0.00     0.050 A 
HETATM   38  C   UNL     1      -7.243   0.595 -35.026  1.00  0.00     0.008 A 
HETATM   39  C   UNL     1      -7.281   1.828 -34.316  1.00  0.00     0.016 A 
ENDBRANCH  24  35
ENDBRANCH  23  24
ENDBRANCH   3  23
TORSDOF 6
ENDMDL
MODEL 3
REMARK VINA RESULT:     -10.1      4.728     10.269
REMARK  6 active torsions:
REMARK  status: ('A' for Active; 'I' for Inactive)
REMARK    1  A    between atoms: C_9  and  C_10 
REMARK       I    between atoms: C_10  and  N_11 
REMARK    2  A    between atoms: N_11  and  N_12 
REMARK       I    between atoms: N_12  and  C_13 
REMARK       I    between atoms: C_13  and  N_14 
REMARK    3  A    between atoms: N_14  and  C_15 
REMARK    4  A    between atoms: C_15  and  C_16 
REMARK    5  A    between atoms: C_16  and  C_17 
REMARK    6  A    between atoms: C_16  and  C_27 
ROOT
HETATM    1  N   UNL     1      -3.769   3.334 -32.796  1.00  0.00    -0.249 N 
HETATM    2  C   UNL     1      -5.084   3.647 -32.541  1.00  0.00     0.334 C 
HETATM    3  N   UNL     1      -5.917   3.222 -33.548  1.00  0.00    -0.341 N 
HETATM    4  O   UNL     1      -5.453   4.254 -31.543  1.00  0.00    -0.246 OA
HETATM    5  H   UNL     1      -3.526   2.579 -33.429  1.00  0.00     0.192 HD
HETATM    6  H   UNL     1      -5.475   3.187 -34.457  1.00  0.00     0.164 HD
ENDROOT
BRANCH   1   7
HETATM    7  N   UNL     1      -2.805   3.688 -31.841  1.00  0.00    -0.261 N 
HETATM    8  C   UNL     1      -1.820   4.579 -32.224  1.00  0.00     0.291 C 
HETATM    9  O   UNL     1      -1.563   4.878 -33.381  1.00  0.00    -0.264 OA
HETATM   10  H   UNL     1      -3.127   3.720 -30.868  1.00  0.00     0.190 HD
BRANCH   8  11
HETATM   11  C   UNL     1      -1.088   5.213 -31.037  1.00  0.00     0.157 A 
HETATM   12  C   UNL     1      -1.352   6.609 -30.618  1.00  0.00     0.016 A 
HETATM   13  C   UNL     1      -2.210   7.485 -31.291  1.00  0.00     0.015 A 
HETATM   14  C   UNL     1      -0.684   7.060 -29.477  1.00  0.00     0.046 A 
HETATM   15  C   UNL     1      -2.416   8.782 -30.806  1.00  0.00     0.001 A 
HETATM   16  C   UNL     1      -1.763   9.216 -29.655  1.00  0.00     0.001 A 
HETATM   17  C   UNL     1      -0.891   8.358 -28.991  1.00  0.00     0.018 A 
HETATM   18  C   UNL     1       0.260   6.164 -28.789  1.00  0.00     0.272 A 
HETATM   19  O   UNL     1       0.866   6.520 -27.784  1.00  0.00    -0.266 OA
HETATM   20  N   UNL     1       0.428   4.920 -29.346  1.00  0.00    -0.242 N 
HETATM   21  N   UNL     1      -0.235   4.434 -30.430  1.00  0.00    -0.166 NA
HETATM   22  H   UNL     1       1.074   4.289 -28.881  1.00  0.00     0.192 HD
ENDBRANCH   8  11
ENDBRANCH   1   7
BRANCH   3  23
HETATM   23  C   UNL     1      -7.320   3.622 -33.532  1.00  0.00     0.139 C 
BRANCH  23  24
HETATM   24  C   UNL     1      -8.300   2.436 -33.371  1.00  0.00     0.079 C 
BRANCH  24  25
HETATM   25  C   UNL     1      -9.598   2.676 -34.111  1.00  0.00    -0.020 A 
HETATM   26  C   UNL     1     -10.774   1.852 -34.059  1.00  0.00    -0.001 A 
HETATM   27  C   UNL     1     -11.735   2.438 -34.883  1.00  0.00     0.042 A 
HETATM   28  C   UNL     1     -11.112   0.659 -33.386  1.00  0.00     0.014 A 
HETATM   29  C   UNL     1     -13.014   1.896 -35.066  1.00  0.00     0.030 A 
HETATM   30  N   UNL     1     -11.172   3.569 -35.424  1.00  0.00    -0.365 N 
HETATM   31  C   UNL     1     -13.321   0.716 -34.384  1.00  0.00     0.002 A 
HETATM   32  C   UNL     1     -12.386   0.104 -33.555  1.00  0.00     0.001 A 
HETATM   33  H   UNL     1     -11.642   4.191 -36.065  1.00  0.00     0.165 HD
HETATM   34  C   UNL     1      -9.894   3.726 -34.964  1.00  0.00     0.097 A 
ENDBRANCH  24  25
BRANCH  24  35
HETATM   35  C   UNL     1      -7.665   1.117 -33.792  1.00  0.00    -0.007 A 
HETATM   36  S   UNL     1      -7.084   0.031 -32.594  1.00  0.00    -0.106 SA
HETATM   37  C   UNL     1      -6.566  -1.096 -33.769  1.00  0.00     0.050 A 
HETATM   38  C   UNL     1      -6.821  -0.662 -35.049  1.00  0.00     0.008 A 
HETATM   39  C   UNL     1      -7.457   0.611 -35.063  1.00  0.00     0.016 A 
ENDBRANCH  24  35
ENDBRANCH  23  24
ENDBRANCH   3  23
TORSDOF 6
ENDMDL
MODEL 4
REMARK VINA RESULT:     -10.0      5.312      9.849
REMARK  6 active torsions:
REMARK  status: ('A' for Active; 'I' for Inactive)
REMARK    1  A    between atoms: C_9  and  C_10 
REMARK       I    between atoms: C_10  and  N_11 
REMARK    2  A    between atoms: N_11  and  N_12 
REMARK       I    between atoms: N_12  and  C_13 
REMARK       I    between atoms: C_13  and  N_14 
REMARK    3  A    between atoms: N_14  and  C_15 
REMARK    4  A    between atoms: C_15  and  C_16 
REMARK    5  A    between atoms: C_16  and  C_17 
REMARK    6  A    between atoms: C_16  and  C_27 
ROOT
HETATM    1  N   UNL     1      -2.948   3.413 -31.793  1.00  0.00    -0.249 N 
HETATM    2  C   UNL     1      -3.882   2.478 -31.413  1.00  0.00     0.334 C 
HETATM    3  N   UNL     1      -3.951   1.431 -32.299  1.00  0.00    -0.341 N 
HETATM    4  O   UNL     1      -4.582   2.590 -30.413  1.00  0.00    -0.246 OA
HETATM    5  H   UNL     1      -2.181   3.164 -32.410  1.00  0.00     0.192 HD
HETATM    6  H   UNL     1      -3.706   1.681 -33.249  1.00  0.00     0.164 HD
ENDROOT
BRANCH   1   7
HETATM    7  N   UNL     1      -2.753   4.531 -30.969  1.00  0.00    -0.261 N 
HETATM    8  C   UNL     1      -1.589   5.257 -31.138  1.00  0.00     0.291 C 
HETATM    9  O   UNL     1      -0.606   4.865 -31.751  1.00  0.00    -0.264 OA
HETATM   10  H   UNL     1      -3.599   5.041 -30.695  1.00  0.00     0.190 HD
BRANCH   8  11
HETATM   11  C   UNL     1      -1.655   6.653 -30.512  1.00  0.00     0.157 A 
HETATM   12  C   UNL     1      -0.769   7.045 -29.392  1.00  0.00     0.016 A 
HETATM   13  C   UNL     1       0.134   6.181 -28.762  1.00  0.00     0.015 A 
HETATM   14  C   UNL     1      -0.861   8.366 -28.947  1.00  0.00     0.046 A 
HETATM   15  C   UNL     1       0.950   6.647 -27.724  1.00  0.00     0.001 A 
HETATM   16  C   UNL     1       0.866   7.972 -27.303  1.00  0.00     0.001 A 
HETATM   17  C   UNL     1      -0.044   8.833 -27.910  1.00  0.00     0.018 A 
HETATM   18  C   UNL     1      -1.843   9.271 -29.568  1.00  0.00     0.272 A 
HETATM   19  O   UNL     1      -1.957  10.438 -29.210  1.00  0.00    -0.266 OA
HETATM   20  N   UNL     1      -2.626   8.727 -30.557  1.00  0.00    -0.242 N 
HETATM   21  N   UNL     1      -2.534   7.459 -31.042  1.00  0.00    -0.166 NA
HETATM   22  H   UNL     1      -3.306   9.340 -30.998  1.00  0.00     0.192 HD
ENDBRANCH   8  11
ENDBRANCH   1   7
BRANCH   3  23
HETATM   23  C   UNL     1      -5.007   0.435 -32.151  1.00  0.00     0.139 C 
BRANCH  23  24
HETATM   24  C   UNL     1      -5.798   0.173 -33.454  1.00  0.00     0.079 C 
BRANCH  24  25
HETATM   25  C   UNL     1      -5.555  -1.223 -33.986  1.00  0.00    -0.020 A 
HETATM   26  C   UNL     1      -4.660  -2.202 -33.434  1.00  0.00    -0.001 A 
HETATM   27  C   UNL     1      -4.747  -3.347 -34.226  1.00  0.00     0.042 A 
HETATM   28  C   UNL     1      -3.780  -2.221 -32.330  1.00  0.00     0.014 A 
HETATM   29  C   UNL     1      -4.006  -4.508 -33.971  1.00  0.00     0.030 A 
HETATM   30  N   UNL     1      -5.651  -3.081 -35.226  1.00  0.00    -0.365 N 
HETATM   31  C   UNL     1      -3.146  -4.499 -32.870  1.00  0.00     0.002 A 
HETATM   32  C   UNL     1      -3.033  -3.373 -32.060  1.00  0.00     0.001 A 
HETATM   33  H   UNL     1      -5.910  -3.733 -35.952  1.00  0.00     0.165 HD
HETATM   34  C   UNL     1      -6.148  -1.814 -35.090  1.00  0.00     0.097 A 
ENDBRANCH  24  25
BRANCH  24  35
HETATM   35  C   UNL     1      -7.286   0.440 -33.277  1.00  0.00    -0.007 A 
HETATM   36  S   UNL     1      -8.154   1.276 -34.502  1.00  0.00    -0.106 SA
HETATM   37  C   UNL     1      -9.616   1.186 -33.624  1.00  0.00     0.050 A 
HETATM   38  C   UNL     1      -9.458   0.540 -32.420  1.00  0.00     0.008 A 
HETATM   39  C   UNL     1      -8.117   0.107 -32.220  1.00  0.00     0.016 A 
ENDBRANCH  24  35
ENDBRANCH  23  24
ENDBRANCH   3  23
TORSDOF 6
ENDMDL
MODEL 5
REMARK VINA RESULT:      -9.9      4.299      9.037
REMARK  6 active torsions:
REMARK  status: ('A' for Active; 'I' for Inactive)
REMARK    1  A    between atoms: C_9  and  C_10 
REMARK       I    between atoms: C_10  and  N_11 
REMARK    2  A    between atoms: N_11  and  N_12 
REMARK       I    between atoms: N_12  and  C_13 
REMARK       I    between atoms: C_13  and  N_14 
REMARK    3  A    between atoms: N_14  and  C_15 
REMARK    4  A    between atoms: C_15  and  C_16 
REMARK    5  A    between atoms: C_16  and  C_17 
REMARK    6  A    between atoms: C_16  and  C_27 
ROOT
HETATM    1  N   UNL     1      -5.160   2.495 -30.105  1.00  0.00    -0.249 N 
HETATM    2  C   UNL     1      -6.215   2.100 -30.896  1.00  0.00     0.334 C 
HETATM    3  N   UNL     1      -6.879   1.022 -30.363  1.00  0.00    -0.341 N 
HETATM    4  O   UNL     1      -6.500   2.638 -31.959  1.00  0.00    -0.246 OA
HETATM    5  H   UNL     1      -5.136   2.268 -29.116  1.00  0.00     0.192 HD
HETATM    6  H   UNL     1      -6.295   0.419 -29.798  1.00  0.00     0.164 HD
ENDROOT
BRANCH   1   7
HETATM    7  N   UNL     1      -4.402   3.602 -30.514  1.00  0.00    -0.261 N 
HETATM    8  C   UNL     1      -3.320   3.366 -31.341  1.00  0.00     0.291 C 
HETATM    9  O   UNL     1      -2.814   2.270 -31.532  1.00  0.00    -0.264 OA
HETATM   10  H   UNL     1      -4.918   4.479 -30.639  1.00  0.00     0.190 HD
BRANCH   8  11
HETATM   11  C   UNL     1      -2.824   4.628 -32.055  1.00  0.00     0.157 A 
HETATM   12  C   UNL     1      -1.592   5.330 -31.625  1.00  0.00     0.016 A 
HETATM   13  C   UNL     1      -0.828   4.968 -30.511  1.00  0.00     0.015 A 
HETATM   14  C   UNL     1      -1.191   6.425 -32.393  1.00  0.00     0.046 A 
HETATM   15  C   UNL     1       0.337   5.677 -30.194  1.00  0.00     0.001 A 
HETATM   16  C   UNL     1       0.741   6.754 -30.979  1.00  0.00     0.001 A 
HETATM   17  C   UNL     1      -0.025   7.135 -32.077  1.00  0.00     0.018 A 
HETATM   18  C   UNL     1      -2.015   6.847 -33.538  1.00  0.00     0.272 A 
HETATM   19  O   UNL     1      -1.699   7.802 -34.239  1.00  0.00    -0.266 OA
HETATM   20  N   UNL     1      -3.157   6.117 -33.762  1.00  0.00    -0.242 N 
HETATM   21  N   UNL     1      -3.556   5.022 -33.061  1.00  0.00    -0.166 NA
HETATM   22  H   UNL     1      -3.735   6.394 -34.551  1.00  0.00     0.192 HD
ENDBRANCH   8  11
ENDBRANCH   1   7
BRANCH   3  23
HETATM   23  C   UNL     1      -7.912   0.357 -31.151  1.00  0.00     0.139 C 
BRANCH  23  24
HETATM   24  C   UNL     1      -7.833   0.669 -32.664  1.00  0.00     0.079 C 
BRANCH  24  25
HETATM   25  C   UNL     1      -7.196  -0.466 -33.437  1.00  0.00    -0.020 A 
HETATM   26  C   UNL     1      -5.941  -1.100 -33.142  1.00  0.00    -0.001 A 
HETATM   27  C   UNL     1      -5.737  -2.095 -34.099  1.00  0.00     0.042 A 
HETATM   28  C   UNL     1      -4.956  -0.920 -32.148  1.00  0.00     0.014 A 
HETATM   29  C   UNL     1      -4.605  -2.920 -34.110  1.00  0.00     0.030 A 
HETATM   30  N   UNL     1      -6.816  -2.069 -34.948  1.00  0.00    -0.365 N 
HETATM   31  C   UNL     1      -3.648  -2.721 -33.112  1.00  0.00     0.002 A 
HETATM   32  C   UNL     1      -3.819  -1.736 -32.143  1.00  0.00     0.001 A 
HETATM   33  H   UNL     1      -6.934  -2.682 -35.743  1.00  0.00     0.165 HD
HETATM   34  C   UNL     1      -7.701  -1.101 -34.560  1.00  0.00     0.097 A 
ENDBRANCH  24  25
BRANCH  24  35
HETATM   35  C   UNL     1      -9.196   1.026 -33.240  1.00  0.00    -0.007 A 
HETATM   36  S   UNL     1      -9.368   2.435 -34.209  1.00  0.00    -0.106 SA
HETATM   37  C   UNL     1     -11.038   2.158 -34.437  1.00  0.00     0.050 A 
HETATM   38  C   UNL     1     -11.468   1.023 -33.789  1.00  0.00     0.008 A 
HETATM   39  C   UNL     1     -10.406   0.369 -33.101  1.00  0.00     0.016 A 
ENDBRANCH  24  35
ENDBRANCH  23  24
ENDBRANCH   3  23
TORSDOF 6
ENDMDL
MODEL 6
REMARK VINA RESULT:      -9.9      4.860      9.933
REMARK  6 active torsions:
REMARK  status: ('A' for Active; 'I' for Inactive)
REMARK    1  A    between atoms: C_9  and  C_10 
REMARK       I    between atoms: C_10  and  N_11 
REMARK    2  A    between atoms: N_11  and  N_12 
REMARK       I    between atoms: N_12  and  C_13 
REMARK       I    between atoms: C_13  and  N_14 
REMARK    3  A    between atoms: N_14  and  C_15 
REMARK    4  A    between atoms: C_15  and  C_16 
REMARK    5  A    between atoms: C_16  and  C_17 
REMARK    6  A    between atoms: C_16  and  C_27 
ROOT
HETATM    1  N   UNL     1      -3.755   2.550 -31.949  1.00  0.00    -0.249 N 
HETATM    2  C   UNL     1      -3.589   1.186 -32.016  1.00  0.00     0.334 C 
HETATM    3  N   UNL     1      -4.575   0.586 -32.760  1.00  0.00    -0.341 N 
HETATM    4  O   UNL     1      -2.681   0.588 -31.452  1.00  0.00    -0.246 OA
HETATM    5  H   UNL     1      -4.291   3.046 -32.655  1.00  0.00     0.192 HD
HETATM    6  H   UNL     1      -5.457   1.082 -32.749  1.00  0.00     0.164 HD
ENDROOT
BRANCH   1   7
HETATM    7  N   UNL     1      -2.808   3.300 -31.237  1.00  0.00    -0.261 N 
HETATM    8  C   UNL     1      -2.078   4.241 -31.939  1.00  0.00     0.291 C 
HETATM    9  O   UNL     1      -1.998   4.295 -33.157  1.00  0.00    -0.264 OA
HETATM   10  H   UNL     1      -3.038   3.505 -30.259  1.00  0.00     0.190 HD
BRANCH   8  11
HETATM   11  C   UNL     1      -1.394   5.270 -31.032  1.00  0.00     0.157 A 
HETATM   12  C   UNL     1      -1.937   6.638 -30.862  1.00  0.00     0.016 A 
HETATM   13  C   UNL     1      -3.047   7.136 -31.553  1.00  0.00     0.015 A 
HETATM   14  C   UNL     1      -1.278   7.469 -29.953  1.00  0.00     0.046 A 
HETATM   15  C   UNL     1      -3.504   8.437 -31.310  1.00  0.00     0.001 A 
HETATM   16  C   UNL     1      -2.853   9.250 -30.385  1.00  0.00     0.001 A 
HETATM   17  C   UNL     1      -1.735   8.770 -29.709  1.00  0.00     0.018 A 
HETATM   18  C   UNL     1      -0.078   6.973 -29.258  1.00  0.00     0.272 A 
HETATM   19  O   UNL     1       0.530   7.668 -28.452  1.00  0.00    -0.266 OA
HETATM   20  N   UNL     1       0.321   5.697 -29.577  1.00  0.00    -0.242 N 
HETATM   21  N   UNL     1      -0.319   4.847 -30.424  1.00  0.00    -0.166 NA
HETATM   22  H   UNL     1       1.146   5.340 -29.102  1.00  0.00     0.192 HD
ENDBRANCH   8  11
ENDBRANCH   1   7
BRANCH   3  23
HETATM   23  C   UNL     1      -4.661  -0.871 -32.793  1.00  0.00     0.139 C 
BRANCH  23  24
HETATM   24  C   UNL     1      -6.077  -1.401 -33.115  1.00  0.00     0.079 C 
BRANCH  24  25
HETATM   25  C   UNL     1      -6.927  -0.351 -33.797  1.00  0.00    -0.020 A 
HETATM   26  C   UNL     1      -7.852   0.544 -33.159  1.00  0.00    -0.001 A 
HETATM   27  C   UNL     1      -8.416   1.346 -34.152  1.00  0.00     0.042 A 
HETATM   28  C   UNL     1      -8.264   0.748 -31.824  1.00  0.00     0.014 A 
HETATM   29  C   UNL     1      -9.365   2.340 -33.880  1.00  0.00     0.030 A 
HETATM   30  N   UNL     1      -7.867   0.956 -35.349  1.00  0.00    -0.365 N 
HETATM   31  C   UNL     1      -9.751   2.522 -32.550  1.00  0.00     0.002 A 
HETATM   32  C   UNL     1      -9.210   1.738 -31.534  1.00  0.00     0.001 A 
HETATM   33  H   UNL     1      -8.096   1.365 -36.244  1.00  0.00     0.165 HD
HETATM   34  C   UNL     1      -6.968  -0.056 -35.150  1.00  0.00     0.097 A 
ENDBRANCH  24  25
BRANCH  24  35
HETATM   35  C   UNL     1      -6.028  -2.683 -33.936  1.00  0.00    -0.007 A 
HETATM   36  S   UNL     1      -4.512  -3.407 -34.295  1.00  0.00    -0.106 SA
HETATM   37  C   UNL     1      -5.247  -4.676 -35.170  1.00  0.00     0.050 A 
HETATM   38  C   UNL     1      -6.618  -4.559 -35.198  1.00  0.00     0.008 A 
HETATM   39  C   UNL     1      -7.068  -3.412 -34.485  1.00  0.00     0.016 A 
ENDBRANCH  24  35
ENDBRANCH  23  24
ENDBRANCH   3  23
TORSDOF 6
ENDMDL
MODEL 7
REMARK VINA RESULT:      -9.7      5.486      9.710
REMARK  6 active torsions:
REMARK  status: ('A' for Active; 'I' for Inactive)
REMARK    1  A    between atoms: C_9  and  C_10 
REMARK       I    between atoms: C_10  and  N_11 
REMARK    2  A    between atoms: N_11  and  N_12 
REMARK       I    between atoms: N_12  and  C_13 
REMARK       I    between atoms: C_13  and  N_14 
REMARK    3  A    between atoms: N_14  and  C_15 
REMARK    4  A    between atoms: C_15  and  C_16 
REMARK    5  A    between atoms: C_16  and  C_17 
REMARK    6  A    between atoms: C_16  and  C_27 
ROOT
HETATM    1  N   UNL     1      -3.592   3.840 -31.750  1.00  0.00    -0.249 N 
HETATM    2  C   UNL     1      -3.564   2.465 -31.785  1.00  0.00     0.334 C 
HETATM    3  N   UNL     1      -4.451   1.956 -32.702  1.00  0.00    -0.341 N 
HETATM    4  O   UNL     1      -2.846   1.786 -31.061  1.00  0.00    -0.246 OA
HETATM    5  H   UNL     1      -3.930   4.375 -32.544  1.00  0.00     0.192 HD
HETATM    6  H   UNL     1      -5.262   2.542 -32.857  1.00  0.00     0.164 HD
ENDROOT
BRANCH   1   7
HETATM    7  N   UNL     1      -2.720   4.500 -30.873  1.00  0.00    -0.261 N 
HETATM    8  C   UNL     1      -1.699   5.249 -31.428  1.00  0.00     0.291 C 
HETATM    9  O   UNL     1      -1.334   5.175 -32.592  1.00  0.00    -0.264 OA
HETATM   10  H   UNL     1      -3.131   4.828 -29.993  1.00  0.00     0.190 HD
BRANCH   8  11
HETATM   11  C   UNL     1      -1.078   6.242 -30.440  1.00  0.00     0.157 A 
HETATM   12  C   UNL     1      -1.662   7.585 -30.218  1.00  0.00     0.016 A 
HETATM   13  C   UNL     1      -2.758   8.094 -30.924  1.00  0.00     0.015 A 
HETATM   14  C   UNL     1      -1.060   8.380 -29.241  1.00  0.00     0.046 A 
HETATM   15  C   UNL     1      -3.257   9.368 -30.629  1.00  0.00     0.001 A 
HETATM   16  C   UNL     1      -2.663  10.145 -29.637  1.00  0.00     0.001 A 
HETATM   17  C   UNL     1      -1.559   9.655 -28.944  1.00  0.00     0.018 A 
HETATM   18  C   UNL     1       0.126   7.876 -28.527  1.00  0.00     0.272 A 
HETATM   19  O   UNL     1       0.685   8.540 -27.662  1.00  0.00    -0.266 OA
HETATM   20  N   UNL     1       0.570   6.630 -28.898  1.00  0.00    -0.242 N 
HETATM   21  N   UNL     1      -0.016   5.813 -29.814  1.00  0.00    -0.166 NA
HETATM   22  H   UNL     1       1.385   6.266 -28.412  1.00  0.00     0.192 HD
ENDBRANCH   8  11
ENDBRANCH   1   7
BRANCH   3  23
HETATM   23  C   UNL     1      -4.684   0.516 -32.750  1.00  0.00     0.139 C 
BRANCH  23  24
HETATM   24  C   UNL     1      -5.774   0.099 -33.765  1.00  0.00     0.079 C 
BRANCH  24  25
HETATM   25  C   UNL     1      -5.629  -1.348 -34.181  1.00  0.00    -0.020 A 
HETATM   26  C   UNL     1      -4.737  -2.316 -33.603  1.00  0.00    -0.001 A 
HETATM   27  C   UNL     1      -4.929  -3.522 -34.279  1.00  0.00     0.042 A 
HETATM   28  C   UNL     1      -3.781  -2.279 -32.566  1.00  0.00     0.014 A 
HETATM   29  C   UNL     1      -4.220  -4.689 -33.969  1.00  0.00     0.030 A 
HETATM   30  N   UNL     1      -5.892  -3.303 -35.234  1.00  0.00    -0.365 N 
HETATM   31  C   UNL     1      -3.283  -4.623 -32.935  1.00  0.00     0.002 A 
HETATM   32  C   UNL     1      -3.065  -3.436 -32.241  1.00  0.00     0.001 A 
HETATM   33  H   UNL     1      -6.229  -4.005 -35.878  1.00  0.00     0.165 HD
HETATM   34  C   UNL     1      -6.324  -2.006 -35.182  1.00  0.00     0.097 A 
ENDBRANCH  24  25
BRANCH  24  35
HETATM   35  C   UNL     1      -7.175   0.380 -33.238  1.00  0.00    -0.007 A 
HETATM   36  S   UNL     1      -8.358   1.059 -34.283  1.00  0.00    -0.106 SA
HETATM   37  C   UNL     1      -9.540   1.069 -33.051  1.00  0.00     0.050 A 
HETATM   38  C   UNL     1      -9.055   0.572 -31.864  1.00  0.00     0.008 A 
HETATM   39  C   UNL     1      -7.693   0.172 -31.972  1.00  0.00     0.016 A 
ENDBRANCH  24  35
ENDBRANCH  23  24
ENDBRANCH   3  23
TORSDOF 6
ENDMDL
MODEL 8
REMARK VINA RESULT:      -9.7      4.167      8.913
REMARK  6 active torsions:
REMARK  status: ('A' for Active; 'I' for Inactive)
REMARK    1  A    between atoms: C_9  and  C_10 
REMARK       I    between atoms: C_10  and  N_11 
REMARK    2  A    between atoms: N_11  and  N_12 
REMARK       I    between atoms: N_12  and  C_13 
REMARK       I    between atoms: C_13  and  N_14 
REMARK    3  A    between atoms: N_14  and  C_15 
REMARK    4  A    between atoms: C_15  and  C_16 
REMARK    5  A    between atoms: C_16  and  C_17 
REMARK    6  A    between atoms: C_16  and  C_27 
ROOT
HETATM    1  N   UNL     1      -7.291   5.036 -33.784  1.00  0.00    -0.249 N 
HETATM    2  C   UNL     1      -8.463   4.464 -33.346  1.00  0.00     0.334 C 
HETATM    3  N   UNL     1      -9.209   3.962 -34.385  1.00  0.00    -0.341 N 
HETATM    4  O   UNL     1      -8.802   4.436 -32.169  1.00  0.00    -0.246 OA
HETATM    5  H   UNL     1      -6.884   4.774 -34.676  1.00  0.00     0.192 HD
HETATM    6  H   UNL     1      -9.071   4.450 -35.261  1.00  0.00     0.164 HD
ENDROOT
BRANCH   1   7
HETATM    7  N   UNL     1      -6.417   5.572 -32.828  1.00  0.00    -0.261 N 
HETATM    8  C   UNL     1      -5.466   4.728 -32.284  1.00  0.00     0.291 C 
HETATM    9  O   UNL     1      -5.488   3.509 -32.366  1.00  0.00    -0.264 OA
HETATM   10  H   UNL     1      -6.167   6.559 -32.950  1.00  0.00     0.190 HD
BRANCH   8  11
HETATM   11  C   UNL     1      -4.324   5.478 -31.591  1.00  0.00     0.157 A 
HETATM   12  C   UNL     1      -3.132   5.941 -32.338  1.00  0.00     0.016 A 
HETATM   13  C   UNL     1      -2.901   5.680 -33.693  1.00  0.00     0.015 A 
HETATM   14  C   UNL     1      -2.187   6.680 -31.623  1.00  0.00     0.046 A 
HETATM   15  C   UNL     1      -1.755   6.180 -34.323  1.00  0.00     0.001 A 
HETATM   16  C   UNL     1      -0.830   6.935 -33.606  1.00  0.00     0.001 A 
HETATM   17  C   UNL     1      -1.041   7.182 -32.252  1.00  0.00     0.018 A 
HETATM   18  C   UNL     1      -2.394   6.918 -30.184  1.00  0.00     0.272 A 
HETATM   19  O   UNL     1      -1.591   7.562 -29.518  1.00  0.00    -0.266 OA
HETATM   20  N   UNL     1      -3.527   6.367 -29.637  1.00  0.00    -0.242 N 
HETATM   21  N   UNL     1      -4.487   5.679 -30.311  1.00  0.00    -0.166 NA
HETATM   22  H   UNL     1      -3.686   6.526 -28.646  1.00  0.00     0.192 HD
ENDBRANCH   8  11
ENDBRANCH   1   7
BRANCH   3  23
HETATM   23  C   UNL     1     -10.561   3.478 -34.128  1.00  0.00     0.139 C 
BRANCH  23  24
HETATM   24  C   UNL     1     -10.692   1.939 -34.200  1.00  0.00     0.079 C 
BRANCH  24  25
HETATM   25  C   UNL     1      -9.671   1.248 -33.323  1.00  0.00    -0.020 A 
HETATM   26  C   UNL     1      -8.516   0.519 -33.770  1.00  0.00    -0.001 A 
HETATM   27  C   UNL     1      -7.848   0.052 -32.637  1.00  0.00     0.042 A 
HETATM   28  C   UNL     1      -7.974   0.212 -35.036  1.00  0.00     0.014 A 
HETATM   29  C   UNL     1      -6.669  -0.701 -32.705  1.00  0.00     0.030 A 
HETATM   30  N   UNL     1      -8.565   0.470 -31.542  1.00  0.00    -0.365 N 
HETATM   31  C   UNL     1      -6.154  -0.986 -33.972  1.00  0.00     0.002 A 
HETATM   32  C   UNL     1      -6.796  -0.537 -35.123  1.00  0.00     0.001 A 
HETATM   33  H   UNL     1      -8.314   0.270 -30.584  1.00  0.00     0.165 HD
HETATM   34  C   UNL     1      -9.656   1.192 -31.939  1.00  0.00     0.097 A 
ENDBRANCH  24  25
BRANCH  24  35
HETATM   35  C   UNL     1     -12.103   1.475 -33.867  1.00  0.00    -0.007 A 
HETATM   36  S   UNL     1     -13.264   2.612 -33.308  1.00  0.00    -0.106 SA
HETATM   37  C   UNL     1     -14.473   1.414 -33.167  1.00  0.00     0.050 A 
HETATM   38  C   UNL     1     -14.012   0.169 -33.530  1.00  0.00     0.008 A 
HETATM   39  C   UNL     1     -12.648   0.205 -33.937  1.00  0.00     0.016 A 
ENDBRANCH  24  35
ENDBRANCH  23  24
ENDBRANCH   3  23
TORSDOF 6
ENDMDL
MODEL 9
REMARK VINA RESULT:      -9.6      4.130      8.789
REMARK  6 active torsions:
REMARK  status: ('A' for Active; 'I' for Inactive)
REMARK    1  A    between atoms: C_9  and  C_10 
REMARK       I    between atoms: C_10  and  N_11 
REMARK    2  A    between atoms: N_11  and  N_12 
REMARK       I    between atoms: N_12  and  C_13 
REMARK       I    between atoms: C_13  and  N_14 
REMARK    3  A    between atoms: N_14  and  C_15 
REMARK    4  A    between atoms: C_15  and  C_16 
REMARK    5  A    between atoms: C_16  and  C_17 
REMARK    6  A    between atoms: C_16  and  C_27 
ROOT
HETATM    1  N   UNL     1      -8.008   4.897 -32.208  1.00  0.00    -0.249 N 
HETATM    2  C   UNL     1      -8.701   4.631 -33.366  1.00  0.00     0.334 C 
HETATM    3  N   UNL     1      -9.827   3.882 -33.129  1.00  0.00    -0.341 N 
HETATM    4  O   UNL     1      -8.332   5.003 -34.474  1.00  0.00    -0.246 OA
HETATM    5  H   UNL     1      -8.471   4.870 -31.305  1.00  0.00     0.192 HD
HETATM    6  H   UNL     1      -9.754   3.275 -32.323  1.00  0.00     0.164 HD
ENDROOT
BRANCH   1   7
HETATM    7  N   UNL     1      -6.843   5.674 -32.294  1.00  0.00    -0.261 N 
HETATM    8  C   UNL     1      -5.642   5.065 -31.980  1.00  0.00     0.291 C 
HETATM    9  O   UNL     1      -5.534   4.001 -31.388  1.00  0.00    -0.264 OA
HETATM   10  H   UNL     1      -6.838   6.397 -33.021  1.00  0.00     0.190 HD
BRANCH   8  11
HETATM   11  C   UNL     1      -4.424   5.840 -32.494  1.00  0.00     0.157 A 
HETATM   12  C   UNL     1      -3.705   6.812 -31.639  1.00  0.00     0.016 A 
HETATM   13  C   UNL     1      -4.102   7.168 -30.345  1.00  0.00     0.015 A 
HETATM   14  C   UNL     1      -2.564   7.406 -32.182  1.00  0.00     0.046 A 
HETATM   15  C   UNL     1      -3.345   8.081 -29.601  1.00  0.00     0.001 A 
HETATM   16  C   UNL     1      -2.196   8.650 -30.143  1.00  0.00     0.001 A 
HETATM   17  C   UNL     1      -1.805   8.319 -31.438  1.00  0.00     0.018 A 
HETATM   18  C   UNL     1      -2.165   7.078 -33.562  1.00  0.00     0.272 A 
HETATM   19  O   UNL     1      -1.170   7.575 -34.077  1.00  0.00    -0.266 OA
HETATM   20  N   UNL     1      -2.979   6.198 -34.233  1.00  0.00    -0.242 N 
HETATM   21  N   UNL     1      -4.072   5.571 -33.722  1.00  0.00    -0.166 NA
HETATM   22  H   UNL     1      -2.715   5.959 -35.185  1.00  0.00     0.192 HD
ENDBRANCH   8  11
ENDBRANCH   1   7
BRANCH   3  23
HETATM   23  C   UNL     1     -10.588   3.356 -34.259  1.00  0.00     0.139 C 
BRANCH  23  24
HETATM   24  C   UNL     1     -10.724   1.816 -34.251  1.00  0.00     0.079 C 
BRANCH  24  25
HETATM   25  C   UNL     1      -9.695   1.167 -33.351  1.00  0.00    -0.020 A 
HETATM   26  C   UNL     1      -8.500   0.490 -33.772  1.00  0.00    -0.001 A 
HETATM   27  C   UNL     1      -7.838   0.049 -32.625  1.00  0.00     0.042 A 
HETATM   28  C   UNL     1      -7.916   0.209 -35.026  1.00  0.00     0.014 A 
HETATM   29  C   UNL     1      -6.626  -0.652 -32.667  1.00  0.00     0.030 A 
HETATM   30  N   UNL     1      -8.597   0.433 -31.546  1.00  0.00    -0.365 N 
HETATM   31  C   UNL     1      -6.071  -0.912 -33.922  1.00  0.00     0.002 A 
HETATM   32  C   UNL     1      -6.704  -0.489 -35.087  1.00  0.00     0.001 A 
HETATM   33  H   UNL     1      -8.361   0.242 -30.583  1.00  0.00     0.165 HD
HETATM   34  C   UNL     1      -9.710   1.109 -31.967  1.00  0.00     0.097 A 
ENDBRANCH  24  25
BRANCH  24  35
HETATM   35  C   UNL     1     -12.133   1.374 -33.878  1.00  0.00    -0.007 A 
HETATM   36  S   UNL     1     -13.294   2.547 -33.398  1.00  0.00    -0.106 SA
HETATM   37  C   UNL     1     -14.498   1.359 -33.164  1.00  0.00     0.050 A 
HETATM   38  C   UNL     1     -14.036   0.092 -33.438  1.00  0.00     0.008 A 
HETATM   39  C   UNL     1     -12.674   0.101 -33.852  1.00  0.00     0.016 A 
ENDBRANCH  24  35
ENDBRANCH  23  24
ENDBRANCH   3  23
TORSDOF 6
ENDMDL
MODEL 10
REMARK VINA RESULT:      -9.6      5.118     10.345
REMARK  6 active torsions:
REMARK  status: ('A' for Active; 'I' for Inactive)
REMARK    1  A    between atoms: C_9  and  C_10 
REMARK       I    between atoms: C_10  and  N_11 
REMARK    2  A    between atoms: N_11  and  N_12 
REMARK       I    between atoms: N_12  and  C_13 
REMARK       I    between atoms: C_13  and  N_14 
REMARK    3  A    between atoms: N_14  and  C_15 
REMARK    4  A    between atoms: C_15  and  C_16 
REMARK    5  A    between atoms: C_16  and  C_17 
REMARK    6  A    between atoms: C_16  and  C_27 
ROOT
HETATM    1  N   UNL     1      -3.506   3.457 -32.426  1.00  0.00    -0.249 N 
HETATM    2  C   UNL     1      -4.552   2.655 -32.030  1.00  0.00     0.334 C 
HETATM    3  N   UNL     1      -5.393   2.357 -33.073  1.00  0.00    -0.341 N 
HETATM    4  O   UNL     1      -4.715   2.281 -30.875  1.00  0.00    -0.246 OA
HETATM    5  H   UNL     1      -3.211   3.487 -33.397  1.00  0.00     0.192 HD
HETATM    6  H   UNL     1      -5.424   3.068 -33.792  1.00  0.00     0.164 HD
ENDROOT
BRANCH   1   7
HETATM    7  N   UNL     1      -2.552   3.826 -31.467  1.00  0.00    -0.261 N 
HETATM    8  C   UNL     1      -1.561   4.708 -31.856  1.00  0.00     0.291 C 
HETATM    9  O   UNL     1      -1.291   4.986 -33.016  1.00  0.00    -0.264 OA
HETATM   10  H   UNL     1      -2.883   3.876 -30.499  1.00  0.00     0.190 HD
BRANCH   8  11
HETATM   11  C   UNL     1      -0.840   5.361 -30.673  1.00  0.00     0.157 A 
HETATM   12  C   UNL     1      -1.163   6.737 -30.229  1.00  0.00     0.016 A 
HETATM   13  C   UNL     1      -2.074   7.579 -30.876  1.00  0.00     0.015 A 
HETATM   14  C   UNL     1      -0.499   7.205 -29.094  1.00  0.00     0.046 A 
HETATM   15  C   UNL     1      -2.335   8.858 -30.370  1.00  0.00     0.001 A 
HETATM   16  C   UNL     1      -1.683   9.308 -29.224  1.00  0.00     0.001 A 
HETATM   17  C   UNL     1      -0.759   8.485 -28.586  1.00  0.00     0.018 A 
HETATM   18  C   UNL     1       0.500   6.347 -28.434  1.00  0.00     0.272 A 
HETATM   19  O   UNL     1       1.105   6.718 -27.435  1.00  0.00    -0.266 OA
HETATM   20  N   UNL     1       0.718   5.120 -29.012  1.00  0.00    -0.242 N 
HETATM   21  N   UNL     1       0.061   4.616 -30.091  1.00  0.00    -0.166 NA
HETATM   22  H   UNL     1       1.402   4.515 -28.566  1.00  0.00     0.192 HD
ENDBRANCH   8  11
ENDBRANCH   1   7
BRANCH   3  23
HETATM   23  C   UNL     1      -6.650   1.665 -32.804  1.00  0.00     0.139 C 
BRANCH  23  24
HETATM   24  C   UNL     1      -7.893   2.406 -33.348  1.00  0.00     0.079 C 
BRANCH  24  25
HETATM   25  C   UNL     1      -9.141   1.556 -33.246  1.00  0.00    -0.020 A 
HETATM   26  C   UNL     1     -10.408   1.823 -33.869  1.00  0.00    -0.001 A 
HETATM   27  C   UNL     1     -11.277   0.789 -33.519  1.00  0.00     0.042 A 
HETATM   28  C   UNL     1     -10.900   2.852 -34.701  1.00  0.00     0.014 A 
HETATM   29  C   UNL     1     -12.605   0.728 -33.959  1.00  0.00     0.030 A 
HETATM   30  N   UNL     1     -10.576  -0.073 -32.710  1.00  0.00    -0.365 N 
HETATM   31  C   UNL     1     -13.063   1.758 -34.784  1.00  0.00     0.002 A 
HETATM   32  C   UNL     1     -12.224   2.806 -35.151  1.00  0.00     0.001 A 
HETATM   33  H   UNL     1     -10.959  -0.914 -32.303  1.00  0.00     0.165 HD
HETATM   34  C   UNL     1      -9.293   0.371 -32.544  1.00  0.00     0.097 A 
ENDBRANCH  24  25
BRANCH  24  35
HETATM   35  C   UNL     1      -8.091   3.753 -32.668  1.00  0.00    -0.007 A 
HETATM   36  S   UNL     1      -7.822   5.202 -33.553  1.00  0.00    -0.106 SA
HETATM   37  C   UNL     1      -8.213   6.178 -32.207  1.00  0.00     0.050 A 
HETATM   38  C   UNL     1      -8.539   5.428 -31.101  1.00  0.00     0.008 A 
HETATM   39  C   UNL     1      -8.472   4.031 -31.366  1.00  0.00     0.016 A 
ENDBRANCH  24  35
ENDBRANCH  23  24
ENDBRANCH   3  23
TORSDOF 6
ENDMDL
