MODEL 1
REMARK VINA RESULT:      -8.5      0.000      0.000
REMARK  6 active torsions:
REMARK  status: ('A' for Active; 'I' for Inactive)
REMARK    1  A    between atoms: O_2  and  C_3 
REMARK    2  A    between atoms: C_6  and  C_7 
REMARK    3  A    between atoms: C_11  and  C_12 
REMARK       I    between atoms: C_12  and  N_13 
REMARK    4  A    between atoms: N_13  and  N_14 
REMARK       I    between atoms: N_14  and  C_15 
REMARK    5  A    between atoms: C_15  and  C_16 
REMARK    6  A    between atoms: C_16  and  C_17 
ROOT
HETATM    1  C   UNL     1      -2.505   4.010 -32.050  1.00  0.00     0.288 C 
HETATM    2  N   UNL     1      -2.168   4.456 -30.790  1.00  0.00    -0.262 N 
HETATM    3  O   UNL     1      -2.103   4.568 -33.070  1.00  0.00    -0.264 OA
HETATM    4  H   UNL     1      -2.590   4.090 -29.940  1.00  0.00     0.190 HD
ENDROOT
BRANCH   1   5
HETATM    5  C   UNL     1      -3.361   2.856 -32.084  1.00  0.00     0.121 A 
HETATM    6  N   UNL     1      -4.104   2.477 -31.002  1.00  0.00    -0.272 N 
HETATM    7  N   UNL     1      -4.860   1.388 -31.207  1.00  0.00    -0.174 NA
HETATM    8  H   UNL     1      -4.137   2.933 -30.094  1.00  0.00     0.189 HD
HETATM    9  C   UNL     1      -4.591   1.019 -32.469  1.00  0.00     0.089 A 
HETATM   10  C   UNL     1      -3.657   1.921 -33.055  1.00  0.00     0.071 A 
BRANCH   9  11
HETATM   11  C   UNL     1      -5.224  -0.150 -33.087  1.00  0.00    -0.005 A 
HETATM   12  C   UNL     1      -6.617  -0.208 -33.239  1.00  0.00     0.016 A 
HETATM   13  C   UNL     1      -7.233  -1.308 -33.851  1.00  0.00     0.037 A 
HETATM   14  C   UNL     1      -6.462  -2.371 -34.315  1.00  0.00     0.068 A 
HETATM   15  C   UNL     1      -5.077  -2.330 -34.151  1.00  0.00     0.037 A 
HETATM   16  C   UNL     1      -4.460  -1.231 -33.545  1.00  0.00     0.016 A 
BRANCH  14  17
HETATM   17  O   UNL     1      -6.932  -3.498 -34.933  1.00  0.00    -0.356 OA
HETATM   18  C   UNL     1      -6.033  -4.594 -35.035  1.00  0.00     0.210 C 
ENDBRANCH  14  17
ENDBRANCH   9  11
ENDBRANCH   1   5
BRANCH   2  19
HETATM   19  N   UNL     1      -1.483   5.668 -30.658  1.00  0.00    -0.267 N 
HETATM   20  C   UNL     1      -0.159   5.624 -30.278  1.00  0.00     0.240 C 
HETATM   21  O   UNL     1       0.451   4.563 -30.141  1.00  0.00    -0.272 OA
HETATM   22  H   UNL     1      -2.032   6.526 -30.727  1.00  0.00     0.190 HD
BRANCH  20  23
HETATM   23  C   UNL     1       0.480   6.978 -30.053  1.00  0.00     0.144 C 
BRANCH  23  24
HETATM   24  C   UNL     1       0.263   7.488 -28.649  1.00  0.00    -0.028 A 
HETATM   25  C   UNL     1      -0.714   8.444 -28.330  1.00  0.00     0.040 A 
HETATM   26 CL   UNL     1      -1.767   9.106 -29.529  1.00  0.00    -0.084 Cl
HETATM   27  C   UNL     1      -0.865   8.894 -27.015  1.00  0.00     0.024 A 
HETATM   28  C   UNL     1      -0.037   8.406 -26.005  1.00  0.00     0.002 A 
HETATM   29  C   UNL     1       0.947   7.470 -26.310  1.00  0.00     0.001 A 
HETATM   30  C   UNL     1       1.099   7.016 -27.622  1.00  0.00     0.009 A 
ENDBRANCH  23  24
ENDBRANCH  20  23
ENDBRANCH   2  19
TORSDOF 6
ENDMDL
MODEL 2
REMARK VINA RESULT:      -8.2      1.642      2.084
REMARK  6 active torsions:
REMARK  status: ('A' for Active; 'I' for Inactive)
REMARK    1  A    between atoms: O_2  and  C_3 
REMARK    2  A    between atoms: C_6  and  C_7 
REMARK    3  A    between atoms: C_11  and  C_12 
REMARK       I    between atoms: C_12  and  N_13 
REMARK    4  A    between atoms: N_13  and  N_14 
REMARK       I    between atoms: N_14  and  C_15 
REMARK    5  A    between atoms: C_15  and  C_16 
REMARK    6  A    between atoms: C_16  and  C_17 
ROOT
HETATM    1  C   UNL     1      -3.097   3.870 -31.358  1.00  0.00     0.288 C 
HETATM    2  N   UNL     1      -3.775   4.893 -30.731  1.00  0.00    -0.262 N 
HETATM    3  O   UNL     1      -1.869   3.815 -31.376  1.00  0.00    -0.264 OA
HETATM    4  H   UNL     1      -4.780   5.025 -30.813  1.00  0.00     0.190 HD
ENDROOT
BRANCH   1   5
HETATM    5  C   UNL     1      -3.927   2.881 -31.991  1.00  0.00     0.121 A 
HETATM    6  N   UNL     1      -5.204   3.158 -32.388  1.00  0.00    -0.272 N 
HETATM    7  N   UNL     1      -5.834   2.130 -32.975  1.00  0.00    -0.174 NA
HETATM    8  H   UNL     1      -5.698   4.041 -32.285  1.00  0.00     0.189 HD
HETATM    9  C   UNL     1      -4.944   1.125 -32.949  1.00  0.00     0.089 A 
HETATM   10  C   UNL     1      -3.730   1.561 -32.343  1.00  0.00     0.071 A 
BRANCH   9  11
HETATM   11  C   UNL     1      -5.251  -0.197 -33.501  1.00  0.00    -0.005 A 
HETATM   12  C   UNL     1      -6.506  -0.457 -34.071  1.00  0.00     0.016 A 
HETATM   13  C   UNL     1      -6.803  -1.710 -34.625  1.00  0.00     0.037 A 
HETATM   14  C   UNL     1      -5.849  -2.724 -34.613  1.00  0.00     0.068 A 
HETATM   15  C   UNL     1      -4.604  -2.480 -34.031  1.00  0.00     0.037 A 
HETATM   16  C   UNL     1      -4.303  -1.229 -33.481  1.00  0.00     0.016 A 
BRANCH  14  17
HETATM   17  O   UNL     1      -6.004  -3.984 -35.122  1.00  0.00    -0.356 OA
HETATM   18  C   UNL     1      -5.181  -5.004 -34.571  1.00  0.00     0.210 C 
ENDBRANCH  14  17
ENDBRANCH   9  11
ENDBRANCH   1   5
BRANCH   2  19
HETATM   19  N   UNL     1      -3.054   5.986 -30.238  1.00  0.00    -0.267 N 
HETATM   20  C   UNL     1      -2.983   7.118 -31.020  1.00  0.00     0.240 C 
HETATM   21  O   UNL     1      -3.600   7.225 -32.082  1.00  0.00    -0.272 OA
HETATM   22  H   UNL     1      -2.515   5.844 -29.384  1.00  0.00     0.190 HD
BRANCH  20  23
HETATM   23  C   UNL     1      -2.098   8.215 -30.468  1.00  0.00     0.144 C 
BRANCH  23  24
HETATM   24  C   UNL     1      -1.231   7.733 -29.331  1.00  0.00    -0.028 A 
HETATM   25  C   UNL     1      -0.012   7.065 -29.533  1.00  0.00     0.040 A 
HETATM   26 CL   UNL     1       0.603   6.753 -31.117  1.00  0.00    -0.084 Cl
HETATM   27  C   UNL     1       0.747   6.626 -28.444  1.00  0.00     0.024 A 
HETATM   28  C   UNL     1       0.296   6.837 -27.141  1.00  0.00     0.002 A 
HETATM   29  C   UNL     1      -0.918   7.483 -26.926  1.00  0.00     0.001 A 
HETATM   30  C   UNL     1      -1.677   7.925 -28.011  1.00  0.00     0.009 A 
ENDBRANCH  23  24
ENDBRANCH  20  23
ENDBRANCH   2  19
TORSDOF 6
ENDMDL
MODEL 3
REMARK VINA RESULT:      -8.0      2.854      3.912
REMARK  6 active torsions:
REMARK  status: ('A' for Active; 'I' for Inactive)
REMARK    1  A    between atoms: O_2  and  C_3 
REMARK    2  A    between atoms: C_6  and  C_7 
REMARK    3  A    between atoms: C_11  and  C_12 
REMARK       I    between atoms: C_12  and  N_13 
REMARK    4  A    between atoms: N_13  and  N_14 
REMARK       I    between atoms: N_14  and  C_15 
REMARK    5  A    between atoms: C_15  and  C_16 
REMARK    6  A    between atoms: C_16  and  C_17 
ROOT
HETATM    1  C   UNL     1      -3.756   2.131 -31.234  1.00  0.00     0.288 C 
HETATM    2  N   UNL     1      -3.662   3.504 -31.153  1.00  0.00    -0.262 N 
HETATM    3  O   UNL     1      -2.780   1.400 -31.075  1.00  0.00    -0.264 OA
HETATM    4  H   UNL     1      -4.425   4.128 -31.406  1.00  0.00     0.190 HD
ENDROOT
BRANCH   1   5
HETATM    5  C   UNL     1      -5.068   1.621 -31.522  1.00  0.00     0.121 A 
HETATM    6  N   UNL     1      -5.524   0.453 -30.979  1.00  0.00    -0.272 N 
HETATM    7  N   UNL     1      -6.775   0.130 -31.339  1.00  0.00    -0.174 NA
HETATM    8  H   UNL     1      -5.021  -0.163 -30.347  1.00  0.00     0.189 HD
HETATM    9  C   UNL     1      -7.156   1.113 -32.171  1.00  0.00     0.089 A 
HETATM   10  C   UNL     1      -6.111   2.072 -32.306  1.00  0.00     0.071 A 
BRANCH   9  11
HETATM   11  C   UNL     1      -8.481   1.130 -32.796  1.00  0.00    -0.005 A 
HETATM   12  C   UNL     1      -9.423   0.135 -32.496  1.00  0.00     0.016 A 
HETATM   13  C   UNL     1     -10.702   0.154 -33.067  1.00  0.00     0.037 A 
HETATM   14  C   UNL     1     -11.057   1.168 -33.954  1.00  0.00     0.068 A 
HETATM   15  C   UNL     1     -10.120   2.152 -34.272  1.00  0.00     0.037 A 
HETATM   16  C   UNL     1      -8.843   2.138 -33.700  1.00  0.00     0.016 A 
BRANCH  14  17
HETATM   17  O   UNL     1     -12.267   1.309 -34.575  1.00  0.00    -0.356 OA
HETATM   18  C   UNL     1     -13.348   0.548 -34.053  1.00  0.00     0.210 C 
ENDBRANCH  14  17
ENDBRANCH   9  11
ENDBRANCH   1   5
BRANCH   2  19
HETATM   19  N   UNL     1      -2.400   4.096 -31.047  1.00  0.00    -0.267 N 
HETATM   20  C   UNL     1      -1.878   4.708 -32.165  1.00  0.00     0.240 C 
HETATM   21  O   UNL     1      -2.518   4.825 -33.211  1.00  0.00    -0.272 OA
HETATM   22  H   UNL     1      -1.878   3.934 -30.185  1.00  0.00     0.190 HD
BRANCH  20  23
HETATM   23  C   UNL     1      -0.465   5.228 -32.001  1.00  0.00     0.144 C 
BRANCH  23  24
HETATM   24  C   UNL     1      -0.265   5.938 -30.685  1.00  0.00    -0.028 A 
HETATM   25  C   UNL     1      -0.732   7.240 -30.443  1.00  0.00     0.040 A 
HETATM   26 CL   UNL     1      -1.594   8.135 -31.643  1.00  0.00    -0.084 Cl
HETATM   27  C   UNL     1      -0.507   7.858 -29.210  1.00  0.00     0.024 A 
HETATM   28  C   UNL     1       0.195   7.191 -28.206  1.00  0.00     0.002 A 
HETATM   29  C   UNL     1       0.677   5.906 -28.437  1.00  0.00     0.001 A 
HETATM   30  C   UNL     1       0.453   5.285 -29.667  1.00  0.00     0.009 A 
ENDBRANCH  23  24
ENDBRANCH  20  23
ENDBRANCH   2  19
TORSDOF 6
ENDMDL
MODEL 4
REMARK VINA RESULT:      -7.8      3.321     10.468
REMARK  6 active torsions:
REMARK  status: ('A' for Active; 'I' for Inactive)
REMARK    1  A    between atoms: O_2  and  C_3 
REMARK    2  A    between atoms: C_6  and  C_7 
REMARK    3  A    between atoms: C_11  and  C_12 
REMARK       I    between atoms: C_12  and  N_13 
REMARK    4  A    between atoms: N_13  and  N_14 
REMARK       I    between atoms: N_14  and  C_15 
REMARK    5  A    between atoms: C_15  and  C_16 
REMARK    6  A    between atoms: C_16  and  C_17 
ROOT
HETATM    1  C   UNL     1      -2.218   5.069 -32.817  1.00  0.00     0.288 C 
HETATM    2  N   UNL     1      -3.482   4.780 -32.347  1.00  0.00    -0.262 N 
HETATM    3  O   UNL     1      -1.867   4.786 -33.961  1.00  0.00    -0.264 OA
HETATM    4  H   UNL     1      -3.749   4.888 -31.372  1.00  0.00     0.190 HD
ENDROOT
BRANCH   1   5
HETATM    5  C   UNL     1      -1.346   5.715 -31.875  1.00  0.00     0.121 A 
HETATM    6  N   UNL     1      -0.240   6.410 -32.275  1.00  0.00    -0.272 N 
HETATM    7  N   UNL     1       0.456   6.964 -31.271  1.00  0.00    -0.174 NA
HETATM    8  H   UNL     1       0.086   6.543 -33.229  1.00  0.00     0.189 HD
HETATM    9  C   UNL     1      -0.205   6.604 -30.159  1.00  0.00     0.089 A 
HETATM   10  C   UNL     1      -1.348   5.823 -30.499  1.00  0.00     0.071 A 
BRANCH   9  11
HETATM   11  C   UNL     1       0.241   7.013 -28.825  1.00  0.00    -0.005 A 
HETATM   12  C   UNL     1      -0.217   6.339 -27.683  1.00  0.00     0.016 A 
HETATM   13  C   UNL     1       0.222   6.704 -26.403  1.00  0.00     0.037 A 
HETATM   14  C   UNL     1       1.123   7.755 -26.246  1.00  0.00     0.068 A 
HETATM   15  C   UNL     1       1.570   8.442 -27.375  1.00  0.00     0.037 A 
HETATM   16  C   UNL     1       1.137   8.077 -28.654  1.00  0.00     0.016 A 
BRANCH  14  17
HETATM   17  O   UNL     1       1.634   8.208 -25.061  1.00  0.00    -0.356 OA
HETATM   18  C   UNL     1       2.722   9.121 -25.140  1.00  0.00     0.210 C 
ENDBRANCH  14  17
ENDBRANCH   9  11
ENDBRANCH   1   5
BRANCH   2  19
HETATM   19  N   UNL     1      -4.338   4.002 -33.132  1.00  0.00    -0.267 N 
HETATM   20  C   UNL     1      -5.321   3.278 -32.492  1.00  0.00     0.240 C 
HETATM   21  O   UNL     1      -5.519   3.365 -31.279  1.00  0.00    -0.272 OA
HETATM   22  H   UNL     1      -4.113   3.912 -34.123  1.00  0.00     0.190 HD
BRANCH  20  23
HETATM   23  C   UNL     1      -6.136   2.379 -33.398  1.00  0.00     0.144 C 
BRANCH  23  24
HETATM   24  C   UNL     1      -5.629   0.958 -33.402  1.00  0.00    -0.028 A 
HETATM   25  C   UNL     1      -6.160  -0.037 -34.238  1.00  0.00     0.040 A 
HETATM   26 CL   UNL     1      -7.440   0.295 -35.350  1.00  0.00    -0.084 Cl
HETATM   27  C   UNL     1      -5.663  -1.343 -34.193  1.00  0.00     0.024 A 
HETATM   28  C   UNL     1      -4.639  -1.676 -33.307  1.00  0.00     0.002 A 
HETATM   29  C   UNL     1      -4.114  -0.704 -32.461  1.00  0.00     0.001 A 
HETATM   30  C   UNL     1      -4.606   0.602 -32.505  1.00  0.00     0.009 A 
ENDBRANCH  23  24
ENDBRANCH  20  23
ENDBRANCH   2  19
TORSDOF 6
ENDMDL
MODEL 5
REMARK VINA RESULT:      -7.7      2.228      2.675
REMARK  6 active torsions:
REMARK  status: ('A' for Active; 'I' for Inactive)
REMARK    1  A    between atoms: O_2  and  C_3 
REMARK    2  A    between atoms: C_6  and  C_7 
REMARK    3  A    between atoms: C_11  and  C_12 
REMARK       I    between atoms: C_12  and  N_13 
REMARK    4  A    between atoms: N_13  and  N_14 
REMARK       I    between atoms: N_14  and  C_15 
REMARK    5  A    between atoms: C_15  and  C_16 
REMARK    6  A    between atoms: C_16  and  C_17 
ROOT
HETATM    1  C   UNL     1      -5.845   4.290 -30.966  1.00  0.00     0.288 C 
HETATM    2  N   UNL     1      -4.547   4.419 -30.520  1.00  0.00    -0.262 N 
HETATM    3  O   UNL     1      -6.666   5.199 -30.858  1.00  0.00    -0.264 OA
HETATM    4  H   UNL     1      -3.893   3.641 -30.483  1.00  0.00     0.190 HD
ENDROOT
BRANCH   1   5
HETATM    5  C   UNL     1      -6.168   3.020 -31.557  1.00  0.00     0.121 A 
HETATM    6  N   UNL     1      -7.460   2.599 -31.702  1.00  0.00    -0.272 N 
HETATM    7  N   UNL     1      -7.585   1.398 -32.286  1.00  0.00    -0.174 NA
HETATM    8  H   UNL     1      -8.300   3.099 -31.423  1.00  0.00     0.189 HD
HETATM    9  C   UNL     1      -6.325   0.998 -32.518  1.00  0.00     0.089 A 
HETATM   10  C   UNL     1      -5.406   1.995 -32.079  1.00  0.00     0.071 A 
BRANCH   9  11
HETATM   11  C   UNL     1      -6.024  -0.288 -33.153  1.00  0.00    -0.005 A 
HETATM   12  C   UNL     1      -6.987  -0.935 -33.941  1.00  0.00     0.016 A 
HETATM   13  C   UNL     1      -6.704  -2.153 -34.574  1.00  0.00     0.037 A 
HETATM   14  C   UNL     1      -5.451  -2.744 -34.424  1.00  0.00     0.068 A 
HETATM   15  C   UNL     1      -4.493  -2.116 -33.627  1.00  0.00     0.037 A 
HETATM   16  C   UNL     1      -4.772  -0.898 -32.997  1.00  0.00     0.016 A 
BRANCH  14  17
HETATM   17  O   UNL     1      -5.042  -3.921 -34.988  1.00  0.00    -0.356 OA
HETATM   18  C   UNL     1      -4.278  -4.794 -34.166  1.00  0.00     0.210 C 
ENDBRANCH  14  17
ENDBRANCH   9  11
ENDBRANCH   1   5
BRANCH   2  19
HETATM   19  N   UNL     1      -4.191   5.551 -29.780  1.00  0.00    -0.267 N 
HETATM   20  C   UNL     1      -3.463   6.534 -30.414  1.00  0.00     0.240 C 
HETATM   21  O   UNL     1      -3.199   6.486 -31.616  1.00  0.00    -0.272 OA
HETATM   22  H   UNL     1      -4.380   5.533 -28.777  1.00  0.00     0.190 HD
BRANCH  20  23
HETATM   23  C   UNL     1      -3.025   7.674 -29.519  1.00  0.00     0.144 C 
BRANCH  23  24
HETATM   24  C   UNL     1      -1.685   7.414 -28.875  1.00  0.00    -0.028 A 
HETATM   25  C   UNL     1      -1.547   7.058 -27.524  1.00  0.00     0.040 A 
HETATM   26 CL   UNL     1      -2.916   6.872 -26.486  1.00  0.00    -0.084 Cl
HETATM   27  C   UNL     1      -0.281   6.842 -26.972  1.00  0.00     0.024 A 
HETATM   28  C   UNL     1       0.863   6.990 -27.755  1.00  0.00     0.002 A 
HETATM   29  C   UNL     1       0.742   7.358 -29.092  1.00  0.00     0.001 A 
HETATM   30  C   UNL     1      -0.521   7.572 -29.647  1.00  0.00     0.009 A 
ENDBRANCH  23  24
ENDBRANCH  20  23
ENDBRANCH   2  19
TORSDOF 6
ENDMDL
MODEL 6
REMARK VINA RESULT:      -7.7      7.829     10.354
REMARK  6 active torsions:
REMARK  status: ('A' for Active; 'I' for Inactive)
REMARK    1  A    between atoms: O_2  and  C_3 
REMARK    2  A    between atoms: C_6  and  C_7 
REMARK    3  A    between atoms: C_11  and  C_12 
REMARK       I    between atoms: C_12  and  N_13 
REMARK    4  A    between atoms: N_13  and  N_14 
REMARK       I    between atoms: N_14  and  C_15 
REMARK    5  A    between atoms: C_15  and  C_16 
REMARK    6  A    between atoms: C_16  and  C_17 
ROOT
HETATM    1  C   UNL     1     -11.194   3.316 -33.570  1.00  0.00     0.288 C 
HETATM    2  N   UNL     1     -10.959   4.074 -34.698  1.00  0.00    -0.262 N 
HETATM    3  O   UNL     1     -12.037   3.635 -32.733  1.00  0.00    -0.264 OA
HETATM    4  H   UNL     1     -10.184   3.898 -35.333  1.00  0.00     0.190 HD
ENDROOT
BRANCH   1   5
HETATM    5  C   UNL     1     -10.383   2.136 -33.443  1.00  0.00     0.121 A 
HETATM    6  N   UNL     1     -10.880   0.970 -32.936  1.00  0.00    -0.272 N 
HETATM    7  N   UNL     1      -9.995  -0.038 -32.901  1.00  0.00    -0.174 NA
HETATM    8  H   UNL     1     -11.826   0.803 -32.603  1.00  0.00     0.189 HD
HETATM    9  C   UNL     1      -8.859   0.490 -33.385  1.00  0.00     0.089 A 
HETATM   10  C   UNL     1      -9.066   1.854 -33.743  1.00  0.00     0.071 A 
BRANCH   9  11
HETATM   11  C   UNL     1      -7.630  -0.298 -33.511  1.00  0.00    -0.005 A 
HETATM   12  C   UNL     1      -7.405  -1.088 -34.648  1.00  0.00     0.016 A 
HETATM   13  C   UNL     1      -6.223  -1.827 -34.793  1.00  0.00     0.037 A 
HETATM   14  C   UNL     1      -5.250  -1.791 -33.797  1.00  0.00     0.068 A 
HETATM   15  C   UNL     1      -5.474  -1.022 -32.654  1.00  0.00     0.037 A 
HETATM   16  C   UNL     1      -6.651  -0.280 -32.509  1.00  0.00     0.016 A 
BRANCH  14  17
HETATM   17  O   UNL     1      -4.054  -2.456 -33.813  1.00  0.00    -0.356 OA
HETATM   18  C   UNL     1      -4.103  -3.856 -34.054  1.00  0.00     0.210 C 
ENDBRANCH  14  17
ENDBRANCH   9  11
ENDBRANCH   1   5
BRANCH   2  19
HETATM   19  N   UNL     1     -11.577   5.322 -34.820  1.00  0.00    -0.267 N 
HETATM   20  C   UNL     1     -10.851   6.349 -35.383  1.00  0.00     0.240 C 
HETATM   21  O   UNL     1      -9.725   6.179 -35.854  1.00  0.00    -0.272 OA
HETATM   22  H   UNL     1     -12.486   5.440 -34.373  1.00  0.00     0.190 HD
BRANCH  20  23
HETATM   23  C   UNL     1     -11.548   7.693 -35.381  1.00  0.00     0.144 C 
BRANCH  23  24
HETATM   24  C   UNL     1     -12.105   8.051 -36.737  1.00  0.00    -0.028 A 
HETATM   25  C   UNL     1     -11.382   8.794 -37.685  1.00  0.00     0.040 A 
HETATM   26 CL   UNL     1      -9.776   9.348 -37.374  1.00  0.00    -0.084 Cl
HETATM   27  C   UNL     1     -11.950   9.112 -38.922  1.00  0.00     0.024 A 
HETATM   28  C   UNL     1     -13.249   8.704 -39.226  1.00  0.00     0.002 A 
HETATM   29  C   UNL     1     -13.983   7.981 -38.290  1.00  0.00     0.001 A 
HETATM   30  C   UNL     1     -13.418   7.660 -37.054  1.00  0.00     0.009 A 
ENDBRANCH  23  24
ENDBRANCH  20  23
ENDBRANCH   2  19
TORSDOF 6
ENDMDL
MODEL 7
REMARK VINA RESULT:      -7.6      3.848      5.153
REMARK  6 active torsions:
REMARK  status: ('A' for Active; 'I' for Inactive)
REMARK    1  A    between atoms: O_2  and  C_3 
REMARK    2  A    between atoms: C_6  and  C_7 
REMARK    3  A    between atoms: C_11  and  C_12 
REMARK       I    between atoms: C_12  and  N_13 
REMARK    4  A    between atoms: N_13  and  N_14 
REMARK       I    between atoms: N_14  and  C_15 
REMARK    5  A    between atoms: C_15  and  C_16 
REMARK    6  A    between atoms: C_16  and  C_17 
ROOT
HETATM    1  C   UNL     1      -5.051   2.717 -32.825  1.00  0.00     0.288 C 
HETATM    2  N   UNL     1      -4.918   4.001 -33.309  1.00  0.00    -0.262 N 
HETATM    3  O   UNL     1      -4.100   2.094 -32.356  1.00  0.00    -0.264 OA
HETATM    4  H   UNL     1      -5.658   4.483 -33.814  1.00  0.00     0.190 HD
ENDROOT
BRANCH   1   5
HETATM    5  C   UNL     1      -6.374   2.161 -32.913  1.00  0.00     0.121 A 
HETATM    6  N   UNL     1      -6.716   1.006 -32.271  1.00  0.00    -0.272 N 
HETATM    7  N   UNL     1      -7.993   0.635 -32.446  1.00  0.00    -0.174 NA
HETATM    8  H   UNL     1      -6.113   0.429 -31.690  1.00  0.00     0.189 HD
HETATM    9  C   UNL     1      -8.513   1.573 -33.254  1.00  0.00     0.089 A 
HETATM   10  C   UNL     1      -7.526   2.553 -33.564  1.00  0.00     0.071 A 
BRANCH   9  11
HETATM   11  C   UNL     1      -9.910   1.530 -33.693  1.00  0.00    -0.005 A 
HETATM   12  C   UNL     1     -10.760   0.499 -33.266  1.00  0.00     0.016 A 
HETATM   13  C   UNL     1     -12.104   0.460 -33.659  1.00  0.00     0.037 A 
HETATM   14  C   UNL     1     -12.618   1.452 -34.491  1.00  0.00     0.068 A 
HETATM   15  C   UNL     1     -11.775   2.471 -34.936  1.00  0.00     0.037 A 
HETATM   16  C   UNL     1     -10.434   2.515 -34.541  1.00  0.00     0.016 A 
BRANCH  14  17
HETATM   17  O   UNL     1     -13.906   1.537 -34.943  1.00  0.00    -0.356 OA
HETATM   18  C   UNL     1     -14.872   0.729 -34.284  1.00  0.00     0.210 C 
ENDBRANCH  14  17
ENDBRANCH   9  11
ENDBRANCH   1   5
BRANCH   2  19
HETATM   19  N   UNL     1      -3.640   4.557 -33.422  1.00  0.00    -0.267 N 
HETATM   20  C   UNL     1      -3.494   5.900 -33.149  1.00  0.00     0.240 C 
HETATM   21  O   UNL     1      -4.423   6.592 -32.731  1.00  0.00    -0.272 OA
HETATM   22  H   UNL     1      -2.908   3.969 -33.820  1.00  0.00     0.190 HD
BRANCH  20  23
HETATM   23  C   UNL     1      -2.105   6.449 -33.397  1.00  0.00     0.144 C 
BRANCH  23  24
HETATM   24  C   UNL     1      -1.245   6.414 -32.158  1.00  0.00    -0.028 A 
HETATM   25  C   UNL     1      -1.224   7.456 -31.217  1.00  0.00     0.040 A 
HETATM   26 CL   UNL     1      -2.205   8.867 -31.398  1.00  0.00    -0.084 Cl
HETATM   27  C   UNL     1      -0.398   7.381 -30.092  1.00  0.00     0.024 A 
HETATM   28  C   UNL     1       0.426   6.273 -29.897  1.00  0.00     0.002 A 
HETATM   29  C   UNL     1       0.428   5.240 -30.830  1.00  0.00     0.001 A 
HETATM   30  C   UNL     1      -0.398   5.311 -31.953  1.00  0.00     0.009 A 
ENDBRANCH  23  24
ENDBRANCH  20  23
ENDBRANCH   2  19
TORSDOF 6
ENDMDL
MODEL 8
REMARK VINA RESULT:      -7.4      3.298     10.565
REMARK  6 active torsions:
REMARK  status: ('A' for Active; 'I' for Inactive)
REMARK    1  A    between atoms: O_2  and  C_3 
REMARK    2  A    between atoms: C_6  and  C_7 
REMARK    3  A    between atoms: C_11  and  C_12 
REMARK       I    between atoms: C_12  and  N_13 
REMARK    4  A    between atoms: N_13  and  N_14 
REMARK       I    between atoms: N_14  and  C_15 
REMARK    5  A    between atoms: C_15  and  C_16 
REMARK    6  A    between atoms: C_16  and  C_17 
ROOT
HETATM    1  C   UNL     1      -2.371   4.330 -32.506  1.00  0.00     0.288 C 
HETATM    2  N   UNL     1      -3.360   3.642 -31.835  1.00  0.00    -0.262 N 
HETATM    3  O   UNL     1      -2.215   4.229 -33.722  1.00  0.00    -0.264 OA
HETATM    4  H   UNL     1      -3.424   3.612 -30.821  1.00  0.00     0.190 HD
ENDROOT
BRANCH   1   5
HETATM    5  C   UNL     1      -1.536   5.162 -31.684  1.00  0.00     0.121 A 
HETATM    6  N   UNL     1      -0.173   5.136 -31.780  1.00  0.00    -0.272 N 
HETATM    7  N   UNL     1       0.453   5.986 -30.952  1.00  0.00    -0.174 NA
HETATM    8  H   UNL     1       0.384   4.558 -32.402  1.00  0.00     0.189 HD
HETATM    9  C   UNL     1      -0.534   6.583 -30.265  1.00  0.00     0.089 A 
HETATM   10  C   UNL     1      -1.799   6.096 -30.702  1.00  0.00     0.071 A 
BRANCH   9  11
HETATM   11  C   UNL     1      -0.263   7.596 -29.241  1.00  0.00    -0.005 A 
HETATM   12  C   UNL     1      -1.270   8.483 -28.834  1.00  0.00     0.016 A 
HETATM   13  C   UNL     1      -1.032   9.440 -27.838  1.00  0.00     0.037 A 
HETATM   14  C   UNL     1       0.222   9.526 -27.237  1.00  0.00     0.068 A 
HETATM   15  C   UNL     1       1.235   8.659 -27.650  1.00  0.00     0.037 A 
HETATM   16  C   UNL     1       0.998   7.701 -28.641  1.00  0.00     0.016 A 
BRANCH  14  17
HETATM   17  O   UNL     1       0.587  10.404 -26.254  1.00  0.00    -0.356 OA
HETATM   18  C   UNL     1       0.727   9.875 -24.942  1.00  0.00     0.210 C 
ENDBRANCH  14  17
ENDBRANCH   9  11
ENDBRANCH   1   5
BRANCH   2  19
HETATM   19  N   UNL     1      -4.107   2.681 -32.523  1.00  0.00    -0.267 N 
HETATM   20  C   UNL     1      -3.958   1.362 -32.154  1.00  0.00     0.240 C 
HETATM   21  O   UNL     1      -3.265   1.021 -31.194  1.00  0.00    -0.272 OA
HETATM   22  H   UNL     1      -4.627   2.992 -33.344  1.00  0.00     0.190 HD
BRANCH  20  23
HETATM   23  C   UNL     1      -4.716   0.374 -33.015  1.00  0.00     0.144 C 
BRANCH  23  24
HETATM   24  C   UNL     1      -6.192   0.354 -32.701  1.00  0.00    -0.028 A 
HETATM   25  C   UNL     1      -7.161  -0.063 -33.626  1.00  0.00     0.040 A 
HETATM   26 CL   UNL     1      -6.735  -0.607 -35.210  1.00  0.00    -0.084 Cl
HETATM   27  C   UNL     1      -8.518  -0.048 -33.290  1.00  0.00     0.024 A 
HETATM   28  C   UNL     1      -8.926   0.392 -32.032  1.00  0.00     0.002 A 
HETATM   29  C   UNL     1      -7.977   0.824 -31.109  1.00  0.00     0.001 A 
HETATM   30  C   UNL     1      -6.621   0.809 -31.441  1.00  0.00     0.009 A 
ENDBRANCH  23  24
ENDBRANCH  20  23
ENDBRANCH   2  19
TORSDOF 6
ENDMDL
MODEL 9
REMARK VINA RESULT:      -7.2      2.332      2.789
REMARK  6 active torsions:
REMARK  status: ('A' for Active; 'I' for Inactive)
REMARK    1  A    between atoms: O_2  and  C_3 
REMARK    2  A    between atoms: C_6  and  C_7 
REMARK    3  A    between atoms: C_11  and  C_12 
REMARK       I    between atoms: C_12  and  N_13 
REMARK    4  A    between atoms: N_13  and  N_14 
REMARK       I    between atoms: N_14  and  C_15 
REMARK    5  A    between atoms: C_15  and  C_16 
REMARK    6  A    between atoms: C_16  and  C_17 
ROOT
HETATM    1  C   UNL     1      -4.379   4.695 -31.129  1.00  0.00     0.288 C 
HETATM    2  N   UNL     1      -4.694   4.923 -29.806  1.00  0.00    -0.262 N 
HETATM    3  O   UNL     1      -3.660   5.460 -31.770  1.00  0.00    -0.264 OA
HETATM    4  H   UNL     1      -5.386   4.376 -29.299  1.00  0.00     0.190 HD
ENDROOT
BRANCH   1   5
HETATM    5  C   UNL     1      -4.955   3.509 -31.702  1.00  0.00     0.121 A 
HETATM    6  N   UNL     1      -6.306   3.341 -31.805  1.00  0.00    -0.272 N 
HETATM    7  N   UNL     1      -6.675   2.185 -32.378  1.00  0.00    -0.174 NA
HETATM    8  H   UNL     1      -7.027   3.991 -31.504  1.00  0.00     0.189 HD
HETATM    9  C   UNL     1      -5.521   1.554 -32.647  1.00  0.00     0.089 A 
HETATM   10  C   UNL     1      -4.417   2.358 -32.241  1.00  0.00     0.071 A 
BRANCH   9  11
HETATM   11  C   UNL     1      -5.489   0.235 -33.284  1.00  0.00    -0.005 A 
HETATM   12  C   UNL     1      -4.331  -0.555 -33.227  1.00  0.00     0.016 A 
HETATM   13  C   UNL     1      -4.295  -1.829 -33.810  1.00  0.00     0.037 A 
HETATM   14  C   UNL     1      -5.418  -2.329 -34.465  1.00  0.00     0.068 A 
HETATM   15  C   UNL     1      -6.568  -1.542 -34.543  1.00  0.00     0.037 A 
HETATM   16  C   UNL     1      -6.608  -0.272 -33.957  1.00  0.00     0.016 A 
BRANCH  14  17
HETATM   17  O   UNL     1      -5.521  -3.552 -35.070  1.00  0.00    -0.356 OA
HETATM   18  C   UNL     1      -6.736  -4.263 -34.875  1.00  0.00     0.210 C 
ENDBRANCH  14  17
ENDBRANCH   9  11
ENDBRANCH   1   5
BRANCH   2  19
HETATM   19  N   UNL     1      -4.322   6.135 -29.216  1.00  0.00    -0.267 N 
HETATM   20  C   UNL     1      -4.791   6.408 -27.950  1.00  0.00     0.240 C 
HETATM   21  O   UNL     1      -5.444   5.590 -27.299  1.00  0.00    -0.272 OA
HETATM   22  H   UNL     1      -3.827   6.808 -29.802  1.00  0.00     0.190 HD
BRANCH  20  23
HETATM   23  C   UNL     1      -4.435   7.782 -27.425  1.00  0.00     0.144 C 
BRANCH  23  24
HETATM   24  C   UNL     1      -2.943   7.990 -27.330  1.00  0.00    -0.028 A 
HETATM   25  C   UNL     1      -2.243   8.872 -28.169  1.00  0.00     0.040 A 
HETATM   26 CL   UNL     1      -3.046   9.810 -29.378  1.00  0.00    -0.084 Cl
HETATM   27  C   UNL     1      -0.858   9.018 -28.050  1.00  0.00     0.024 A 
HETATM   28  C   UNL     1      -0.152   8.279 -27.101  1.00  0.00     0.002 A 
HETATM   29  C   UNL     1      -0.831   7.389 -26.274  1.00  0.00     0.001 A 
HETATM   30  C   UNL     1      -2.214   7.242 -26.389  1.00  0.00     0.009 A 
ENDBRANCH  23  24
ENDBRANCH  20  23
ENDBRANCH   2  19
TORSDOF 6
ENDMDL
MODEL 10
REMARK VINA RESULT:      -7.2      1.787      2.282
REMARK  6 active torsions:
REMARK  status: ('A' for Active; 'I' for Inactive)
REMARK    1  A    between atoms: O_2  and  C_3 
REMARK    2  A    between atoms: C_6  and  C_7 
REMARK    3  A    between atoms: C_11  and  C_12 
REMARK       I    between atoms: C_12  and  N_13 
REMARK    4  A    between atoms: N_13  and  N_14 
REMARK       I    between atoms: N_14  and  C_15 
REMARK    5  A    between atoms: C_15  and  C_16 
REMARK    6  A    between atoms: C_16  and  C_17 
ROOT
HETATM    1  C   UNL     1      -2.830   3.816 -31.517  1.00  0.00     0.288 C 
HETATM    2  N   UNL     1      -3.802   4.794 -31.530  1.00  0.00    -0.262 N 
HETATM    3  O   UNL     1      -1.642   4.078 -31.334  1.00  0.00    -0.264 OA
HETATM    4  H   UNL     1      -4.765   4.616 -31.805  1.00  0.00     0.190 HD
ENDROOT
BRANCH   1   5
HETATM    5  C   UNL     1      -3.304   2.477 -31.738  1.00  0.00     0.121 A 
HETATM    6  N   UNL     1      -3.044   1.465 -30.858  1.00  0.00    -0.272 N 
HETATM    7  N   UNL     1      -3.572   0.282 -31.207  1.00  0.00    -0.174 NA
HETATM    8  H   UNL     1      -2.513   1.529 -29.994  1.00  0.00     0.189 HD
HETATM    9  C   UNL     1      -4.189   0.516 -32.377  1.00  0.00     0.089 A 
HETATM   10  C   UNL     1      -4.047   1.886 -32.740  1.00  0.00     0.071 A 
BRANCH   9  11
HETATM   11  C   UNL     1      -4.899  -0.540 -33.103  1.00  0.00    -0.005 A 
HETATM   12  C   UNL     1      -4.206  -1.655 -33.597  1.00  0.00     0.016 A 
HETATM   13  C   UNL     1      -4.877  -2.684 -34.272  1.00  0.00     0.037 A 
HETATM   14  C   UNL     1      -6.254  -2.609 -34.468  1.00  0.00     0.068 A 
HETATM   15  C   UNL     1      -6.949  -1.494 -33.997  1.00  0.00     0.037 A 
HETATM   16  C   UNL     1      -6.282  -0.468 -33.319  1.00  0.00     0.016 A 
BRANCH  14  17
HETATM   17  O   UNL     1      -7.030  -3.540 -35.101  1.00  0.00    -0.356 OA
HETATM   18  C   UNL     1      -6.393  -4.753 -35.480  1.00  0.00     0.210 C 
ENDBRANCH  14  17
ENDBRANCH   9  11
ENDBRANCH   1   5
BRANCH   2  19
HETATM   19  N   UNL     1      -3.416   6.137 -31.495  1.00  0.00    -0.267 N 
HETATM   20  C   UNL     1      -3.687   6.857 -30.352  1.00  0.00     0.240 C 
HETATM   21  O   UNL     1      -4.170   6.337 -29.345  1.00  0.00    -0.272 OA
HETATM   22  H   UNL     1      -3.068   6.547 -32.362  1.00  0.00     0.190 HD
BRANCH  20  23
HETATM   23  C   UNL     1      -3.337   8.328 -30.432  1.00  0.00     0.144 C 
BRANCH  23  24
HETATM   24  C   UNL     1      -2.274   8.720 -29.435  1.00  0.00    -0.028 A 
HETATM   25  C   UNL     1      -2.384   9.853 -28.612  1.00  0.00     0.040 A 
HETATM   26 CL   UNL     1      -3.766  10.888 -28.666  1.00  0.00    -0.084 Cl
HETATM   27  C   UNL     1      -1.364  10.180 -27.714  1.00  0.00     0.024 A 
HETATM   28  C   UNL     1      -0.217   9.390 -27.634  1.00  0.00     0.002 A 
HETATM   29  C   UNL     1      -0.088   8.274 -28.455  1.00  0.00     0.001 A 
HETATM   30  C   UNL     1      -1.106   7.943 -29.351  1.00  0.00     0.009 A 
ENDBRANCH  23  24
ENDBRANCH  20  23
ENDBRANCH   2  19
TORSDOF 6
ENDMDL
