MODEL 1
REMARK VINA RESULT:      -7.9      0.000      0.000
REMARK  9 active torsions:
REMARK  status: ('A' for Active; 'I' for Inactive)
REMARK    1  A    between atoms: O_2  and  C_3 
REMARK    2  A    between atoms: C_3  and  C_4 
REMARK    3  A    between atoms: C_4  and  O_5 
REMARK    4  A    between atoms: O_5  and  C_6 
REMARK    5  A    between atoms: C_8  and  C_25 
REMARK    6  A    between atoms: C_11  and  C_12 
REMARK       I    between atoms: C_12  and  N_14 
REMARK    7  A    between atoms: N_14  and  C_15 
REMARK    8  A    between atoms: C_15  and  C_17 
REMARK    9  A    between atoms: C_21  and  O_22 
ROOT
HETATM    1  C   UNL     1      -6.235   0.538 -33.652  1.00  0.00     0.085 A 
HETATM    2  C   UNL     1      -6.431  -0.756 -34.150  1.00  0.00     0.050 A 
HETATM    3  C   UNL     1      -5.480  -1.762 -33.923  1.00  0.00    -0.020 A 
HETATM    4  C   UNL     1      -4.327  -1.444 -33.192  1.00  0.00     0.013 A 
HETATM    5  C   UNL     1      -4.145  -0.159 -32.669  1.00  0.00     0.021 A 
HETATM    6  C   UNL     1      -5.113   0.834 -32.868  1.00  0.00     0.065 A 
ENDROOT
BRANCH   6   7
HETATM    7  C   UNL     1      -4.892   2.140 -32.190  1.00  0.00     0.255 C 
HETATM    8  O   UNL     1      -4.559   2.168 -31.011  1.00  0.00    -0.268 OA
HETATM    9  N   UNL     1      -5.136   3.264 -32.945  1.00  0.00    -0.349 N 
HETATM   10  H   UNL     1      -5.297   3.149 -33.939  1.00  0.00     0.163 HD
BRANCH   9  11
HETATM   11  C   UNL     1      -4.931   4.609 -32.437  1.00  0.00     0.114 C 
HETATM   12  C   UNL     1      -6.023   5.541 -32.965  1.00  0.00     0.037 C 
BRANCH  11  13
HETATM   13  C   UNL     1      -3.523   5.071 -32.771  1.00  0.00    -0.033 A 
HETATM   14  C   UNL     1      -3.325   5.926 -33.866  1.00  0.00     0.009 A 
HETATM   15  C   UNL     1      -2.048   6.382 -34.190  1.00  0.00     0.003 A 
HETATM   16  C   UNL     1      -0.957   6.002 -33.412  1.00  0.00     0.037 A 
HETATM   17  C   UNL     1      -1.132   5.175 -32.300  1.00  0.00     0.068 A 
HETATM   18  C   UNL     1      -2.412   4.713 -31.984  1.00  0.00     0.046 A 
BRANCH  17  19
HETATM   19  O   UNL     1       0.017   4.895 -31.612  1.00  0.00    -0.356 OA
HETATM   20  C   UNL     1       0.030   5.219 -30.227  1.00  0.00     0.210 C 
ENDBRANCH  17  19
ENDBRANCH  11  13
ENDBRANCH   9  11
ENDBRANCH   6   7
BRANCH   1  21
HETATM   21  O   UNL     1      -7.217   1.456 -33.929  1.00  0.00    -0.348 OA
BRANCH  21  22
HETATM   22  C   UNL     1      -8.488   1.062 -33.371  1.00  0.00     0.201 C 
BRANCH  22  23
HETATM   23  C   UNL     1      -8.596   1.515 -31.916  1.00  0.00     0.193 C 
BRANCH  23  24
HETATM   24  O   UNL     1      -8.180   2.880 -31.803  1.00  0.00    -0.394 OA
HETATM   25  C   UNL     1      -7.998   3.259 -30.445  1.00  0.00     0.201 C 
ENDBRANCH  23  24
ENDBRANCH  22  23
ENDBRANCH  21  22
ENDBRANCH   1  21
BRANCH   3  26
HETATM   26  C   UNL     1      -5.709  -3.110 -34.416  1.00  0.00     0.010 A 
HETATM   27  C   UNL     1      -4.851  -4.235 -34.465  1.00  0.00     0.152 A 
HETATM   28  N   UNL     1      -5.434  -5.310 -35.002  1.00  0.00    -0.187 NA
HETATM   29  N   UNL     1      -6.668  -4.878 -35.305  1.00  0.00    -0.289 N 
HETATM   30  H   UNL     1      -7.312  -5.531 -35.740  1.00  0.00     0.188 HD
HETATM   31  C   UNL     1      -6.884  -3.572 -34.971  1.00  0.00     0.123 A 
ENDBRANCH   3  26
TORSDOF 9
ENDMDL
MODEL 2
REMARK VINA RESULT:      -7.6      2.943      6.401
REMARK  9 active torsions:
REMARK  status: ('A' for Active; 'I' for Inactive)
REMARK    1  A    between atoms: O_2  and  C_3 
REMARK    2  A    between atoms: C_3  and  C_4 
REMARK    3  A    between atoms: C_4  and  O_5 
REMARK    4  A    between atoms: O_5  and  C_6 
REMARK    5  A    between atoms: C_8  and  C_25 
REMARK    6  A    between atoms: C_11  and  C_12 
REMARK       I    between atoms: C_12  and  N_14 
REMARK    7  A    between atoms: N_14  and  C_15 
REMARK    8  A    between atoms: C_15  and  C_17 
REMARK    9  A    between atoms: C_21  and  O_22 
ROOT
HETATM    1  C   UNL     1      -5.775   0.333 -33.097  1.00  0.00     0.085 A 
HETATM    2  C   UNL     1      -5.390  -1.007 -33.224  1.00  0.00     0.050 A 
HETATM    3  C   UNL     1      -5.891  -1.799 -34.268  1.00  0.00    -0.020 A 
HETATM    4  C   UNL     1      -6.787  -1.223 -35.178  1.00  0.00     0.013 A 
HETATM    5  C   UNL     1      -7.149   0.124 -35.069  1.00  0.00     0.021 A 
HETATM    6  C   UNL     1      -6.621   0.922 -34.046  1.00  0.00     0.065 A 
ENDROOT
BRANCH   6   7
HETATM    7  C   UNL     1      -6.973   2.368 -34.063  1.00  0.00     0.255 C 
HETATM    8  O   UNL     1      -6.132   3.197 -34.390  1.00  0.00    -0.268 OA
HETATM    9  N   UNL     1      -8.245   2.687 -33.648  1.00  0.00    -0.349 N 
HETATM   10  H   UNL     1      -8.906   1.933 -33.505  1.00  0.00     0.163 HD
BRANCH   9  11
HETATM   11  C   UNL     1      -8.749   4.049 -33.645  1.00  0.00     0.114 C 
HETATM   12  C   UNL     1      -8.768   4.597 -32.218  1.00  0.00     0.037 C 
BRANCH  11  13
HETATM   13  C   UNL     1     -10.103   4.093 -34.331  1.00  0.00    -0.033 A 
HETATM   14  C   UNL     1     -10.634   5.333 -34.719  1.00  0.00     0.009 A 
HETATM   15  C   UNL     1     -11.867   5.409 -35.365  1.00  0.00     0.003 A 
HETATM   16  C   UNL     1     -12.575   4.243 -35.646  1.00  0.00     0.037 A 
HETATM   17  C   UNL     1     -12.056   2.995 -35.297  1.00  0.00     0.068 A 
HETATM   18  C   UNL     1     -10.824   2.924 -34.641  1.00  0.00     0.046 A 
BRANCH  17  19
HETATM   19  O   UNL     1     -12.842   1.932 -35.647  1.00  0.00    -0.356 OA
HETATM   20  C   UNL     1     -13.115   0.974 -34.632  1.00  0.00     0.210 C 
ENDBRANCH  17  19
ENDBRANCH  11  13
ENDBRANCH   9  11
ENDBRANCH   6   7
BRANCH   1  21
HETATM   21  O   UNL     1      -5.238   1.027 -32.042  1.00  0.00    -0.348 OA
BRANCH  21  22
HETATM   22  C   UNL     1      -3.847   1.344 -32.264  1.00  0.00     0.201 C 
BRANCH  22  23
HETATM   23  C   UNL     1      -3.363   2.369 -31.241  1.00  0.00     0.193 C 
BRANCH  23  24
HETATM   24  O   UNL     1      -2.431   3.264 -31.857  1.00  0.00    -0.394 OA
HETATM   25  C   UNL     1      -3.034   3.994 -32.918  1.00  0.00     0.201 C 
ENDBRANCH  23  24
ENDBRANCH  22  23
ENDBRANCH  21  22
ENDBRANCH   1  21
BRANCH   3  26
HETATM   26  C   UNL     1      -5.460  -3.180 -34.411  1.00  0.00     0.010 A 
HETATM   27  C   UNL     1      -6.132  -4.310 -34.936  1.00  0.00     0.152 A 
HETATM   28  N   UNL     1      -5.394  -5.422 -34.889  1.00  0.00    -0.187 NA
HETATM   29  N   UNL     1      -4.246  -5.012 -34.328  1.00  0.00    -0.289 N 
HETATM   30  H   UNL     1      -3.512  -5.698 -34.179  1.00  0.00     0.188 HD
HETATM   31  C   UNL     1      -4.232  -3.680 -34.027  1.00  0.00     0.123 A 
ENDBRANCH   3  26
TORSDOF 9
ENDMDL
MODEL 3
REMARK VINA RESULT:      -7.3      1.429      2.403
REMARK  9 active torsions:
REMARK  status: ('A' for Active; 'I' for Inactive)
REMARK    1  A    between atoms: O_2  and  C_3 
REMARK    2  A    between atoms: C_3  and  C_4 
REMARK    3  A    between atoms: C_4  and  O_5 
REMARK    4  A    between atoms: O_5  and  C_6 
REMARK    5  A    between atoms: C_8  and  C_25 
REMARK    6  A    between atoms: C_11  and  C_12 
REMARK       I    between atoms: C_12  and  N_14 
REMARK    7  A    between atoms: N_14  and  C_15 
REMARK    8  A    between atoms: C_15  and  C_17 
REMARK    9  A    between atoms: C_21  and  O_22 
ROOT
HETATM    1  C   UNL     1      -5.045   0.360 -33.026  1.00  0.00     0.085 A 
HETATM    2  C   UNL     1      -4.927  -1.019 -33.244  1.00  0.00     0.050 A 
HETATM    3  C   UNL     1      -5.723  -1.663 -34.202  1.00  0.00    -0.020 A 
HETATM    4  C   UNL     1      -6.642  -0.898 -34.934  1.00  0.00     0.013 A 
HETATM    5  C   UNL     1      -6.739   0.484 -34.738  1.00  0.00     0.021 A 
HETATM    6  C   UNL     1      -5.918   1.129 -33.804  1.00  0.00     0.065 A 
ENDROOT
BRANCH   6   7
HETATM    7  C   UNL     1      -6.009   2.612 -33.733  1.00  0.00     0.255 C 
HETATM    8  O   UNL     1      -7.105   3.160 -33.787  1.00  0.00    -0.268 OA
HETATM    9  N   UNL     1      -4.815   3.291 -33.662  1.00  0.00    -0.349 N 
HETATM   10  H   UNL     1      -3.968   2.756 -33.509  1.00  0.00     0.163 HD
BRANCH   9  11
HETATM   11  C   UNL     1      -4.740   4.736 -33.548  1.00  0.00     0.114 C 
HETATM   12  C   UNL     1      -4.352   5.348 -34.895  1.00  0.00     0.037 C 
BRANCH  11  13
HETATM   13  C   UNL     1      -3.800   5.112 -32.417  1.00  0.00    -0.033 A 
HETATM   14  C   UNL     1      -4.249   5.990 -31.417  1.00  0.00     0.009 A 
HETATM   15  C   UNL     1      -3.417   6.343 -30.356  1.00  0.00     0.003 A 
HETATM   16  C   UNL     1      -2.133   5.809 -30.273  1.00  0.00     0.037 A 
HETATM   17  C   UNL     1      -1.674   4.912 -31.239  1.00  0.00     0.068 A 
HETATM   18  C   UNL     1      -2.507   4.568 -32.306  1.00  0.00     0.046 A 
BRANCH  17  19
HETATM   19  O   UNL     1      -0.403   4.449 -31.029  1.00  0.00    -0.356 OA
HETATM   20  C   UNL     1       0.444   5.248 -30.213  1.00  0.00     0.210 C 
ENDBRANCH  17  19
ENDBRANCH  11  13
ENDBRANCH   9  11
ENDBRANCH   6   7
BRANCH   1  21
HETATM   21  O   UNL     1      -4.228   0.899 -32.064  1.00  0.00    -0.348 OA
BRANCH  21  22
HETATM   22  C   UNL     1      -4.517   0.363 -30.755  1.00  0.00     0.201 C 
BRANCH  22  23
HETATM   23  C   UNL     1      -5.618   1.176 -30.077  1.00  0.00     0.193 C 
BRANCH  23  24
HETATM   24  O   UNL     1      -5.329   2.574 -30.196  1.00  0.00    -0.394 OA
HETATM   25  C   UNL     1      -6.512   3.358 -30.119  1.00  0.00     0.201 C 
ENDBRANCH  23  24
ENDBRANCH  22  23
ENDBRANCH  21  22
ENDBRANCH   1  21
BRANCH   3  26
HETATM   26  C   UNL     1      -5.570  -3.088 -34.444  1.00  0.00     0.010 A 
HETATM   27  C   UNL     1      -6.465  -4.033 -35.000  1.00  0.00     0.152 A 
HETATM   28  N   UNL     1      -5.953  -5.265 -35.052  1.00  0.00    -0.187 NA
HETATM   29  N   UNL     1      -4.728  -5.118 -34.524  1.00  0.00    -0.289 N 
HETATM   30  H   UNL     1      -4.135  -5.938 -34.449  1.00  0.00     0.188 HD
HETATM   31  C   UNL     1      -4.449  -3.835 -34.148  1.00  0.00     0.123 A 
ENDBRANCH   3  26
TORSDOF 9
ENDMDL
MODEL 4
REMARK VINA RESULT:      -7.2      3.277      7.470
REMARK  9 active torsions:
REMARK  status: ('A' for Active; 'I' for Inactive)
REMARK    1  A    between atoms: O_2  and  C_3 
REMARK    2  A    between atoms: C_3  and  C_4 
REMARK    3  A    between atoms: C_4  and  O_5 
REMARK    4  A    between atoms: O_5  and  C_6 
REMARK    5  A    between atoms: C_8  and  C_25 
REMARK    6  A    between atoms: C_11  and  C_12 
REMARK       I    between atoms: C_12  and  N_14 
REMARK    7  A    between atoms: N_14  and  C_15 
REMARK    8  A    between atoms: C_15  and  C_17 
REMARK    9  A    between atoms: C_21  and  O_22 
ROOT
HETATM    1  C   UNL     1      -7.875   2.391 -32.950  1.00  0.00     0.085 A 
HETATM    2  C   UNL     1      -8.994   3.031 -33.498  1.00  0.00     0.050 A 
HETATM    3  C   UNL     1     -10.191   2.329 -33.703  1.00  0.00    -0.020 A 
HETATM    4  C   UNL     1     -10.242   0.972 -33.353  1.00  0.00     0.013 A 
HETATM    5  C   UNL     1      -9.134   0.340 -32.778  1.00  0.00     0.021 A 
HETATM    6  C   UNL     1      -7.952   1.053 -32.542  1.00  0.00     0.065 A 
ENDROOT
BRANCH   6   7
HETATM    7  C   UNL     1      -6.859   0.336 -31.831  1.00  0.00     0.255 C 
HETATM    8  O   UNL     1      -7.075  -0.179 -30.739  1.00  0.00    -0.268 OA
HETATM    9  N   UNL     1      -5.628   0.346 -32.443  1.00  0.00    -0.349 N 
HETATM   10  H   UNL     1      -5.567   0.697 -33.392  1.00  0.00     0.163 HD
BRANCH   9  11
HETATM   11  C   UNL     1      -4.473  -0.340 -31.893  1.00  0.00     0.114 C 
HETATM   12  C   UNL     1      -3.244   0.569 -31.954  1.00  0.00     0.037 C 
BRANCH  11  13
HETATM   13  C   UNL     1      -4.281  -1.668 -32.604  1.00  0.00    -0.033 A 
HETATM   14  C   UNL     1      -3.429  -2.630 -32.041  1.00  0.00     0.009 A 
HETATM   15  C   UNL     1      -3.243  -3.865 -32.660  1.00  0.00     0.003 A 
HETATM   16  C   UNL     1      -3.921  -4.159 -33.840  1.00  0.00     0.037 A 
HETATM   17  C   UNL     1      -4.797  -3.230 -34.405  1.00  0.00     0.068 A 
HETATM   18  C   UNL     1      -4.973  -1.990 -33.787  1.00  0.00     0.046 A 
BRANCH  17  19
HETATM   19  O   UNL     1      -5.413  -3.652 -35.552  1.00  0.00    -0.356 OA
HETATM   20  C   UNL     1      -6.485  -4.574 -35.402  1.00  0.00     0.210 C 
ENDBRANCH  17  19
ENDBRANCH  11  13
ENDBRANCH   9  11
ENDBRANCH   6   7
BRANCH   1  21
HETATM   21  O   UNL     1      -6.749   3.158 -32.791  1.00  0.00    -0.348 OA
BRANCH  21  22
HETATM   22  C   UNL     1      -6.623   4.145 -33.837  1.00  0.00     0.201 C 
BRANCH  22  23
HETATM   23  C   UNL     1      -6.169   5.483 -33.257  1.00  0.00     0.193 C 
BRANCH  23  24
HETATM   24  O   UNL     1      -4.994   5.932 -33.941  1.00  0.00    -0.394 OA
HETATM   25  C   UNL     1      -4.067   4.873 -34.137  1.00  0.00     0.201 C 
ENDBRANCH  23  24
ENDBRANCH  22  23
ENDBRANCH  21  22
ENDBRANCH   1  21
BRANCH   3  26
HETATM   26  C   UNL     1     -11.356   3.010 -34.243  1.00  0.00     0.010 A 
HETATM   27  C   UNL     1     -11.584   3.587 -35.515  1.00  0.00     0.152 A 
HETATM   28  N   UNL     1     -12.798   4.132 -35.628  1.00  0.00    -0.187 NA
HETATM   29  N   UNL     1     -13.353   3.912 -34.426  1.00  0.00    -0.289 N 
HETATM   30  H   UNL     1     -14.297   4.249 -34.264  1.00  0.00     0.188 HD
HETATM   31  C   UNL     1     -12.534   3.242 -33.564  1.00  0.00     0.123 A 
ENDBRANCH   3  26
TORSDOF 9
ENDMDL
MODEL 5
REMARK VINA RESULT:      -7.1      3.599      6.184
REMARK  9 active torsions:
REMARK  status: ('A' for Active; 'I' for Inactive)
REMARK    1  A    between atoms: O_2  and  C_3 
REMARK    2  A    between atoms: C_3  and  C_4 
REMARK    3  A    between atoms: C_4  and  O_5 
REMARK    4  A    between atoms: O_5  and  C_6 
REMARK    5  A    between atoms: C_8  and  C_25 
REMARK    6  A    between atoms: C_11  and  C_12 
REMARK       I    between atoms: C_12  and  N_14 
REMARK    7  A    between atoms: N_14  and  C_15 
REMARK    8  A    between atoms: C_15  and  C_17 
REMARK    9  A    between atoms: C_21  and  O_22 
ROOT
HETATM    1  C   UNL     1      -5.891   0.423 -33.093  1.00  0.00     0.085 A 
HETATM    2  C   UNL     1      -5.534  -0.927 -33.202  1.00  0.00     0.050 A 
HETATM    3  C   UNL     1      -5.929  -1.684 -34.315  1.00  0.00    -0.020 A 
HETATM    4  C   UNL     1      -6.691  -1.062 -35.314  1.00  0.00     0.013 A 
HETATM    5  C   UNL     1      -7.023   0.294 -35.220  1.00  0.00     0.021 A 
HETATM    6  C   UNL     1      -6.597   1.055 -34.124  1.00  0.00     0.065 A 
ENDROOT
BRANCH   6   7
HETATM    7  C   UNL     1      -6.901   2.512 -34.152  1.00  0.00     0.255 C 
HETATM    8  O   UNL     1      -6.000   3.320 -34.350  1.00  0.00    -0.268 OA
HETATM    9  N   UNL     1      -8.205   2.865 -33.894  1.00  0.00    -0.349 N 
HETATM   10  H   UNL     1      -8.902   2.130 -33.854  1.00  0.00     0.163 HD
BRANCH   9  11
HETATM   11  C   UNL     1      -8.665   4.242 -33.924  1.00  0.00     0.114 C 
HETATM   12  C   UNL     1      -8.553   4.862 -32.530  1.00  0.00     0.037 C 
BRANCH  11  13
HETATM   13  C   UNL     1     -10.066   4.301 -34.505  1.00  0.00    -0.033 A 
HETATM   14  C   UNL     1     -10.625   5.549 -34.821  1.00  0.00     0.009 A 
HETATM   15  C   UNL     1     -11.903   5.637 -35.370  1.00  0.00     0.003 A 
HETATM   16  C   UNL     1     -12.631   4.477 -35.626  1.00  0.00     0.037 A 
HETATM   17  C   UNL     1     -12.085   3.222 -35.347  1.00  0.00     0.068 A 
HETATM   18  C   UNL     1     -10.808   3.138 -34.788  1.00  0.00     0.046 A 
BRANCH  17  19
HETATM   19  O   UNL     1     -12.896   2.165 -35.663  1.00  0.00    -0.356 OA
HETATM   20  C   UNL     1     -13.560   1.521 -34.583  1.00  0.00     0.210 C 
ENDBRANCH  17  19
ENDBRANCH  11  13
ENDBRANCH   9  11
ENDBRANCH   6   7
BRANCH   1  21
HETATM   21  O   UNL     1      -5.464   1.080 -31.966  1.00  0.00    -0.348 OA
BRANCH  21  22
HETATM   22  C   UNL     1      -6.563   1.406 -31.090  1.00  0.00     0.201 C 
BRANCH  22  23
HETATM   23  C   UNL     1      -7.653   0.339 -31.179  1.00  0.00     0.193 C 
BRANCH  23  24
HETATM   24  O   UNL     1      -8.893   0.947 -31.557  1.00  0.00    -0.394 OA
HETATM   25  C   UNL     1      -9.668   0.082 -32.377  1.00  0.00     0.201 C 
ENDBRANCH  23  24
ENDBRANCH  22  23
ENDBRANCH  21  22
ENDBRANCH   1  21
BRANCH   3  26
HETATM   26  C   UNL     1      -5.526  -3.075 -34.435  1.00  0.00     0.010 A 
HETATM   27  C   UNL     1      -6.234  -4.207 -34.906  1.00  0.00     0.152 A 
HETATM   28  N   UNL     1      -5.513  -5.329 -34.853  1.00  0.00    -0.187 NA
HETATM   29  N   UNL     1      -4.340  -4.926 -34.343  1.00  0.00    -0.289 N 
HETATM   30  H   UNL     1      -3.613  -5.619 -34.201  1.00  0.00     0.188 HD
HETATM   31  C   UNL     1      -4.294  -3.586 -34.079  1.00  0.00     0.123 A 
ENDBRANCH   3  26
TORSDOF 9
ENDMDL
MODEL 6
REMARK VINA RESULT:      -7.1      1.782      2.547
REMARK  9 active torsions:
REMARK  status: ('A' for Active; 'I' for Inactive)
REMARK    1  A    between atoms: O_2  and  C_3 
REMARK    2  A    between atoms: C_3  and  C_4 
REMARK    3  A    between atoms: C_4  and  O_5 
REMARK    4  A    between atoms: O_5  and  C_6 
REMARK    5  A    between atoms: C_8  and  C_25 
REMARK    6  A    between atoms: C_11  and  C_12 
REMARK       I    between atoms: C_12  and  N_14 
REMARK    7  A    between atoms: N_14  and  C_15 
REMARK    8  A    between atoms: C_15  and  C_17 
REMARK    9  A    between atoms: C_21  and  O_22 
ROOT
HETATM    1  C   UNL     1      -7.139  -0.092 -33.211  1.00  0.00     0.085 A 
HETATM    2  C   UNL     1      -6.920  -1.395 -33.675  1.00  0.00     0.050 A 
HETATM    3  C   UNL     1      -5.617  -1.885 -33.845  1.00  0.00    -0.020 A 
HETATM    4  C   UNL     1      -4.538  -1.042 -33.545  1.00  0.00     0.013 A 
HETATM    5  C   UNL     1      -4.756   0.249 -33.052  1.00  0.00     0.021 A 
HETATM    6  C   UNL     1      -6.059   0.723 -32.851  1.00  0.00     0.065 A 
ENDROOT
BRANCH   6   7
HETATM    7  C   UNL     1      -6.202   2.066 -32.225  1.00  0.00     0.255 C 
HETATM    8  O   UNL     1      -5.967   2.211 -31.031  1.00  0.00    -0.268 OA
HETATM    9  N   UNL     1      -6.654   3.072 -33.046  1.00  0.00    -0.349 N 
HETATM   10  H   UNL     1      -6.715   2.889 -34.041  1.00  0.00     0.163 HD
BRANCH   9  11
HETATM   11  C   UNL     1      -6.809   4.443 -32.594  1.00  0.00     0.114 C 
HETATM   12  C   UNL     1      -7.839   5.168 -33.461  1.00  0.00     0.037 C 
BRANCH  11  13
HETATM   13  C   UNL     1      -5.454   5.127 -32.560  1.00  0.00    -0.033 A 
HETATM   14  C   UNL     1      -4.936   5.560 -31.330  1.00  0.00     0.009 A 
HETATM   15  C   UNL     1      -3.688   6.177 -31.262  1.00  0.00     0.003 A 
HETATM   16  C   UNL     1      -2.936   6.353 -32.421  1.00  0.00     0.037 A 
HETATM   17  C   UNL     1      -3.417   5.904 -33.653  1.00  0.00     0.068 A 
HETATM   18  C   UNL     1      -4.672   5.294 -33.719  1.00  0.00     0.046 A 
BRANCH  17  19
HETATM   19  O   UNL     1      -2.572   6.120 -34.707  1.00  0.00    -0.356 OA
HETATM   20  C   UNL     1      -1.488   5.211 -34.857  1.00  0.00     0.210 C 
ENDBRANCH  17  19
ENDBRANCH  11  13
ENDBRANCH   9  11
ENDBRANCH   6   7
BRANCH   1  21
HETATM   21  O   UNL     1      -8.448   0.299 -33.082  1.00  0.00    -0.348 OA
BRANCH  21  22
HETATM   22  C   UNL     1      -9.019   0.680 -34.352  1.00  0.00     0.201 C 
BRANCH  22  23
HETATM   23  C   UNL     1     -10.320   1.453 -34.142  1.00  0.00     0.193 C 
BRANCH  23  24
HETATM   24  O   UNL     1     -11.266   0.628 -33.453  1.00  0.00    -0.394 OA
HETATM   25  C   UNL     1     -12.602   0.957 -33.812  1.00  0.00     0.201 C 
ENDBRANCH  23  24
ENDBRANCH  22  23
ENDBRANCH  21  22
ENDBRANCH   1  21
BRANCH   3  26
HETATM   26  C   UNL     1      -5.401  -3.250 -34.297  1.00  0.00     0.010 A 
HETATM   27  C   UNL     1      -6.243  -4.132 -35.016  1.00  0.00     0.152 A 
HETATM   28  N   UNL     1      -5.680  -5.321 -35.240  1.00  0.00    -0.187 NA
HETATM   29  N   UNL     1      -4.474  -5.211 -34.662  1.00  0.00    -0.289 N 
HETATM   30  H   UNL     1      -3.849  -6.010 -34.697  1.00  0.00     0.188 HD
HETATM   31  C   UNL     1      -4.256  -3.991 -34.088  1.00  0.00     0.123 A 
ENDBRANCH   3  26
TORSDOF 9
ENDMDL
MODEL 7
REMARK VINA RESULT:      -6.9      3.248      8.627
REMARK  9 active torsions:
REMARK  status: ('A' for Active; 'I' for Inactive)
REMARK    1  A    between atoms: O_2  and  C_3 
REMARK    2  A    between atoms: C_3  and  C_4 
REMARK    3  A    between atoms: C_4  and  O_5 
REMARK    4  A    between atoms: O_5  and  C_6 
REMARK    5  A    between atoms: C_8  and  C_25 
REMARK    6  A    between atoms: C_11  and  C_12 
REMARK       I    between atoms: C_12  and  N_14 
REMARK    7  A    between atoms: N_14  and  C_15 
REMARK    8  A    between atoms: C_15  and  C_17 
REMARK    9  A    between atoms: C_21  and  O_22 
ROOT
HETATM    1  C   UNL     1      -5.275   2.875 -32.486  1.00  0.00     0.085 A 
HETATM    2  C   UNL     1      -4.098   3.528 -32.870  1.00  0.00     0.050 A 
HETATM    3  C   UNL     1      -4.149   4.755 -33.549  1.00  0.00    -0.020 A 
HETATM    4  C   UNL     1      -5.403   5.311 -33.838  1.00  0.00     0.013 A 
HETATM    5  C   UNL     1      -6.579   4.673 -33.427  1.00  0.00     0.021 A 
HETATM    6  C   UNL     1      -6.523   3.465 -32.719  1.00  0.00     0.065 A 
ENDROOT
BRANCH   6   7
HETATM    7  C   UNL     1      -7.812   2.908 -32.228  1.00  0.00     0.255 C 
HETATM    8  O   UNL     1      -8.225   3.213 -31.114  1.00  0.00    -0.268 OA
HETATM    9  N   UNL     1      -8.447   2.019 -33.064  1.00  0.00    -0.349 N 
HETATM   10  H   UNL     1      -8.094   1.913 -34.007  1.00  0.00     0.163 HD
BRANCH   9  11
HETATM   11  C   UNL     1      -9.730   1.420 -32.742  1.00  0.00     0.114 C 
HETATM   12  C   UNL     1      -9.608  -0.104 -32.730  1.00  0.00     0.037 C 
BRANCH  11  13
HETATM   13  C   UNL     1     -10.790   1.937 -33.699  1.00  0.00    -0.033 A 
HETATM   14  C   UNL     1     -10.520   3.081 -34.466  1.00  0.00     0.009 A 
HETATM   15  C   UNL     1     -11.465   3.573 -35.365  1.00  0.00     0.003 A 
HETATM   16  C   UNL     1     -12.684   2.917 -35.520  1.00  0.00     0.037 A 
HETATM   17  C   UNL     1     -12.964   1.761 -34.789  1.00  0.00     0.068 A 
HETATM   18  C   UNL     1     -12.019   1.276 -33.882  1.00  0.00     0.046 A 
BRANCH  17  19
HETATM   19  O   UNL     1     -14.187   1.204 -35.050  1.00  0.00    -0.356 OA
HETATM   20  C   UNL     1     -15.049   0.999 -33.938  1.00  0.00     0.210 C 
ENDBRANCH  17  19
ENDBRANCH  11  13
ENDBRANCH   9  11
ENDBRANCH   6   7
BRANCH   1  21
HETATM   21  O   UNL     1      -5.125   1.678 -31.832  1.00  0.00    -0.348 OA
BRANCH  21  22
HETATM   22  C   UNL     1      -4.910   0.588 -32.754  1.00  0.00     0.201 C 
BRANCH  22  23
HETATM   23  C   UNL     1      -5.076  -0.754 -32.044  1.00  0.00     0.193 C 
BRANCH  23  24
HETATM   24  O   UNL     1      -4.336  -1.763 -32.740  1.00  0.00    -0.394 OA
HETATM   25  C   UNL     1      -3.220  -2.208 -31.981  1.00  0.00     0.201 C 
ENDBRANCH  23  24
ENDBRANCH  22  23
ENDBRANCH  21  22
ENDBRANCH   1  21
BRANCH   3  26
HETATM   26  C   UNL     1      -2.921   5.441 -33.915  1.00  0.00     0.010 A 
HETATM   27  C   UNL     1      -2.474   6.753 -33.629  1.00  0.00     0.152 A 
HETATM   28  N   UNL     1      -1.275   7.019 -34.153  1.00  0.00    -0.187 NA
HETATM   29  N   UNL     1      -0.948   5.880 -34.783  1.00  0.00    -0.289 N 
HETATM   30  H   UNL     1      -0.061   5.839 -35.273  1.00  0.00     0.188 HD
HETATM   31  C   UNL     1      -1.897   4.904 -34.667  1.00  0.00     0.123 A 
ENDBRANCH   3  26
TORSDOF 9
ENDMDL
MODEL 8
REMARK VINA RESULT:      -6.9      3.822      9.336
REMARK  9 active torsions:
REMARK  status: ('A' for Active; 'I' for Inactive)
REMARK    1  A    between atoms: O_2  and  C_3 
REMARK    2  A    between atoms: C_3  and  C_4 
REMARK    3  A    between atoms: C_4  and  O_5 
REMARK    4  A    between atoms: O_5  and  C_6 
REMARK    5  A    between atoms: C_8  and  C_25 
REMARK    6  A    between atoms: C_11  and  C_12 
REMARK       I    between atoms: C_12  and  N_14 
REMARK    7  A    between atoms: N_14  and  C_15 
REMARK    8  A    between atoms: C_15  and  C_17 
REMARK    9  A    between atoms: C_21  and  O_22 
ROOT
HETATM    1  C   UNL     1      -1.813   6.573 -30.089  1.00  0.00     0.085 A 
HETATM    2  C   UNL     1      -1.120   7.232 -29.067  1.00  0.00     0.050 A 
HETATM    3  C   UNL     1       0.190   6.856 -28.732  1.00  0.00    -0.020 A 
HETATM    4  C   UNL     1       0.788   5.804 -29.439  1.00  0.00     0.013 A 
HETATM    5  C   UNL     1       0.106   5.166 -30.481  1.00  0.00     0.021 A 
HETATM    6  C   UNL     1      -1.188   5.567 -30.836  1.00  0.00     0.065 A 
ENDROOT
BRANCH   6   7
HETATM    7  C   UNL     1      -1.800   4.909 -32.022  1.00  0.00     0.255 C 
HETATM    8  O   UNL     1      -1.260   5.001 -33.118  1.00  0.00    -0.268 OA
HETATM    9  N   UNL     1      -2.997   4.265 -31.808  1.00  0.00    -0.349 N 
HETATM   10  H   UNL     1      -3.312   4.143 -30.853  1.00  0.00     0.163 HD
BRANCH   9  11
HETATM   11  C   UNL     1      -3.698   3.545 -32.856  1.00  0.00     0.114 C 
HETATM   12  C   UNL     1      -4.785   4.432 -33.465  1.00  0.00     0.037 C 
BRANCH  11  13
HETATM   13  C   UNL     1      -4.222   2.229 -32.309  1.00  0.00    -0.033 A 
HETATM   14  C   UNL     1      -3.383   1.437 -31.510  1.00  0.00     0.009 A 
HETATM   15  C   UNL     1      -3.838   0.231 -30.979  1.00  0.00     0.003 A 
HETATM   16  C   UNL     1      -5.143  -0.188 -31.228  1.00  0.00     0.037 A 
HETATM   17  C   UNL     1      -6.006   0.596 -31.996  1.00  0.00     0.068 A 
HETATM   18  C   UNL     1      -5.543   1.799 -32.534  1.00  0.00     0.046 A 
BRANCH  17  19
HETATM   19  O   UNL     1      -7.264   0.078 -32.147  1.00  0.00    -0.356 OA
HETATM   20  C   UNL     1      -8.345   0.879 -31.687  1.00  0.00     0.210 C 
ENDBRANCH  17  19
ENDBRANCH  11  13
ENDBRANCH   9  11
ENDBRANCH   6   7
BRANCH   1  21
HETATM   21  O   UNL     1      -3.090   7.008 -30.341  1.00  0.00    -0.348 OA
BRANCH  21  22
HETATM   22  C   UNL     1      -3.801   7.311 -29.122  1.00  0.00     0.201 C 
BRANCH  22  23
HETATM   23  C   UNL     1      -4.928   6.304 -28.896  1.00  0.00     0.193 C 
BRANCH  23  24
HETATM   24  O   UNL     1      -4.978   5.382 -29.990  1.00  0.00    -0.394 OA
HETATM   25  C   UNL     1      -6.094   4.508 -29.884  1.00  0.00     0.201 C 
ENDBRANCH  23  24
ENDBRANCH  22  23
ENDBRANCH  21  22
ENDBRANCH   1  21
BRANCH   3  26
HETATM   26  C   UNL     1       0.913   7.568 -27.691  1.00  0.00     0.010 A 
HETATM   27  C   UNL     1       1.031   7.309 -26.304  1.00  0.00     0.152 A 
HETATM   28  N   UNL     1       1.790   8.207 -25.671  1.00  0.00    -0.187 NA
HETATM   29  N   UNL     1       2.158   9.050 -26.647  1.00  0.00    -0.289 N 
HETATM   30  H   UNL     1       2.749   9.839 -26.404  1.00  0.00     0.188 HD
HETATM   31  C   UNL     1       1.664   8.710 -27.874  1.00  0.00     0.123 A 
ENDBRANCH   3  26
TORSDOF 9
ENDMDL
MODEL 9
REMARK VINA RESULT:      -6.8      2.744      4.707
REMARK  9 active torsions:
REMARK  status: ('A' for Active; 'I' for Inactive)
REMARK    1  A    between atoms: O_2  and  C_3 
REMARK    2  A    between atoms: C_3  and  C_4 
REMARK    3  A    between atoms: C_4  and  O_5 
REMARK    4  A    between atoms: O_5  and  C_6 
REMARK    5  A    between atoms: C_8  and  C_25 
REMARK    6  A    between atoms: C_11  and  C_12 
REMARK       I    between atoms: C_12  and  N_14 
REMARK    7  A    between atoms: N_14  and  C_15 
REMARK    8  A    between atoms: C_15  and  C_17 
REMARK    9  A    between atoms: C_21  and  O_22 
ROOT
HETATM    1  C   UNL     1      -5.731   0.271 -33.907  1.00  0.00     0.085 A 
HETATM    2  C   UNL     1      -5.735  -1.076 -34.290  1.00  0.00     0.050 A 
HETATM    3  C   UNL     1      -4.797  -1.974 -33.758  1.00  0.00    -0.020 A 
HETATM    4  C   UNL     1      -3.854  -1.494 -32.839  1.00  0.00     0.013 A 
HETATM    5  C   UNL     1      -3.869  -0.155 -32.433  1.00  0.00     0.021 A 
HETATM    6  C   UNL     1      -4.828   0.731 -32.940  1.00  0.00     0.065 A 
ENDROOT
BRANCH   6   7
HETATM    7  C   UNL     1      -4.842   2.109 -32.378  1.00  0.00     0.255 C 
HETATM    8  O   UNL     1      -3.833   2.803 -32.437  1.00  0.00    -0.268 OA
HETATM    9  N   UNL     1      -6.008   2.502 -31.764  1.00  0.00    -0.349 N 
HETATM   10  H   UNL     1      -6.824   1.910 -31.861  1.00  0.00     0.163 HD
BRANCH   9  11
HETATM   11  C   UNL     1      -6.189   3.829 -31.202  1.00  0.00     0.114 C 
HETATM   12  C   UNL     1      -5.748   3.842 -29.738  1.00  0.00     0.037 C 
BRANCH  11  13
HETATM   13  C   UNL     1      -7.624   4.280 -31.408  1.00  0.00    -0.033 A 
HETATM   14  C   UNL     1      -8.497   4.310 -30.310  1.00  0.00     0.009 A 
HETATM   15  C   UNL     1      -9.817   4.734 -30.462  1.00  0.00     0.003 A 
HETATM   16  C   UNL     1     -10.273   5.149 -31.711  1.00  0.00     0.037 A 
HETATM   17  C   UNL     1      -9.416   5.156 -32.813  1.00  0.00     0.068 A 
HETATM   18  C   UNL     1      -8.097   4.721 -32.659  1.00  0.00     0.046 A 
BRANCH  17  19
HETATM   19  O   UNL     1      -9.984   5.605 -33.974  1.00  0.00    -0.356 OA
HETATM   20  C   UNL     1     -10.378   4.617 -34.918  1.00  0.00     0.210 C 
ENDBRANCH  17  19
ENDBRANCH  11  13
ENDBRANCH   9  11
ENDBRANCH   6   7
BRANCH   1  21
HETATM   21  O   UNL     1      -6.682   1.074 -34.484  1.00  0.00    -0.348 OA
BRANCH  21  22
HETATM   22  C   UNL     1      -7.788   0.303 -35.003  1.00  0.00     0.201 C 
BRANCH  22  23
HETATM   23  C   UNL     1      -9.081   0.670 -34.278  1.00  0.00     0.193 C 
BRANCH  23  24
HETATM   24  O   UNL     1      -9.128   0.010 -33.009  1.00  0.00    -0.394 OA
HETATM   25  C   UNL     1      -9.229   0.942 -31.940  1.00  0.00     0.201 C 
ENDBRANCH  23  24
ENDBRANCH  22  23
ENDBRANCH  21  22
ENDBRANCH   1  21
BRANCH   3  26
HETATM   26  C   UNL     1      -4.830  -3.377 -34.137  1.00  0.00     0.010 A 
HETATM   27  C   UNL     1      -5.791  -4.116 -34.869  1.00  0.00     0.152 A 
HETATM   28  N   UNL     1      -5.461  -5.402 -35.007  1.00  0.00    -0.187 NA
HETATM   29  N   UNL     1      -4.289  -5.497 -34.361  1.00  0.00    -0.289 N 
HETATM   30  H   UNL     1      -3.833  -6.403 -34.323  1.00  0.00     0.188 HD
HETATM   31  C   UNL     1      -3.866  -4.314 -33.827  1.00  0.00     0.123 A 
ENDBRANCH   3  26
TORSDOF 9
ENDMDL
MODEL 10
REMARK VINA RESULT:      -6.7      1.782      2.884
REMARK  9 active torsions:
REMARK  status: ('A' for Active; 'I' for Inactive)
REMARK    1  A    between atoms: O_2  and  C_3 
REMARK    2  A    between atoms: C_3  and  C_4 
REMARK    3  A    between atoms: C_4  and  O_5 
REMARK    4  A    between atoms: O_5  and  C_6 
REMARK    5  A    between atoms: C_8  and  C_25 
REMARK    6  A    between atoms: C_11  and  C_12 
REMARK       I    between atoms: C_12  and  N_14 
REMARK    7  A    between atoms: N_14  and  C_15 
REMARK    8  A    between atoms: C_15  and  C_17 
REMARK    9  A    between atoms: C_21  and  O_22 
ROOT
HETATM    1  C   UNL     1      -6.328  -0.036 -32.541  1.00  0.00     0.085 A 
HETATM    2  C   UNL     1      -5.914  -1.308 -32.955  1.00  0.00     0.050 A 
HETATM    3  C   UNL     1      -6.473  -1.907 -34.093  1.00  0.00    -0.020 A 
HETATM    4  C   UNL     1      -7.457  -1.208 -34.805  1.00  0.00     0.013 A 
HETATM    5  C   UNL     1      -7.850   0.075 -34.409  1.00  0.00     0.021 A 
HETATM    6  C   UNL     1      -7.265   0.685 -33.292  1.00  0.00     0.065 A 
ENDROOT
BRANCH   6   7
HETATM    7  C   UNL     1      -7.662   2.089 -33.001  1.00  0.00     0.255 C 
HETATM    8  O   UNL     1      -8.726   2.320 -32.439  1.00  0.00    -0.268 OA
HETATM    9  N   UNL     1      -6.801   3.067 -33.445  1.00  0.00    -0.349 N 
HETATM   10  H   UNL     1      -5.894   2.783 -33.797  1.00  0.00     0.163 HD
BRANCH   9  11
HETATM   11  C   UNL     1      -7.030   4.480 -33.205  1.00  0.00     0.114 C 
HETATM   12  C   UNL     1      -8.043   5.026 -34.213  1.00  0.00     0.037 C 
BRANCH  11  13
HETATM   13  C   UNL     1      -5.704   5.221 -33.213  1.00  0.00    -0.033 A 
HETATM   14  C   UNL     1      -5.479   6.231 -32.266  1.00  0.00     0.009 A 
HETATM   15  C   UNL     1      -4.267   6.920 -32.236  1.00  0.00     0.003 A 
HETATM   16  C   UNL     1      -3.261   6.594 -33.142  1.00  0.00     0.037 A 
HETATM   17  C   UNL     1      -3.451   5.574 -34.076  1.00  0.00     0.068 A 
HETATM   18  C   UNL     1      -4.670   4.892 -34.109  1.00  0.00     0.046 A 
BRANCH  17  19
HETATM   19  O   UNL     1      -2.378   5.343 -34.894  1.00  0.00    -0.356 OA
HETATM   20  C   UNL     1      -1.165   6.008 -34.563  1.00  0.00     0.210 C 
ENDBRANCH  17  19
ENDBRANCH  11  13
ENDBRANCH   9  11
ENDBRANCH   6   7
BRANCH   1  21
HETATM   21  O   UNL     1      -5.729   0.466 -31.413  1.00  0.00    -0.348 OA
BRANCH  21  22
HETATM   22  C   UNL     1      -4.426   1.016 -31.701  1.00  0.00     0.201 C 
BRANCH  22  23
HETATM   23  C   UNL     1      -4.279   2.400 -31.071  1.00  0.00     0.193 C 
BRANCH  23  24
HETATM   24  O   UNL     1      -5.566   2.895 -30.686  1.00  0.00    -0.394 OA
HETATM   25  C   UNL     1      -5.474   3.788 -29.584  1.00  0.00     0.201 C 
ENDBRANCH  23  24
ENDBRANCH  22  23
ENDBRANCH  21  22
ENDBRANCH   1  21
BRANCH   3  26
HETATM   26  C   UNL     1      -6.013  -3.214 -34.534  1.00  0.00     0.010 A 
HETATM   27  C   UNL     1      -6.675  -4.231 -35.262  1.00  0.00     0.152 A 
HETATM   28  N   UNL     1      -5.908  -5.304 -35.471  1.00  0.00    -0.187 NA
HETATM   29  N   UNL     1      -4.751  -4.983 -34.872  1.00  0.00    -0.289 N 
HETATM   30  H   UNL     1      -3.996  -5.660 -34.892  1.00  0.00     0.188 HD
HETATM   31  C   UNL     1      -4.760  -3.743 -34.301  1.00  0.00     0.123 A 
ENDBRANCH   3  26
TORSDOF 9
ENDMDL
