MODEL 1
REMARK VINA RESULT:      -8.2      0.000      0.000
REMARK  8 active torsions:
REMARK  status: ('A' for Active; 'I' for Inactive)
REMARK    1  A    between atoms: C_2  and  O_3 
REMARK    2  A    between atoms: O_3  and  C_4 
REMARK    3  A    between atoms: C_5  and  N_6 
REMARK       I    between atoms: N_6  and  C_7 
REMARK    4  A    between atoms: C_7  and  C_8 
REMARK    5  A    between atoms: N_11  and  C_12 
REMARK    6  A    between atoms: C_12  and  C_13 
REMARK       I    between atoms: C_13  and  N_14 
REMARK    7  A    between atoms: N_14  and  C_15 
REMARK    8  A    between atoms: C_23  and  N_24 
ROOT
HETATM    1  C   UNL     1      -3.233   4.896 -33.845  1.00  0.00     0.187 A 
HETATM    2  N   UNL     1      -4.320   5.127 -34.668  1.00  0.00    -0.150 NA
HETATM    3  N   UNL     1      -5.381   4.528 -34.156  1.00  0.00     0.007 NA
HETATM    4  N   UNL     1      -4.989   3.919 -33.025  1.00  0.00    -0.248 N 
HETATM    5  C   UNL     1      -3.635   4.044 -32.820  1.00  0.00     0.151 A 
ENDROOT
BRANCH   1   6
HETATM    6  C   UNL     1      -1.922   5.429 -34.197  1.00  0.00     0.280 C 
HETATM    7  N   UNL     1      -1.120   6.082 -33.286  1.00  0.00    -0.319 N 
HETATM    8  H   UNL     1      -0.154   6.066 -33.589  1.00  0.00     0.169 HD
HETATM    9  O   UNL     1      -1.422   5.204 -35.305  1.00  0.00    -0.265 OA
BRANCH   7  10
HETATM   10  C   UNL     1      -1.398   6.826 -32.124  1.00  0.00     0.068 A 
HETATM   11  C   UNL     1      -1.187   6.391 -30.802  1.00  0.00     0.095 A 
HETATM   12  C   UNL     1      -1.455   7.274 -29.746  1.00  0.00     0.039 A 
HETATM   13  C   UNL     1      -1.969   8.550 -29.990  1.00  0.00     0.003 A 
HETATM   14  C   UNL     1      -2.245   8.951 -31.291  1.00  0.00     0.002 A 
HETATM   15  C   UNL     1      -1.970   8.089 -32.350  1.00  0.00     0.032 A 
BRANCH  11  16
HETATM   16  O   UNL     1      -0.810   5.086 -30.620  1.00  0.00    -0.349 OA
BRANCH  16  17
HETATM   17  C   UNL     1       0.384   4.831 -29.882  1.00  0.00     0.171 C 
HETATM   18  C   UNL     1       1.555   4.829 -30.846  1.00  0.00     0.034 C 
ENDBRANCH  16  17
ENDBRANCH  11  16
ENDBRANCH   7  10
ENDBRANCH   1   6
BRANCH   5  19
HETATM   19  N   UNL     1      -2.988   3.413 -31.814  1.00  0.00    -0.382 N 
HETATM   20  H   UNL     1      -3.090   2.422 -31.577  1.00  0.00     0.157 HD
HETATM   21  H   UNL     1      -2.412   3.922 -31.146  1.00  0.00     0.157 HD
ENDBRANCH   5  19
BRANCH   4  22
HETATM   22  C   UNL     1      -5.998   3.338 -32.176  1.00  0.00     0.251 C 
BRANCH  22  23
HETATM   23  C   UNL     1      -5.982   1.832 -32.196  1.00  0.00     0.241 C 
HETATM   24  N   UNL     1      -5.725   1.287 -33.442  1.00  0.00    -0.326 N 
HETATM   25  H   UNL     1      -5.319   1.901 -34.141  1.00  0.00     0.169 HD
HETATM   26  O   UNL     1      -6.187   1.199 -31.160  1.00  0.00    -0.271 OA
BRANCH  24  27
HETATM   27  C   UNL     1      -5.865  -0.067 -33.811  1.00  0.00     0.034 A 
HETATM   28  C   UNL     1      -7.056  -0.615 -34.297  1.00  0.00     0.031 A 
HETATM   29  C   UNL     1      -7.112  -1.957 -34.691  1.00  0.00     0.026 A 
HETATM   30  C   UNL     1      -5.978  -2.757 -34.596  1.00  0.00     0.034 A 
HETATM   31 CL   UNL     1      -6.048  -4.403 -35.086  1.00  0.00    -0.084 Cl
HETATM   32  C   UNL     1      -4.786  -2.225 -34.112  1.00  0.00     0.026 A 
HETATM   33  C   UNL     1      -4.728  -0.882 -33.727  1.00  0.00     0.031 A 
ENDBRANCH  24  27
ENDBRANCH  22  23
ENDBRANCH   4  22
TORSDOF 8
ENDMDL
MODEL 2
REMARK VINA RESULT:      -8.0      1.087      2.678
REMARK  8 active torsions:
REMARK  status: ('A' for Active; 'I' for Inactive)
REMARK    1  A    between atoms: C_2  and  O_3 
REMARK    2  A    between atoms: O_3  and  C_4 
REMARK    3  A    between atoms: C_5  and  N_6 
REMARK       I    between atoms: N_6  and  C_7 
REMARK    4  A    between atoms: C_7  and  C_8 
REMARK    5  A    between atoms: N_11  and  C_12 
REMARK    6  A    between atoms: C_12  and  C_13 
REMARK       I    between atoms: C_13  and  N_14 
REMARK    7  A    between atoms: N_14  and  C_15 
REMARK    8  A    between atoms: C_23  and  N_24 
ROOT
HETATM    1  C   UNL     1      -2.870   4.222 -32.746  1.00  0.00     0.187 A 
HETATM    2  N   UNL     1      -2.487   3.329 -31.763  1.00  0.00    -0.150 NA
HETATM    3  N   UNL     1      -3.569   2.778 -31.240  1.00  0.00     0.007 NA
HETATM    4  N   UNL     1      -4.630   3.304 -31.872  1.00  0.00    -0.248 N 
HETATM    5  C   UNL     1      -4.261   4.278 -32.770  1.00  0.00     0.151 A 
ENDROOT
BRANCH   1   6
HETATM    6  C   UNL     1      -1.863   4.991 -33.470  1.00  0.00     0.280 C 
HETATM    7  N   UNL     1      -0.750   5.518 -32.852  1.00  0.00    -0.319 N 
HETATM    8  H   UNL     1      -0.021   5.701 -33.530  1.00  0.00     0.169 HD
HETATM    9  O   UNL     1      -1.907   5.094 -34.701  1.00  0.00    -0.265 OA
BRANCH   7  10
HETATM   10  C   UNL     1      -0.492   5.933 -31.531  1.00  0.00     0.068 A 
HETATM   11  C   UNL     1      -0.991   7.103 -30.928  1.00  0.00     0.095 A 
HETATM   12  C   UNL     1      -0.697   7.348 -29.578  1.00  0.00     0.039 A 
HETATM   13  C   UNL     1       0.119   6.478 -28.852  1.00  0.00     0.003 A 
HETATM   14  C   UNL     1       0.670   5.362 -29.469  1.00  0.00     0.002 A 
HETATM   15  C   UNL     1       0.373   5.098 -30.805  1.00  0.00     0.032 A 
BRANCH  11  16
HETATM   16  O   UNL     1      -1.671   7.984 -31.727  1.00  0.00    -0.349 OA
BRANCH  16  17
HETATM   17  C   UNL     1      -3.093   8.023 -31.621  1.00  0.00     0.171 C 
HETATM   18  C   UNL     1      -3.486   9.292 -30.888  1.00  0.00     0.034 C 
ENDBRANCH  16  17
ENDBRANCH  11  16
ENDBRANCH   7  10
ENDBRANCH   1   6
BRANCH   5  19
HETATM   19  N   UNL     1      -5.161   5.036 -33.437  1.00  0.00    -0.382 N 
HETATM   20  H   UNL     1      -5.917   5.572 -33.002  1.00  0.00     0.157 HD
HETATM   21  H   UNL     1      -5.204   5.044 -34.454  1.00  0.00     0.157 HD
ENDBRANCH   5  19
BRANCH   4  22
HETATM   22  C   UNL     1      -5.930   2.740 -31.611  1.00  0.00     0.251 C 
BRANCH  22  23
HETATM   23  C   UNL     1      -5.977   1.251 -31.838  1.00  0.00     0.241 C 
HETATM   24  N   UNL     1      -5.421   0.846 -33.040  1.00  0.00    -0.326 N 
HETATM   25  H   UNL     1      -4.815   1.508 -33.516  1.00  0.00     0.169 HD
HETATM   26  O   UNL     1      -6.480   0.513 -30.991  1.00  0.00    -0.271 OA
BRANCH  24  27
HETATM   27  C   UNL     1      -5.517  -0.436 -33.620  1.00  0.00     0.034 A 
HETATM   28  C   UNL     1      -4.456  -1.346 -33.659  1.00  0.00     0.031 A 
HETATM   29  C   UNL     1      -4.633  -2.622 -34.205  1.00  0.00     0.026 A 
HETATM   30  C   UNL     1      -5.872  -2.991 -34.720  1.00  0.00     0.034 A 
HETATM   31 CL   UNL     1      -6.090  -4.561 -35.386  1.00  0.00    -0.084 Cl
HETATM   32  C   UNL     1      -6.937  -2.095 -34.689  1.00  0.00     0.026 A 
HETATM   33  C   UNL     1      -6.762  -0.823 -34.134  1.00  0.00     0.031 A 
ENDBRANCH  24  27
ENDBRANCH  22  23
ENDBRANCH   4  22
TORSDOF 8
ENDMDL
MODEL 3
REMARK VINA RESULT:      -8.0      3.982      6.755
REMARK  8 active torsions:
REMARK  status: ('A' for Active; 'I' for Inactive)
REMARK    1  A    between atoms: C_2  and  O_3 
REMARK    2  A    between atoms: O_3  and  C_4 
REMARK    3  A    between atoms: C_5  and  N_6 
REMARK       I    between atoms: N_6  and  C_7 
REMARK    4  A    between atoms: C_7  and  C_8 
REMARK    5  A    between atoms: N_11  and  C_12 
REMARK    6  A    between atoms: C_12  and  C_13 
REMARK       I    between atoms: C_13  and  N_14 
REMARK    7  A    between atoms: N_14  and  C_15 
REMARK    8  A    between atoms: C_23  and  N_24 
ROOT
HETATM    1  C   UNL     1      -6.495   3.916 -31.564  1.00  0.00     0.187 A 
HETATM    2  N   UNL     1      -5.964   3.963 -32.839  1.00  0.00    -0.150 NA
HETATM    3  N   UNL     1      -4.809   3.320 -32.847  1.00  0.00     0.007 NA
HETATM    4  N   UNL     1      -4.596   2.867 -31.601  1.00  0.00    -0.248 N 
HETATM    5  C   UNL     1      -5.578   3.280 -30.731  1.00  0.00     0.151 A 
ENDROOT
BRANCH   1   6
HETATM    6  C   UNL     1      -7.763   4.576 -31.273  1.00  0.00     0.280 C 
HETATM    7  N   UNL     1      -8.964   3.900 -31.263  1.00  0.00    -0.319 N 
HETATM    8  H   UNL     1      -9.652   4.407 -30.721  1.00  0.00     0.169 HD
HETATM    9  O   UNL     1      -7.794   5.754 -30.900  1.00  0.00    -0.265 OA
BRANCH   7  10
HETATM   10  C   UNL     1      -9.420   2.745 -31.926  1.00  0.00     0.068 A 
HETATM   11  C   UNL     1     -10.300   2.725 -33.026  1.00  0.00     0.095 A 
HETATM   12  C   UNL     1     -10.613   1.494 -33.621  1.00  0.00     0.039 A 
HETATM   13  C   UNL     1     -10.105   0.299 -33.108  1.00  0.00     0.003 A 
HETATM   14  C   UNL     1      -9.296   0.314 -31.979  1.00  0.00     0.002 A 
HETATM   15  C   UNL     1      -8.965   1.531 -31.387  1.00  0.00     0.032 A 
BRANCH  11  16
HETATM   16  O   UNL     1     -10.870   3.914 -33.398  1.00  0.00    -0.349 OA
BRANCH  16  17
HETATM   17  C   UNL     1     -10.543   4.439 -34.684  1.00  0.00     0.171 C 
HETATM   18  C   UNL     1      -9.454   5.481 -34.514  1.00  0.00     0.034 C 
ENDBRANCH  16  17
ENDBRANCH  11  16
ENDBRANCH   7  10
ENDBRANCH   1   6
BRANCH   5  19
HETATM   19  N   UNL     1      -5.516   3.052 -29.399  1.00  0.00    -0.382 N 
HETATM   20  H   UNL     1      -4.923   2.351 -28.948  1.00  0.00     0.157 HD
HETATM   21  H   UNL     1      -6.150   3.512 -28.748  1.00  0.00     0.157 HD
ENDBRANCH   5  19
BRANCH   4  22
HETATM   22  C   UNL     1      -3.485   1.977 -31.378  1.00  0.00     0.251 C 
BRANCH  22  23
HETATM   23  C   UNL     1      -3.793   0.552 -31.757  1.00  0.00     0.241 C 
HETATM   24  N   UNL     1      -4.391   0.415 -32.998  1.00  0.00    -0.326 N 
HETATM   25  H   UNL     1      -4.324   1.204 -33.634  1.00  0.00     0.169 HD
HETATM   26  O   UNL     1      -3.514  -0.366 -30.985  1.00  0.00    -0.271 OA
BRANCH  24  27
HETATM   27  C   UNL     1      -4.986  -0.753 -33.518  1.00  0.00     0.034 A 
HETATM   28  C   UNL     1      -6.366  -0.903 -33.692  1.00  0.00     0.031 A 
HETATM   29  C   UNL     1      -6.888  -2.070 -34.260  1.00  0.00     0.026 A 
HETATM   30  C   UNL     1      -6.033  -3.095 -34.652  1.00  0.00     0.034 A 
HETATM   31 CL   UNL     1      -6.676  -4.526 -35.355  1.00  0.00    -0.084 Cl
HETATM   32  C   UNL     1      -4.657  -2.960 -34.484  1.00  0.00     0.026 A 
HETATM   33  C   UNL     1      -4.135  -1.789 -33.924  1.00  0.00     0.031 A 
ENDBRANCH  24  27
ENDBRANCH  22  23
ENDBRANCH   4  22
TORSDOF 8
ENDMDL
MODEL 4
REMARK VINA RESULT:      -7.8      3.545      8.892
REMARK  8 active torsions:
REMARK  status: ('A' for Active; 'I' for Inactive)
REMARK    1  A    between atoms: C_2  and  O_3 
REMARK    2  A    between atoms: O_3  and  C_4 
REMARK    3  A    between atoms: C_5  and  N_6 
REMARK       I    between atoms: N_6  and  C_7 
REMARK    4  A    between atoms: C_7  and  C_8 
REMARK    5  A    between atoms: N_11  and  C_12 
REMARK    6  A    between atoms: C_12  and  C_13 
REMARK       I    between atoms: C_13  and  N_14 
REMARK    7  A    between atoms: N_14  and  C_15 
REMARK    8  A    between atoms: C_23  and  N_24 
ROOT
HETATM    1  C   UNL     1      -5.089   2.465 -31.376  1.00  0.00     0.187 A 
HETATM    2  N   UNL     1      -3.810   1.985 -31.159  1.00  0.00    -0.150 NA
HETATM    3  N   UNL     1      -2.950   2.746 -31.814  1.00  0.00     0.007 NA
HETATM    4  N   UNL     1      -3.658   3.699 -32.443  1.00  0.00    -0.248 N 
HETATM    5  C   UNL     1      -5.011   3.526 -32.274  1.00  0.00     0.151 A 
ENDROOT
BRANCH   1   6
HETATM    6  C   UNL     1      -6.236   1.786 -30.783  1.00  0.00     0.280 C 
HETATM    7  N   UNL     1      -6.660   0.545 -31.204  1.00  0.00    -0.319 N 
HETATM    8  H   UNL     1      -7.212   0.096 -30.485  1.00  0.00     0.169 HD
HETATM    9  O   UNL     1      -6.802   2.250 -29.787  1.00  0.00    -0.265 OA
BRANCH   7  10
HETATM   10  C   UNL     1      -6.564  -0.136 -32.433  1.00  0.00     0.068 A 
HETATM   11  C   UNL     1      -5.613  -1.125 -32.750  1.00  0.00     0.095 A 
HETATM   12  C   UNL     1      -5.685  -1.759 -33.998  1.00  0.00     0.039 A 
HETATM   13  C   UNL     1      -6.650  -1.388 -34.938  1.00  0.00     0.003 A 
HETATM   14  C   UNL     1      -7.541  -0.362 -34.651  1.00  0.00     0.002 A 
HETATM   15  C   UNL     1      -7.490   0.267 -33.409  1.00  0.00     0.032 A 
BRANCH  11  16
HETATM   16  O   UNL     1      -4.611  -1.351 -31.842  1.00  0.00    -0.349 OA
BRANCH  16  17
HETATM   17  C   UNL     1      -3.325  -1.710 -32.342  1.00  0.00     0.171 C 
HETATM   18  C   UNL     1      -2.992  -3.107 -31.851  1.00  0.00     0.034 C 
ENDBRANCH  16  17
ENDBRANCH  11  16
ENDBRANCH   7  10
ENDBRANCH   1   6
BRANCH   5  19
HETATM   19  N   UNL     1      -5.930   4.287 -32.912  1.00  0.00    -0.382 N 
HETATM   20  H   UNL     1      -6.314   4.093 -33.841  1.00  0.00     0.157 HD
HETATM   21  H   UNL     1      -6.235   5.183 -32.537  1.00  0.00     0.157 HD
ENDBRANCH   5  19
BRANCH   4  22
HETATM   22  C   UNL     1      -2.941   4.769 -33.088  1.00  0.00     0.251 C 
BRANCH  22  23
HETATM   23  C   UNL     1      -1.733   5.217 -32.307  1.00  0.00     0.241 C 
HETATM   24  N   UNL     1      -1.996   5.512 -30.980  1.00  0.00    -0.326 N 
HETATM   25  H   UNL     1      -2.866   5.159 -30.591  1.00  0.00     0.169 HD
HETATM   26  O   UNL     1      -0.635   5.294 -32.858  1.00  0.00    -0.271 OA
BRANCH  24  27
HETATM   27  C   UNL     1      -1.127   6.156 -30.075  1.00  0.00     0.034 A 
HETATM   28  C   UNL     1      -0.051   5.516 -29.452  1.00  0.00     0.031 A 
HETATM   29  C   UNL     1       0.803   6.227 -28.601  1.00  0.00     0.026 A 
HETATM   30  C   UNL     1       0.580   7.580 -28.366  1.00  0.00     0.034 A 
HETATM   31 CL   UNL     1       1.634   8.454 -27.325  1.00  0.00    -0.084 Cl
HETATM   32  C   UNL     1      -0.489   8.229 -28.978  1.00  0.00     0.026 A 
HETATM   33  C   UNL     1      -1.336   7.520 -29.835  1.00  0.00     0.031 A 
ENDBRANCH  24  27
ENDBRANCH  22  23
ENDBRANCH   4  22
TORSDOF 8
ENDMDL
MODEL 5
REMARK VINA RESULT:      -7.8      6.529      9.034
REMARK  8 active torsions:
REMARK  status: ('A' for Active; 'I' for Inactive)
REMARK    1  A    between atoms: C_2  and  O_3 
REMARK    2  A    between atoms: O_3  and  C_4 
REMARK    3  A    between atoms: C_5  and  N_6 
REMARK       I    between atoms: N_6  and  C_7 
REMARK    4  A    between atoms: C_7  and  C_8 
REMARK    5  A    between atoms: N_11  and  C_12 
REMARK    6  A    between atoms: C_12  and  C_13 
REMARK       I    between atoms: C_13  and  N_14 
REMARK    7  A    between atoms: N_14  and  C_15 
REMARK    8  A    between atoms: C_23  and  N_24 
ROOT
HETATM    1  C   UNL     1     -11.960   1.621 -34.058  1.00  0.00     0.187 A 
HETATM    2  N   UNL     1     -11.530   0.481 -33.404  1.00  0.00    -0.150 NA
HETATM    3  N   UNL     1     -10.209   0.446 -33.429  1.00  0.00     0.007 NA
HETATM    4  N   UNL     1      -9.792   1.540 -34.087  1.00  0.00    -0.248 N 
HETATM    5  C   UNL     1     -10.845   2.273 -34.579  1.00  0.00     0.151 A 
ENDROOT
BRANCH   1   6
HETATM    6  C   UNL     1     -13.387   1.891 -34.198  1.00  0.00     0.280 C 
HETATM    7  N   UNL     1     -13.958   3.079 -33.796  1.00  0.00    -0.319 N 
HETATM    8  H   UNL     1     -14.840   3.226 -34.269  1.00  0.00     0.169 HD
HETATM    9  O   UNL     1     -14.125   1.104 -34.801  1.00  0.00    -0.265 OA
BRANCH   7  10
HETATM   10  C   UNL     1     -13.611   4.026 -32.814  1.00  0.00     0.068 A 
HETATM   11  C   UNL     1     -12.986   5.265 -33.055  1.00  0.00     0.095 A 
HETATM   12  C   UNL     1     -12.761   6.132 -31.976  1.00  0.00     0.039 A 
HETATM   13  C   UNL     1     -13.102   5.761 -30.674  1.00  0.00     0.003 A 
HETATM   14  C   UNL     1     -13.652   4.509 -30.428  1.00  0.00     0.002 A 
HETATM   15  C   UNL     1     -13.894   3.644 -31.493  1.00  0.00     0.032 A 
BRANCH  11  16
HETATM   16  O   UNL     1     -12.553   5.515 -34.332  1.00  0.00    -0.349 OA
BRANCH  16  17
HETATM   17  C   UNL     1     -11.804   6.707 -34.562  1.00  0.00     0.171 C 
HETATM   18  C   UNL     1     -12.512   7.520 -35.630  1.00  0.00     0.034 C 
ENDBRANCH  16  17
ENDBRANCH  11  16
ENDBRANCH   7  10
ENDBRANCH   1   6
BRANCH   5  19
HETATM   19  N   UNL     1     -10.675   3.350 -35.379  1.00  0.00    -0.382 N 
HETATM   20  H   UNL     1     -10.110   3.367 -36.233  1.00  0.00     0.157 HD
HETATM   21  H   UNL     1     -11.030   4.269 -35.122  1.00  0.00     0.157 HD
ENDBRANCH   5  19
BRANCH   4  22
HETATM   22  C   UNL     1      -8.381   1.833 -34.100  1.00  0.00     0.251 C 
BRANCH  22  23
HETATM   23  C   UNL     1      -7.551   0.692 -34.627  1.00  0.00     0.241 C 
HETATM   24  N   UNL     1      -7.376  -0.343 -33.722  1.00  0.00    -0.326 N 
HETATM   25  H   UNL     1      -8.009  -0.376 -32.929  1.00  0.00     0.169 HD
HETATM   26  O   UNL     1      -7.097   0.734 -35.770  1.00  0.00    -0.271 OA
BRANCH  24  27
HETATM   27  C   UNL     1      -6.480  -1.424 -33.848  1.00  0.00     0.034 A 
HETATM   28  C   UNL     1      -6.782  -2.599 -34.542  1.00  0.00     0.031 A 
HETATM   29  C   UNL     1      -5.828  -3.615 -34.671  1.00  0.00     0.026 A 
HETATM   30  C   UNL     1      -4.569  -3.461 -34.100  1.00  0.00     0.034 A 
HETATM   31 CL   UNL     1      -3.396  -4.707 -34.264  1.00  0.00    -0.084 Cl
HETATM   32  C   UNL     1      -4.254  -2.296 -33.405  1.00  0.00     0.026 A 
HETATM   33  C   UNL     1      -5.205  -1.278 -33.285  1.00  0.00     0.031 A 
ENDBRANCH  24  27
ENDBRANCH  22  23
ENDBRANCH   4  22
TORSDOF 8
ENDMDL
MODEL 6
REMARK VINA RESULT:      -7.6      2.318      3.622
REMARK  8 active torsions:
REMARK  status: ('A' for Active; 'I' for Inactive)
REMARK    1  A    between atoms: C_2  and  O_3 
REMARK    2  A    between atoms: O_3  and  C_4 
REMARK    3  A    between atoms: C_5  and  N_6 
REMARK       I    between atoms: N_6  and  C_7 
REMARK    4  A    between atoms: C_7  and  C_8 
REMARK    5  A    between atoms: N_11  and  C_12 
REMARK    6  A    between atoms: C_12  and  C_13 
REMARK       I    between atoms: C_13  and  N_14 
REMARK    7  A    between atoms: N_14  and  C_15 
REMARK    8  A    between atoms: C_23  and  N_24 
ROOT
HETATM    1  C   UNL     1      -6.379   4.068 -31.711  1.00  0.00     0.187 A 
HETATM    2  N   UNL     1      -6.217   2.809 -31.165  1.00  0.00    -0.150 NA
HETATM    3  N   UNL     1      -6.908   1.939 -31.882  1.00  0.00     0.007 NA
HETATM    4  N   UNL     1      -7.506   2.622 -32.871  1.00  0.00    -0.248 N 
HETATM    5  C   UNL     1      -7.280   3.975 -32.768  1.00  0.00     0.151 A 
ENDROOT
BRANCH   1   6
HETATM    6  C   UNL     1      -5.738   5.223 -31.092  1.00  0.00     0.280 C 
HETATM    7  N   UNL     1      -4.740   5.940 -31.717  1.00  0.00    -0.319 N 
HETATM    8  H   UNL     1      -4.667   6.867 -31.318  1.00  0.00     0.169 HD
HETATM    9  O   UNL     1      -6.155   5.682 -30.023  1.00  0.00    -0.265 OA
BRANCH   7  10
HETATM   10  C   UNL     1      -3.777   5.598 -32.685  1.00  0.00     0.068 A 
HETATM   11  C   UNL     1      -2.443   5.233 -32.421  1.00  0.00     0.095 A 
HETATM   12  C   UNL     1      -1.618   4.856 -33.491  1.00  0.00     0.039 A 
HETATM   13  C   UNL     1      -2.089   4.889 -34.806  1.00  0.00     0.003 A 
HETATM   14  C   UNL     1      -3.383   5.320 -35.071  1.00  0.00     0.002 A 
HETATM   15  C   UNL     1      -4.217   5.682 -34.016  1.00  0.00     0.032 A 
BRANCH  11  16
HETATM   16  O   UNL     1      -2.001   5.349 -31.129  1.00  0.00    -0.349 OA
BRANCH  16  17
HETATM   17  C   UNL     1      -0.593   5.334 -30.900  1.00  0.00     0.171 C 
HETATM   18  C   UNL     1      -0.102   6.768 -30.832  1.00  0.00     0.034 C 
ENDBRANCH  16  17
ENDBRANCH  11  16
ENDBRANCH   7  10
ENDBRANCH   1   6
BRANCH   5  19
HETATM   19  N   UNL     1      -7.878   4.878 -33.577  1.00  0.00    -0.382 N 
HETATM   20  H   UNL     1      -7.722   5.890 -33.548  1.00  0.00     0.157 HD
HETATM   21  H   UNL     1      -8.619   4.611 -34.223  1.00  0.00     0.157 HD
ENDBRANCH   5  19
BRANCH   4  22
HETATM   22  C   UNL     1      -8.181   1.878 -33.904  1.00  0.00     0.251 C 
BRANCH  22  23
HETATM   23  C   UNL     1      -7.340   0.763 -34.466  1.00  0.00     0.241 C 
HETATM   24  N   UNL     1      -7.253  -0.348 -33.643  1.00  0.00    -0.326 N 
HETATM   25  H   UNL     1      -7.944  -0.430 -32.903  1.00  0.00     0.169 HD
HETATM   26  O   UNL     1      -6.801   0.889 -35.566  1.00  0.00    -0.271 OA
BRANCH  24  27
HETATM   27  C   UNL     1      -6.374  -1.439 -33.796  1.00  0.00     0.034 A 
HETATM   28  C   UNL     1      -6.672  -2.569 -34.565  1.00  0.00     0.031 A 
HETATM   29  C   UNL     1      -5.733  -3.595 -34.715  1.00  0.00     0.026 A 
HETATM   30  C   UNL     1      -4.493  -3.499 -34.093  1.00  0.00     0.034 A 
HETATM   31 CL   UNL     1      -3.339  -4.758 -34.283  1.00  0.00    -0.084 Cl
HETATM   32  C   UNL     1      -4.182  -2.381 -33.323  1.00  0.00     0.026 A 
HETATM   33  C   UNL     1      -5.118  -1.351 -33.181  1.00  0.00     0.031 A 
ENDBRANCH  24  27
ENDBRANCH  22  23
ENDBRANCH   4  22
TORSDOF 8
ENDMDL
MODEL 7
REMARK VINA RESULT:      -7.5      3.038      4.378
REMARK  8 active torsions:
REMARK  status: ('A' for Active; 'I' for Inactive)
REMARK    1  A    between atoms: C_2  and  O_3 
REMARK    2  A    between atoms: O_3  and  C_4 
REMARK    3  A    between atoms: C_5  and  N_6 
REMARK       I    between atoms: N_6  and  C_7 
REMARK    4  A    between atoms: C_7  and  C_8 
REMARK    5  A    between atoms: N_11  and  C_12 
REMARK    6  A    between atoms: C_12  and  C_13 
REMARK       I    between atoms: C_13  and  N_14 
REMARK    7  A    between atoms: N_14  and  C_15 
REMARK    8  A    between atoms: C_23  and  N_24 
ROOT
HETATM    1  C   UNL     1      -7.221   3.329 -31.371  1.00  0.00     0.187 A 
HETATM    2  N   UNL     1      -7.691   2.120 -30.891  1.00  0.00    -0.150 NA
HETATM    3  N   UNL     1      -8.261   1.459 -31.884  1.00  0.00     0.007 NA
HETATM    4  N   UNL     1      -8.163   2.224 -32.983  1.00  0.00    -0.248 N 
HETATM    5  C   UNL     1      -7.595   3.445 -32.707  1.00  0.00     0.151 A 
ENDROOT
BRANCH   1   6
HETATM    6  C   UNL     1      -6.567   4.270 -30.468  1.00  0.00     0.280 C 
HETATM    7  N   UNL     1      -5.495   5.044 -30.857  1.00  0.00    -0.319 N 
HETATM    8  H   UNL     1      -5.403   5.851 -30.252  1.00  0.00     0.169 HD
HETATM    9  O   UNL     1      -7.032   4.501 -29.347  1.00  0.00    -0.265 OA
BRANCH   7  10
HETATM   10  C   UNL     1      -4.487   4.871 -31.824  1.00  0.00     0.068 A 
HETATM   11  C   UNL     1      -3.649   3.745 -31.940  1.00  0.00     0.095 A 
HETATM   12  C   UNL     1      -2.731   3.690 -32.999  1.00  0.00     0.039 A 
HETATM   13  C   UNL     1      -2.608   4.752 -33.899  1.00  0.00     0.003 A 
HETATM   14  C   UNL     1      -3.385   5.892 -33.739  1.00  0.00     0.002 A 
HETATM   15  C   UNL     1      -4.311   5.954 -32.700  1.00  0.00     0.032 A 
BRANCH  11  16
HETATM   16  O   UNL     1      -3.723   2.799 -30.952  1.00  0.00    -0.349 OA
BRANCH  16  17
HETATM   17  C   UNL     1      -4.159   1.489 -31.311  1.00  0.00     0.171 C 
HETATM   18  C   UNL     1      -3.046   0.508 -30.996  1.00  0.00     0.034 C 
ENDBRANCH  16  17
ENDBRANCH  11  16
ENDBRANCH   7  10
ENDBRANCH   1   6
BRANCH   5  19
HETATM   19  N   UNL     1      -7.502   4.432 -33.627  1.00  0.00    -0.382 N 
HETATM   20  H   UNL     1      -8.293   4.962 -34.005  1.00  0.00     0.157 HD
HETATM   21  H   UNL     1      -6.622   4.651 -34.090  1.00  0.00     0.157 HD
ENDBRANCH   5  19
BRANCH   4  22
HETATM   22  C   UNL     1      -8.552   1.655 -34.249  1.00  0.00     0.251 C 
BRANCH  22  23
HETATM   23  C   UNL     1      -7.579   0.619 -34.747  1.00  0.00     0.241 C 
HETATM   24  N   UNL     1      -7.399  -0.449 -33.884  1.00  0.00    -0.326 N 
HETATM   25  H   UNL     1      -8.100  -0.581 -33.161  1.00  0.00     0.169 HD
HETATM   26  O   UNL     1      -7.023   0.768 -35.836  1.00  0.00    -0.271 OA
BRANCH  24  27
HETATM   27  C   UNL     1      -6.404  -1.443 -33.975  1.00  0.00     0.034 A 
HETATM   28  C   UNL     1      -5.120  -1.299 -33.438  1.00  0.00     0.031 A 
HETATM   29  C   UNL     1      -4.194  -2.346 -33.520  1.00  0.00     0.026 A 
HETATM   30  C   UNL     1      -4.547  -3.538 -34.144  1.00  0.00     0.034 A 
HETATM   31 CL   UNL     1      -3.410  -4.824 -34.239  1.00  0.00    -0.084 Cl
HETATM   32  C   UNL     1      -5.821  -3.694 -34.684  1.00  0.00     0.026 A 
HETATM   33  C   UNL     1      -6.748  -2.651 -34.594  1.00  0.00     0.031 A 
ENDBRANCH  24  27
ENDBRANCH  22  23
ENDBRANCH   4  22
TORSDOF 8
ENDMDL
MODEL 8
REMARK VINA RESULT:      -7.5      3.489      8.252
REMARK  8 active torsions:
REMARK  status: ('A' for Active; 'I' for Inactive)
REMARK    1  A    between atoms: C_2  and  O_3 
REMARK    2  A    between atoms: O_3  and  C_4 
REMARK    3  A    between atoms: C_5  and  N_6 
REMARK       I    between atoms: N_6  and  C_7 
REMARK    4  A    between atoms: C_7  and  C_8 
REMARK    5  A    between atoms: N_11  and  C_12 
REMARK    6  A    between atoms: C_12  and  C_13 
REMARK       I    between atoms: C_13  and  N_14 
REMARK    7  A    between atoms: N_14  and  C_15 
REMARK    8  A    between atoms: C_23  and  N_24 
ROOT
HETATM    1  C   UNL     1      -7.649   2.022 -33.690  1.00  0.00     0.187 A 
HETATM    2  N   UNL     1      -6.377   2.193 -34.203  1.00  0.00    -0.150 NA
HETATM    3  N   UNL     1      -6.092   3.484 -34.219  1.00  0.00     0.007 NA
HETATM    4  N   UNL     1      -7.159   4.135 -33.727  1.00  0.00    -0.248 N 
HETATM    5  C   UNL     1      -8.200   3.279 -33.456  1.00  0.00     0.151 A 
ENDROOT
BRANCH   1   6
HETATM    6  C   UNL     1      -8.223   0.685 -33.587  1.00  0.00     0.280 C 
HETATM    7  N   UNL     1      -7.566  -0.357 -32.970  1.00  0.00    -0.319 N 
HETATM    8  H   UNL     1      -8.223  -1.074 -32.689  1.00  0.00     0.169 HD
HETATM    9  O   UNL     1      -9.386   0.464 -33.945  1.00  0.00    -0.265 OA
BRANCH   7  10
HETATM   10  C   UNL     1      -6.203  -0.644 -32.765  1.00  0.00     0.068 A 
HETATM   11  C   UNL     1      -5.372  -1.351 -33.656  1.00  0.00     0.095 A 
HETATM   12  C   UNL     1      -4.014  -1.503 -33.341  1.00  0.00     0.039 A 
HETATM   13  C   UNL     1      -3.496  -1.008 -32.142  1.00  0.00     0.003 A 
HETATM   14  C   UNL     1      -4.332  -0.375 -31.231  1.00  0.00     0.002 A 
HETATM   15  C   UNL     1      -5.680  -0.205 -31.538  1.00  0.00     0.032 A 
BRANCH  11  16
HETATM   16  O   UNL     1      -5.965  -1.927 -34.749  1.00  0.00    -0.349 OA
BRANCH  16  17
HETATM   17  C   UNL     1      -5.554  -3.243 -35.117  1.00  0.00     0.171 C 
HETATM   18  C   UNL     1      -6.742  -4.176 -34.971  1.00  0.00     0.034 C 
ENDBRANCH  16  17
ENDBRANCH  11  16
ENDBRANCH   7  10
ENDBRANCH   1   6
BRANCH   5  19
HETATM   19  N   UNL     1      -9.420   3.714 -33.068  1.00  0.00    -0.382 N 
HETATM   20  H   UNL     1     -10.136   4.096 -33.693  1.00  0.00     0.157 HD
HETATM   21  H   UNL     1      -9.677   3.781 -32.085  1.00  0.00     0.157 HD
ENDBRANCH   5  19
BRANCH   4  22
HETATM   22  C   UNL     1      -7.039   5.548 -33.471  1.00  0.00     0.251 C 
BRANCH  22  23
HETATM   23  C   UNL     1      -5.798   5.897 -32.691  1.00  0.00     0.241 C 
HETATM   24  N   UNL     1      -4.639   5.905 -33.450  1.00  0.00    -0.326 N 
HETATM   25  H   UNL     1      -4.747   5.948 -34.458  1.00  0.00     0.169 HD
HETATM   26  O   UNL     1      -5.874   6.143 -31.488  1.00  0.00    -0.271 OA
BRANCH  24  27
HETATM   27  C   UNL     1      -3.318   5.976 -32.962  1.00  0.00     0.034 A 
HETATM   28  C   UNL     1      -2.551   7.146 -32.981  1.00  0.00     0.031 A 
HETATM   29  C   UNL     1      -1.262   7.160 -32.435  1.00  0.00     0.026 A 
HETATM   30  C   UNL     1      -0.734   6.002 -31.873  1.00  0.00     0.034 A 
HETATM   31 CL   UNL     1       0.847   6.023 -31.197  1.00  0.00    -0.084 Cl
HETATM   32  C   UNL     1      -1.486   4.831 -31.848  1.00  0.00     0.026 A 
HETATM   33  C   UNL     1      -2.777   4.820 -32.386  1.00  0.00     0.031 A 
ENDBRANCH  24  27
ENDBRANCH  22  23
ENDBRANCH   4  22
TORSDOF 8
ENDMDL
MODEL 9
REMARK VINA RESULT:      -7.5      3.680      9.084
REMARK  8 active torsions:
REMARK  status: ('A' for Active; 'I' for Inactive)
REMARK    1  A    between atoms: C_2  and  O_3 
REMARK    2  A    between atoms: O_3  and  C_4 
REMARK    3  A    between atoms: C_5  and  N_6 
REMARK       I    between atoms: N_6  and  C_7 
REMARK    4  A    between atoms: C_7  and  C_8 
REMARK    5  A    between atoms: N_11  and  C_12 
REMARK    6  A    between atoms: C_12  and  C_13 
REMARK       I    between atoms: C_13  and  N_14 
REMARK    7  A    between atoms: N_14  and  C_15 
REMARK    8  A    between atoms: C_23  and  N_24 
ROOT
HETATM    1  C   UNL     1      -4.823   1.840 -31.127  1.00  0.00     0.187 A 
HETATM    2  N   UNL     1      -3.453   1.673 -31.217  1.00  0.00    -0.150 NA
HETATM    3  N   UNL     1      -2.929   2.742 -31.792  1.00  0.00     0.007 NA
HETATM    4  N   UNL     1      -3.939   3.582 -32.070  1.00  0.00    -0.248 N 
HETATM    5  C   UNL     1      -5.160   3.037 -31.753  1.00  0.00     0.151 A 
ENDROOT
BRANCH   1   6
HETATM    6  C   UNL     1      -5.652   0.787 -30.551  1.00  0.00     0.280 C 
HETATM    7  N   UNL     1      -6.316  -0.140 -31.326  1.00  0.00    -0.319 N 
HETATM    8  H   UNL     1      -6.537  -0.964 -30.781  1.00  0.00     0.169 HD
HETATM    9  O   UNL     1      -5.693   0.609 -29.328  1.00  0.00    -0.265 OA
BRANCH   7  10
HETATM   10  C   UNL     1      -6.816  -0.108 -32.641  1.00  0.00     0.068 A 
HETATM   11  C   UNL     1      -7.852   0.726 -33.104  1.00  0.00     0.095 A 
HETATM   12  C   UNL     1      -8.197   0.687 -34.463  1.00  0.00     0.039 A 
HETATM   13  C   UNL     1      -7.563  -0.196 -35.340  1.00  0.00     0.003 A 
HETATM   14  C   UNL     1      -6.592  -1.069 -34.867  1.00  0.00     0.002 A 
HETATM   15  C   UNL     1      -6.229  -1.031 -33.522  1.00  0.00     0.032 A 
BRANCH  11  16
HETATM   16  O   UNL     1      -8.526   1.471 -32.172  1.00  0.00    -0.349 OA
BRANCH  16  17
HETATM   17  C   UNL     1      -9.861   1.872 -32.475  1.00  0.00     0.171 C 
HETATM   18  C   UNL     1      -9.930   3.387 -32.429  1.00  0.00     0.034 C 
ENDBRANCH  16  17
ENDBRANCH  11  16
ENDBRANCH   7  10
ENDBRANCH   1   6
BRANCH   5  19
HETATM   19  N   UNL     1      -6.331   3.644 -32.053  1.00  0.00    -0.382 N 
HETATM   20  H   UNL     1      -7.137   3.713 -31.426  1.00  0.00     0.157 HD
HETATM   21  H   UNL     1      -6.526   3.997 -32.988  1.00  0.00     0.157 HD
ENDBRANCH   5  19
BRANCH   4  22
HETATM   22  C   UNL     1      -3.617   4.905 -32.542  1.00  0.00     0.251 C 
BRANCH  22  23
HETATM   23  C   UNL     1      -3.039   5.785 -31.465  1.00  0.00     0.241 C 
HETATM   24  N   UNL     1      -1.663   5.695 -31.340  1.00  0.00    -0.326 N 
HETATM   25  H   UNL     1      -1.154   5.283 -32.116  1.00  0.00     0.169 HD
HETATM   26  O   UNL     1      -3.779   6.499 -30.788  1.00  0.00    -0.271 OA
BRANCH  24  27
HETATM   27  C   UNL     1      -0.879   6.221 -30.293  1.00  0.00     0.034 A 
HETATM   28  C   UNL     1      -0.996   7.534 -29.827  1.00  0.00     0.031 A 
HETATM   29  C   UNL     1      -0.220   7.978 -28.749  1.00  0.00     0.026 A 
HETATM   30  C   UNL     1       0.679   7.111 -28.137  1.00  0.00     0.034 A 
HETATM   31 CL   UNL     1       1.626   7.656 -26.810  1.00  0.00    -0.084 Cl
HETATM   32  C   UNL     1       0.807   5.801 -28.591  1.00  0.00     0.026 A 
HETATM   33  C   UNL     1       0.025   5.356 -29.663  1.00  0.00     0.031 A 
ENDBRANCH  24  27
ENDBRANCH  22  23
ENDBRANCH   4  22
TORSDOF 8
ENDMDL
MODEL 10
REMARK VINA RESULT:      -7.4      3.574      8.587
REMARK  8 active torsions:
REMARK  status: ('A' for Active; 'I' for Inactive)
REMARK    1  A    between atoms: C_2  and  O_3 
REMARK    2  A    between atoms: O_3  and  C_4 
REMARK    3  A    between atoms: C_5  and  N_6 
REMARK       I    between atoms: N_6  and  C_7 
REMARK    4  A    between atoms: C_7  and  C_8 
REMARK    5  A    between atoms: N_11  and  C_12 
REMARK    6  A    between atoms: C_12  and  C_13 
REMARK       I    between atoms: C_13  and  N_14 
REMARK    7  A    between atoms: N_14  and  C_15 
REMARK    8  A    between atoms: C_23  and  N_24 
ROOT
HETATM    1  C   UNL     1      -5.987   4.231 -33.182  1.00  0.00     0.187 A 
HETATM    2  N   UNL     1      -5.942   4.926 -34.376  1.00  0.00    -0.150 NA
HETATM    3  N   UNL     1      -4.692   5.284 -34.617  1.00  0.00     0.007 NA
HETATM    4  N   UNL     1      -3.944   4.831 -33.598  1.00  0.00    -0.248 N 
HETATM    5  C   UNL     1      -4.711   4.235 -32.625  1.00  0.00     0.151 A 
ENDROOT
BRANCH   1   6
HETATM    6  C   UNL     1      -7.261   3.741 -32.668  1.00  0.00     0.280 C 
HETATM    7  N   UNL     1      -7.561   2.398 -32.590  1.00  0.00    -0.319 N 
HETATM    8  H   UNL     1      -8.298   2.238 -31.915  1.00  0.00     0.169 HD
HETATM    9  O   UNL     1      -8.081   4.516 -32.162  1.00  0.00    -0.265 OA
BRANCH   7  10
HETATM   10  C   UNL     1      -7.129   1.275 -33.320  1.00  0.00     0.068 A 
HETATM   11  C   UNL     1      -6.000   0.488 -33.020  1.00  0.00     0.095 A 
HETATM   12  C   UNL     1      -5.734  -0.642 -33.807  1.00  0.00     0.039 A 
HETATM   13  C   UNL     1      -6.540  -0.961 -34.902  1.00  0.00     0.003 A 
HETATM   14  C   UNL     1      -7.610  -0.142 -35.240  1.00  0.00     0.002 A 
HETATM   15  C   UNL     1      -7.895   0.975 -34.458  1.00  0.00     0.032 A 
BRANCH  11  16
HETATM   16  O   UNL     1      -5.173   0.926 -32.019  1.00  0.00    -0.349 OA
BRANCH  16  17
HETATM   17  C   UNL     1      -5.008   0.092 -30.874  1.00  0.00     0.171 C 
HETATM   18  C   UNL     1      -5.841   0.660 -29.741  1.00  0.00     0.034 C 
ENDBRANCH  16  17
ENDBRANCH  11  16
ENDBRANCH   7  10
ENDBRANCH   1   6
BRANCH   5  19
HETATM   19  N   UNL     1      -4.198   3.811 -31.448  1.00  0.00    -0.382 N 
HETATM   20  H   UNL     1      -3.535   3.038 -31.337  1.00  0.00     0.157 HD
HETATM   21  H   UNL     1      -4.522   4.183 -30.557  1.00  0.00     0.157 HD
ENDBRANCH   5  19
BRANCH   4  22
HETATM   22  C   UNL     1      -2.510   4.935 -33.703  1.00  0.00     0.251 C 
BRANCH  22  23
HETATM   23  C   UNL     1      -1.950   6.100 -32.930  1.00  0.00     0.241 C 
HETATM   24  N   UNL     1      -1.479   5.767 -31.671  1.00  0.00    -0.326 N 
HETATM   25  H   UNL     1      -1.303   4.784 -31.488  1.00  0.00     0.169 HD
HETATM   26  O   UNL     1      -1.941   7.225 -33.429  1.00  0.00    -0.271 OA
BRANCH  24  27
HETATM   27  C   UNL     1      -1.109   6.665 -30.649  1.00  0.00     0.034 A 
HETATM   28  C   UNL     1      -2.020   7.486 -29.977  1.00  0.00     0.031 A 
HETATM   29  C   UNL     1      -1.594   8.320 -28.937  1.00  0.00     0.026 A 
HETATM   30  C   UNL     1      -0.252   8.340 -28.569  1.00  0.00     0.034 A 
HETATM   31 CL   UNL     1       0.269   9.361 -27.288  1.00  0.00    -0.084 Cl
HETATM   32  C   UNL     1       0.666   7.529 -29.230  1.00  0.00     0.026 A 
HETATM   33  C   UNL     1       0.237   6.689 -30.263  1.00  0.00     0.031 A 
ENDBRANCH  24  27
ENDBRANCH  22  23
ENDBRANCH   4  22
TORSDOF 8
ENDMDL
