MODEL 1
REMARK VINA RESULT:      -9.0      0.000      0.000
REMARK  8 active torsions:
REMARK  status: ('A' for Active; 'I' for Inactive)
REMARK    1  A    between atoms: C_7  and  C_8 
REMARK    2  A    between atoms: C_8  and  O_9 
REMARK    3  A    between atoms: O_9  and  C_10 
REMARK    4  A    between atoms: C_12  and  C_13 
REMARK       I    between atoms: C_13  and  N_14 
REMARK    5  A    between atoms: N_14  and  C_15 
REMARK    6  A    between atoms: C_15  and  C_16 
REMARK    7  A    between atoms: C_19  and  C_20 
REMARK    8  A    between atoms: C_20  and  N_21 
ROOT
HETATM    1  C   UNL     1      -7.117   3.899 -33.879  1.00  0.00     0.252 C 
HETATM    2  N   UNL     1      -5.818   3.621 -34.254  1.00  0.00    -0.353 N 
HETATM    3  O   UNL     1      -7.538   5.035 -33.699  1.00  0.00    -0.268 OA
HETATM    4  H   UNL     1      -5.485   2.668 -34.262  1.00  0.00     0.163 HD
ENDROOT
BRANCH   1   5
HETATM    5  C   UNL     1      -8.009   2.726 -33.666  1.00  0.00     0.034 A 
HETATM    6  C   UNL     1      -7.440   1.447 -33.671  1.00  0.00     0.053 A 
HETATM    7  C   UNL     1      -8.227   0.318 -33.435  1.00  0.00     0.070 A 
HETATM    8  C   UNL     1      -9.597   0.468 -33.214  1.00  0.00     0.037 A 
HETATM    9  C   UNL     1     -10.169   1.743 -33.197  1.00  0.00     0.004 A 
HETATM   10  C   UNL     1      -9.378   2.872 -33.415  1.00  0.00     0.017 A 
BRANCH   7  11
HETATM   11  O   UNL     1      -7.555  -0.870 -33.467  1.00  0.00    -0.346 OA
BRANCH  11  12
HETATM   12  C   UNL     1      -6.837  -1.170 -34.669  1.00  0.00     0.219 C 
BRANCH  12  13
HETATM   13  C   UNL     1      -5.726  -2.119 -34.388  1.00  0.00     0.024 A 
HETATM   14  C   UNL     1      -5.644  -3.507 -34.681  1.00  0.00     0.069 A 
HETATM   15  C   UNL     1      -6.645  -4.371 -35.349  1.00  0.00     0.073 C 
HETATM   16  N   UNL     1      -4.484  -4.028 -34.266  1.00  0.00    -0.133 NA
HETATM   17  O   UNL     1      -3.786  -2.986 -33.692  1.00  0.00    -0.217 OA
HETATM   18  C   UNL     1      -4.527  -1.851 -33.761  1.00  0.00     0.085 A 
HETATM   19  C   UNL     1      -3.922  -0.633 -33.188  1.00  0.00     0.079 C 
ENDBRANCH  12  13
ENDBRANCH  11  12
ENDBRANCH   7  11
ENDBRANCH   1   5
BRANCH   2  20
HETATM   20  C   UNL     1      -4.886   4.675 -34.578  1.00  0.00     0.161 C 
BRANCH  20  21
HETATM   21  C   UNL     1      -3.660   4.745 -33.692  1.00  0.00    -0.041 A 
HETATM   22  C   UNL     1      -3.637   4.285 -32.370  1.00  0.00     0.009 A 
HETATM   23  C   UNL     1      -2.480   4.402 -31.591  1.00  0.00     0.009 A 
HETATM   24  C   UNL     1      -1.318   4.982 -32.120  1.00  0.00    -0.033 A 
HETATM   25  C   UNL     1      -1.329   5.415 -33.451  1.00  0.00     0.009 A 
HETATM   26  C   UNL     1      -2.484   5.294 -34.227  1.00  0.00     0.009 A 
BRANCH  24  27
HETATM   27  C   UNL     1      -0.087   5.137 -31.272  1.00  0.00     0.273 C 
BRANCH  27  28
HETATM   28  N   UNL     1      -0.387   5.632 -29.882  1.00  0.00    -0.067 N 
HETATM   29  H   UNL     1      -1.241   5.146 -29.582  1.00  0.00     0.280 HD
HETATM   30  C   UNL     1      -0.658   7.122 -29.814  1.00  0.00     0.235 C 
HETATM   31  C   UNL     1       0.464   7.675 -28.959  1.00  0.00     0.029 C 
HETATM   32  C   UNL     1       0.735   6.553 -27.980  1.00  0.00     0.029 C 
HETATM   33  C   UNL     1       0.691   5.320 -28.862  1.00  0.00     0.235 C 
ENDBRANCH  27  28
ENDBRANCH  24  27
ENDBRANCH  20  21
ENDBRANCH   2  20
TORSDOF 8
ENDMDL
MODEL 2
REMARK VINA RESULT:      -9.0      2.393      9.611
REMARK  8 active torsions:
REMARK  status: ('A' for Active; 'I' for Inactive)
REMARK    1  A    between atoms: C_7  and  C_8 
REMARK    2  A    between atoms: C_8  and  O_9 
REMARK    3  A    between atoms: O_9  and  C_10 
REMARK    4  A    between atoms: C_12  and  C_13 
REMARK       I    between atoms: C_13  and  N_14 
REMARK    5  A    between atoms: N_14  and  C_15 
REMARK    6  A    between atoms: C_15  and  C_16 
REMARK    7  A    between atoms: C_19  and  C_20 
REMARK    8  A    between atoms: C_20  and  N_21 
ROOT
HETATM    1  C   UNL     1      -4.911   4.060 -32.802  1.00  0.00     0.252 C 
HETATM    2  N   UNL     1      -5.761   3.749 -33.844  1.00  0.00    -0.353 N 
HETATM    3  O   UNL     1      -5.216   3.932 -31.622  1.00  0.00    -0.268 OA
HETATM    4  H   UNL     1      -5.513   3.994 -34.792  1.00  0.00     0.163 HD
ENDROOT
BRANCH   1   5
HETATM    5  C   UNL     1      -3.576   4.602 -33.177  1.00  0.00     0.034 A 
HETATM    6  C   UNL     1      -2.554   4.574 -32.221  1.00  0.00     0.053 A 
HETATM    7  C   UNL     1      -1.273   5.033 -32.537  1.00  0.00     0.070 A 
HETATM    8  C   UNL     1      -1.019   5.542 -33.811  1.00  0.00     0.037 A 
HETATM    9  C   UNL     1      -2.033   5.562 -34.773  1.00  0.00     0.004 A 
HETATM   10  C   UNL     1      -3.308   5.087 -34.462  1.00  0.00     0.017 A 
BRANCH   7  11
HETATM   11  O   UNL     1      -0.365   4.953 -31.520  1.00  0.00    -0.346 OA
BRANCH  11  12
HETATM   12  C   UNL     1       0.314   6.164 -31.168  1.00  0.00     0.219 C 
BRANCH  12  13
HETATM   13  C   UNL     1      -0.490   6.947 -30.193  1.00  0.00     0.024 A 
HETATM   14  C   UNL     1      -0.470   6.891 -28.773  1.00  0.00     0.069 A 
HETATM   15  C   UNL     1       0.364   6.039 -27.893  1.00  0.00     0.073 C 
HETATM   16  N   UNL     1      -1.347   7.746 -28.236  1.00  0.00    -0.133 NA
HETATM   17  O   UNL     1      -1.959   8.377 -29.299  1.00  0.00    -0.217 OA
HETATM   18  C   UNL     1      -1.451   7.898 -30.464  1.00  0.00     0.085 A 
HETATM   19  C   UNL     1      -2.001   8.472 -31.708  1.00  0.00     0.079 C 
ENDBRANCH  12  13
ENDBRANCH  11  12
ENDBRANCH   7  11
ENDBRANCH   1   5
BRANCH   2  20
HETATM   20  C   UNL     1      -7.045   3.131 -33.610  1.00  0.00     0.161 C 
BRANCH  20  21
HETATM   21  C   UNL     1      -7.071   1.624 -33.752  1.00  0.00    -0.041 A 
HETATM   22  C   UNL     1      -7.055   0.746 -32.663  1.00  0.00     0.009 A 
HETATM   23  C   UNL     1      -7.051  -0.640 -32.859  1.00  0.00     0.009 A 
HETATM   24  C   UNL     1      -7.066  -1.177 -34.154  1.00  0.00    -0.033 A 
HETATM   25  C   UNL     1      -7.113  -0.302 -35.246  1.00  0.00     0.009 A 
HETATM   26  C   UNL     1      -7.118   1.080 -35.046  1.00  0.00     0.009 A 
BRANCH  24  27
HETATM   27  C   UNL     1      -7.029  -2.666 -34.365  1.00  0.00     0.273 C 
BRANCH  27  28
HETATM   28  N   UNL     1      -5.699  -3.157 -34.873  1.00  0.00    -0.067 N 
HETATM   29  H   UNL     1      -5.542  -2.683 -35.771  1.00  0.00     0.280 HD
HETATM   30  C   UNL     1      -5.661  -4.650 -35.128  1.00  0.00     0.235 C 
HETATM   31  C   UNL     1      -4.634  -5.178 -34.147  1.00  0.00     0.029 C 
HETATM   32  C   UNL     1      -3.635  -4.045 -34.052  1.00  0.00     0.029 C 
HETATM   33  C   UNL     1      -4.525  -2.819 -33.975  1.00  0.00     0.235 C 
ENDBRANCH  27  28
ENDBRANCH  24  27
ENDBRANCH  20  21
ENDBRANCH   2  20
TORSDOF 8
ENDMDL
MODEL 3
REMARK VINA RESULT:      -8.7      2.164      3.042
REMARK  8 active torsions:
REMARK  status: ('A' for Active; 'I' for Inactive)
REMARK    1  A    between atoms: C_7  and  C_8 
REMARK    2  A    between atoms: C_8  and  O_9 
REMARK    3  A    between atoms: O_9  and  C_10 
REMARK    4  A    between atoms: C_12  and  C_13 
REMARK       I    between atoms: C_13  and  N_14 
REMARK    5  A    between atoms: N_14  and  C_15 
REMARK    6  A    between atoms: C_15  and  C_16 
REMARK    7  A    between atoms: C_19  and  C_20 
REMARK    8  A    between atoms: C_20  and  N_21 
ROOT
HETATM    1  C   UNL     1      -4.402   3.369 -32.703  1.00  0.00     0.252 C 
HETATM    2  N   UNL     1      -3.043   3.295 -32.932  1.00  0.00    -0.353 N 
HETATM    3  O   UNL     1      -5.059   4.389 -32.870  1.00  0.00    -0.268 OA
HETATM    4  H   UNL     1      -2.525   2.474 -32.655  1.00  0.00     0.163 HD
ENDROOT
BRANCH   1   5
HETATM    5  C   UNL     1      -5.056   2.130 -32.200  1.00  0.00     0.034 A 
HETATM    6  C   UNL     1      -4.421   0.903 -32.426  1.00  0.00     0.053 A 
HETATM    7  C   UNL     1      -4.973  -0.284 -31.938  1.00  0.00     0.070 A 
HETATM    8  C   UNL     1      -6.179  -0.244 -31.237  1.00  0.00     0.037 A 
HETATM    9  C   UNL     1      -6.811   0.979 -30.998  1.00  0.00     0.004 A 
HETATM   10  C   UNL     1      -6.249   2.166 -31.470  1.00  0.00     0.017 A 
BRANCH   7  11
HETATM   11  O   UNL     1      -4.260  -1.412 -32.227  1.00  0.00    -0.346 OA
BRANCH  11  12
HETATM   12  C   UNL     1      -4.000  -1.673 -33.610  1.00  0.00     0.219 C 
BRANCH  12  13
HETATM   13  C   UNL     1      -4.881  -2.763 -34.109  1.00  0.00     0.024 A 
HETATM   14  C   UNL     1      -4.605  -4.153 -34.215  1.00  0.00     0.069 A 
HETATM   15  C   UNL     1      -3.366  -4.880 -33.850  1.00  0.00     0.073 C 
HETATM   16  N   UNL     1      -5.646  -4.822 -34.720  1.00  0.00    -0.133 NA
HETATM   17  O   UNL     1      -6.624  -3.878 -34.956  1.00  0.00    -0.217 OA
HETATM   18  C   UNL     1      -6.166  -2.651 -34.595  1.00  0.00     0.085 A 
HETATM   19  C   UNL     1      -7.095  -1.520 -34.783  1.00  0.00     0.079 C 
ENDBRANCH  12  13
ENDBRANCH  11  12
ENDBRANCH   7  11
ENDBRANCH   1   5
BRANCH   2  20
HETATM   20  C   UNL     1      -2.315   4.402 -33.506  1.00  0.00     0.161 C 
BRANCH  20  21
HETATM   21  C   UNL     1      -1.536   5.243 -32.517  1.00  0.00    -0.041 A 
HETATM   22  C   UNL     1      -0.885   6.433 -32.860  1.00  0.00     0.009 A 
HETATM   23  C   UNL     1      -0.157   7.153 -31.907  1.00  0.00     0.009 A 
HETATM   24  C   UNL     1      -0.067   6.697 -30.584  1.00  0.00    -0.033 A 
HETATM   25  C   UNL     1      -0.743   5.524 -30.229  1.00  0.00     0.009 A 
HETATM   26  C   UNL     1      -1.470   4.809 -31.183  1.00  0.00     0.009 A 
BRANCH  24  27
HETATM   27  C   UNL     1       0.743   7.454 -29.567  1.00  0.00     0.273 C 
BRANCH  27  28
HETATM   28  N   UNL     1       0.216   7.304 -28.164  1.00  0.00    -0.067 N 
HETATM   29  H   UNL     1      -0.171   6.355 -28.103  1.00  0.00     0.280 HD
HETATM   30  C   UNL     1      -0.895   8.277 -27.827  1.00  0.00     0.235 C 
HETATM   31  C   UNL     1      -0.324   9.138 -26.718  1.00  0.00     0.029 C 
HETATM   32  C   UNL     1       0.575   8.180 -25.967  1.00  0.00     0.029 C 
HETATM   33  C   UNL     1       1.274   7.429 -27.084  1.00  0.00     0.235 C 
ENDBRANCH  27  28
ENDBRANCH  24  27
ENDBRANCH  20  21
ENDBRANCH   2  20
TORSDOF 8
ENDMDL
MODEL 4
REMARK VINA RESULT:      -8.5      1.500      2.014
REMARK  8 active torsions:
REMARK  status: ('A' for Active; 'I' for Inactive)
REMARK    1  A    between atoms: C_7  and  C_8 
REMARK    2  A    between atoms: C_8  and  O_9 
REMARK    3  A    between atoms: O_9  and  C_10 
REMARK    4  A    between atoms: C_12  and  C_13 
REMARK       I    between atoms: C_13  and  N_14 
REMARK    5  A    between atoms: N_14  and  C_15 
REMARK    6  A    between atoms: C_15  and  C_16 
REMARK    7  A    between atoms: C_19  and  C_20 
REMARK    8  A    between atoms: C_20  and  N_21 
ROOT
HETATM    1  C   UNL     1      -5.495   3.612 -33.426  1.00  0.00     0.252 C 
HETATM    2  N   UNL     1      -4.243   3.961 -32.959  1.00  0.00    -0.353 N 
HETATM    3  O   UNL     1      -6.061   4.200 -34.339  1.00  0.00    -0.268 OA
HETATM    4  H   UNL     1      -3.876   3.532 -32.122  1.00  0.00     0.163 HD
ENDROOT
BRANCH   1   5
HETATM    5  C   UNL     1      -6.165   2.477 -32.735  1.00  0.00     0.034 A 
HETATM    6  C   UNL     1      -6.528   1.357 -33.492  1.00  0.00     0.053 A 
HETATM    7  C   UNL     1      -7.122   0.250 -32.883  1.00  0.00     0.070 A 
HETATM    8  C   UNL     1      -7.375   0.272 -31.511  1.00  0.00     0.037 A 
HETATM    9  C   UNL     1      -7.005   1.383 -30.748  1.00  0.00     0.004 A 
HETATM   10  C   UNL     1      -6.395   2.482 -31.355  1.00  0.00     0.017 A 
BRANCH   7  11
HETATM   11  O   UNL     1      -7.429  -0.777 -33.730  1.00  0.00    -0.346 OA
BRANCH  11  12
HETATM   12  C   UNL     1      -6.495  -1.045 -34.781  1.00  0.00     0.219 C 
BRANCH  12  13
HETATM   13  C   UNL     1      -5.556  -2.127 -34.380  1.00  0.00     0.024 A 
HETATM   14  C   UNL     1      -5.614  -3.514 -34.683  1.00  0.00     0.069 A 
HETATM   15  C   UNL     1      -6.625  -4.244 -35.483  1.00  0.00     0.073 C 
HETATM   16  N   UNL     1      -4.590  -4.178 -34.136  1.00  0.00    -0.133 NA
HETATM   17  O   UNL     1      -3.843  -3.233 -33.463  1.00  0.00    -0.217 OA
HETATM   18  C   UNL     1      -4.421  -2.013 -33.606  1.00  0.00     0.085 A 
HETATM   19  C   UNL     1      -3.743  -0.882 -32.943  1.00  0.00     0.079 C 
ENDBRANCH  12  13
ENDBRANCH  11  12
ENDBRANCH   7  11
ENDBRANCH   1   5
BRANCH   2  20
HETATM   20  C   UNL     1      -3.456   4.984 -33.607  1.00  0.00     0.161 C 
BRANCH  20  21
HETATM   21  C   UNL     1      -2.359   5.587 -32.755  1.00  0.00    -0.041 A 
HETATM   22  C   UNL     1      -1.168   4.920 -32.446  1.00  0.00     0.009 A 
HETATM   23  C   UNL     1      -0.202   5.519 -31.630  1.00  0.00     0.009 A 
HETATM   24  C   UNL     1      -0.407   6.804 -31.106  1.00  0.00    -0.033 A 
HETATM   25  C   UNL     1      -1.583   7.486 -31.438  1.00  0.00     0.009 A 
HETATM   26  C   UNL     1      -2.544   6.886 -32.255  1.00  0.00     0.009 A 
BRANCH  24  27
HETATM   27  C   UNL     1       0.617   7.434 -30.202  1.00  0.00     0.273 C 
BRANCH  27  28
HETATM   28  N   UNL     1       0.104   7.672 -28.806  1.00  0.00    -0.067 N 
HETATM   29  H   UNL     1      -0.744   8.244 -28.905  1.00  0.00     0.280 HD
HETATM   30  C   UNL     1       1.074   8.435 -27.926  1.00  0.00     0.235 C 
HETATM   31  C   UNL     1       1.433   7.462 -26.822  1.00  0.00     0.029 C 
HETATM   32  C   UNL     1       0.158   6.668 -26.636  1.00  0.00     0.029 C 
HETATM   33  C   UNL     1      -0.289   6.410 -28.062  1.00  0.00     0.235 C 
ENDBRANCH  27  28
ENDBRANCH  24  27
ENDBRANCH  20  21
ENDBRANCH   2  20
TORSDOF 8
ENDMDL
MODEL 5
REMARK VINA RESULT:      -8.4      3.125     10.431
REMARK  8 active torsions:
REMARK  status: ('A' for Active; 'I' for Inactive)
REMARK    1  A    between atoms: C_7  and  C_8 
REMARK    2  A    between atoms: C_8  and  O_9 
REMARK    3  A    between atoms: O_9  and  C_10 
REMARK    4  A    between atoms: C_12  and  C_13 
REMARK       I    between atoms: C_13  and  N_14 
REMARK    5  A    between atoms: N_14  and  C_15 
REMARK    6  A    between atoms: C_15  and  C_16 
REMARK    7  A    between atoms: C_19  and  C_20 
REMARK    8  A    between atoms: C_20  and  N_21 
ROOT
HETATM    1  C   UNL     1      -4.716   3.320 -31.790  1.00  0.00     0.252 C 
HETATM    2  N   UNL     1      -5.156   2.182 -32.436  1.00  0.00    -0.353 N 
HETATM    3  O   UNL     1      -5.219   3.746 -30.758  1.00  0.00    -0.268 OA
HETATM    4  H   UNL     1      -4.797   1.946 -33.350  1.00  0.00     0.163 HD
ENDROOT
BRANCH   1   5
HETATM    5  C   UNL     1      -3.591   4.052 -32.433  1.00  0.00     0.034 A 
HETATM    6  C   UNL     1      -2.404   4.216 -31.710  1.00  0.00     0.053 A 
HETATM    7  C   UNL     1      -1.305   4.859 -32.284  1.00  0.00     0.070 A 
HETATM    8  C   UNL     1      -1.402   5.360 -33.583  1.00  0.00     0.037 A 
HETATM    9  C   UNL     1      -2.581   5.189 -34.314  1.00  0.00     0.004 A 
HETATM   10  C   UNL     1      -3.672   4.529 -33.746  1.00  0.00     0.017 A 
BRANCH   7  11
HETATM   11  O   UNL     1      -0.208   4.958 -31.476  1.00  0.00    -0.346 OA
BRANCH  11  12
HETATM   12  C   UNL     1       0.296   6.276 -31.234  1.00  0.00     0.219 C 
BRANCH  12  13
HETATM   13  C   UNL     1      -0.564   6.990 -30.254  1.00  0.00     0.024 A 
HETATM   14  C   UNL     1      -0.564   6.898 -28.835  1.00  0.00     0.069 A 
HETATM   15  C   UNL     1       0.300   6.069 -27.962  1.00  0.00     0.073 C 
HETATM   16  N   UNL     1      -1.494   7.691 -28.293  1.00  0.00    -0.133 NA
HETATM   17  O   UNL     1      -2.122   8.316 -29.350  1.00  0.00    -0.217 OA
HETATM   18  C   UNL     1      -1.570   7.895 -30.518  1.00  0.00     0.085 A 
HETATM   19  C   UNL     1      -2.130   8.471 -31.756  1.00  0.00     0.079 C 
ENDBRANCH  12  13
ENDBRANCH  11  12
ENDBRANCH   7  11
ENDBRANCH   1   5
BRANCH   2  20
HETATM   20  C   UNL     1      -6.178   1.338 -31.863  1.00  0.00     0.161 C 
BRANCH  20  21
HETATM   21  C   UNL     1      -7.515   1.375 -32.573  1.00  0.00    -0.041 A 
HETATM   22  C   UNL     1      -7.803   2.244 -33.631  1.00  0.00     0.009 A 
HETATM   23  C   UNL     1      -9.067   2.250 -34.230  1.00  0.00     0.009 A 
HETATM   24  C   UNL     1     -10.074   1.383 -33.783  1.00  0.00    -0.033 A 
HETATM   25  C   UNL     1      -9.780   0.490 -32.745  1.00  0.00     0.009 A 
HETATM   26  C   UNL     1      -8.516   0.485 -32.151  1.00  0.00     0.009 A 
BRANCH  24  27
HETATM   27  C   UNL     1     -11.442   1.413 -34.405  1.00  0.00     0.273 C 
BRANCH  27  28
HETATM   28  N   UNL     1     -12.546   1.147 -33.415  1.00  0.00    -0.067 N 
HETATM   29  H   UNL     1     -12.086   0.852 -32.545  1.00  0.00     0.280 HD
HETATM   30  C   UNL     1     -13.485   0.035 -33.839  1.00  0.00     0.235 C 
HETATM   31  C   UNL     1     -14.827   0.717 -34.015  1.00  0.00     0.029 C 
HETATM   32  C   UNL     1     -14.801   1.804 -32.961  1.00  0.00     0.029 C 
HETATM   33  C   UNL     1     -13.395   2.360 -33.087  1.00  0.00     0.235 C 
ENDBRANCH  27  28
ENDBRANCH  24  27
ENDBRANCH  20  21
ENDBRANCH   2  20
TORSDOF 8
ENDMDL
MODEL 6
REMARK VINA RESULT:      -8.1      2.210      3.228
REMARK  8 active torsions:
REMARK  status: ('A' for Active; 'I' for Inactive)
REMARK    1  A    between atoms: C_7  and  C_8 
REMARK    2  A    between atoms: C_8  and  O_9 
REMARK    3  A    between atoms: O_9  and  C_10 
REMARK    4  A    between atoms: C_12  and  C_13 
REMARK       I    between atoms: C_13  and  N_14 
REMARK    5  A    between atoms: N_14  and  C_15 
REMARK    6  A    between atoms: C_15  and  C_16 
REMARK    7  A    between atoms: C_19  and  C_20 
REMARK    8  A    between atoms: C_20  and  N_21 
ROOT
HETATM    1  C   UNL     1      -3.524   2.720 -31.996  1.00  0.00     0.252 C 
HETATM    2  N   UNL     1      -3.258   3.748 -32.879  1.00  0.00    -0.353 N 
HETATM    3  O   UNL     1      -2.694   2.271 -31.215  1.00  0.00    -0.268 OA
HETATM    4  H   UNL     1      -3.932   3.993 -33.590  1.00  0.00     0.163 HD
ENDROOT
BRANCH   1   5
HETATM    5  C   UNL     1      -4.893   2.138 -32.051  1.00  0.00     0.034 A 
HETATM    6  C   UNL     1      -5.031   0.794 -32.414  1.00  0.00     0.053 A 
HETATM    7  C   UNL     1      -6.291   0.191 -32.441  1.00  0.00     0.070 A 
HETATM    8  C   UNL     1      -7.421   0.944 -32.123  1.00  0.00     0.037 A 
HETATM    9  C   UNL     1      -7.289   2.284 -31.749  1.00  0.00     0.004 A 
HETATM   10  C   UNL     1      -6.028   2.881 -31.705  1.00  0.00     0.017 A 
BRANCH   7  11
HETATM   11  O   UNL     1      -6.292  -1.124 -32.812  1.00  0.00    -0.346 OA
BRANCH  11  12
HETATM   12  C   UNL     1      -5.571  -1.457 -34.003  1.00  0.00     0.219 C 
BRANCH  12  13
HETATM   13  C   UNL     1      -4.884  -2.767 -33.847  1.00  0.00     0.024 A 
HETATM   14  C   UNL     1      -3.783  -3.101 -33.013  1.00  0.00     0.069 A 
HETATM   15  C   UNL     1      -3.035  -2.232 -32.076  1.00  0.00     0.073 C 
HETATM   16  N   UNL     1      -3.436  -4.386 -33.152  1.00  0.00    -0.133 NA
HETATM   17  O   UNL     1      -4.306  -4.914 -34.083  1.00  0.00    -0.217 OA
HETATM   18  C   UNL     1      -5.165  -3.948 -34.500  1.00  0.00     0.085 A 
HETATM   19  C   UNL     1      -6.170  -4.350 -35.503  1.00  0.00     0.079 C 
ENDBRANCH  12  13
ENDBRANCH  11  12
ENDBRANCH   7  11
ENDBRANCH   1   5
BRANCH   2  20
HETATM   20  C   UNL     1      -1.998   4.452 -32.857  1.00  0.00     0.161 C 
BRANCH  20  21
HETATM   21  C   UNL     1      -1.906   5.576 -31.847  1.00  0.00    -0.041 A 
HETATM   22  C   UNL     1      -3.019   6.127 -31.203  1.00  0.00     0.009 A 
HETATM   23  C   UNL     1      -2.873   7.185 -30.298  1.00  0.00     0.009 A 
HETATM   24  C   UNL     1      -1.606   7.713 -30.016  1.00  0.00    -0.033 A 
HETATM   25  C   UNL     1      -0.486   7.144 -30.634  1.00  0.00     0.009 A 
HETATM   26  C   UNL     1      -0.636   6.087 -31.535  1.00  0.00     0.009 A 
BRANCH  24  27
HETATM   27  C   UNL     1      -1.453   8.871 -29.069  1.00  0.00     0.273 C 
BRANCH  27  28
HETATM   28  N   UNL     1      -0.972   8.456 -27.703  1.00  0.00    -0.067 N 
HETATM   29  H   UNL     1      -1.394   9.116 -27.037  1.00  0.00     0.280 HD
HETATM   30  C   UNL     1       0.532   8.538 -27.540  1.00  0.00     0.235 C 
HETATM   31  C   UNL     1       0.968   7.106 -27.303  1.00  0.00     0.029 C 
HETATM   32  C   UNL     1      -0.199   6.513 -26.542  1.00  0.00     0.029 C 
HETATM   33  C   UNL     1      -1.400   7.062 -27.287  1.00  0.00     0.235 C 
ENDBRANCH  27  28
ENDBRANCH  24  27
ENDBRANCH  20  21
ENDBRANCH   2  20
TORSDOF 8
ENDMDL
MODEL 7
REMARK VINA RESULT:      -8.1      2.973      4.632
REMARK  8 active torsions:
REMARK  status: ('A' for Active; 'I' for Inactive)
REMARK    1  A    between atoms: C_7  and  C_8 
REMARK    2  A    between atoms: C_8  and  O_9 
REMARK    3  A    between atoms: O_9  and  C_10 
REMARK    4  A    between atoms: C_12  and  C_13 
REMARK       I    between atoms: C_13  and  N_14 
REMARK    5  A    between atoms: N_14  and  C_15 
REMARK    6  A    between atoms: C_15  and  C_16 
REMARK    7  A    between atoms: C_19  and  C_20 
REMARK    8  A    between atoms: C_20  and  N_21 
ROOT
HETATM    1  C   UNL     1      -1.983   4.592 -31.977  1.00  0.00     0.252 C 
HETATM    2  N   UNL     1      -1.774   5.781 -32.646  1.00  0.00    -0.353 N 
HETATM    3  O   UNL     1      -1.218   4.153 -31.127  1.00  0.00    -0.268 OA
HETATM    4  H   UNL     1      -2.361   6.034 -33.428  1.00  0.00     0.163 HD
ENDROOT
BRANCH   1   5
HETATM    5  C   UNL     1      -3.198   3.822 -32.361  1.00  0.00     0.034 A 
HETATM    6  C   UNL     1      -3.351   2.525 -31.858  1.00  0.00     0.053 A 
HETATM    7  C   UNL     1      -4.493   1.777 -32.156  1.00  0.00     0.070 A 
HETATM    8  C   UNL     1      -5.478   2.324 -32.980  1.00  0.00     0.037 A 
HETATM    9  C   UNL     1      -5.336   3.622 -33.476  1.00  0.00     0.004 A 
HETATM   10  C   UNL     1      -4.203   4.375 -33.162  1.00  0.00     0.017 A 
BRANCH   7  11
HETATM   11  O   UNL     1      -4.522   0.527 -31.606  1.00  0.00    -0.346 OA
BRANCH  11  12
HETATM   12  C   UNL     1      -5.633  -0.305 -31.960  1.00  0.00     0.219 C 
BRANCH  12  13
HETATM   13  C   UNL     1      -5.235  -1.285 -33.006  1.00  0.00     0.024 A 
HETATM   14  C   UNL     1      -5.843  -1.538 -34.265  1.00  0.00     0.069 A 
HETATM   15  C   UNL     1      -7.029  -0.886 -34.868  1.00  0.00     0.073 C 
HETATM   16  N   UNL     1      -5.204  -2.506 -34.932  1.00  0.00    -0.133 NA
HETATM   17  O   UNL     1      -4.165  -2.904 -34.116  1.00  0.00    -0.217 OA
HETATM   18  C   UNL     1      -4.187  -2.180 -32.968  1.00  0.00     0.085 A 
HETATM   19  C   UNL     1      -3.135  -2.482 -31.978  1.00  0.00     0.079 C 
ENDBRANCH  12  13
ENDBRANCH  11  12
ENDBRANCH   7  11
ENDBRANCH   1   5
BRANCH   2  20
HETATM   20  C   UNL     1      -0.682   6.659 -32.298  1.00  0.00     0.161 C 
BRANCH  20  21
HETATM   21  C   UNL     1      -0.838   7.389 -30.980  1.00  0.00    -0.041 A 
HETATM   22  C   UNL     1       0.075   7.281 -29.926  1.00  0.00     0.009 A 
HETATM   23  C   UNL     1      -0.138   7.960 -28.721  1.00  0.00     0.009 A 
HETATM   24  C   UNL     1      -1.272   8.766 -28.546  1.00  0.00    -0.033 A 
HETATM   25  C   UNL     1      -2.172   8.901 -29.610  1.00  0.00     0.009 A 
HETATM   26  C   UNL     1      -1.954   8.223 -30.812  1.00  0.00     0.009 A 
BRANCH  24  27
HETATM   27  C   UNL     1      -1.517   9.468 -27.239  1.00  0.00     0.273 C 
BRANCH  27  28
HETATM   28  N   UNL     1      -1.871   8.525 -26.120  1.00  0.00    -0.067 N 
HETATM   29  H   UNL     1      -1.230   7.727 -26.203  1.00  0.00     0.280 HD
HETATM   30  C   UNL     1      -3.286   7.989 -26.204  1.00  0.00     0.235 C 
HETATM   31  C   UNL     1      -3.971   8.525 -24.963  1.00  0.00     0.029 C 
HETATM   32  C   UNL     1      -2.856   8.552 -23.940  1.00  0.00     0.029 C 
HETATM   33  C   UNL     1      -1.687   9.107 -24.731  1.00  0.00     0.235 C 
ENDBRANCH  27  28
ENDBRANCH  24  27
ENDBRANCH  20  21
ENDBRANCH   2  20
TORSDOF 8
ENDMDL
MODEL 8
REMARK VINA RESULT:      -8.1      1.852      2.439
REMARK  8 active torsions:
REMARK  status: ('A' for Active; 'I' for Inactive)
REMARK    1  A    between atoms: C_7  and  C_8 
REMARK    2  A    between atoms: C_8  and  O_9 
REMARK    3  A    between atoms: O_9  and  C_10 
REMARK    4  A    between atoms: C_12  and  C_13 
REMARK       I    between atoms: C_13  and  N_14 
REMARK    5  A    between atoms: N_14  and  C_15 
REMARK    6  A    between atoms: C_15  and  C_16 
REMARK    7  A    between atoms: C_19  and  C_20 
REMARK    8  A    between atoms: C_20  and  N_21 
ROOT
HETATM    1  C   UNL     1      -5.772   5.153 -33.621  1.00  0.00     0.252 C 
HETATM    2  N   UNL     1      -4.496   4.871 -34.066  1.00  0.00    -0.353 N 
HETATM    3  O   UNL     1      -6.081   6.212 -33.089  1.00  0.00    -0.268 OA
HETATM    4  H   UNL     1      -4.260   3.940 -34.377  1.00  0.00     0.163 HD
ENDROOT
BRANCH   1   5
HETATM    5  C   UNL     1      -6.784   4.074 -33.789  1.00  0.00     0.034 A 
HETATM    6  C   UNL     1      -6.339   2.749 -33.860  1.00  0.00     0.053 A 
HETATM    7  C   UNL     1      -7.252   1.699 -33.977  1.00  0.00     0.070 A 
HETATM    8  C   UNL     1      -8.617   1.977 -34.044  1.00  0.00     0.037 A 
HETATM    9  C   UNL     1      -9.068   3.298 -33.963  1.00  0.00     0.004 A 
HETATM   10  C   UNL     1      -8.156   4.346 -33.828  1.00  0.00     0.017 A 
BRANCH   7  11
HETATM   11  O   UNL     1      -6.693   0.454 -34.037  1.00  0.00    -0.346 OA
BRANCH  11  12
HETATM   12  C   UNL     1      -6.802  -0.358 -32.863  1.00  0.00     0.219 C 
BRANCH  12  13
HETATM   13  C   UNL     1      -5.486  -0.462 -32.178  1.00  0.00     0.024 A 
HETATM   14  C   UNL     1      -4.374  -1.284 -32.505  1.00  0.00     0.069 A 
HETATM   15  C   UNL     1      -4.234  -2.250 -33.620  1.00  0.00     0.073 C 
HETATM   16  N   UNL     1      -3.364  -1.106 -31.647  1.00  0.00    -0.133 NA
HETATM   17  O   UNL     1      -3.800  -0.163 -30.740  1.00  0.00    -0.217 OA
HETATM   18  C   UNL     1      -5.065   0.217 -31.054  1.00  0.00     0.085 A 
HETATM   19  C   UNL     1      -5.685   1.230 -30.177  1.00  0.00     0.079 C 
ENDBRANCH  12  13
ENDBRANCH  11  12
ENDBRANCH   7  11
ENDBRANCH   1   5
BRANCH   2  20
HETATM   20  C   UNL     1      -3.452   5.869 -34.040  1.00  0.00     0.161 C 
BRANCH  20  21
HETATM   21  C   UNL     1      -2.559   5.835 -32.818  1.00  0.00    -0.041 A 
HETATM   22  C   UNL     1      -2.919   6.391 -31.585  1.00  0.00     0.009 A 
HETATM   23  C   UNL     1      -2.039   6.352 -30.498  1.00  0.00     0.009 A 
HETATM   24  C   UNL     1      -0.777   5.753 -30.621  1.00  0.00    -0.033 A 
HETATM   25  C   UNL     1      -0.426   5.169 -31.844  1.00  0.00     0.009 A 
HETATM   26  C   UNL     1      -1.308   5.208 -32.926  1.00  0.00     0.009 A 
BRANCH  24  27
HETATM   27  C   UNL     1       0.181   5.742 -29.462  1.00  0.00     0.273 C 
BRANCH  27  28
HETATM   28  N   UNL     1      -0.121   6.803 -28.437  1.00  0.00    -0.067 N 
HETATM   29  H   UNL     1      -1.081   7.118 -28.624  1.00  0.00     0.280 HD
HETATM   30  C   UNL     1       0.787   8.013 -28.531  1.00  0.00     0.235 C 
HETATM   31  C   UNL     1       1.546   8.022 -27.219  1.00  0.00     0.029 C 
HETATM   32  C   UNL     1       0.538   7.468 -26.235  1.00  0.00     0.029 C 
HETATM   33  C   UNL     1      -0.080   6.314 -27.002  1.00  0.00     0.235 C 
ENDBRANCH  27  28
ENDBRANCH  24  27
ENDBRANCH  20  21
ENDBRANCH   2  20
TORSDOF 8
ENDMDL
MODEL 9
REMARK VINA RESULT:      -8.0      2.997      9.794
REMARK  8 active torsions:
REMARK  status: ('A' for Active; 'I' for Inactive)
REMARK    1  A    between atoms: C_7  and  C_8 
REMARK    2  A    between atoms: C_8  and  O_9 
REMARK    3  A    between atoms: O_9  and  C_10 
REMARK    4  A    between atoms: C_12  and  C_13 
REMARK       I    between atoms: C_13  and  N_14 
REMARK    5  A    between atoms: N_14  and  C_15 
REMARK    6  A    between atoms: C_15  and  C_16 
REMARK    7  A    between atoms: C_19  and  C_20 
REMARK    8  A    between atoms: C_20  and  N_21 
ROOT
HETATM    1  C   UNL     1      -4.373   4.406 -32.403  1.00  0.00     0.252 C 
HETATM    2  N   UNL     1      -4.026   3.471 -31.448  1.00  0.00    -0.353 N 
HETATM    3  O   UNL     1      -5.438   4.388 -33.007  1.00  0.00    -0.268 OA
HETATM    4  H   UNL     1      -3.088   3.451 -31.075  1.00  0.00     0.163 HD
ENDROOT
BRANCH   1   5
HETATM    5  C   UNL     1      -3.358   5.453 -32.702  1.00  0.00     0.034 A 
HETATM    6  C   UNL     1      -3.533   6.727 -32.149  1.00  0.00     0.053 A 
HETATM    7  C   UNL     1      -2.587   7.732 -32.366  1.00  0.00     0.070 A 
HETATM    8  C   UNL     1      -1.471   7.467 -33.160  1.00  0.00     0.037 A 
HETATM    9  C   UNL     1      -1.286   6.193 -33.706  1.00  0.00     0.004 A 
HETATM   10  C   UNL     1      -2.222   5.185 -33.473  1.00  0.00     0.017 A 
BRANCH   7  11
HETATM   11  O   UNL     1      -2.873   8.929 -31.773  1.00  0.00    -0.346 OA
BRANCH  11  12
HETATM   12  C   UNL     1      -1.938   9.403 -30.798  1.00  0.00     0.219 C 
BRANCH  12  13
HETATM   13  C   UNL     1      -1.924   8.506 -29.612  1.00  0.00     0.024 A 
HETATM   14  C   UNL     1      -2.884   8.393 -28.570  1.00  0.00     0.069 A 
HETATM   15  C   UNL     1      -4.154   9.136 -28.398  1.00  0.00     0.073 C 
HETATM   16  N   UNL     1      -2.520   7.477 -27.666  1.00  0.00    -0.133 NA
HETATM   17  O   UNL     1      -1.311   6.976 -28.101  1.00  0.00    -0.217 OA
HETATM   18  C   UNL     1      -0.955   7.592 -29.258  1.00  0.00     0.085 A 
HETATM   19  C   UNL     1       0.323   7.169 -29.863  1.00  0.00     0.079 C 
ENDBRANCH  12  13
ENDBRANCH  11  12
ENDBRANCH   7  11
ENDBRANCH   1   5
BRANCH   2  20
HETATM   20  C   UNL     1      -4.960   2.462 -31.008  1.00  0.00     0.161 C 
BRANCH  20  21
HETATM   21  C   UNL     1      -4.722   1.076 -31.568  1.00  0.00    -0.041 A 
HETATM   22  C   UNL     1      -5.595   0.001 -31.362  1.00  0.00     0.009 A 
HETATM   23  C   UNL     1      -5.307  -1.266 -31.883  1.00  0.00     0.009 A 
HETATM   24  C   UNL     1      -4.137  -1.483 -32.626  1.00  0.00    -0.033 A 
HETATM   25  C   UNL     1      -3.278  -0.403 -32.860  1.00  0.00     0.009 A 
HETATM   26  C   UNL     1      -3.570   0.860 -32.340  1.00  0.00     0.009 A 
BRANCH  24  27
HETATM   27  C   UNL     1      -3.812  -2.852 -33.157  1.00  0.00     0.273 C 
BRANCH  27  28
HETATM   28  N   UNL     1      -4.531  -3.172 -34.441  1.00  0.00    -0.067 N 
HETATM   29  H   UNL     1      -3.843  -3.049 -35.194  1.00  0.00     0.280 HD
HETATM   30  C   UNL     1      -5.698  -2.249 -34.729  1.00  0.00     0.235 C 
HETATM   31  C   UNL     1      -6.915  -3.152 -34.699  1.00  0.00     0.029 C 
HETATM   32  C   UNL     1      -6.382  -4.464 -35.234  1.00  0.00     0.029 C 
HETATM   33  C   UNL     1      -5.046  -4.596 -34.530  1.00  0.00     0.235 C 
ENDBRANCH  27  28
ENDBRANCH  24  27
ENDBRANCH  20  21
ENDBRANCH   2  20
TORSDOF 8
ENDMDL
MODEL 10
REMARK VINA RESULT:      -8.0      3.663      7.184
REMARK  8 active torsions:
REMARK  status: ('A' for Active; 'I' for Inactive)
REMARK    1  A    between atoms: C_7  and  C_8 
REMARK    2  A    between atoms: C_8  and  O_9 
REMARK    3  A    between atoms: O_9  and  C_10 
REMARK    4  A    between atoms: C_12  and  C_13 
REMARK       I    between atoms: C_13  and  N_14 
REMARK    5  A    between atoms: N_14  and  C_15 
REMARK    6  A    between atoms: C_15  and  C_16 
REMARK    7  A    between atoms: C_19  and  C_20 
REMARK    8  A    between atoms: C_20  and  N_21 
ROOT
HETATM    1  C   UNL     1      -0.104   5.218 -30.783  1.00  0.00     0.252 C 
HETATM    2  N   UNL     1      -0.445   5.906 -29.636  1.00  0.00    -0.353 N 
HETATM    3  O   UNL     1       0.905   4.531 -30.883  1.00  0.00    -0.268 OA
HETATM    4  H   UNL     1      -1.213   6.561 -29.646  1.00  0.00     0.163 HD
ENDROOT
BRANCH   1   5
HETATM    5  C   UNL     1      -1.025   5.371 -31.943  1.00  0.00     0.034 A 
HETATM    6  C   UNL     1      -2.059   4.440 -32.100  1.00  0.00     0.053 A 
HETATM    7  C   UNL     1      -2.973   4.564 -33.148  1.00  0.00     0.070 A 
HETATM    8  C   UNL     1      -2.840   5.613 -34.058  1.00  0.00     0.037 A 
HETATM    9  C   UNL     1      -1.817   6.552 -33.900  1.00  0.00     0.004 A 
HETATM   10  C   UNL     1      -0.914   6.438 -32.841  1.00  0.00     0.017 A 
BRANCH   7  11
HETATM   11  O   UNL     1      -3.933   3.593 -33.193  1.00  0.00    -0.346 OA
BRANCH  11  12
HETATM   12  C   UNL     1      -4.202   2.898 -31.970  1.00  0.00     0.219 C 
BRANCH  12  13
HETATM   13  C   UNL     1      -5.075   1.720 -32.222  1.00  0.00     0.024 A 
HETATM   14  C   UNL     1      -4.706   0.408 -32.622  1.00  0.00     0.069 A 
HETATM   15  C   UNL     1      -3.352  -0.132 -32.887  1.00  0.00     0.073 C 
HETATM   16  N   UNL     1      -5.777  -0.382 -32.758  1.00  0.00    -0.133 NA
HETATM   17  O   UNL     1      -6.868   0.403 -32.449  1.00  0.00    -0.217 OA
HETATM   18  C   UNL     1      -6.449   1.656 -32.134  1.00  0.00     0.085 A 
HETATM   19  C   UNL     1      -7.499   2.630 -31.776  1.00  0.00     0.079 C 
ENDBRANCH  12  13
ENDBRANCH  11  12
ENDBRANCH   7  11
ENDBRANCH   1   5
BRANCH   2  20
HETATM   20  C   UNL     1       0.320   5.765 -28.419  1.00  0.00     0.161 C 
BRANCH  20  21
HETATM   21  C   UNL     1       0.621   7.060 -27.694  1.00  0.00    -0.041 A 
HETATM   22  C   UNL     1       1.292   8.136 -28.285  1.00  0.00     0.009 A 
HETATM   23  C   UNL     1       1.567   9.297 -27.555  1.00  0.00     0.009 A 
HETATM   24  C   UNL     1       1.172   9.408 -26.214  1.00  0.00    -0.033 A 
HETATM   25  C   UNL     1       0.473   8.346 -25.629  1.00  0.00     0.009 A 
HETATM   26  C   UNL     1       0.199   7.189 -26.361  1.00  0.00     0.009 A 
BRANCH  24  27
HETATM   27  C   UNL     1       1.497  10.644 -25.421  1.00  0.00     0.273 C 
BRANCH  27  28
HETATM   28  N   UNL     1       2.811  10.548 -24.693  1.00  0.00    -0.067 N 
HETATM   29  H   UNL     1       3.486  11.091 -25.247  1.00  0.00     0.280 HD
HETATM   30  C   UNL     1       3.341   9.133 -24.580  1.00  0.00     0.235 C 
HETATM   31  C   UNL     1       3.353   8.848 -23.091  1.00  0.00     0.029 C 
HETATM   32  C   UNL     1       3.666  10.200 -22.486  1.00  0.00     0.029 C 
HETATM   33  C   UNL     1       2.796  11.141 -23.297  1.00  0.00     0.235 C 
ENDBRANCH  27  28
ENDBRANCH  24  27
ENDBRANCH  20  21
ENDBRANCH   2  20
TORSDOF 8
ENDMDL
