MODEL 1
REMARK VINA RESULT:      -9.5      0.000      0.000
REMARK  5 active torsions:
REMARK  status: ('A' for Active; 'I' for Inactive)
REMARK    1  A    between atoms: C_7  and  C_8 
REMARK    2  A    between atoms: C_10  and  N_11 
REMARK       I    between atoms: N_11  and  C_12 
REMARK    3  A    between atoms: C_12  and  C_13 
REMARK    4  A    between atoms: C_15  and  O_16 
REMARK    5  A    between atoms: C_19  and  O_20 
ROOT
HETATM    1  C   UNL     1      -6.892   1.231 -34.084  1.00  0.00     0.019 A 
HETATM    2  C   UNL     1      -5.889   2.149 -33.730  1.00  0.00     0.045 A 
HETATM    3  C   UNL     1      -6.178   3.497 -33.493  1.00  0.00     0.035 A 
HETATM    4  C   UNL     1      -7.500   3.931 -33.614  1.00  0.00     0.029 A 
HETATM    5  C   UNL     1      -8.511   3.035 -33.980  1.00  0.00     0.003 A 
HETATM    6  C   UNL     1      -8.207   1.693 -34.212  1.00  0.00     0.016 A 
ENDROOT
BRANCH   3   7
HETATM    7  N   UNL     1      -5.204   4.436 -33.076  1.00  0.00    -0.323 N 
HETATM    8  C   UNL     1      -4.251   5.035 -33.889  1.00  0.00     0.256 C 
HETATM    9  O   UNL     1      -4.266   5.008 -35.116  1.00  0.00    -0.267 OA
HETATM   10  H   UNL     1      -5.242   4.689 -32.102  1.00  0.00     0.169 HD
BRANCH   8  11
HETATM   11  C   UNL     1      -3.120   5.767 -33.227  1.00  0.00     0.037 A 
HETATM   12  C   UNL     1      -2.063   4.975 -32.738  1.00  0.00     0.054 A 
HETATM   13  C   UNL     1      -0.994   5.547 -32.055  1.00  0.00     0.071 A 
HETATM   14  C   UNL     1      -0.976   6.928 -31.869  1.00  0.00     0.073 A 
HETATM   15  C   UNL     1      -2.008   7.736 -32.352  1.00  0.00     0.071 A 
HETATM   16  C   UNL     1      -3.085   7.155 -33.029  1.00  0.00     0.054 A 
BRANCH  13  17
HETATM   17  O   UNL     1       0.071   4.875 -31.524  1.00  0.00    -0.356 OA
HETATM   18  C   UNL     1       0.395   5.151 -30.165  1.00  0.00     0.210 C 
ENDBRANCH  13  17
BRANCH  15  19
HETATM   19  O   UNL     1      -1.848   9.068 -32.088  1.00  0.00    -0.356 OA
HETATM   20  C   UNL     1      -2.320   9.553 -30.837  1.00  0.00     0.210 C 
ENDBRANCH  15  19
ENDBRANCH   8  11
ENDBRANCH   3   7
BRANCH   1  21
HETATM   21  C   UNL     1      -6.582  -0.185 -34.279  1.00  0.00     0.181 A 
HETATM   22  N   UNL     1      -7.347  -1.161 -34.739  1.00  0.00    -0.221 NA
HETATM   23  C   UNL     1      -6.547  -2.274 -34.638  1.00  0.00     0.093 A 
HETATM   24  C   UNL     1      -5.312  -1.921 -34.127  1.00  0.00     0.107 A 
HETATM   25  C   UNL     1      -6.787  -3.620 -34.941  1.00  0.00     0.035 A 
HETATM   26  C   UNL     1      -4.263  -2.801 -33.888  1.00  0.00     0.046 A 
HETATM   27  O   UNL     1      -5.324  -0.582 -33.898  1.00  0.00    -0.289 OA
HETATM   28  C   UNL     1      -4.504  -4.148 -34.200  1.00  0.00    -0.059 A 
HETATM   29  C   UNL     1      -3.439  -5.171 -33.925  1.00  0.00     0.048 C 
HETATM   30  C   UNL     1      -5.755  -4.547 -34.709  1.00  0.00     0.009 A 
ENDBRANCH   1  21
TORSDOF 5
ENDMDL
MODEL 2
REMARK VINA RESULT:      -9.4      0.275      2.099
REMARK  5 active torsions:
REMARK  status: ('A' for Active; 'I' for Inactive)
REMARK    1  A    between atoms: C_7  and  C_8 
REMARK    2  A    between atoms: C_10  and  N_11 
REMARK       I    between atoms: N_11  and  C_12 
REMARK    3  A    between atoms: C_12  and  C_13 
REMARK    4  A    between atoms: C_15  and  O_16 
REMARK    5  A    between atoms: C_19  and  O_20 
ROOT
HETATM    1  C   UNL     1      -6.754   1.231 -33.963  1.00  0.00     0.019 A 
HETATM    2  C   UNL     1      -5.725   2.095 -33.552  1.00  0.00     0.045 A 
HETATM    3  C   UNL     1      -5.964   3.448 -33.285  1.00  0.00     0.035 A 
HETATM    4  C   UNL     1      -7.263   3.941 -33.434  1.00  0.00     0.029 A 
HETATM    5  C   UNL     1      -8.297   3.100 -33.856  1.00  0.00     0.003 A 
HETATM    6  C   UNL     1      -8.043   1.752 -34.117  1.00  0.00     0.016 A 
ENDROOT
BRANCH   3   7
HETATM    7  N   UNL     1      -4.965   4.332 -32.812  1.00  0.00    -0.323 N 
HETATM    8  C   UNL     1      -4.009   4.970 -33.589  1.00  0.00     0.256 C 
HETATM    9  O   UNL     1      -4.038   5.036 -34.815  1.00  0.00    -0.267 OA
HETATM   10  H   UNL     1      -4.986   4.512 -31.821  1.00  0.00     0.169 HD
BRANCH   8  11
HETATM   11  C   UNL     1      -2.855   5.627 -32.889  1.00  0.00     0.037 A 
HETATM   12  C   UNL     1      -2.908   7.030 -32.777  1.00  0.00     0.054 A 
HETATM   13  C   UNL     1      -1.863   7.744 -32.199  1.00  0.00     0.071 A 
HETATM   14  C   UNL     1      -0.756   7.047 -31.718  1.00  0.00     0.073 A 
HETATM   15  C   UNL     1      -0.684   5.654 -31.810  1.00  0.00     0.071 A 
HETATM   16  C   UNL     1      -1.733   4.943 -32.400  1.00  0.00     0.054 A 
BRANCH  13  17
HETATM   17  O   UNL     1      -1.801   9.102 -32.057  1.00  0.00    -0.356 OA
HETATM   18  C   UNL     1      -2.476   9.664 -30.936  1.00  0.00     0.210 C 
ENDBRANCH  13  17
BRANCH  15  19
HETATM   19  O   UNL     1       0.464   5.117 -31.296  1.00  0.00    -0.356 OA
HETATM   20  C   UNL     1       0.557   4.988 -29.883  1.00  0.00     0.210 C 
ENDBRANCH  15  19
ENDBRANCH   8  11
ENDBRANCH   3   7
BRANCH   1  21
HETATM   21  C   UNL     1      -6.497  -0.191 -34.189  1.00  0.00     0.181 A 
HETATM   22  N   UNL     1      -7.303  -1.130 -34.655  1.00  0.00    -0.221 NA
HETATM   23  C   UNL     1      -6.542  -2.272 -34.588  1.00  0.00     0.093 A 
HETATM   24  C   UNL     1      -5.287  -1.973 -34.091  1.00  0.00     0.107 A 
HETATM   25  C   UNL     1      -6.834  -3.603 -34.913  1.00  0.00     0.035 A 
HETATM   26  C   UNL     1      -4.266  -2.894 -33.886  1.00  0.00     0.046 A 
HETATM   27  O   UNL     1      -5.248  -0.639 -33.837  1.00  0.00    -0.289 OA
HETATM   28  C   UNL     1      -4.560  -4.225 -34.219  1.00  0.00    -0.059 A 
HETATM   29  C   UNL     1      -3.527  -5.291 -33.980  1.00  0.00     0.048 C 
HETATM   30  C   UNL     1      -5.832  -4.570 -34.715  1.00  0.00     0.009 A 
ENDBRANCH   1  21
TORSDOF 5
ENDMDL
MODEL 3
REMARK VINA RESULT:      -8.9      2.821     10.108
REMARK  5 active torsions:
REMARK  status: ('A' for Active; 'I' for Inactive)
REMARK    1  A    between atoms: C_7  and  C_8 
REMARK    2  A    between atoms: C_10  and  N_11 
REMARK       I    between atoms: N_11  and  C_12 
REMARK    3  A    between atoms: C_12  and  C_13 
REMARK    4  A    between atoms: C_15  and  O_16 
REMARK    5  A    between atoms: C_19  and  O_20 
ROOT
HETATM    1  C   UNL     1      -1.572   6.322 -31.777  1.00  0.00     0.019 A 
HETATM    2  C   UNL     1      -2.531   5.296 -31.721  1.00  0.00     0.045 A 
HETATM    3  C   UNL     1      -2.860   4.536 -32.849  1.00  0.00     0.035 A 
HETATM    4  C   UNL     1      -2.213   4.812 -34.056  1.00  0.00     0.029 A 
HETATM    5  C   UNL     1      -1.266   5.839 -34.135  1.00  0.00     0.003 A 
HETATM    6  C   UNL     1      -0.947   6.588 -33.001  1.00  0.00     0.016 A 
ENDROOT
BRANCH   3   7
HETATM    7  N   UNL     1      -3.776   3.457 -32.814  1.00  0.00    -0.323 N 
HETATM    8  C   UNL     1      -3.612   2.273 -32.109  1.00  0.00     0.256 C 
HETATM    9  O   UNL     1      -2.764   2.092 -31.239  1.00  0.00    -0.267 OA
HETATM   10  H   UNL     1      -4.622   3.596 -33.343  1.00  0.00     0.169 HD
BRANCH   8  11
HETATM   11  C   UNL     1      -4.532   1.131 -32.426  1.00  0.00     0.037 A 
HETATM   12  C   UNL     1      -3.920  -0.076 -32.817  1.00  0.00     0.054 A 
HETATM   13  C   UNL     1      -4.682  -1.179 -33.191  1.00  0.00     0.071 A 
HETATM   14  C   UNL     1      -6.071  -1.079 -33.161  1.00  0.00     0.073 A 
HETATM   15  C   UNL     1      -6.702   0.104 -32.767  1.00  0.00     0.071 A 
HETATM   16  C   UNL     1      -5.932   1.213 -32.403  1.00  0.00     0.054 A 
BRANCH  13  17
HETATM   17  O   UNL     1      -4.195  -2.387 -33.605  1.00  0.00    -0.356 OA
HETATM   18  C   UNL     1      -4.856  -3.007 -34.703  1.00  0.00     0.210 C 
ENDBRANCH  13  17
BRANCH  15  19
HETATM   19  O   UNL     1      -8.069   0.047 -32.794  1.00  0.00    -0.356 OA
HETATM   20  C   UNL     1      -8.776   0.712 -31.755  1.00  0.00     0.210 C 
ENDBRANCH  15  19
ENDBRANCH   8  11
ENDBRANCH   3   7
BRANCH   1  21
HETATM   21  C   UNL     1      -1.203   7.073 -30.578  1.00  0.00     0.181 A 
HETATM   22  N   UNL     1      -1.786   8.126 -30.029  1.00  0.00    -0.221 NA
HETATM   23  C   UNL     1      -0.968   8.433 -28.968  1.00  0.00     0.093 A 
HETATM   24  C   UNL     1       0.082   7.535 -28.909  1.00  0.00     0.107 A 
HETATM   25  C   UNL     1      -1.028   9.457 -28.015  1.00  0.00     0.035 A 
HETATM   26  C   UNL     1       1.101   7.555 -27.964  1.00  0.00     0.046 A 
HETATM   27  O   UNL     1      -0.063   6.656 -29.936  1.00  0.00    -0.289 OA
HETATM   28  C   UNL     1       1.033   8.579 -27.005  1.00  0.00    -0.059 A 
HETATM   29  C   UNL     1       2.123   8.700 -25.978  1.00  0.00     0.048 C 
HETATM   30  C   UNL     1      -0.014   9.519 -27.043  1.00  0.00     0.009 A 
ENDBRANCH   1  21
TORSDOF 5
ENDMDL
MODEL 4
REMARK VINA RESULT:      -8.7      2.651      4.934
REMARK  5 active torsions:
REMARK  status: ('A' for Active; 'I' for Inactive)
REMARK    1  A    between atoms: C_7  and  C_8 
REMARK    2  A    between atoms: C_10  and  N_11 
REMARK       I    between atoms: N_11  and  C_12 
REMARK    3  A    between atoms: C_12  and  C_13 
REMARK    4  A    between atoms: C_15  and  O_16 
REMARK    5  A    between atoms: C_19  and  O_20 
ROOT
HETATM    1  C   UNL     1      -7.635   1.383 -33.412  1.00  0.00     0.019 A 
HETATM    2  C   UNL     1      -6.818   2.463 -33.037  1.00  0.00     0.045 A 
HETATM    3  C   UNL     1      -5.471   2.284 -32.705  1.00  0.00     0.035 A 
HETATM    4  C   UNL     1      -4.935   0.995 -32.749  1.00  0.00     0.029 A 
HETATM    5  C   UNL     1      -5.736  -0.095 -33.106  1.00  0.00     0.003 A 
HETATM    6  C   UNL     1      -7.078   0.100 -33.437  1.00  0.00     0.016 A 
ENDROOT
BRANCH   3   7
HETATM    7  N   UNL     1      -4.604   3.356 -32.381  1.00  0.00    -0.323 N 
HETATM    8  C   UNL     1      -4.198   4.363 -33.245  1.00  0.00     0.256 C 
HETATM    9  O   UNL     1      -4.710   4.593 -34.337  1.00  0.00    -0.267 OA
HETATM   10  H   UNL     1      -4.284   3.375 -31.426  1.00  0.00     0.169 HD
BRANCH   8  11
HETATM   11  C   UNL     1      -3.052   5.235 -32.822  1.00  0.00     0.037 A 
HETATM   12  C   UNL     1      -1.917   4.574 -32.314  1.00  0.00     0.054 A 
HETATM   13  C   UNL     1      -0.823   5.290 -31.838  1.00  0.00     0.071 A 
HETATM   14  C   UNL     1      -0.859   6.682 -31.881  1.00  0.00     0.073 A 
HETATM   15  C   UNL     1      -1.970   7.361 -32.389  1.00  0.00     0.071 A 
HETATM   16  C   UNL     1      -3.070   6.637 -32.857  1.00  0.00     0.054 A 
BRANCH  13  17
HETATM   17  O   UNL     1       0.317   4.754 -31.308  1.00  0.00    -0.356 OA
HETATM   18  C   UNL     1       0.563   4.998 -29.927  1.00  0.00     0.210 C 
ENDBRANCH  13  17
BRANCH  15  19
HETATM   19  O   UNL     1      -1.856   8.724 -32.361  1.00  0.00    -0.356 OA
HETATM   20  C   UNL     1      -2.259   9.395 -31.174  1.00  0.00     0.210 C 
ENDBRANCH  15  19
ENDBRANCH   8  11
ENDBRANCH   3   7
BRANCH   1  21
HETATM   21  C   UNL     1      -9.028   1.595 -33.806  1.00  0.00     0.181 A 
HETATM   22  N   UNL     1      -9.578   2.613 -34.447  1.00  0.00    -0.221 NA
HETATM   23  C   UNL     1     -10.914   2.291 -34.480  1.00  0.00     0.093 A 
HETATM   24  C   UNL     1     -11.119   1.071 -33.863  1.00  0.00     0.107 A 
HETATM   25  C   UNL     1     -12.021   2.975 -34.997  1.00  0.00     0.035 A 
HETATM   26  C   UNL     1     -12.352   0.447 -33.712  1.00  0.00     0.046 A 
HETATM   27  O   UNL     1      -9.913   0.615 -33.432  1.00  0.00    -0.289 OA
HETATM   28  C   UNL     1     -13.458   1.133 -34.238  1.00  0.00    -0.059 A 
HETATM   29  C   UNL     1     -14.833   0.549 -34.073  1.00  0.00     0.048 C 
HETATM   30  C   UNL     1     -13.289   2.384 -34.861  1.00  0.00     0.009 A 
ENDBRANCH   1  21
TORSDOF 5
ENDMDL
MODEL 5
REMARK VINA RESULT:      -8.6      3.611      9.516
REMARK  5 active torsions:
REMARK  status: ('A' for Active; 'I' for Inactive)
REMARK    1  A    between atoms: C_7  and  C_8 
REMARK    2  A    between atoms: C_10  and  N_11 
REMARK       I    between atoms: N_11  and  C_12 
REMARK    3  A    between atoms: C_12  and  C_13 
REMARK    4  A    between atoms: C_15  and  O_16 
REMARK    5  A    between atoms: C_19  and  O_20 
ROOT
HETATM    1  C   UNL     1      -4.589   2.015 -32.337  1.00  0.00     0.019 A 
HETATM    2  C   UNL     1      -5.981   2.120 -32.496  1.00  0.00     0.045 A 
HETATM    3  C   UNL     1      -6.823   1.011 -32.353  1.00  0.00     0.035 A 
HETATM    4  C   UNL     1      -6.254  -0.227 -32.043  1.00  0.00     0.029 A 
HETATM    5  C   UNL     1      -4.869  -0.354 -31.895  1.00  0.00     0.003 A 
HETATM    6  C   UNL     1      -4.043   0.762 -32.039  1.00  0.00     0.016 A 
ENDROOT
BRANCH   3   7
HETATM    7  N   UNL     1      -8.233   1.092 -32.447  1.00  0.00    -0.323 N 
HETATM    8  C   UNL     1      -8.984   0.901 -33.599  1.00  0.00     0.256 C 
HETATM    9  O   UNL     1      -8.551   0.413 -34.639  1.00  0.00    -0.267 OA
HETATM   10  H   UNL     1      -8.710   1.288 -31.582  1.00  0.00     0.169 HD
BRANCH   8  11
HETATM   11  C   UNL     1     -10.425   1.318 -33.578  1.00  0.00     0.037 A 
HETATM   12  C   UNL     1     -10.676   2.698 -33.449  1.00  0.00     0.054 A 
HETATM   13  C   UNL     1     -11.976   3.186 -33.360  1.00  0.00     0.071 A 
HETATM   14  C   UNL     1     -13.038   2.286 -33.410  1.00  0.00     0.073 A 
HETATM   15  C   UNL     1     -12.816   0.913 -33.547  1.00  0.00     0.071 A 
HETATM   16  C   UNL     1     -11.507   0.427 -33.626  1.00  0.00     0.054 A 
BRANCH  13  17
HETATM   17  O   UNL     1     -12.332   4.498 -33.214  1.00  0.00    -0.356 OA
HETATM   18  C   UNL     1     -12.986   5.115 -34.317  1.00  0.00     0.210 C 
ENDBRANCH  13  17
BRANCH  15  19
HETATM   19  O   UNL     1     -13.957   0.160 -33.578  1.00  0.00    -0.356 OA
HETATM   20  C   UNL     1     -15.069   0.679 -34.298  1.00  0.00     0.210 C 
ENDBRANCH  15  19
ENDBRANCH   8  11
ENDBRANCH   3   7
BRANCH   1  21
HETATM   21  C   UNL     1      -3.729   3.193 -32.440  1.00  0.00     0.181 A 
HETATM   22  N   UNL     1      -3.706   4.143 -33.361  1.00  0.00    -0.221 NA
HETATM   23  C   UNL     1      -2.659   4.944 -32.973  1.00  0.00     0.093 A 
HETATM   24  C   UNL     1      -2.092   4.449 -31.812  1.00  0.00     0.107 A 
HETATM   25  C   UNL     1      -2.111   6.098 -33.547  1.00  0.00     0.035 A 
HETATM   26  C   UNL     1      -1.008   5.010 -31.148  1.00  0.00     0.046 A 
HETATM   27  O   UNL     1      -2.776   3.329 -31.461  1.00  0.00    -0.289 OA
HETATM   28  C   UNL     1      -0.466   6.171 -31.722  1.00  0.00    -0.059 A 
HETATM   29  C   UNL     1       0.739   6.811 -31.093  1.00  0.00     0.048 C 
HETATM   30  C   UNL     1      -1.007   6.695 -32.911  1.00  0.00     0.009 A 
ENDBRANCH   1  21
TORSDOF 5
ENDMDL
MODEL 6
REMARK VINA RESULT:      -8.6      3.029     10.227
REMARK  5 active torsions:
REMARK  status: ('A' for Active; 'I' for Inactive)
REMARK    1  A    between atoms: C_7  and  C_8 
REMARK    2  A    between atoms: C_10  and  N_11 
REMARK       I    between atoms: N_11  and  C_12 
REMARK    3  A    between atoms: C_12  and  C_13 
REMARK    4  A    between atoms: C_15  and  O_16 
REMARK    5  A    between atoms: C_19  and  O_20 
ROOT
HETATM    1  C   UNL     1      -1.293   6.256 -31.845  1.00  0.00     0.019 A 
HETATM    2  C   UNL     1      -2.192   5.177 -31.812  1.00  0.00     0.045 A 
HETATM    3  C   UNL     1      -2.625   4.546 -32.984  1.00  0.00     0.035 A 
HETATM    4  C   UNL     1      -2.146   5.010 -34.212  1.00  0.00     0.029 A 
HETATM    5  C   UNL     1      -1.262   6.093 -34.265  1.00  0.00     0.003 A 
HETATM    6  C   UNL     1      -0.838   6.710 -33.087  1.00  0.00     0.016 A 
ENDROOT
BRANCH   3   7
HETATM    7  N   UNL     1      -3.482   3.419 -32.985  1.00  0.00    -0.323 N 
HETATM    8  C   UNL     1      -3.369   2.310 -32.159  1.00  0.00     0.256 C 
HETATM    9  O   UNL     1      -2.653   2.253 -31.164  1.00  0.00    -0.267 OA
HETATM   10  H   UNL     1      -4.246   3.462 -33.641  1.00  0.00     0.169 HD
BRANCH   8  11
HETATM   11  C   UNL     1      -4.174   1.091 -32.502  1.00  0.00     0.037 A 
HETATM   12  C   UNL     1      -5.572   1.256 -32.543  1.00  0.00     0.054 A 
HETATM   13  C   UNL     1      -6.416   0.177 -32.792  1.00  0.00     0.071 A 
HETATM   14  C   UNL     1      -5.855  -1.079 -33.013  1.00  0.00     0.073 A 
HETATM   15  C   UNL     1      -4.470  -1.267 -32.987  1.00  0.00     0.071 A 
HETATM   16  C   UNL     1      -3.628  -0.182 -32.727  1.00  0.00     0.054 A 
BRANCH  13  17
HETATM   17  O   UNL     1      -7.781   0.220 -32.835  1.00  0.00    -0.356 OA
HETATM   18  C   UNL     1      -8.448   0.714 -31.679  1.00  0.00     0.210 C 
ENDBRANCH  13  17
BRANCH  15  19
HETATM   19  O   UNL     1      -4.074  -2.555 -33.219  1.00  0.00    -0.356 OA
HETATM   20  C   UNL     1      -4.599  -3.209 -34.367  1.00  0.00     0.210 C 
ENDBRANCH  15  19
ENDBRANCH   8  11
ENDBRANCH   3   7
BRANCH   1  21
HETATM   21  C   UNL     1      -0.811   6.871 -30.608  1.00  0.00     0.181 A 
HETATM   22  N   UNL     1       0.427   7.146 -30.230  1.00  0.00    -0.221 NA
HETATM   23  C   UNL     1       0.272   7.654 -28.962  1.00  0.00     0.093 A 
HETATM   24  C   UNL     1      -1.069   7.678 -28.626  1.00  0.00     0.107 A 
HETATM   25  C   UNL     1       1.208   8.104 -28.023  1.00  0.00     0.035 A 
HETATM   26  C   UNL     1      -1.582   8.125 -27.414  1.00  0.00     0.046 A 
HETATM   27  O   UNL     1      -1.771   7.182 -29.678  1.00  0.00    -0.289 OA
HETATM   28  C   UNL     1      -0.642   8.583 -26.477  1.00  0.00    -0.059 A 
HETATM   29  C   UNL     1      -1.111   9.037 -25.123  1.00  0.00     0.048 C 
HETATM   30  C   UNL     1       0.732   8.560 -26.779  1.00  0.00     0.009 A 
ENDBRANCH   1  21
TORSDOF 5
ENDMDL
MODEL 7
REMARK VINA RESULT:      -8.5      4.492      9.023
REMARK  5 active torsions:
REMARK  status: ('A' for Active; 'I' for Inactive)
REMARK    1  A    between atoms: C_7  and  C_8 
REMARK    2  A    between atoms: C_10  and  N_11 
REMARK       I    between atoms: N_11  and  C_12 
REMARK    3  A    between atoms: C_12  and  C_13 
REMARK    4  A    between atoms: C_15  and  O_16 
REMARK    5  A    between atoms: C_19  and  O_20 
ROOT
HETATM    1  C   UNL     1     -10.500   3.304 -33.461  1.00  0.00     0.019 A 
HETATM    2  C   UNL     1      -9.544   2.275 -33.414  1.00  0.00     0.045 A 
HETATM    3  C   UNL     1      -8.188   2.522 -33.651  1.00  0.00     0.035 A 
HETATM    4  C   UNL     1      -7.784   3.828 -33.939  1.00  0.00     0.029 A 
HETATM    5  C   UNL     1      -8.723   4.863 -34.004  1.00  0.00     0.003 A 
HETATM    6  C   UNL     1     -10.073   4.601 -33.765  1.00  0.00     0.016 A 
ENDROOT
BRANCH   3   7
HETATM    7  N   UNL     1      -7.190   1.522 -33.553  1.00  0.00    -0.323 N 
HETATM    8  C   UNL     1      -6.826   0.635 -34.556  1.00  0.00     0.256 C 
HETATM    9  O   UNL     1      -7.155   0.743 -35.734  1.00  0.00    -0.267 OA
HETATM   10  H   UNL     1      -6.704   1.487 -32.671  1.00  0.00     0.169 HD
BRANCH   8  11
HETATM   11  C   UNL     1      -5.970  -0.540 -34.182  1.00  0.00     0.037 A 
HETATM   12  C   UNL     1      -4.882  -0.275 -33.328  1.00  0.00     0.054 A 
HETATM   13  C   UNL     1      -3.991  -1.281 -32.967  1.00  0.00     0.071 A 
HETATM   14  C   UNL     1      -4.196  -2.569 -33.457  1.00  0.00     0.073 A 
HETATM   15  C   UNL     1      -5.274  -2.859 -34.298  1.00  0.00     0.071 A 
HETATM   16  C   UNL     1      -6.160  -1.842 -34.666  1.00  0.00     0.054 A 
BRANCH  13  17
HETATM   17  O   UNL     1      -2.896  -1.132 -32.163  1.00  0.00    -0.356 OA
HETATM   18  C   UNL     1      -2.933  -0.074 -31.211  1.00  0.00     0.210 C 
ENDBRANCH  13  17
BRANCH  15  19
HETATM   19  O   UNL     1      -5.338  -4.166 -34.697  1.00  0.00    -0.356 OA
HETATM   20  C   UNL     1      -6.453  -4.559 -35.488  1.00  0.00     0.210 C 
ENDBRANCH  15  19
ENDBRANCH   8  11
ENDBRANCH   3   7
BRANCH   1  21
HETATM   21  C   UNL     1     -11.907   3.037 -33.161  1.00  0.00     0.181 A 
HETATM   22  N   UNL     1     -12.604   1.923 -33.308  1.00  0.00    -0.221 NA
HETATM   23  C   UNL     1     -13.874   2.284 -32.926  1.00  0.00     0.093 A 
HETATM   24  C   UNL     1     -13.892   3.613 -32.547  1.00  0.00     0.107 A 
HETATM   25  C   UNL     1     -15.071   1.558 -32.881  1.00  0.00     0.035 A 
HETATM   26  C   UNL     1     -15.015   4.307 -32.111  1.00  0.00     0.046 A 
HETATM   27  O   UNL     1     -12.633   4.104 -32.691  1.00  0.00    -0.289 OA
HETATM   28  C   UNL     1     -16.211   3.575 -32.060  1.00  0.00    -0.059 A 
HETATM   29  C   UNL     1     -17.481   4.264 -31.646  1.00  0.00     0.048 C 
HETATM   30  C   UNL     1     -16.234   2.223 -32.451  1.00  0.00     0.009 A 
ENDBRANCH   1  21
TORSDOF 5
ENDMDL
MODEL 8
REMARK VINA RESULT:      -8.4      3.686      9.397
REMARK  5 active torsions:
REMARK  status: ('A' for Active; 'I' for Inactive)
REMARK    1  A    between atoms: C_7  and  C_8 
REMARK    2  A    between atoms: C_10  and  N_11 
REMARK       I    between atoms: N_11  and  C_12 
REMARK    3  A    between atoms: C_12  and  C_13 
REMARK    4  A    between atoms: C_15  and  O_16 
REMARK    5  A    between atoms: C_19  and  O_20 
ROOT
HETATM    1  C   UNL     1      -4.846   2.255 -32.310  1.00  0.00     0.019 A 
HETATM    2  C   UNL     1      -6.197   2.433 -32.653  1.00  0.00     0.045 A 
HETATM    3  C   UNL     1      -7.142   1.418 -32.466  1.00  0.00     0.035 A 
HETATM    4  C   UNL     1      -6.721   0.201 -31.924  1.00  0.00     0.029 A 
HETATM    5  C   UNL     1      -5.378   0.000 -31.590  1.00  0.00     0.003 A 
HETATM    6  C   UNL     1      -4.447   1.023 -31.781  1.00  0.00     0.016 A 
ENDROOT
BRANCH   3   7
HETATM    7  N   UNL     1      -8.521   1.583 -32.744  1.00  0.00    -0.323 N 
HETATM    8  C   UNL     1      -9.140   1.343 -33.963  1.00  0.00     0.256 C 
HETATM    9  O   UNL     1      -8.623   0.740 -34.899  1.00  0.00    -0.267 OA
HETATM   10  H   UNL     1      -9.082   1.884 -31.963  1.00  0.00     0.169 HD
BRANCH   8  11
HETATM   11  C   UNL     1     -10.537   1.854 -34.156  1.00  0.00     0.037 A 
HETATM   12  C   UNL     1     -11.576   1.035 -33.671  1.00  0.00     0.054 A 
HETATM   13  C   UNL     1     -12.910   1.386 -33.851  1.00  0.00     0.071 A 
HETATM   14  C   UNL     1     -13.211   2.573 -34.515  1.00  0.00     0.073 A 
HETATM   15  C   UNL     1     -12.198   3.407 -34.997  1.00  0.00     0.071 A 
HETATM   16  C   UNL     1     -10.859   3.045 -34.822  1.00  0.00     0.054 A 
BRANCH  13  17
HETATM   17  O   UNL     1     -13.993   0.659 -33.440  1.00  0.00    -0.356 OA
HETATM   18  C   UNL     1     -15.093   0.577 -34.340  1.00  0.00     0.210 C 
ENDBRANCH  13  17
BRANCH  15  19
HETATM   19  O   UNL     1     -12.652   4.533 -35.627  1.00  0.00    -0.356 OA
HETATM   20  C   UNL     1     -13.172   5.578 -34.815  1.00  0.00     0.210 C 
ENDBRANCH  15  19
ENDBRANCH   8  11
ENDBRANCH   3   7
BRANCH   1  21
HETATM   21  C   UNL     1      -3.881   3.343 -32.465  1.00  0.00     0.181 A 
HETATM   22  N   UNL     1      -3.674   4.147 -33.495  1.00  0.00    -0.221 NA
HETATM   23  C   UNL     1      -2.611   4.920 -33.093  1.00  0.00     0.093 A 
HETATM   24  C   UNL     1      -2.222   4.558 -31.816  1.00  0.00     0.107 A 
HETATM   25  C   UNL     1      -1.905   5.939 -33.745  1.00  0.00     0.035 A 
HETATM   26  C   UNL     1      -1.174   5.131 -31.106  1.00  0.00     0.046 A 
HETATM   27  O   UNL     1      -3.035   3.550 -31.404  1.00  0.00    -0.289 OA
HETATM   28  C   UNL     1      -0.473   6.156 -31.760  1.00  0.00    -0.059 A 
HETATM   29  C   UNL     1       0.706   6.794 -31.079  1.00  0.00     0.048 C 
HETATM   30  C   UNL     1      -0.831   6.542 -33.065  1.00  0.00     0.009 A 
ENDBRANCH   1  21
TORSDOF 5
ENDMDL
MODEL 9
REMARK VINA RESULT:      -8.3      2.969      5.648
REMARK  5 active torsions:
REMARK  status: ('A' for Active; 'I' for Inactive)
REMARK    1  A    between atoms: C_7  and  C_8 
REMARK    2  A    between atoms: C_10  and  N_11 
REMARK       I    between atoms: N_11  and  C_12 
REMARK    3  A    between atoms: C_12  and  C_13 
REMARK    4  A    between atoms: C_15  and  O_16 
REMARK    5  A    between atoms: C_19  and  O_20 
ROOT
HETATM    1  C   UNL     1      -8.176   1.548 -33.233  1.00  0.00     0.019 A 
HETATM    2  C   UNL     1      -7.273   2.530 -32.792  1.00  0.00     0.045 A 
HETATM    3  C   UNL     1      -5.891   2.311 -32.796  1.00  0.00     0.035 A 
HETATM    4  C   UNL     1      -5.408   1.081 -33.252  1.00  0.00     0.029 A 
HETATM    5  C   UNL     1      -6.293   0.087 -33.681  1.00  0.00     0.003 A 
HETATM    6  C   UNL     1      -7.669   0.321 -33.672  1.00  0.00     0.016 A 
ENDROOT
BRANCH   3   7
HETATM    7  N   UNL     1      -4.949   3.297 -32.416  1.00  0.00    -0.323 N 
HETATM    8  C   UNL     1      -4.397   4.259 -33.251  1.00  0.00     0.256 C 
HETATM    9  O   UNL     1      -4.816   4.532 -34.372  1.00  0.00    -0.267 OA
HETATM   10  H   UNL     1      -4.690   3.290 -31.443  1.00  0.00     0.169 HD
BRANCH   8  11
HETATM   11  C   UNL     1      -3.203   5.021 -32.754  1.00  0.00     0.037 A 
HETATM   12  C   UNL     1      -3.294   6.426 -32.803  1.00  0.00     0.054 A 
HETATM   13  C   UNL     1      -2.222   7.228 -32.422  1.00  0.00     0.071 A 
HETATM   14  C   UNL     1      -1.050   6.620 -31.979  1.00  0.00     0.073 A 
HETATM   15  C   UNL     1      -0.939   5.228 -31.913  1.00  0.00     0.071 A 
HETATM   16  C   UNL     1      -2.015   4.427 -32.305  1.00  0.00     0.054 A 
BRANCH  13  17
HETATM   17  O   UNL     1      -2.194   8.595 -32.448  1.00  0.00    -0.356 OA
HETATM   18  C   UNL     1      -2.295   9.265 -31.196  1.00  0.00     0.210 C 
ENDBRANCH  13  17
BRANCH  15  19
HETATM   19  O   UNL     1       0.273   4.783 -31.460  1.00  0.00    -0.356 OA
HETATM   20  C   UNL     1       0.767   5.338 -30.248  1.00  0.00     0.210 C 
ENDBRANCH  15  19
ENDBRANCH   8  11
ENDBRANCH   3   7
BRANCH   1  21
HETATM   21  C   UNL     1      -9.615   1.812 -33.270  1.00  0.00     0.181 A 
HETATM   22  N   UNL     1     -10.302   2.813 -32.746  1.00  0.00    -0.221 NA
HETATM   23  C   UNL     1     -11.607   2.501 -33.045  1.00  0.00     0.093 A 
HETATM   24  C   UNL     1     -11.656   1.316 -33.757  1.00  0.00     0.107 A 
HETATM   25  C   UNL     1     -12.810   3.152 -32.744  1.00  0.00     0.035 A 
HETATM   26  C   UNL     1     -12.817   0.704 -34.214  1.00  0.00     0.046 A 
HETATM   27  O   UNL     1     -10.381   0.870 -33.909  1.00  0.00    -0.289 OA
HETATM   28  C   UNL     1     -14.020   1.363 -33.917  1.00  0.00    -0.059 A 
HETATM   29  C   UNL     1     -15.324   0.742 -34.333  1.00  0.00     0.048 C 
HETATM   30  C   UNL     1     -14.010   2.564 -33.182  1.00  0.00     0.009 A 
ENDBRANCH   1  21
TORSDOF 5
ENDMDL
MODEL 10
REMARK VINA RESULT:      -8.2      1.647      2.077
REMARK  5 active torsions:
REMARK  status: ('A' for Active; 'I' for Inactive)
REMARK    1  A    between atoms: C_7  and  C_8 
REMARK    2  A    between atoms: C_10  and  N_11 
REMARK       I    between atoms: N_11  and  C_12 
REMARK    3  A    between atoms: C_12  and  C_13 
REMARK    4  A    between atoms: C_15  and  O_16 
REMARK    5  A    between atoms: C_19  and  O_20 
ROOT
HETATM    1  C   UNL     1      -7.243   1.282 -34.174  1.00  0.00     0.019 A 
HETATM    2  C   UNL     1      -6.323   2.289 -33.834  1.00  0.00     0.045 A 
HETATM    3  C   UNL     1      -6.728   3.611 -33.621  1.00  0.00     0.035 A 
HETATM    4  C   UNL     1      -8.082   3.928 -33.752  1.00  0.00     0.029 A 
HETATM    5  C   UNL     1      -9.010   2.942 -34.104  1.00  0.00     0.003 A 
HETATM    6  C   UNL     1      -8.592   1.627 -34.312  1.00  0.00     0.016 A 
ENDROOT
BRANCH   3   7
HETATM    7  N   UNL     1      -5.839   4.637 -33.219  1.00  0.00    -0.323 N 
HETATM    8  C   UNL     1      -5.423   4.890 -31.919  1.00  0.00     0.256 C 
HETATM    9  O   UNL     1      -5.585   4.124 -30.974  1.00  0.00    -0.267 OA
HETATM   10  H   UNL     1      -5.477   5.207 -33.966  1.00  0.00     0.169 HD
BRANCH   8  11
HETATM   11  C   UNL     1      -4.726   6.190 -31.643  1.00  0.00     0.037 A 
HETATM   12  C   UNL     1      -3.654   6.519 -32.496  1.00  0.00     0.054 A 
HETATM   13  C   UNL     1      -2.902   7.672 -32.292  1.00  0.00     0.071 A 
HETATM   14  C   UNL     1      -3.231   8.511 -31.229  1.00  0.00     0.073 A 
HETATM   15  C   UNL     1      -4.295   8.211 -30.375  1.00  0.00     0.071 A 
HETATM   16  C   UNL     1      -5.041   7.047 -30.579  1.00  0.00     0.054 A 
BRANCH  13  17
HETATM   17  O   UNL     1      -1.834   8.077 -33.043  1.00  0.00    -0.356 OA
HETATM   18  C   UNL     1      -0.955   7.060 -33.513  1.00  0.00     0.210 C 
ENDBRANCH  13  17
BRANCH  15  19
HETATM   19  O   UNL     1      -4.491   9.129 -29.379  1.00  0.00    -0.356 OA
HETATM   20  C   UNL     1      -3.804  10.370 -29.483  1.00  0.00     0.210 C 
ENDBRANCH  15  19
ENDBRANCH   8  11
ENDBRANCH   3   7
BRANCH   1  21
HETATM   21  C   UNL     1      -6.811  -0.105 -34.342  1.00  0.00     0.181 A 
HETATM   22  N   UNL     1      -7.474  -1.142 -34.829  1.00  0.00    -0.221 NA
HETATM   23  C   UNL     1      -6.593  -2.186 -34.683  1.00  0.00     0.093 A 
HETATM   24  C   UNL     1      -5.414  -1.733 -34.121  1.00  0.00     0.107 A 
HETATM   25  C   UNL     1      -6.710  -3.549 -34.986  1.00  0.00     0.035 A 
HETATM   26  C   UNL     1      -4.310  -2.524 -33.828  1.00  0.00     0.046 A 
HETATM   27  O   UNL     1      -5.544  -0.398 -33.903  1.00  0.00    -0.289 OA
HETATM   28  C   UNL     1      -4.429  -3.888 -34.139  1.00  0.00    -0.059 A 
HETATM   29  C   UNL     1      -3.298  -4.821 -33.809  1.00  0.00     0.048 C 
HETATM   30  C   UNL     1      -5.619  -4.388 -34.700  1.00  0.00     0.009 A 
ENDBRANCH   1  21
TORSDOF 5
ENDMDL
