MODEL 1
REMARK VINA RESULT:      -8.0      0.000      0.000
REMARK  11 active torsions:
REMARK  status: ('A' for Active; 'I' for Inactive)
REMARK    1  A    between atoms: N_2  and  C_4 
REMARK    2  A    between atoms: C_4  and  C_5 
REMARK    3  A    between atoms: C_5  and  C_6 
REMARK    4  A    between atoms: C_6  and  N_7 
REMARK    5  A    between atoms: N_7  and  C_8 
REMARK    6  A    between atoms: N_7  and  C_21 
REMARK    7  A    between atoms: C_8  and  N_9 
REMARK    8  A    between atoms: N_9  and  C_10 
REMARK    9  A    between atoms: C_11  and  C_12 
REMARK   10  A    between atoms: C_12  and  O_13 
REMARK   11  A    between atoms: C_21  and  C_22 
ROOT
HETATM    1  N   UNL     1      -7.840   2.010 -32.223  1.00  0.00    -0.354 N 
ENDROOT
BRANCH   1   2
HETATM    2  C   UNL     1      -8.267   3.024 -31.237  1.00  0.00     0.127 C 
BRANCH   2   3
HETATM    3  C   UNL     1      -7.457   3.076 -29.933  1.00  0.00     0.047 C 
BRANCH   3   4
HETATM    4  C   UNL     1      -7.436   4.460 -29.290  1.00  0.00     0.235 C 
BRANCH   4   5
HETATM    5  N   UNL     1      -6.532   5.392 -30.085  1.00  0.00    -0.079 N 
HETATM    6  C   UNL     1      -5.259   5.752 -29.371  1.00  0.00     0.269 C 
HETATM    7  H   UNL     1      -6.272   4.896 -30.948  1.00  0.00     0.278 HD
HETATM    8  C   UNL     1      -7.275   6.624 -30.534  1.00  0.00     0.269 C 
ENDBRANCH   4   5
ENDBRANCH   3   4
ENDBRANCH   2   3
ENDBRANCH   1   2
BRANCH   1   9
HETATM    9  C   UNL     1      -8.256   0.649 -32.210  1.00  0.00     0.174 C 
HETATM   10  S   UNL     1      -9.772   0.192 -32.755  1.00  0.00    -0.041 SA
BRANCH   9  11
HETATM   11  N   UNL     1      -7.274  -0.182 -31.688  1.00  0.00    -0.332 N 
HETATM   12  H   UNL     1      -7.663  -1.055 -31.334  1.00  0.00     0.168 HD
BRANCH  11  13
HETATM   13  C   UNL     1      -5.869  -0.277 -31.899  1.00  0.00     0.050 A 
HETATM   14  C   UNL     1      -5.398  -0.730 -33.161  1.00  0.00     0.066 A 
HETATM   15  C   UNL     1      -4.018  -0.815 -33.414  1.00  0.00     0.020 A 
HETATM   16  C   UNL     1      -3.101  -0.466 -32.427  1.00  0.00     0.001 A 
HETATM   17  C   UNL     1      -3.555  -0.051 -31.180  1.00  0.00     0.002 A 
HETATM   18  C   UNL     1      -4.926   0.034 -30.915  1.00  0.00     0.030 A 
BRANCH  14  19
HETATM   19  C   UNL     1      -6.365  -1.115 -34.231  1.00  0.00     0.295 C 
HETATM   20  O   UNL     1      -6.523  -0.444 -35.243  1.00  0.00    -0.259 OA
BRANCH  19  21
HETATM   21  O   UNL     1      -6.970  -2.291 -33.952  1.00  0.00    -0.322 OA
HETATM   22  C   UNL     1      -6.578  -3.386 -34.786  1.00  0.00     0.213 C 
ENDBRANCH  19  21
ENDBRANCH  14  19
ENDBRANCH  11  13
ENDBRANCH   9  11
ENDBRANCH   1   9
BRANCH   1  23
HETATM   23  C   UNL     1      -7.279   2.571 -33.488  1.00  0.00     0.169 C 
BRANCH  23  24
HETATM   24  C   UNL     1      -6.093   3.484 -33.262  1.00  0.00     0.029 A 
HETATM   25  C   UNL     1      -6.324   4.899 -33.705  1.00  0.00     0.253 A 
HETATM   26  O   UNL     1      -7.368   5.220 -34.265  1.00  0.00    -0.268 OA
HETATM   27  N   UNL     1      -5.326   5.809 -33.470  1.00  0.00    -0.322 N 
HETATM   28  C   UNL     1      -4.112   5.493 -32.848  1.00  0.00     0.048 A 
HETATM   29  H   UNL     1      -5.513   6.760 -33.764  1.00  0.00     0.169 HD
HETATM   30  C   UNL     1      -3.879   4.171 -32.460  1.00  0.00    -0.006 A 
HETATM   31  C   UNL     1      -3.159   6.482 -32.607  1.00  0.00     0.070 A 
HETATM   32  C   UNL     1      -2.683   3.830 -31.823  1.00  0.00     0.053 A 
HETATM   33  C   UNL     1      -4.911   3.168 -32.704  1.00  0.00     0.028 A 
HETATM   34  C   UNL     1      -1.725   4.813 -31.583  1.00  0.00     0.103 A 
HETATM   35  C   UNL     1      -1.972   6.139 -31.954  1.00  0.00     0.104 A 
HETATM   36  O   UNL     1      -0.575   4.401 -30.961  1.00  0.00    -0.346 OA
HETATM   37  O   UNL     1      -1.088   7.157 -31.704  1.00  0.00    -0.346 OA
HETATM   38  C   UNL     1      -0.121   6.777 -30.718  1.00  0.00     0.202 C 
HETATM   39  C   UNL     1       0.448   5.403 -31.028  1.00  0.00     0.202 C 
ENDBRANCH  23  24
ENDBRANCH   1  23
TORSDOF 11
ENDMDL
MODEL 2
REMARK VINA RESULT:      -7.7      2.055      3.648
REMARK  11 active torsions:
REMARK  status: ('A' for Active; 'I' for Inactive)
REMARK    1  A    between atoms: N_2  and  C_4 
REMARK    2  A    between atoms: C_4  and  C_5 
REMARK    3  A    between atoms: C_5  and  C_6 
REMARK    4  A    between atoms: C_6  and  N_7 
REMARK    5  A    between atoms: N_7  and  C_8 
REMARK    6  A    between atoms: N_7  and  C_21 
REMARK    7  A    between atoms: C_8  and  N_9 
REMARK    8  A    between atoms: N_9  and  C_10 
REMARK    9  A    between atoms: C_11  and  C_12 
REMARK   10  A    between atoms: C_12  and  O_13 
REMARK   11  A    between atoms: C_21  and  C_22 
ROOT
HETATM    1  N   UNL     1      -7.412   1.738 -32.881  1.00  0.00    -0.354 N 
ENDROOT
BRANCH   1   2
HETATM    2  C   UNL     1      -8.755   2.194 -32.466  1.00  0.00     0.127 C 
BRANCH   2   3
HETATM    3  C   UNL     1      -9.844   2.149 -33.549  1.00  0.00     0.047 C 
BRANCH   3   4
HETATM    4  C   UNL     1     -10.693   0.882 -33.498  1.00  0.00     0.235 C 
BRANCH   4   5
HETATM    5  N   UNL     1     -12.140   1.236 -33.183  1.00  0.00    -0.079 N 
HETATM    6  C   UNL     1     -13.140   0.329 -33.843  1.00  0.00     0.269 C 
HETATM    7  H   UNL     1     -12.260   1.138 -32.166  1.00  0.00     0.278 HD
HETATM    8  C   UNL     1     -12.429   2.683 -33.488  1.00  0.00     0.269 C 
ENDBRANCH   4   5
ENDBRANCH   3   4
ENDBRANCH   2   3
ENDBRANCH   1   2
BRANCH   1   9
HETATM    9  C   UNL     1      -6.863   0.463 -32.568  1.00  0.00     0.174 C 
HETATM   10  S   UNL     1      -6.907  -0.152 -31.010  1.00  0.00    -0.041 SA
BRANCH   9  11
HETATM   11  N   UNL     1      -6.303  -0.142 -33.685  1.00  0.00    -0.332 N 
HETATM   12  H   UNL     1      -5.765   0.517 -34.247  1.00  0.00     0.168 HD
BRANCH  11  13
HETATM   13  C   UNL     1      -5.971  -1.492 -33.994  1.00  0.00     0.050 A 
HETATM   14  C   UNL     1      -4.658  -1.954 -33.707  1.00  0.00     0.066 A 
HETATM   15  C   UNL     1      -4.300  -3.286 -33.977  1.00  0.00     0.020 A 
HETATM   16  C   UNL     1      -5.225  -4.161 -34.538  1.00  0.00     0.001 A 
HETATM   17  C   UNL     1      -6.502  -3.707 -34.851  1.00  0.00     0.002 A 
HETATM   18  C   UNL     1      -6.868  -2.383 -34.590  1.00  0.00     0.030 A 
BRANCH  14  19
HETATM   19  C   UNL     1      -3.649  -1.030 -33.111  1.00  0.00     0.295 C 
HETATM   20  O   UNL     1      -3.091  -0.158 -33.766  1.00  0.00    -0.259 OA
BRANCH  19  21
HETATM   21  O   UNL     1      -3.491  -1.255 -31.788  1.00  0.00    -0.322 OA
HETATM   22  C   UNL     1      -3.211  -0.089 -31.006  1.00  0.00     0.213 C 
ENDBRANCH  19  21
ENDBRANCH  14  19
ENDBRANCH  11  13
ENDBRANCH   9  11
ENDBRANCH   1   9
BRANCH   1  23
HETATM   23  C   UNL     1      -6.811   2.515 -34.006  1.00  0.00     0.169 C 
BRANCH  23  24
HETATM   24  C   UNL     1      -5.774   3.519 -33.551  1.00  0.00     0.029 A 
HETATM   25  C   UNL     1      -6.216   4.947 -33.679  1.00  0.00     0.253 A 
HETATM   26  O   UNL     1      -7.298   5.228 -34.185  1.00  0.00    -0.268 OA
HETATM   27  N   UNL     1      -5.364   5.919 -33.220  1.00  0.00    -0.322 N 
HETATM   28  C   UNL     1      -4.114   5.654 -32.648  1.00  0.00     0.048 A 
HETATM   29  H   UNL     1      -5.693   6.873 -33.303  1.00  0.00     0.169 HD
HETATM   30  C   UNL     1      -3.684   4.328 -32.553  1.00  0.00    -0.006 A 
HETATM   31  C   UNL     1      -3.318   6.694 -32.167  1.00  0.00     0.070 A 
HETATM   32  C   UNL     1      -2.448   4.034 -31.972  1.00  0.00     0.053 A 
HETATM   33  C   UNL     1      -4.556   3.264 -33.041  1.00  0.00     0.028 A 
HETATM   34  C   UNL     1      -1.647   5.068 -31.494  1.00  0.00     0.103 A 
HETATM   35  C   UNL     1      -2.091   6.393 -31.571  1.00  0.00     0.104 A 
HETATM   36  O   UNL     1      -0.446   4.703 -30.944  1.00  0.00    -0.346 OA
HETATM   37  O   UNL     1      -1.368   7.449 -31.078  1.00  0.00    -0.346 OA
HETATM   38  C   UNL     1      -0.351   7.006 -30.172  1.00  0.00     0.202 C 
HETATM   39  C   UNL     1       0.416   5.833 -30.759  1.00  0.00     0.202 C 
ENDBRANCH  23  24
ENDBRANCH   1  23
TORSDOF 11
ENDMDL
MODEL 3
REMARK VINA RESULT:      -7.6      2.036      3.220
REMARK  11 active torsions:
REMARK  status: ('A' for Active; 'I' for Inactive)
REMARK    1  A    between atoms: N_2  and  C_4 
REMARK    2  A    between atoms: C_4  and  C_5 
REMARK    3  A    between atoms: C_5  and  C_6 
REMARK    4  A    between atoms: C_6  and  N_7 
REMARK    5  A    between atoms: N_7  and  C_8 
REMARK    6  A    between atoms: N_7  and  C_21 
REMARK    7  A    between atoms: C_8  and  N_9 
REMARK    8  A    between atoms: N_9  and  C_10 
REMARK    9  A    between atoms: C_11  and  C_12 
REMARK   10  A    between atoms: C_12  and  O_13 
REMARK   11  A    between atoms: C_21  and  C_22 
ROOT
HETATM    1  N   UNL     1      -8.045   2.190 -33.450  1.00  0.00    -0.354 N 
ENDROOT
BRANCH   1   2
HETATM    2  C   UNL     1      -9.343   2.128 -34.152  1.00  0.00     0.127 C 
BRANCH   2   3
HETATM    3  C   UNL     1     -10.520   1.568 -33.340  1.00  0.00     0.047 C 
BRANCH   3   4
HETATM    4  C   UNL     1     -11.875   1.793 -34.006  1.00  0.00     0.235 C 
BRANCH   4   5
HETATM    5  N   UNL     1     -12.974   1.117 -33.197  1.00  0.00    -0.079 N 
HETATM    6  C   UNL     1     -13.273  -0.287 -33.641  1.00  0.00     0.269 C 
HETATM    7  H   UNL     1     -12.645   1.069 -32.223  1.00  0.00     0.278 HD
HETATM    8  C   UNL     1     -14.223   1.958 -33.162  1.00  0.00     0.269 C 
ENDBRANCH   4   5
ENDBRANCH   3   4
ENDBRANCH   2   3
ENDBRANCH   1   2
BRANCH   1   9
HETATM    9  C   UNL     1      -7.808   1.664 -32.149  1.00  0.00     0.174 C 
HETATM   10  S   UNL     1      -8.097   2.571 -30.771  1.00  0.00    -0.041 SA
BRANCH   9  11
HETATM   11  N   UNL     1      -7.310   0.369 -32.203  1.00  0.00    -0.332 N 
HETATM   12  H   UNL     1      -7.966  -0.274 -32.645  1.00  0.00     0.168 HD
BRANCH  11  13
HETATM   13  C   UNL     1      -5.991  -0.167 -32.167  1.00  0.00     0.050 A 
HETATM   14  C   UNL     1      -5.605  -1.098 -33.169  1.00  0.00     0.066 A 
HETATM   15  C   UNL     1      -4.305  -1.630 -33.179  1.00  0.00     0.020 A 
HETATM   16  C   UNL     1      -3.387  -1.259 -32.201  1.00  0.00     0.001 A 
HETATM   17  C   UNL     1      -3.767  -0.372 -31.199  1.00  0.00     0.002 A 
HETATM   18  C   UNL     1      -5.060   0.161 -31.177  1.00  0.00     0.030 A 
BRANCH  14  19
HETATM   19  C   UNL     1      -6.576  -1.514 -34.223  1.00  0.00     0.295 C 
HETATM   20  O   UNL     1      -6.856  -0.798 -35.176  1.00  0.00    -0.259 OA
BRANCH  19  21
HETATM   21  O   UNL     1      -7.036  -2.766 -34.006  1.00  0.00    -0.322 OA
HETATM   22  C   UNL     1      -6.658  -3.729 -34.996  1.00  0.00     0.213 C 
ENDBRANCH  19  21
ENDBRANCH  14  19
ENDBRANCH  11  13
ENDBRANCH   9  11
ENDBRANCH   1   9
BRANCH   1  23
HETATM   23  C   UNL     1      -6.872   2.458 -34.334  1.00  0.00     0.169 C 
BRANCH  23  24
HETATM   24  C   UNL     1      -5.880   3.430 -33.731  1.00  0.00     0.029 A 
HETATM   25  C   UNL     1      -6.349   4.855 -33.735  1.00  0.00     0.253 A 
HETATM   26  O   UNL     1      -7.413   5.166 -34.260  1.00  0.00    -0.268 OA
HETATM   27  N   UNL     1      -5.541   5.790 -33.140  1.00  0.00    -0.322 N 
HETATM   28  C   UNL     1      -4.313   5.492 -32.539  1.00  0.00     0.048 A 
HETATM   29  H   UNL     1      -5.888   6.742 -33.142  1.00  0.00     0.169 HD
HETATM   30  C   UNL     1      -3.857   4.171 -32.559  1.00  0.00    -0.006 A 
HETATM   31  C   UNL     1      -3.564   6.491 -31.919  1.00  0.00     0.070 A 
HETATM   32  C   UNL     1      -2.642   3.842 -31.952  1.00  0.00     0.053 A 
HETATM   33  C   UNL     1      -4.681   3.146 -33.193  1.00  0.00     0.028 A 
HETATM   34  C   UNL     1      -1.888   4.837 -31.335  1.00  0.00     0.103 A 
HETATM   35  C   UNL     1      -2.358   6.154 -31.299  1.00  0.00     0.104 A 
HETATM   36  O   UNL     1      -0.704   4.439 -30.769  1.00  0.00    -0.346 OA
HETATM   37  O   UNL     1      -1.683   7.168 -30.668  1.00  0.00    -0.346 OA
HETATM   38  C   UNL     1      -0.698   6.653 -29.764  1.00  0.00     0.202 C 
HETATM   39  C   UNL     1       0.122   5.560 -30.430  1.00  0.00     0.202 C 
ENDBRANCH  23  24
ENDBRANCH   1  23
TORSDOF 11
ENDMDL
MODEL 4
REMARK VINA RESULT:      -7.6      1.194      2.222
REMARK  11 active torsions:
REMARK  status: ('A' for Active; 'I' for Inactive)
REMARK    1  A    between atoms: N_2  and  C_4 
REMARK    2  A    between atoms: C_4  and  C_5 
REMARK    3  A    between atoms: C_5  and  C_6 
REMARK    4  A    between atoms: C_6  and  N_7 
REMARK    5  A    between atoms: N_7  and  C_8 
REMARK    6  A    between atoms: N_7  and  C_21 
REMARK    7  A    between atoms: C_8  and  N_9 
REMARK    8  A    between atoms: N_9  and  C_10 
REMARK    9  A    between atoms: C_11  and  C_12 
REMARK   10  A    between atoms: C_12  and  O_13 
REMARK   11  A    between atoms: C_21  and  C_22 
ROOT
HETATM    1  N   UNL     1      -7.389   1.848 -32.600  1.00  0.00    -0.354 N 
ENDROOT
BRANCH   1   2
HETATM    2  C   UNL     1      -7.811   2.820 -31.571  1.00  0.00     0.127 C 
BRANCH   2   3
HETATM    3  C   UNL     1      -7.292   2.562 -30.149  1.00  0.00     0.047 C 
BRANCH   3   4
HETATM    4  C   UNL     1      -6.035   3.360 -29.812  1.00  0.00     0.235 C 
BRANCH   4   5
HETATM    5  N   UNL     1      -6.356   4.847 -29.769  1.00  0.00    -0.079 N 
HETATM    6  C   UNL     1      -5.159   5.715 -29.498  1.00  0.00     0.269 C 
HETATM    7  H   UNL     1      -6.719   5.104 -30.697  1.00  0.00     0.278 HD
HETATM    8  C   UNL     1      -7.474   5.138 -28.801  1.00  0.00     0.269 C 
ENDBRANCH   4   5
ENDBRANCH   3   4
ENDBRANCH   2   3
ENDBRANCH   1   2
BRANCH   1   9
HETATM    9  C   UNL     1      -7.866   0.509 -32.686  1.00  0.00     0.174 C 
HETATM   10  S   UNL     1      -9.497   0.170 -32.864  1.00  0.00    -0.041 SA
BRANCH   9  11
HETATM   11  N   UNL     1      -6.832  -0.411 -32.584  1.00  0.00    -0.332 N 
HETATM   12  H   UNL     1      -6.562  -0.576 -31.615  1.00  0.00     0.168 HD
BRANCH  11  13
HETATM   13  C   UNL     1      -6.363  -1.443 -33.445  1.00  0.00     0.050 A 
HETATM   14  C   UNL     1      -4.961  -1.647 -33.565  1.00  0.00     0.066 A 
HETATM   15  C   UNL     1      -4.461  -2.671 -34.387  1.00  0.00     0.020 A 
HETATM   16  C   UNL     1      -5.334  -3.488 -35.100  1.00  0.00     0.001 A 
HETATM   17  C   UNL     1      -6.705  -3.275 -35.011  1.00  0.00     0.002 A 
HETATM   18  C   UNL     1      -7.214  -2.256 -34.199  1.00  0.00     0.030 A 
BRANCH  14  19
HETATM   19  C   UNL     1      -4.008  -0.778 -32.815  1.00  0.00     0.295 C 
HETATM   20  O   UNL     1      -3.138  -0.122 -33.376  1.00  0.00    -0.259 OA
BRANCH  19  21
HETATM   21  O   UNL     1      -4.272  -0.781 -31.490  1.00  0.00    -0.322 OA
HETATM   22  C   UNL     1      -3.729   0.326 -30.762  1.00  0.00     0.213 C 
ENDBRANCH  19  21
ENDBRANCH  14  19
ENDBRANCH  11  13
ENDBRANCH   9  11
ENDBRANCH   1   9
BRANCH   1  23
HETATM   23  C   UNL     1      -6.752   2.455 -33.806  1.00  0.00     0.169 C 
BRANCH  23  24
HETATM   24  C   UNL     1      -5.666   3.453 -33.468  1.00  0.00     0.029 A 
HETATM   25  C   UNL     1      -6.038   4.876 -33.766  1.00  0.00     0.253 A 
HETATM   26  O   UNL     1      -7.105   5.148 -34.306  1.00  0.00    -0.268 OA
HETATM   27  N   UNL     1      -5.139   5.853 -33.422  1.00  0.00    -0.322 N 
HETATM   28  C   UNL     1      -3.902   5.597 -32.817  1.00  0.00     0.048 A 
HETATM   29  H   UNL     1      -5.420   6.805 -33.619  1.00  0.00     0.169 HD
HETATM   30  C   UNL     1      -3.537   4.272 -32.564  1.00  0.00    -0.006 A 
HETATM   31  C   UNL     1      -3.055   6.646 -32.460  1.00  0.00     0.070 A 
HETATM   32  C   UNL     1      -2.316   3.989 -31.947  1.00  0.00     0.053 A 
HETATM   33  C   UNL     1      -4.461   3.201 -32.927  1.00  0.00     0.028 A 
HETATM   34  C   UNL     1      -1.465   5.032 -31.592  1.00  0.00     0.103 A 
HETATM   35  C   UNL     1      -1.844   6.358 -31.827  1.00  0.00     0.104 A 
HETATM   36  O   UNL     1      -0.282   4.676 -30.997  1.00  0.00    -0.346 OA
HETATM   37  O   UNL     1      -1.069   7.429 -31.460  1.00  0.00    -0.346 OA
HETATM   38  C   UNL     1      -0.073   7.047 -30.502  1.00  0.00     0.202 C 
HETATM   39  C   UNL     1       0.634   5.776 -30.944  1.00  0.00     0.202 C 
ENDBRANCH  23  24
ENDBRANCH   1  23
TORSDOF 11
ENDMDL
MODEL 5
REMARK VINA RESULT:      -7.4      2.532      7.693
REMARK  11 active torsions:
REMARK  status: ('A' for Active; 'I' for Inactive)
REMARK    1  A    between atoms: N_2  and  C_4 
REMARK    2  A    between atoms: C_4  and  C_5 
REMARK    3  A    between atoms: C_5  and  C_6 
REMARK    4  A    between atoms: C_6  and  N_7 
REMARK    5  A    between atoms: N_7  and  C_8 
REMARK    6  A    between atoms: N_7  and  C_21 
REMARK    7  A    between atoms: C_8  and  N_9 
REMARK    8  A    between atoms: N_9  and  C_10 
REMARK    9  A    between atoms: C_11  and  C_12 
REMARK   10  A    between atoms: C_12  and  O_13 
REMARK   11  A    between atoms: C_21  and  C_22 
ROOT
HETATM    1  N   UNL     1      -6.221   4.525 -32.654  1.00  0.00    -0.354 N 
ENDROOT
BRANCH   1   2
HETATM    2  C   UNL     1      -7.117   4.316 -33.810  1.00  0.00     0.127 C 
BRANCH   2   3
HETATM    3  C   UNL     1      -8.619   4.261 -33.494  1.00  0.00     0.047 C 
BRANCH   3   4
HETATM    4  C   UNL     1      -9.319   3.047 -34.099  1.00  0.00     0.235 C 
BRANCH   4   5
HETATM    5  N   UNL     1     -10.171   2.355 -33.044  1.00  0.00    -0.079 N 
HETATM    6  C   UNL     1      -9.757   2.669 -31.634  1.00  0.00     0.269 C 
HETATM    7  H   UNL     1     -11.135   2.693 -33.166  1.00  0.00     0.278 HD
HETATM    8  C   UNL     1     -10.230   0.868 -33.279  1.00  0.00     0.269 C 
ENDBRANCH   4   5
ENDBRANCH   3   4
ENDBRANCH   2   3
ENDBRANCH   1   2
BRANCH   1   9
HETATM    9  C   UNL     1      -5.692   5.787 -32.263  1.00  0.00     0.174 C 
HETATM   10  S   UNL     1      -6.671   7.137 -32.107  1.00  0.00    -0.041 SA
BRANCH   9  11
HETATM   11  N   UNL     1      -4.319   5.727 -32.065  1.00  0.00    -0.332 N 
HETATM   12  H   UNL     1      -4.079   5.252 -31.195  1.00  0.00     0.168 HD
BRANCH  11  13
HETATM   13  C   UNL     1      -3.206   5.800 -32.950  1.00  0.00     0.050 A 
HETATM   14  C   UNL     1      -2.250   6.835 -32.761  1.00  0.00     0.066 A 
HETATM   15  C   UNL     1      -1.126   6.925 -33.600  1.00  0.00     0.020 A 
HETATM   16  C   UNL     1      -0.946   6.007 -34.631  1.00  0.00     0.001 A 
HETATM   17  C   UNL     1      -1.893   5.011 -34.842  1.00  0.00     0.002 A 
HETATM   18  C   UNL     1      -3.017   4.914 -34.015  1.00  0.00     0.030 A 
BRANCH  14  19
HETATM   19  C   UNL     1      -2.428   7.832 -31.665  1.00  0.00     0.295 C 
HETATM   20  O   UNL     1      -3.340   8.650 -31.665  1.00  0.00    -0.259 OA
BRANCH  19  21
HETATM   21  O   UNL     1      -1.507   7.668 -30.691  1.00  0.00    -0.322 OA
HETATM   22  C   UNL     1      -1.991   7.036 -29.501  1.00  0.00     0.213 C 
ENDBRANCH  19  21
ENDBRANCH  14  19
ENDBRANCH  11  13
ENDBRANCH   9  11
ENDBRANCH   1   9
BRANCH   1  23
HETATM   23  C   UNL     1      -6.227   3.415 -31.655  1.00  0.00     0.169 C 
BRANCH  23  24
HETATM   24  C   UNL     1      -5.740   2.099 -32.221  1.00  0.00     0.029 A 
HETATM   25  C   UNL     1      -4.275   1.854 -32.011  1.00  0.00     0.253 A 
HETATM   26  O   UNL     1      -3.562   2.706 -31.491  1.00  0.00    -0.268 OA
HETATM   27  N   UNL     1      -3.766   0.651 -32.429  1.00  0.00    -0.322 N 
HETATM   28  C   UNL     1      -4.530  -0.350 -33.040  1.00  0.00     0.048 A 
HETATM   29  H   UNL     1      -2.778   0.504 -32.261  1.00  0.00     0.169 HD
HETATM   30  C   UNL     1      -5.890  -0.116 -33.266  1.00  0.00    -0.006 A 
HETATM   31  C   UNL     1      -3.951  -1.565 -33.404  1.00  0.00     0.070 A 
HETATM   32  C   UNL     1      -6.680  -1.103 -33.859  1.00  0.00     0.053 A 
HETATM   33  C   UNL     1      -6.468   1.157 -32.847  1.00  0.00     0.028 A 
HETATM   34  C   UNL     1      -6.106  -2.317 -34.228  1.00  0.00     0.103 A 
HETATM   35  C   UNL     1      -4.749  -2.555 -33.981  1.00  0.00     0.104 A 
HETATM   36  O   UNL     1      -6.942  -3.233 -34.812  1.00  0.00    -0.346 OA
HETATM   37  O   UNL     1      -4.137  -3.746 -34.281  1.00  0.00    -0.346 OA
HETATM   38  C   UNL     1      -5.099  -4.787 -34.494  1.00  0.00     0.202 C 
HETATM   39  C   UNL     1      -6.210  -4.308 -35.414  1.00  0.00     0.202 C 
ENDBRANCH  23  24
ENDBRANCH   1  23
TORSDOF 11
ENDMDL
MODEL 6
REMARK VINA RESULT:      -7.2      2.594      7.968
REMARK  11 active torsions:
REMARK  status: ('A' for Active; 'I' for Inactive)
REMARK    1  A    between atoms: N_2  and  C_4 
REMARK    2  A    between atoms: C_4  and  C_5 
REMARK    3  A    between atoms: C_5  and  C_6 
REMARK    4  A    between atoms: C_6  and  N_7 
REMARK    5  A    between atoms: N_7  and  C_8 
REMARK    6  A    between atoms: N_7  and  C_21 
REMARK    7  A    between atoms: C_8  and  N_9 
REMARK    8  A    between atoms: N_9  and  C_10 
REMARK    9  A    between atoms: C_11  and  C_12 
REMARK   10  A    between atoms: C_12  and  O_13 
REMARK   11  A    between atoms: C_21  and  C_22 
ROOT
HETATM    1  N   UNL     1      -5.515   4.457 -33.141  1.00  0.00    -0.354 N 
ENDROOT
BRANCH   1   2
HETATM    2  C   UNL     1      -6.853   4.969 -33.500  1.00  0.00     0.127 C 
BRANCH   2   3
HETATM    3  C   UNL     1      -7.994   4.596 -32.542  1.00  0.00     0.047 C 
BRANCH   3   4
HETATM    4  C   UNL     1      -9.380   4.881 -33.113  1.00  0.00     0.235 C 
BRANCH   4   5
HETATM    5  N   UNL     1     -10.209   3.605 -33.134  1.00  0.00    -0.079 N 
HETATM    6  C   UNL     1      -9.712   2.546 -32.190  1.00  0.00     0.269 C 
HETATM    7  H   UNL     1     -11.162   3.859 -32.838  1.00  0.00     0.278 HD
HETATM    8  C   UNL     1     -10.351   3.066 -34.534  1.00  0.00     0.269 C 
ENDBRANCH   4   5
ENDBRANCH   3   4
ENDBRANCH   2   3
ENDBRANCH   1   2
BRANCH   1   9
HETATM    9  C   UNL     1      -4.291   5.104 -33.471  1.00  0.00     0.174 C 
HETATM   10  S   UNL     1      -3.762   5.224 -35.056  1.00  0.00    -0.041 SA
BRANCH   9  11
HETATM   11  N   UNL     1      -3.637   5.572 -32.339  1.00  0.00    -0.332 N 
HETATM   12  H   UNL     1      -2.846   4.982 -32.084  1.00  0.00     0.168 HD
BRANCH  11  13
HETATM   13  C   UNL     1      -3.559   6.853 -31.722  1.00  0.00     0.050 A 
HETATM   14  C   UNL     1      -2.427   7.671 -31.987  1.00  0.00     0.066 A 
HETATM   15  C   UNL     1      -2.326   8.950 -31.415  1.00  0.00     0.020 A 
HETATM   16  C   UNL     1      -3.330   9.424 -30.575  1.00  0.00     0.001 A 
HETATM   17  C   UNL     1      -4.425   8.618 -30.287  1.00  0.00     0.002 A 
HETATM   18  C   UNL     1      -4.535   7.341 -30.847  1.00  0.00     0.030 A 
BRANCH  14  19
HETATM   19  C   UNL     1      -1.337   7.179 -32.880  1.00  0.00     0.295 C 
HETATM   20  O   UNL     1      -1.182   7.602 -34.020  1.00  0.00    -0.259 OA
BRANCH  19  21
HETATM   21  O   UNL     1      -0.550   6.279 -32.252  1.00  0.00    -0.322 OA
HETATM   22  C   UNL     1       0.319   6.827 -31.254  1.00  0.00     0.213 C 
ENDBRANCH  19  21
ENDBRANCH  14  19
ENDBRANCH  11  13
ENDBRANCH   9  11
ENDBRANCH   1   9
BRANCH   1  23
HETATM   23  C   UNL     1      -5.510   3.441 -32.048  1.00  0.00     0.169 C 
BRANCH  23  24
HETATM   24  C   UNL     1      -5.160   2.049 -32.528  1.00  0.00     0.029 A 
HETATM   25  C   UNL     1      -3.750   1.638 -32.219  1.00  0.00     0.253 A 
HETATM   26  O   UNL     1      -2.967   2.422 -31.692  1.00  0.00    -0.268 OA
HETATM   27  N   UNL     1      -3.373   0.363 -32.554  1.00  0.00    -0.322 N 
HETATM   28  C   UNL     1      -4.221  -0.567 -33.168  1.00  0.00     0.048 A 
HETATM   29  H   UNL     1      -2.422   0.105 -32.320  1.00  0.00     0.169 HD
HETATM   30  C   UNL     1      -5.526  -0.180 -33.486  1.00  0.00    -0.006 A 
HETATM   31  C   UNL     1      -3.777  -1.860 -33.445  1.00  0.00     0.070 A 
HETATM   32  C   UNL     1      -6.399  -1.092 -34.085  1.00  0.00     0.053 A 
HETATM   33  C   UNL     1      -5.964   1.173 -33.157  1.00  0.00     0.028 A 
HETATM   34  C   UNL     1      -5.960  -2.383 -34.367  1.00  0.00     0.103 A 
HETATM   35  C   UNL     1      -4.660  -2.772 -34.027  1.00  0.00     0.104 A 
HETATM   36  O   UNL     1      -6.871  -3.218 -34.961  1.00  0.00    -0.346 OA
HETATM   37  O   UNL     1      -4.185  -4.042 -34.239  1.00  0.00    -0.346 OA
HETATM   38  C   UNL     1      -5.255  -4.967 -34.467  1.00  0.00     0.202 C 
HETATM   39  C   UNL     1      -6.246  -4.402 -35.472  1.00  0.00     0.202 C 
ENDBRANCH  23  24
ENDBRANCH   1  23
TORSDOF 11
ENDMDL
MODEL 7
REMARK VINA RESULT:      -7.2      2.914      7.465
REMARK  11 active torsions:
REMARK  status: ('A' for Active; 'I' for Inactive)
REMARK    1  A    between atoms: N_2  and  C_4 
REMARK    2  A    between atoms: C_4  and  C_5 
REMARK    3  A    between atoms: C_5  and  C_6 
REMARK    4  A    between atoms: C_6  and  N_7 
REMARK    5  A    between atoms: N_7  and  C_8 
REMARK    6  A    between atoms: N_7  and  C_21 
REMARK    7  A    between atoms: C_8  and  N_9 
REMARK    8  A    between atoms: N_9  and  C_10 
REMARK    9  A    between atoms: C_11  and  C_12 
REMARK   10  A    between atoms: C_12  and  O_13 
REMARK   11  A    between atoms: C_21  and  C_22 
ROOT
HETATM    1  N   UNL     1      -6.751   4.213 -32.497  1.00  0.00    -0.354 N 
ENDROOT
BRANCH   1   2
HETATM    2  C   UNL     1      -5.779   4.664 -33.513  1.00  0.00     0.127 C 
BRANCH   2   3
HETATM    3  C   UNL     1      -5.028   5.966 -33.195  1.00  0.00     0.047 C 
BRANCH   3   4
HETATM    4  C   UNL     1      -3.542   5.754 -32.921  1.00  0.00     0.235 C 
BRANCH   4   5
HETATM    5  N   UNL     1      -2.716   6.279 -34.088  1.00  0.00    -0.079 N 
HETATM    6  C   UNL     1      -2.032   5.198 -34.877  1.00  0.00     0.269 C 
HETATM    7  H   UNL     1      -3.365   6.761 -34.724  1.00  0.00     0.278 HD
HETATM    8  C   UNL     1      -1.736   7.330 -33.636  1.00  0.00     0.269 C 
ENDBRANCH   4   5
ENDBRANCH   3   4
ENDBRANCH   2   3
ENDBRANCH   1   2
BRANCH   1   9
HETATM    9  C   UNL     1      -8.164   4.323 -32.629  1.00  0.00     0.174 C 
HETATM   10  S   UNL     1      -9.114   4.944 -31.397  1.00  0.00    -0.041 SA
BRANCH   9  11
HETATM   11  N   UNL     1      -8.602   3.846 -33.857  1.00  0.00    -0.332 N 
HETATM   12  H   UNL     1      -7.826   3.650 -34.489  1.00  0.00     0.168 HD
BRANCH  11  13
HETATM   13  C   UNL     1      -9.799   3.200 -34.276  1.00  0.00     0.050 A 
HETATM   14  C   UNL     1     -10.801   3.973 -34.924  1.00  0.00     0.066 A 
HETATM   15  C   UNL     1     -11.986   3.366 -35.373  1.00  0.00     0.020 A 
HETATM   16  C   UNL     1     -12.194   2.003 -35.177  1.00  0.00     0.001 A 
HETATM   17  C   UNL     1     -11.232   1.247 -34.516  1.00  0.00     0.002 A 
HETATM   18  C   UNL     1     -10.050   1.841 -34.062  1.00  0.00     0.030 A 
BRANCH  14  19
HETATM   19  C   UNL     1     -10.601   5.436 -35.138  1.00  0.00     0.295 C 
HETATM   20  O   UNL     1      -9.644   5.882 -35.759  1.00  0.00    -0.259 OA
BRANCH  19  21
HETATM   21  O   UNL     1     -11.616   6.157 -34.615  1.00  0.00    -0.322 OA
HETATM   22  C   UNL     1     -11.451   7.577 -34.690  1.00  0.00     0.213 C 
ENDBRANCH  19  21
ENDBRANCH  14  19
ENDBRANCH  11  13
ENDBRANCH   9  11
ENDBRANCH   1   9
BRANCH   1  23
HETATM   23  C   UNL     1      -6.203   3.250 -31.496  1.00  0.00     0.169 C 
BRANCH  23  24
HETATM   24  C   UNL     1      -5.734   1.950 -32.113  1.00  0.00     0.029 A 
HETATM   25  C   UNL     1      -4.262   1.703 -31.961  1.00  0.00     0.253 A 
HETATM   26  O   UNL     1      -3.533   2.544 -31.445  1.00  0.00    -0.268 OA
HETATM   27  N   UNL     1      -3.766   0.513 -32.428  1.00  0.00    -0.322 N 
HETATM   28  C   UNL     1      -4.550  -0.474 -33.037  1.00  0.00     0.048 A 
HETATM   29  H   UNL     1      -2.773   0.364 -32.299  1.00  0.00     0.169 HD
HETATM   30  C   UNL     1      -5.917  -0.238 -33.209  1.00  0.00    -0.006 A 
HETATM   31  C   UNL     1      -3.982  -1.678 -33.453  1.00  0.00     0.070 A 
HETATM   32  C   UNL     1      -6.726  -1.212 -33.799  1.00  0.00     0.053 A 
HETATM   33  C   UNL     1      -6.483   1.023 -32.737  1.00  0.00     0.028 A 
HETATM   34  C   UNL     1      -6.163  -2.414 -34.219  1.00  0.00     0.103 A 
HETATM   35  C   UNL     1      -4.798  -2.655 -34.026  1.00  0.00     0.104 A 
HETATM   36  O   UNL     1      -7.018  -3.317 -34.796  1.00  0.00    -0.346 OA
HETATM   37  O   UNL     1      -4.195  -3.836 -34.378  1.00  0.00    -0.346 OA
HETATM   38  C   UNL     1      -5.162  -4.873 -34.584  1.00  0.00     0.202 C 
HETATM   39  C   UNL     1      -6.306  -4.374 -35.451  1.00  0.00     0.202 C 
ENDBRANCH  23  24
ENDBRANCH   1  23
TORSDOF 11
ENDMDL
MODEL 8
REMARK VINA RESULT:      -7.2      2.749      7.091
REMARK  11 active torsions:
REMARK  status: ('A' for Active; 'I' for Inactive)
REMARK    1  A    between atoms: N_2  and  C_4 
REMARK    2  A    between atoms: C_4  and  C_5 
REMARK    3  A    between atoms: C_5  and  C_6 
REMARK    4  A    between atoms: C_6  and  N_7 
REMARK    5  A    between atoms: N_7  and  C_8 
REMARK    6  A    between atoms: N_7  and  C_21 
REMARK    7  A    between atoms: C_8  and  N_9 
REMARK    8  A    between atoms: N_9  and  C_10 
REMARK    9  A    between atoms: C_11  and  C_12 
REMARK   10  A    between atoms: C_12  and  O_13 
REMARK   11  A    between atoms: C_21  and  C_22 
ROOT
HETATM    1  N   UNL     1      -5.885   4.400 -32.792  1.00  0.00    -0.354 N 
ENDROOT
BRANCH   1   2
HETATM    2  C   UNL     1      -5.385   4.090 -34.147  1.00  0.00     0.127 C 
BRANCH   2   3
HETATM    3  C   UNL     1      -4.381   5.091 -34.738  1.00  0.00     0.047 C 
BRANCH   3   4
HETATM    4  C   UNL     1      -3.057   5.138 -33.979  1.00  0.00     0.235 C 
BRANCH   4   5
HETATM    5  N   UNL     1      -2.960   6.430 -33.178  1.00  0.00    -0.079 N 
HETATM    6  C   UNL     1      -1.837   7.327 -33.616  1.00  0.00     0.269 C 
HETATM    7  H   UNL     1      -3.840   6.943 -33.325  1.00  0.00     0.278 HD
HETATM    8  C   UNL     1      -2.894   6.153 -31.699  1.00  0.00     0.269 C 
ENDBRANCH   4   5
ENDBRANCH   3   4
ENDBRANCH   2   3
ENDBRANCH   1   2
BRANCH   1   9
HETATM    9  C   UNL     1      -6.949   5.303 -32.514  1.00  0.00     0.174 C 
HETATM   10  S   UNL     1      -6.661   6.914 -32.158  1.00  0.00    -0.041 SA
BRANCH   9  11
HETATM   11  N   UNL     1      -8.183   4.670 -32.561  1.00  0.00    -0.332 N 
HETATM   12  H   UNL     1      -8.577   4.531 -31.631  1.00  0.00     0.168 HD
BRANCH  11  13
HETATM   13  C   UNL     1      -9.176   4.550 -33.576  1.00  0.00     0.050 A 
HETATM   14  C   UNL     1      -9.882   3.323 -33.697  1.00  0.00     0.066 A 
HETATM   15  C   UNL     1     -10.885   3.175 -34.672  1.00  0.00     0.020 A 
HETATM   16  C   UNL     1     -11.186   4.227 -35.533  1.00  0.00     0.001 A 
HETATM   17  C   UNL     1     -10.477   5.419 -35.440  1.00  0.00     0.002 A 
HETATM   18  C   UNL     1      -9.475   5.576 -34.476  1.00  0.00     0.030 A 
BRANCH  14  19
HETATM   19  C   UNL     1      -9.570   2.182 -32.788  1.00  0.00     0.295 C 
HETATM   20  O   UNL     1      -9.414   2.328 -31.582  1.00  0.00    -0.259 OA
BRANCH  19  21
HETATM   21  O   UNL     1      -9.542   1.008 -33.457  1.00  0.00    -0.322 OA
HETATM   22  C   UNL     1      -9.833  -0.147 -32.664  1.00  0.00     0.213 C 
ENDBRANCH  19  21
ENDBRANCH  14  19
ENDBRANCH  11  13
ENDBRANCH   9  11
ENDBRANCH   1   9
BRANCH   1  23
HETATM   23  C   UNL     1      -5.504   3.405 -31.746  1.00  0.00     0.169 C 
BRANCH  23  24
HETATM   24  C   UNL     1      -5.169   2.042 -32.312  1.00  0.00     0.029 A 
HETATM   25  C   UNL     1      -3.732   1.649 -32.134  1.00  0.00     0.253 A 
HETATM   26  O   UNL     1      -2.923   2.427 -31.638  1.00  0.00    -0.268 OA
HETATM   27  N   UNL     1      -3.359   0.397 -32.553  1.00  0.00    -0.322 N 
HETATM   28  C   UNL     1      -4.237  -0.524 -33.137  1.00  0.00     0.048 A 
HETATM   29  H   UNL     1      -2.388   0.150 -32.407  1.00  0.00     0.169 HD
HETATM   30  C   UNL     1      -5.570  -0.153 -33.333  1.00  0.00    -0.006 A 
HETATM   31  C   UNL     1      -3.794  -1.795 -33.503  1.00  0.00     0.070 A 
HETATM   32  C   UNL     1      -6.472  -1.058 -33.899  1.00  0.00     0.053 A 
HETATM   33  C   UNL     1      -6.005   1.176 -32.912  1.00  0.00     0.028 A 
HETATM   34  C   UNL     1      -6.034  -2.326 -34.270  1.00  0.00     0.103 A 
HETATM   35  C   UNL     1      -4.704  -2.701 -34.052  1.00  0.00     0.104 A 
HETATM   36  O   UNL     1      -6.974  -3.155 -34.825  1.00  0.00    -0.346 OA
HETATM   37  O   UNL     1      -4.225  -3.950 -34.355  1.00  0.00    -0.346 OA
HETATM   38  C   UNL     1      -5.293  -4.888 -34.537  1.00  0.00     0.202 C 
HETATM   39  C   UNL     1      -6.371  -4.304 -35.435  1.00  0.00     0.202 C 
ENDBRANCH  23  24
ENDBRANCH   1  23
TORSDOF 11
ENDMDL
MODEL 9
REMARK VINA RESULT:      -7.1      3.095      8.299
REMARK  11 active torsions:
REMARK  status: ('A' for Active; 'I' for Inactive)
REMARK    1  A    between atoms: N_2  and  C_4 
REMARK    2  A    between atoms: C_4  and  C_5 
REMARK    3  A    between atoms: C_5  and  C_6 
REMARK    4  A    between atoms: C_6  and  N_7 
REMARK    5  A    between atoms: N_7  and  C_8 
REMARK    6  A    between atoms: N_7  and  C_21 
REMARK    7  A    between atoms: C_8  and  N_9 
REMARK    8  A    between atoms: N_9  and  C_10 
REMARK    9  A    between atoms: C_11  and  C_12 
REMARK   10  A    between atoms: C_12  and  O_13 
REMARK   11  A    between atoms: C_21  and  C_22 
ROOT
HETATM    1  N   UNL     1      -4.937   2.176 -31.510  1.00  0.00    -0.354 N 
ENDROOT
BRANCH   1   2
HETATM    2  C   UNL     1      -4.670   0.913 -30.793  1.00  0.00     0.127 C 
BRANCH   2   3
HETATM    3  C   UNL     1      -4.949  -0.377 -31.578  1.00  0.00     0.047 C 
BRANCH   3   4
HETATM    4  C   UNL     1      -3.686  -1.037 -32.123  1.00  0.00     0.235 C 
BRANCH   4   5
HETATM    5  N   UNL     1      -3.937  -2.517 -32.376  1.00  0.00    -0.079 N 
HETATM    6  C   UNL     1      -2.876  -3.416 -31.805  1.00  0.00     0.269 C 
HETATM    7  H   UNL     1      -4.825  -2.756 -31.914  1.00  0.00     0.278 HD
HETATM    8  C   UNL     1      -4.156  -2.793 -33.841  1.00  0.00     0.269 C 
ENDBRANCH   4   5
ENDBRANCH   3   4
ENDBRANCH   2   3
ENDBRANCH   1   2
BRANCH   1   9
HETATM    9  C   UNL     1      -4.494   3.457 -31.077  1.00  0.00     0.174 C 
HETATM   10  S   UNL     1      -5.518   4.515 -30.278  1.00  0.00    -0.041 SA
BRANCH   9  11
HETATM   11  N   UNL     1      -3.167   3.683 -31.419  1.00  0.00    -0.332 N 
HETATM   12  H   UNL     1      -2.556   2.937 -31.090  1.00  0.00     0.168 HD
BRANCH  11  13
HETATM   13  C   UNL     1      -2.546   4.465 -32.434  1.00  0.00     0.050 A 
HETATM   14  C   UNL     1      -1.484   5.337 -32.069  1.00  0.00     0.066 A 
HETATM   15  C   UNL     1      -0.830   6.107 -33.046  1.00  0.00     0.020 A 
HETATM   16  C   UNL     1      -1.226   6.031 -34.379  1.00  0.00     0.001 A 
HETATM   17  C   UNL     1      -2.284   5.204 -34.738  1.00  0.00     0.002 A 
HETATM   18  C   UNL     1      -2.944   4.436 -33.773  1.00  0.00     0.030 A 
BRANCH  14  19
HETATM   19  C   UNL     1      -1.049   5.438 -30.645  1.00  0.00     0.295 C 
HETATM   20  O   UNL     1      -1.504   6.278 -29.879  1.00  0.00    -0.259 OA
BRANCH  19  21
HETATM   21  O   UNL     1      -0.158   4.472 -30.329  1.00  0.00    -0.322 OA
HETATM   22  C   UNL     1       0.878   4.876 -29.427  1.00  0.00     0.213 C 
ENDBRANCH  19  21
ENDBRANCH  14  19
ENDBRANCH  11  13
ENDBRANCH   9  11
ENDBRANCH   1   9
BRANCH   1  23
HETATM   23  C   UNL     1      -5.337   2.008 -32.939  1.00  0.00     0.169 C 
BRANCH  23  24
HETATM   24  C   UNL     1      -6.821   2.192 -33.169  1.00  0.00     0.029 A 
HETATM   25  C   UNL     1      -7.191   3.553 -33.681  1.00  0.00     0.253 A 
HETATM   26  O   UNL     1      -6.341   4.428 -33.812  1.00  0.00    -0.268 OA
HETATM   27  N   UNL     1      -8.508   3.780 -33.986  1.00  0.00    -0.322 N 
HETATM   28  C   UNL     1      -9.519   2.822 -33.844  1.00  0.00     0.048 A 
HETATM   29  H   UNL     1      -8.729   4.701 -34.345  1.00  0.00     0.169 HD
HETATM   30  C   UNL     1      -9.186   1.562 -33.339  1.00  0.00    -0.006 A 
HETATM   31  C   UNL     1     -10.832   3.114 -34.212  1.00  0.00     0.070 A 
HETATM   32  C   UNL     1     -10.172   0.582 -33.201  1.00  0.00     0.053 A 
HETATM   33  C   UNL     1      -7.797   1.283 -32.990  1.00  0.00     0.028 A 
HETATM   34  C   UNL     1     -11.486   0.869 -33.563  1.00  0.00     0.103 A 
HETATM   35  C   UNL     1     -11.810   2.125 -34.088  1.00  0.00     0.104 A 
HETATM   36  O   UNL     1     -12.398  -0.140 -33.392  1.00  0.00    -0.346 OA
HETATM   37  O   UNL     1     -13.076   2.452 -34.504  1.00  0.00    -0.346 OA
HETATM   38  C   UNL     1     -13.881   1.282 -34.693  1.00  0.00     0.202 C 
HETATM   39  C   UNL     1     -13.744   0.340 -33.508  1.00  0.00     0.202 C 
ENDBRANCH  23  24
ENDBRANCH   1  23
TORSDOF 11
ENDMDL
MODEL 10
REMARK VINA RESULT:      -7.0      2.607      7.487
REMARK  11 active torsions:
REMARK  status: ('A' for Active; 'I' for Inactive)
REMARK    1  A    between atoms: N_2  and  C_4 
REMARK    2  A    between atoms: C_4  and  C_5 
REMARK    3  A    between atoms: C_5  and  C_6 
REMARK    4  A    between atoms: C_6  and  N_7 
REMARK    5  A    between atoms: N_7  and  C_8 
REMARK    6  A    between atoms: N_7  and  C_21 
REMARK    7  A    between atoms: C_8  and  N_9 
REMARK    8  A    between atoms: N_9  and  C_10 
REMARK    9  A    between atoms: C_11  and  C_12 
REMARK   10  A    between atoms: C_12  and  O_13 
REMARK   11  A    between atoms: C_21  and  C_22 
ROOT
HETATM    1  N   UNL     1      -5.233   4.814 -31.738  1.00  0.00    -0.354 N 
ENDROOT
BRANCH   1   2
HETATM    2  C   UNL     1      -5.870   4.818 -33.071  1.00  0.00     0.127 C 
BRANCH   2   3
HETATM    3  C   UNL     1      -7.405   4.758 -33.082  1.00  0.00     0.047 C 
BRANCH   3   4
HETATM    4  C   UNL     1      -8.063   6.124 -32.902  1.00  0.00     0.235 C 
BRANCH   4   5
HETATM    5  N   UNL     1      -9.529   6.054 -33.306  1.00  0.00    -0.079 N 
HETATM    6  C   UNL     1     -10.396   5.339 -32.310  1.00  0.00     0.269 C 
HETATM    7  H   UNL     1      -9.870   7.023 -33.372  1.00  0.00     0.278 HD
HETATM    8  C   UNL     1      -9.689   5.474 -34.688  1.00  0.00     0.269 C 
ENDBRANCH   4   5
ENDBRANCH   3   4
ENDBRANCH   2   3
ENDBRANCH   1   2
BRANCH   1   9
HETATM    9  C   UNL     1      -4.763   5.977 -31.067  1.00  0.00     0.174 C 
HETATM   10  S   UNL     1      -5.622   6.668 -29.805  1.00  0.00    -0.041 SA
BRANCH   9  11
HETATM   11  N   UNL     1      -3.567   6.431 -31.605  1.00  0.00    -0.332 N 
HETATM   12  H   UNL     1      -3.715   7.015 -32.427  1.00  0.00     0.168 HD
BRANCH  11  13
HETATM   13  C   UNL     1      -2.263   6.609 -31.061  1.00  0.00     0.050 A 
HETATM   14  C   UNL     1      -1.162   6.735 -31.952  1.00  0.00     0.066 A 
HETATM   15  C   UNL     1       0.136   6.935 -31.452  1.00  0.00     0.020 A 
HETATM   16  C   UNL     1       0.357   7.000 -30.079  1.00  0.00     0.001 A 
HETATM   17  C   UNL     1      -0.710   6.847 -29.201  1.00  0.00     0.002 A 
HETATM   18  C   UNL     1      -2.006   6.644 -29.687  1.00  0.00     0.030 A 
BRANCH  14  19
HETATM   19  C   UNL     1      -1.377   6.661 -33.427  1.00  0.00     0.295 C 
HETATM   20  O   UNL     1      -1.437   7.661 -34.131  1.00  0.00    -0.259 OA
BRANCH  19  21
HETATM   21  O   UNL     1      -1.436   5.380 -33.855  1.00  0.00    -0.322 OA
HETATM   22  C   UNL     1      -2.382   5.136 -34.901  1.00  0.00     0.213 C 
ENDBRANCH  19  21
ENDBRANCH  14  19
ENDBRANCH  11  13
ENDBRANCH   9  11
ENDBRANCH   1   9
BRANCH   1  23
HETATM   23  C   UNL     1      -5.480   3.580 -30.935  1.00  0.00     0.169 C 
BRANCH  23  24
HETATM   24  C   UNL     1      -5.163   2.304 -31.686  1.00  0.00     0.029 A 
HETATM   25  C   UNL     1      -3.695   2.029 -31.820  1.00  0.00     0.253 A 
HETATM   26  O   UNL     1      -2.863   2.832 -31.409  1.00  0.00    -0.268 OA
HETATM   27  N   UNL     1      -3.322   0.855 -32.423  1.00  0.00    -0.322 N 
HETATM   28  C   UNL     1      -4.227  -0.089 -32.921  1.00  0.00     0.048 A 
HETATM   29  H   UNL     1      -2.325   0.685 -32.487  1.00  0.00     0.169 HD
HETATM   30  C   UNL     1      -5.597   0.176 -32.826  1.00  0.00    -0.006 A 
HETATM   31  C   UNL     1      -3.774  -1.280 -33.488  1.00  0.00     0.070 A 
HETATM   32  C   UNL     1      -6.523  -0.756 -33.300  1.00  0.00     0.053 A 
HETATM   33  C   UNL     1      -6.036   1.420 -32.202  1.00  0.00     0.028 A 
HETATM   34  C   UNL     1      -6.076  -1.945 -33.871  1.00  0.00     0.103 A 
HETATM   35  C   UNL     1      -4.705  -2.215 -33.944  1.00  0.00     0.104 A 
HETATM   36  O   UNL     1      -7.044  -2.806 -34.320  1.00  0.00    -0.346 OA
HETATM   37  O   UNL     1      -4.205  -3.387 -34.454  1.00  0.00    -0.346 OA
HETATM   38  C   UNL     1      -5.218  -4.398 -34.525  1.00  0.00     0.202 C 
HETATM   39  C   UNL     1      -6.489  -3.840 -35.142  1.00  0.00     0.202 C 
ENDBRANCH  23  24
ENDBRANCH   1  23
TORSDOF 11
ENDMDL
