MODEL 1
REMARK VINA RESULT:      -9.2      0.000      0.000
REMARK  5 active torsions:
REMARK  status: ('A' for Active; 'I' for Inactive)
REMARK    1  A    between atoms: C_5  and  C_6 
REMARK    2  A    between atoms: C_9  and  O_10 
REMARK    3  A    between atoms: N_14  and  C_15 
REMARK    4  A    between atoms: C_15  and  C_16 
REMARK       I    between atoms: C_16  and  N_17 
REMARK    5  A    between atoms: N_17  and  C_18 
ROOT
HETATM    1  C   UNL     1      -2.814  -0.676 -32.739  1.00  0.00     0.156 C 
HETATM    2  N   UNL     1      -4.251  -0.791 -32.811  1.00  0.00    -0.346 N 
HETATM    3  C   UNL     1      -5.141  -0.024 -32.141  1.00  0.00     0.113 A 
HETATM    4  C   UNL     1      -6.414  -0.439 -32.420  1.00  0.00     0.014 A 
HETATM    5  C   UNL     1      -7.399   0.375 -31.663  1.00  0.00     0.158 A 
HETATM    6  N   UNL     1      -6.480   1.353 -31.030  1.00  0.00    -0.325 N 
HETATM    7  C   UNL     1      -5.126   1.083 -31.247  1.00  0.00     0.272 A 
HETATM    8  O   UNL     1      -4.165   1.673 -30.788  1.00  0.00    -0.266 OA
HETATM    9  C   UNL     1      -6.334  -1.498 -33.342  1.00  0.00     0.002 A 
HETATM   10  C   UNL     1      -4.959  -1.699 -33.590  1.00  0.00     0.045 A 
HETATM   11  C   UNL     1      -7.275  -2.297 -34.017  1.00  0.00     0.014 A 
HETATM   12  C   UNL     1      -6.829  -3.266 -34.922  1.00  0.00     0.001 A 
HETATM   13  C   UNL     1      -5.469  -3.450 -35.154  1.00  0.00     0.002 A 
HETATM   14  C   UNL     1      -4.511  -2.674 -34.494  1.00  0.00     0.030 A 
ENDROOT
BRANCH   6  15
HETATM   15  C   UNL     1      -6.924   2.315 -30.029  1.00  0.00     0.229 C 
BRANCH  15  16
HETATM   16  C   UNL     1      -6.734   3.788 -30.427  1.00  0.00     0.235 C 
HETATM   17  N   UNL     1      -5.893   3.984 -31.495  1.00  0.00    -0.355 N 
HETATM   18  H   UNL     1      -5.386   3.157 -31.781  1.00  0.00     0.162 HD
HETATM   19  O   UNL     1      -7.360   4.676 -29.860  1.00  0.00    -0.272 OA
BRANCH  17  20
HETATM   20  C   UNL     1      -5.442   5.239 -32.082  1.00  0.00     0.084 C 
HETATM   21  C   UNL     1      -3.964   5.584 -31.850  1.00  0.00     0.025 C 
HETATM   22  C   UNL     1      -2.998   5.162 -32.959  1.00  0.00     0.002 C 
HETATM   23  C   UNL     1      -3.535   5.448 -34.354  1.00  0.00     0.000 C 
HETATM   24  C   UNL     1      -4.921   4.849 -34.556  1.00  0.00     0.002 C 
HETATM   25  C   UNL     1      -5.905   5.400 -33.533  1.00  0.00     0.025 C 
ENDBRANCH  17  20
ENDBRANCH  15  16
ENDBRANCH   6  15
BRANCH   5  26
HETATM   26  C   UNL     1      -8.400   0.997 -32.609  1.00  0.00    -0.030 A 
HETATM   27  C   UNL     1      -9.699   0.463 -32.648  1.00  0.00     0.012 A 
HETATM   28  C   UNL     1     -10.682   1.024 -33.469  1.00  0.00     0.037 A 
HETATM   29  C   UNL     1     -10.400   2.133 -34.265  1.00  0.00     0.068 A 
HETATM   30  C   UNL     1      -9.119   2.680 -34.234  1.00  0.00     0.037 A 
HETATM   31  C   UNL     1      -8.133   2.121 -33.411  1.00  0.00     0.012 A 
BRANCH  29  32
HETATM   32  O   UNL     1     -11.450   2.581 -35.016  1.00  0.00    -0.356 OA
HETATM   33  C   UNL     1     -12.498   1.655 -35.272  1.00  0.00     0.210 C 
ENDBRANCH  29  32
ENDBRANCH   5  26
TORSDOF 5
ENDMDL
MODEL 2
REMARK VINA RESULT:      -8.9      2.554      6.269
REMARK  5 active torsions:
REMARK  status: ('A' for Active; 'I' for Inactive)
REMARK    1  A    between atoms: C_5  and  C_6 
REMARK    2  A    between atoms: C_9  and  O_10 
REMARK    3  A    between atoms: N_14  and  C_15 
REMARK    4  A    between atoms: C_15  and  C_16 
REMARK       I    between atoms: C_16  and  N_17 
REMARK    5  A    between atoms: N_17  and  C_18 
ROOT
HETATM    1  C   UNL     1     -12.941   4.796 -31.440  1.00  0.00     0.156 C 
HETATM    2  N   UNL     1     -12.395   3.849 -32.382  1.00  0.00    -0.346 N 
HETATM    3  C   UNL     1     -11.133   3.851 -32.867  1.00  0.00     0.113 A 
HETATM    4  C   UNL     1     -10.979   2.832 -33.767  1.00  0.00     0.014 A 
HETATM    5  C   UNL     1      -9.606   2.846 -34.332  1.00  0.00     0.158 A 
HETATM    6  N   UNL     1      -9.016   3.944 -33.526  1.00  0.00    -0.325 N 
HETATM    7  C   UNL     1      -9.934   4.601 -32.703  1.00  0.00     0.272 A 
HETATM    8  O   UNL     1      -9.741   5.574 -31.998  1.00  0.00    -0.266 OA
HETATM    9  C   UNL     1     -12.191   2.121 -33.829  1.00  0.00     0.002 A 
HETATM   10  C   UNL     1     -13.072   2.768 -32.938  1.00  0.00     0.045 A 
HETATM   11  C   UNL     1     -12.636   0.983 -34.526  1.00  0.00     0.014 A 
HETATM   12  C   UNL     1     -13.937   0.514 -34.314  1.00  0.00     0.001 A 
HETATM   13  C   UNL     1     -14.792   1.165 -33.430  1.00  0.00     0.002 A 
HETATM   14  C   UNL     1     -14.379   2.302 -32.728  1.00  0.00     0.030 A 
ENDROOT
BRANCH   6  15
HETATM   15  C   UNL     1      -7.691   4.490 -33.791  1.00  0.00     0.229 C 
BRANCH  15  16
HETATM   16  C   UNL     1      -6.675   4.283 -32.656  1.00  0.00     0.235 C 
HETATM   17  N   UNL     1      -6.101   3.036 -32.626  1.00  0.00    -0.355 N 
HETATM   18  H   UNL     1      -6.530   2.367 -33.251  1.00  0.00     0.162 HD
HETATM   19  O   UNL     1      -6.375   5.207 -31.907  1.00  0.00    -0.272 OA
BRANCH  17  20
HETATM   20  C   UNL     1      -5.163   2.487 -31.656  1.00  0.00     0.084 C 
HETATM   21  C   UNL     1      -5.795   1.707 -30.494  1.00  0.00     0.025 C 
HETATM   22  C   UNL     1      -5.895   0.192 -30.682  1.00  0.00     0.002 C 
HETATM   23  C   UNL     1      -4.634  -0.416 -31.280  1.00  0.00     0.000 C 
HETATM   24  C   UNL     1      -4.229   0.287 -32.569  1.00  0.00     0.002 C 
HETATM   25  C   UNL     1      -3.987   1.770 -32.327  1.00  0.00     0.025 C 
ENDBRANCH  17  20
ENDBRANCH  15  16
ENDBRANCH   6  15
BRANCH   5  26
HETATM   26  C   UNL     1      -8.940   1.506 -34.122  1.00  0.00    -0.030 A 
HETATM   27  C   UNL     1      -7.978   1.087 -35.056  1.00  0.00     0.012 A 
HETATM   28  C   UNL     1      -7.294  -0.121 -34.891  1.00  0.00     0.037 A 
HETATM   29  C   UNL     1      -7.546  -0.939 -33.791  1.00  0.00     0.068 A 
HETATM   30  C   UNL     1      -8.493  -0.538 -32.851  1.00  0.00     0.037 A 
HETATM   31  C   UNL     1      -9.178   0.674 -33.013  1.00  0.00     0.012 A 
BRANCH  29  32
HETATM   32  O   UNL     1      -6.809  -2.089 -33.752  1.00  0.00    -0.356 OA
HETATM   33  C   UNL     1      -5.867  -2.285 -34.799  1.00  0.00     0.210 C 
ENDBRANCH  29  32
ENDBRANCH   5  26
TORSDOF 5
ENDMDL
MODEL 3
REMARK VINA RESULT:      -8.8      2.568      5.426
REMARK  5 active torsions:
REMARK  status: ('A' for Active; 'I' for Inactive)
REMARK    1  A    between atoms: C_5  and  C_6 
REMARK    2  A    between atoms: C_9  and  O_10 
REMARK    3  A    between atoms: N_14  and  C_15 
REMARK    4  A    between atoms: C_15  and  C_16 
REMARK       I    between atoms: C_16  and  N_17 
REMARK    5  A    between atoms: N_17  and  C_18 
ROOT
HETATM    1  C   UNL     1      -8.610   4.016 -29.958  1.00  0.00     0.156 C 
HETATM    2  N   UNL     1      -8.250   3.287 -31.151  1.00  0.00    -0.346 N 
HETATM    3  C   UNL     1      -6.996   2.936 -31.517  1.00  0.00     0.113 A 
HETATM    4  C   UNL     1      -7.028   2.289 -32.722  1.00  0.00     0.014 A 
HETATM    5  C   UNL     1      -5.652   1.929 -33.150  1.00  0.00     0.158 A 
HETATM    6  N   UNL     1      -4.894   2.373 -31.953  1.00  0.00    -0.325 N 
HETATM    7  C   UNL     1      -5.672   3.042 -31.004  1.00  0.00     0.272 A 
HETATM    8  O   UNL     1      -5.300   3.572 -29.973  1.00  0.00    -0.266 OA
HETATM    9  C   UNL     1      -8.371   2.188 -33.126  1.00  0.00     0.002 A 
HETATM   10  C   UNL     1      -9.132   2.812 -32.115  1.00  0.00     0.045 A 
HETATM   11  C   UNL     1      -9.033   1.616 -34.227  1.00  0.00     0.014 A 
HETATM   12  C   UNL     1     -10.429   1.671 -34.293  1.00  0.00     0.001 A 
HETATM   13  C   UNL     1     -11.165   2.289 -33.286  1.00  0.00     0.002 A 
HETATM   14  C   UNL     1     -10.533   2.872 -32.182  1.00  0.00     0.030 A 
ENDROOT
BRANCH   6  15
HETATM   15  C   UNL     1      -3.438   2.392 -31.906  1.00  0.00     0.229 C 
BRANCH  15  16
HETATM   16  C   UNL     1      -2.800   3.723 -32.335  1.00  0.00     0.235 C 
HETATM   17  N   UNL     1      -2.442   4.544 -31.294  1.00  0.00    -0.355 N 
HETATM   18  H   UNL     1      -2.784   4.241 -30.391  1.00  0.00     0.162 HD
HETATM   19  O   UNL     1      -2.578   3.960 -33.517  1.00  0.00    -0.272 OA
BRANCH  17  20
HETATM   20  C   UNL     1      -1.885   5.889 -31.342  1.00  0.00     0.084 C 
HETATM   21  C   UNL     1      -2.147   6.757 -30.103  1.00  0.00     0.025 C 
HETATM   22  C   UNL     1      -1.046   6.754 -29.041  1.00  0.00     0.002 C 
HETATM   23  C   UNL     1       0.353   6.850 -29.635  1.00  0.00     0.000 C 
HETATM   24  C   UNL     1       0.587   5.780 -30.694  1.00  0.00     0.002 C 
HETATM   25  C   UNL     1      -0.430   5.898 -31.820  1.00  0.00     0.025 C 
ENDBRANCH  17  20
ENDBRANCH  15  16
ENDBRANCH   6  15
BRANCH   5  26
HETATM   26  C   UNL     1      -5.559   0.444 -33.417  1.00  0.00    -0.030 A 
HETATM   27  C   UNL     1      -6.254  -0.077 -34.521  1.00  0.00     0.012 A 
HETATM   28  C   UNL     1      -6.171  -1.434 -34.848  1.00  0.00     0.037 A 
HETATM   29  C   UNL     1      -5.389  -2.304 -34.089  1.00  0.00     0.068 A 
HETATM   30  C   UNL     1      -4.688  -1.803 -32.994  1.00  0.00     0.037 A 
HETATM   31  C   UNL     1      -4.768  -0.443 -32.666  1.00  0.00     0.012 A 
BRANCH  29  32
HETATM   32  O   UNL     1      -5.396  -3.601 -34.518  1.00  0.00    -0.356 OA
HETATM   33  C   UNL     1      -6.652  -4.146 -34.898  1.00  0.00     0.210 C 
ENDBRANCH  29  32
ENDBRANCH   5  26
TORSDOF 5
ENDMDL
MODEL 4
REMARK VINA RESULT:      -8.7      2.448      7.247
REMARK  5 active torsions:
REMARK  status: ('A' for Active; 'I' for Inactive)
REMARK    1  A    between atoms: C_5  and  C_6 
REMARK    2  A    between atoms: C_9  and  O_10 
REMARK    3  A    between atoms: N_14  and  C_15 
REMARK    4  A    between atoms: C_15  and  C_16 
REMARK       I    between atoms: C_16  and  N_17 
REMARK    5  A    between atoms: N_17  and  C_18 
ROOT
HETATM    1  C   UNL     1     -12.071   1.077 -33.835  1.00  0.00     0.156 C 
HETATM    2  N   UNL     1     -11.157   1.983 -33.183  1.00  0.00    -0.346 N 
HETATM    3  C   UNL     1      -9.929   1.668 -32.714  1.00  0.00     0.113 A 
HETATM    4  C   UNL     1      -9.361   2.764 -32.123  1.00  0.00     0.014 A 
HETATM    5  C   UNL     1      -8.025   2.420 -31.573  1.00  0.00     0.158 A 
HETATM    6  N   UNL     1      -7.912   1.020 -32.052  1.00  0.00    -0.325 N 
HETATM    7  C   UNL     1      -9.068   0.535 -32.668  1.00  0.00     0.272 A 
HETATM    8  O   UNL     1      -9.277  -0.591 -33.083  1.00  0.00    -0.266 OA
HETATM    9  C   UNL     1     -10.256   3.841 -32.257  1.00  0.00     0.002 A 
HETATM   10  C   UNL     1     -11.381   3.334 -32.941  1.00  0.00     0.045 A 
HETATM   11  C   UNL     1     -10.230   5.200 -31.895  1.00  0.00     0.014 A 
HETATM   12  C   UNL     1     -11.314   6.020 -32.227  1.00  0.00     0.001 A 
HETATM   13  C   UNL     1     -12.415   5.502 -32.903  1.00  0.00     0.002 A 
HETATM   14  C   UNL     1     -12.471   4.154 -33.271  1.00  0.00     0.030 A 
ENDROOT
BRANCH   6  15
HETATM   15  C   UNL     1      -6.826   0.136 -31.647  1.00  0.00     0.229 C 
BRANCH  15  16
HETATM   16  C   UNL     1      -5.880  -0.278 -32.786  1.00  0.00     0.235 C 
HETATM   17  N   UNL     1      -6.264  -1.411 -33.461  1.00  0.00    -0.355 N 
HETATM   18  H   UNL     1      -7.027  -1.913 -33.027  1.00  0.00     0.162 HD
HETATM   19  O   UNL     1      -4.914   0.416 -33.083  1.00  0.00    -0.272 OA
BRANCH  17  20
HETATM   20  C   UNL     1      -5.572  -2.113 -34.534  1.00  0.00     0.084 C 
HETATM   21  C   UNL     1      -4.172  -2.640 -34.183  1.00  0.00     0.025 C 
HETATM   22  C   UNL     1      -4.105  -4.093 -33.709  1.00  0.00     0.002 C 
HETATM   23  C   UNL     1      -4.980  -5.027 -34.535  1.00  0.00     0.000 C 
HETATM   24  C   UNL     1      -6.415  -4.526 -34.616  1.00  0.00     0.002 C 
HETATM   25  C   UNL     1      -6.472  -3.136 -35.233  1.00  0.00     0.025 C 
ENDBRANCH  17  20
ENDBRANCH  15  16
ENDBRANCH   6  15
BRANCH   5  26
HETATM   26  C   UNL     1      -6.974   3.348 -32.138  1.00  0.00    -0.030 A 
HETATM   27  C   UNL     1      -6.728   3.312 -33.520  1.00  0.00     0.012 A 
HETATM   28  C   UNL     1      -5.801   4.177 -34.109  1.00  0.00     0.037 A 
HETATM   29  C   UNL     1      -5.100   5.103 -33.337  1.00  0.00     0.068 A 
HETATM   30  C   UNL     1      -5.335   5.157 -31.965  1.00  0.00     0.037 A 
HETATM   31  C   UNL     1      -6.266   4.293 -31.374  1.00  0.00     0.012 A 
BRANCH  29  32
HETATM   32  O   UNL     1      -4.227   5.887 -34.038  1.00  0.00    -0.356 OA
HETATM   33  C   UNL     1      -3.637   5.315 -35.197  1.00  0.00     0.210 C 
ENDBRANCH  29  32
ENDBRANCH   5  26
TORSDOF 5
ENDMDL
MODEL 5
REMARK VINA RESULT:      -8.0      2.556      6.611
REMARK  5 active torsions:
REMARK  status: ('A' for Active; 'I' for Inactive)
REMARK    1  A    between atoms: C_5  and  C_6 
REMARK    2  A    between atoms: C_9  and  O_10 
REMARK    3  A    between atoms: N_14  and  C_15 
REMARK    4  A    between atoms: C_15  and  C_16 
REMARK       I    between atoms: C_16  and  N_17 
REMARK    5  A    between atoms: N_17  and  C_18 
ROOT
HETATM    1  C   UNL     1      -3.365   0.771 -31.785  1.00  0.00     0.156 C 
HETATM    2  N   UNL     1      -4.286   1.824 -32.143  1.00  0.00    -0.346 N 
HETATM    3  C   UNL     1      -5.634   1.732 -32.143  1.00  0.00     0.113 A 
HETATM    4  C   UNL     1      -6.181   2.910 -32.575  1.00  0.00     0.014 A 
HETATM    5  C   UNL     1      -7.662   2.808 -32.611  1.00  0.00     0.158 A 
HETATM    6  N   UNL     1      -7.833   1.452 -32.032  1.00  0.00    -0.325 N 
HETATM    7  C   UNL     1      -6.633   0.770 -31.817  1.00  0.00     0.272 A 
HETATM    8  O   UNL     1      -6.482  -0.372 -31.426  1.00  0.00    -0.266 OA
HETATM    9  C   UNL     1      -5.130   3.810 -32.826  1.00  0.00     0.002 A 
HETATM   10  C   UNL     1      -3.939   3.113 -32.536  1.00  0.00     0.045 A 
HETATM   11  C   UNL     1      -5.054   5.150 -33.246  1.00  0.00     0.014 A 
HETATM   12  C   UNL     1      -3.802   5.764 -33.359  1.00  0.00     0.001 A 
HETATM   13  C   UNL     1      -2.637   5.061 -33.067  1.00  0.00     0.002 A 
HETATM   14  C   UNL     1      -2.682   3.726 -32.653  1.00  0.00     0.030 A 
ENDROOT
BRANCH   6  15
HETATM   15  C   UNL     1      -9.123   0.775 -31.982  1.00  0.00     0.229 C 
BRANCH  15  16
HETATM   16  C   UNL     1     -10.029   1.032 -33.198  1.00  0.00     0.235 C 
HETATM   17  N   UNL     1     -11.205   1.676 -32.904  1.00  0.00    -0.355 N 
HETATM   18  H   UNL     1     -11.397   1.759 -31.914  1.00  0.00     0.162 HD
HETATM   19  O   UNL     1      -9.659   0.737 -34.328  1.00  0.00    -0.272 OA
BRANCH  17  20
HETATM   20  C   UNL     1     -12.310   2.009 -33.794  1.00  0.00     0.084 C 
HETATM   21  C   UNL     1     -13.060   0.809 -34.393  1.00  0.00     0.025 C 
HETATM   22  C   UNL     1     -14.309   0.357 -33.637  1.00  0.00     0.002 C 
HETATM   23  C   UNL     1     -15.178   1.520 -33.176  1.00  0.00     0.000 C 
HETATM   24  C   UNL     1     -14.375   2.539 -32.380  1.00  0.00     0.002 C 
HETATM   25  C   UNL     1     -13.222   3.090 -33.207  1.00  0.00     0.025 C 
ENDBRANCH  17  20
ENDBRANCH  15  16
ENDBRANCH   6  15
BRANCH   5  26
HETATM   26  C   UNL     1      -8.282   3.910 -31.784  1.00  0.00    -0.030 A 
HETATM   27  C   UNL     1      -9.253   4.727 -32.386  1.00  0.00     0.012 A 
HETATM   28  C   UNL     1      -9.896   5.734 -31.660  1.00  0.00     0.037 A 
HETATM   29  C   UNL     1      -9.594   5.948 -30.316  1.00  0.00     0.068 A 
HETATM   30  C   UNL     1      -8.638   5.143 -29.701  1.00  0.00     0.037 A 
HETATM   31  C   UNL     1      -7.994   4.132 -30.426  1.00  0.00     0.012 A 
BRANCH  29  32
HETATM   32  O   UNL     1     -10.296   6.962 -29.726  1.00  0.00    -0.356 OA
HETATM   33  C   UNL     1      -9.592   7.777 -28.798  1.00  0.00     0.210 C 
ENDBRANCH  29  32
ENDBRANCH   5  26
TORSDOF 5
ENDMDL
MODEL 6
REMARK VINA RESULT:      -8.0      2.532      6.639
REMARK  5 active torsions:
REMARK  status: ('A' for Active; 'I' for Inactive)
REMARK    1  A    between atoms: C_5  and  C_6 
REMARK    2  A    between atoms: C_9  and  O_10 
REMARK    3  A    between atoms: N_14  and  C_15 
REMARK    4  A    between atoms: C_15  and  C_16 
REMARK       I    between atoms: C_16  and  N_17 
REMARK    5  A    between atoms: N_17  and  C_18 
ROOT
HETATM    1  C   UNL     1      -7.079   4.230 -29.618  1.00  0.00     0.156 C 
HETATM    2  N   UNL     1      -7.776   4.140 -30.878  1.00  0.00    -0.346 N 
HETATM    3  C   UNL     1      -7.949   3.017 -31.610  1.00  0.00     0.113 A 
HETATM    4  C   UNL     1      -8.624   3.313 -32.763  1.00  0.00     0.014 A 
HETATM    5  C   UNL     1      -8.789   2.091 -33.591  1.00  0.00     0.158 A 
HETATM    6  N   UNL     1      -8.210   1.083 -32.668  1.00  0.00    -0.325 N 
HETATM    7  C   UNL     1      -7.639   1.631 -31.516  1.00  0.00     0.272 A 
HETATM    8  O   UNL     1      -7.035   1.049 -30.633  1.00  0.00    -0.266 OA
HETATM    9  C   UNL     1      -8.929   4.685 -32.748  1.00  0.00     0.002 A 
HETATM   10  C   UNL     1      -8.399   5.192 -31.543  1.00  0.00     0.045 A 
HETATM   11  C   UNL     1      -9.619   5.555 -33.612  1.00  0.00     0.014 A 
HETATM   12  C   UNL     1      -9.770   6.899 -33.254  1.00  0.00     0.001 A 
HETATM   13  C   UNL     1      -9.241   7.382 -32.061  1.00  0.00     0.002 A 
HETATM   14  C   UNL     1      -8.546   6.541 -31.186  1.00  0.00     0.030 A 
ENDROOT
BRANCH   6  15
HETATM   15  C   UNL     1      -7.978  -0.301 -33.059  1.00  0.00     0.229 C 
BRANCH  15  16
HETATM   16  C   UNL     1      -6.664  -0.540 -33.821  1.00  0.00     0.235 C 
HETATM   17  N   UNL     1      -6.350  -1.862 -34.013  1.00  0.00    -0.355 N 
HETATM   18  H   UNL     1      -6.936  -2.507 -33.498  1.00  0.00     0.162 HD
HETATM   19  O   UNL     1      -6.018   0.402 -34.268  1.00  0.00    -0.272 OA
BRANCH  17  20
HETATM   20  C   UNL     1      -5.160  -2.438 -34.626  1.00  0.00     0.084 C 
HETATM   21  C   UNL     1      -3.893  -2.416 -33.757  1.00  0.00     0.025 C 
HETATM   22  C   UNL     1      -3.619  -3.682 -32.944  1.00  0.00     0.002 C 
HETATM   23  C   UNL     1      -3.858  -4.960 -33.736  1.00  0.00     0.000 C 
HETATM   24  C   UNL     1      -5.247  -4.981 -34.361  1.00  0.00     0.002 C 
HETATM   25  C   UNL     1      -5.444  -3.790 -35.288  1.00  0.00     0.025 C 
ENDBRANCH  17  20
ENDBRANCH  15  16
ENDBRANCH   6  15
BRANCH   5  26
HETATM   26  C   UNL     1     -10.250   1.866 -33.904  1.00  0.00    -0.030 A 
HETATM   27  C   UNL     1     -10.836   2.630 -34.927  1.00  0.00     0.012 A 
HETATM   28  C   UNL     1     -12.171   2.436 -35.295  1.00  0.00     0.037 A 
HETATM   29  C   UNL     1     -12.954   1.473 -34.659  1.00  0.00     0.068 A 
HETATM   30  C   UNL     1     -12.388   0.702 -33.647  1.00  0.00     0.037 A 
HETATM   31  C   UNL     1     -11.049   0.893 -33.278  1.00  0.00     0.012 A 
BRANCH  29  32
HETATM   32  O   UNL     1     -14.239   1.387 -35.116  1.00  0.00    -0.356 OA
HETATM   33  C   UNL     1     -15.164   0.678 -34.304  1.00  0.00     0.210 C 
ENDBRANCH  29  32
ENDBRANCH   5  26
TORSDOF 5
ENDMDL
MODEL 7
REMARK VINA RESULT:      -8.0     15.392     17.499
REMARK  5 active torsions:
REMARK  status: ('A' for Active; 'I' for Inactive)
REMARK    1  A    between atoms: C_5  and  C_6 
REMARK    2  A    between atoms: C_9  and  O_10 
REMARK    3  A    between atoms: N_14  and  C_15 
REMARK    4  A    between atoms: C_15  and  C_16 
REMARK       I    between atoms: C_16  and  N_17 
REMARK    5  A    between atoms: N_17  and  C_18 
ROOT
HETATM    1  C   UNL     1       0.317 -15.825 -39.794  1.00  0.00     0.156 C 
HETATM    2  N   UNL     1      -0.321 -15.330 -38.598  1.00  0.00    -0.346 N 
HETATM    3  C   UNL     1      -1.395 -14.510 -38.554  1.00  0.00     0.113 A 
HETATM    4  C   UNL     1      -1.703 -14.217 -37.253  1.00  0.00     0.014 A 
HETATM    5  C   UNL     1      -2.861 -13.288 -37.195  1.00  0.00     0.158 A 
HETATM    6  N   UNL     1      -3.197 -13.216 -38.639  1.00  0.00    -0.325 N 
HETATM    7  C   UNL     1      -2.287 -13.880 -39.467  1.00  0.00     0.272 A 
HETATM    8  O   UNL     1      -2.278 -13.920 -40.683  1.00  0.00    -0.266 OA
HETATM    9  C   UNL     1      -0.806 -14.915 -36.426  1.00  0.00     0.002 A 
HETATM   10  C   UNL     1       0.053 -15.626 -37.291  1.00  0.00     0.045 A 
HETATM   11  C   UNL     1      -0.638 -15.046 -35.036  1.00  0.00     0.014 A 
HETATM   12  C   UNL     1       0.370 -15.881 -34.541  1.00  0.00     0.001 A 
HETATM   13  C   UNL     1       1.207 -16.575 -35.410  1.00  0.00     0.002 A 
HETATM   14  C   UNL     1       1.067 -16.460 -36.797  1.00  0.00     0.030 A 
ENDROOT
BRANCH   6  15
HETATM   15  C   UNL     1      -4.191 -12.293 -39.170  1.00  0.00     0.229 C 
BRANCH  15  16
HETATM   16  C   UNL     1      -5.618 -12.860 -39.240  1.00  0.00     0.235 C 
HETATM   17  N   UNL     1      -6.554 -12.133 -38.546  1.00  0.00    -0.355 N 
HETATM   18  H   UNL     1      -6.163 -11.412 -37.953  1.00  0.00     0.162 HD
HETATM   19  O   UNL     1      -5.870 -13.840 -39.931  1.00  0.00    -0.272 OA
BRANCH  17  20
HETATM   20  C   UNL     1      -7.968 -12.420 -38.346  1.00  0.00     0.084 C 
HETATM   21  C   UNL     1      -8.826 -12.436 -39.620  1.00  0.00     0.025 C 
HETATM   22  C   UNL     1      -9.034 -13.805 -40.268  1.00  0.00     0.002 C 
HETATM   23  C   UNL     1      -9.330 -14.903 -39.255  1.00  0.00     0.000 C 
HETATM   24  C   UNL     1      -8.275 -14.953 -38.158  1.00  0.00     0.002 C 
HETATM   25  C   UNL     1      -8.191 -13.622 -37.423  1.00  0.00     0.025 C 
ENDBRANCH  17  20
ENDBRANCH  15  16
ENDBRANCH   6  15
BRANCH   5  26
HETATM   26  C   UNL     1      -3.959 -13.875 -36.338  1.00  0.00    -0.030 A 
HETATM   27  C   UNL     1      -4.531 -13.066 -35.343  1.00  0.00     0.012 A 
HETATM   28  C   UNL     1      -5.582 -13.536 -34.550  1.00  0.00     0.037 A 
HETATM   29  C   UNL     1      -6.093 -14.820 -34.731  1.00  0.00     0.068 A 
HETATM   30  C   UNL     1      -5.542 -15.635 -35.718  1.00  0.00     0.037 A 
HETATM   31  C   UNL     1      -4.491 -15.165 -36.515  1.00  0.00     0.012 A 
BRANCH  29  32
HETATM   32  O   UNL     1      -7.118 -15.152 -33.891  1.00  0.00    -0.356 OA
HETATM   33  C   UNL     1      -6.770 -15.809 -32.679  1.00  0.00     0.210 C 
ENDBRANCH  29  32
ENDBRANCH   5  26
TORSDOF 5
ENDMDL
MODEL 8
REMARK VINA RESULT:      -7.9      3.013      6.073
REMARK  5 active torsions:
REMARK  status: ('A' for Active; 'I' for Inactive)
REMARK    1  A    between atoms: C_5  and  C_6 
REMARK    2  A    between atoms: C_9  and  O_10 
REMARK    3  A    between atoms: N_14  and  C_15 
REMARK    4  A    between atoms: C_15  and  C_16 
REMARK       I    between atoms: C_16  and  N_17 
REMARK    5  A    between atoms: N_17  and  C_18 
ROOT
HETATM    1  C   UNL     1      -6.834   6.351 -29.469  1.00  0.00     0.156 C 
HETATM    2  N   UNL     1      -7.099   5.525 -30.622  1.00  0.00    -0.346 N 
HETATM    3  C   UNL     1      -6.187   4.795 -31.301  1.00  0.00     0.113 A 
HETATM    4  C   UNL     1      -6.786   4.168 -32.359  1.00  0.00     0.014 A 
HETATM    5  C   UNL     1      -5.785   3.390 -33.133  1.00  0.00     0.158 A 
HETATM    6  N   UNL     1      -4.592   3.597 -32.275  1.00  0.00    -0.325 N 
HETATM    7  C   UNL     1      -4.798   4.491 -31.221  1.00  0.00     0.272 A 
HETATM    8  O   UNL     1      -3.980   4.898 -30.416  1.00  0.00    -0.266 OA
HETATM    9  C   UNL     1      -8.156   4.484 -32.332  1.00  0.00     0.002 A 
HETATM   10  C   UNL     1      -8.341   5.332 -31.219  1.00  0.00     0.045 A 
HETATM   11  C   UNL     1      -9.271   4.128 -33.112  1.00  0.00     0.014 A 
HETATM   12  C   UNL     1     -10.536   4.614 -32.766  1.00  0.00     0.001 A 
HETATM   13  C   UNL     1     -10.699   5.449 -31.664  1.00  0.00     0.002 A 
HETATM   14  C   UNL     1      -9.609   5.824 -30.873  1.00  0.00     0.030 A 
ENDROOT
BRANCH   6  15
HETATM   15  C   UNL     1      -3.257   3.161 -32.666  1.00  0.00     0.229 C 
BRANCH  15  16
HETATM   16  C   UNL     1      -2.270   4.304 -32.957  1.00  0.00     0.235 C 
HETATM   17  N   UNL     1      -1.407   4.586 -31.928  1.00  0.00    -0.355 N 
HETATM   18  H   UNL     1      -1.631   4.119 -31.059  1.00  0.00     0.162 HD
HETATM   19  O   UNL     1      -2.241   4.840 -34.059  1.00  0.00    -0.272 OA
BRANCH  17  20
HETATM   20  C   UNL     1      -0.404   5.639 -31.841  1.00  0.00     0.084 C 
HETATM   21  C   UNL     1      -0.952   7.058 -31.626  1.00  0.00     0.025 C 
HETATM   22  C   UNL     1      -1.022   7.534 -30.175  1.00  0.00     0.002 C 
HETATM   23  C   UNL     1       0.221   7.174 -29.371  1.00  0.00     0.000 C 
HETATM   24  C   UNL     1       0.536   5.687 -29.463  1.00  0.00     0.002 C 
HETATM   25  C   UNL     1       0.752   5.264 -30.909  1.00  0.00     0.025 C 
ENDBRANCH  17  20
ENDBRANCH  15  16
ENDBRANCH   6  15
BRANCH   5  26
HETATM   26  C   UNL     1      -6.218   1.946 -33.243  1.00  0.00    -0.030 A 
HETATM   27  C   UNL     1      -6.537   1.443 -34.514  1.00  0.00     0.012 A 
HETATM   28  C   UNL     1      -6.899   0.103 -34.688  1.00  0.00     0.037 A 
HETATM   29  C   UNL     1      -6.946  -0.769 -33.601  1.00  0.00     0.068 A 
HETATM   30  C   UNL     1      -6.627  -0.289 -32.333  1.00  0.00     0.037 A 
HETATM   31  C   UNL     1      -6.261   1.053 -32.158  1.00  0.00     0.012 A 
BRANCH  29  32
HETATM   32  O   UNL     1      -7.314  -2.048 -33.910  1.00  0.00    -0.356 OA
HETATM   33  C   UNL     1      -6.437  -2.783 -34.755  1.00  0.00     0.210 C 
ENDBRANCH  29  32
ENDBRANCH   5  26
TORSDOF 5
ENDMDL
MODEL 9
REMARK VINA RESULT:      -7.7     15.493     18.285
REMARK  5 active torsions:
REMARK  status: ('A' for Active; 'I' for Inactive)
REMARK    1  A    between atoms: C_5  and  C_6 
REMARK    2  A    between atoms: C_9  and  O_10 
REMARK    3  A    between atoms: N_14  and  C_15 
REMARK    4  A    between atoms: C_15  and  C_16 
REMARK       I    between atoms: C_16  and  N_17 
REMARK    5  A    between atoms: N_17  and  C_18 
ROOT
HETATM    1  C   UNL     1      -7.380 -13.395 -35.766  1.00  0.00     0.156 C 
HETATM    2  N   UNL     1      -7.004 -13.380 -37.159  1.00  0.00    -0.346 N 
HETATM    3  C   UNL     1      -5.761 -13.154 -37.642  1.00  0.00     0.113 A 
HETATM    4  C   UNL     1      -5.783 -13.176 -39.010  1.00  0.00     0.014 A 
HETATM    5  C   UNL     1      -4.429 -12.894 -39.551  1.00  0.00     0.158 A 
HETATM    6  N   UNL     1      -3.661 -12.831 -38.283  1.00  0.00    -0.325 N 
HETATM    7  C   UNL     1      -4.453 -12.910 -37.134  1.00  0.00     0.272 A 
HETATM    8  O   UNL     1      -4.099 -12.812 -35.974  1.00  0.00    -0.266 OA
HETATM    9  C   UNL     1      -7.096 -13.468 -39.419  1.00  0.00     0.002 A 
HETATM   10  C   UNL     1      -7.853 -13.608 -38.237  1.00  0.00     0.045 A 
HETATM   11  C   UNL     1      -7.727 -13.655 -40.662  1.00  0.00     0.014 A 
HETATM   12  C   UNL     1      -9.087 -13.981 -40.699  1.00  0.00     0.001 A 
HETATM   13  C   UNL     1      -9.818 -14.116 -39.522  1.00  0.00     0.002 A 
HETATM   14  C   UNL     1      -9.218 -13.931 -38.273  1.00  0.00     0.030 A 
ENDROOT
BRANCH   6  15
HETATM   15  C   UNL     1      -2.265 -12.417 -38.228  1.00  0.00     0.229 C 
BRANCH  15  16
HETATM   16  C   UNL     1      -1.254 -13.575 -38.186  1.00  0.00     0.235 C 
HETATM   17  N   UNL     1      -0.446 -13.665 -39.292  1.00  0.00    -0.355 N 
HETATM   18  H   UNL     1      -0.720 -13.062 -40.056  1.00  0.00     0.162 HD
HETATM   19  O   UNL     1      -1.161 -14.290 -37.194  1.00  0.00    -0.272 OA
BRANCH  17  20
HETATM   20  C   UNL     1       0.560 -14.671 -39.608  1.00  0.00     0.084 C 
HETATM   21  C   UNL     1       1.747 -14.747 -38.636  1.00  0.00     0.025 C 
HETATM   22  C   UNL     1       1.624 -15.776 -37.512  1.00  0.00     0.002 C 
HETATM   23  C   UNL     1       1.070 -17.112 -37.988  1.00  0.00     0.000 C 
HETATM   24  C   UNL     1      -0.243 -16.939 -38.739  1.00  0.00     0.002 C 
HETATM   25  C   UNL     1      -0.064 -16.028 -39.946  1.00  0.00     0.025 C 
ENDBRANCH  17  20
ENDBRANCH  15  16
ENDBRANCH   6  15
BRANCH   5  26
HETATM   26  C   UNL     1      -3.994 -14.008 -40.476  1.00  0.00    -0.030 A 
HETATM   27  C   UNL     1      -3.936 -15.314 -39.963  1.00  0.00     0.012 A 
HETATM   28  C   UNL     1      -3.586 -16.393 -40.780  1.00  0.00     0.037 A 
HETATM   29  C   UNL     1      -3.292 -16.200 -42.129  1.00  0.00     0.068 A 
HETATM   30  C   UNL     1      -3.351 -14.912 -42.657  1.00  0.00     0.037 A 
HETATM   31  C   UNL     1      -3.703 -13.830 -41.840  1.00  0.00     0.012 A 
BRANCH  29  32
HETATM   32  O   UNL     1      -2.967 -17.338 -42.812  1.00  0.00    -0.356 OA
HETATM   33  C   UNL     1      -1.603 -17.737 -42.785  1.00  0.00     0.210 C 
ENDBRANCH  29  32
ENDBRANCH   5  26
TORSDOF 5
ENDMDL
MODEL 10
REMARK VINA RESULT:      -7.7      2.154      7.125
REMARK  5 active torsions:
REMARK  status: ('A' for Active; 'I' for Inactive)
REMARK    1  A    between atoms: C_5  and  C_6 
REMARK    2  A    between atoms: C_9  and  O_10 
REMARK    3  A    between atoms: N_14  and  C_15 
REMARK    4  A    between atoms: C_15  and  C_16 
REMARK       I    between atoms: C_16  and  N_17 
REMARK    5  A    between atoms: N_17  and  C_18 
ROOT
HETATM    1  C   UNL     1      -9.615   1.110 -34.415  1.00  0.00     0.156 C 
HETATM    2  N   UNL     1      -8.907   2.109 -33.651  1.00  0.00    -0.346 N 
HETATM    3  C   UNL     1      -7.911   1.874 -32.768  1.00  0.00     0.113 A 
HETATM    4  C   UNL     1      -7.502   3.052 -32.204  1.00  0.00     0.014 A 
HETATM    5  C   UNL     1      -6.431   2.801 -31.206  1.00  0.00     0.158 A 
HETATM    6  N   UNL     1      -6.247   1.341 -31.400  1.00  0.00    -0.325 N 
HETATM    7  C   UNL     1      -7.172   0.762 -32.273  1.00  0.00     0.272 A 
HETATM    8  O   UNL     1      -7.298  -0.415 -32.554  1.00  0.00    -0.266 OA
HETATM    9  C   UNL     1      -8.249   4.093 -32.783  1.00  0.00     0.002 A 
HETATM   10  C   UNL     1      -9.123   3.482 -33.707  1.00  0.00     0.045 A 
HETATM   11  C   UNL     1      -8.266   5.493 -32.647  1.00  0.00     0.014 A 
HETATM   12  C   UNL     1      -9.142   6.249 -33.433  1.00  0.00     0.001 A 
HETATM   13  C   UNL     1      -9.998   5.629 -34.340  1.00  0.00     0.002 A 
HETATM   14  C   UNL     1     -10.006   4.239 -34.492  1.00  0.00     0.030 A 
ENDROOT
BRANCH   6  15
HETATM   15  C   UNL     1      -5.395   0.534 -30.536  1.00  0.00     0.229 C 
BRANCH  15  16
HETATM   16  C   UNL     1      -4.144  -0.038 -31.223  1.00  0.00     0.235 C 
HETATM   17  N   UNL     1      -4.371  -1.167 -31.970  1.00  0.00    -0.355 N 
HETATM   18  H   UNL     1      -5.293  -1.566 -31.848  1.00  0.00     0.162 HD
HETATM   19  O   UNL     1      -3.066   0.541 -31.145  1.00  0.00    -0.272 OA
BRANCH  17  20
HETATM   20  C   UNL     1      -3.411  -1.996 -32.687  1.00  0.00     0.084 C 
HETATM   21  C   UNL     1      -2.990  -3.288 -31.971  1.00  0.00     0.025 C 
HETATM   22  C   UNL     1      -3.776  -4.545 -32.348  1.00  0.00     0.002 C 
HETATM   23  C   UNL     1      -4.022  -4.666 -33.846  1.00  0.00     0.000 C 
HETATM   24  C   UNL     1      -4.667  -3.407 -34.411  1.00  0.00     0.002 C 
HETATM   25  C   UNL     1      -3.793  -2.187 -34.157  1.00  0.00     0.025 C 
ENDBRANCH  17  20
ENDBRANCH  15  16
ENDBRANCH   6  15
BRANCH   5  26
HETATM   26  C   UNL     1      -5.206   3.622 -31.538  1.00  0.00    -0.030 A 
HETATM   27  C   UNL     1      -4.509   3.328 -32.721  1.00  0.00     0.012 A 
HETATM   28  C   UNL     1      -3.395   4.082 -33.106  1.00  0.00     0.037 A 
HETATM   29  C   UNL     1      -2.953   5.150 -32.327  1.00  0.00     0.068 A 
HETATM   30  C   UNL     1      -3.637   5.460 -31.153  1.00  0.00     0.037 A 
HETATM   31  C   UNL     1      -4.754   4.707 -30.767  1.00  0.00     0.012 A 
BRANCH  29  32
HETATM   32  O   UNL     1      -1.857   5.801 -32.818  1.00  0.00    -0.356 OA
HETATM   33  C   UNL     1      -2.087   7.042 -33.473  1.00  0.00     0.210 C 
ENDBRANCH  29  32
ENDBRANCH   5  26
TORSDOF 5
ENDMDL
