MODEL 1
REMARK VINA RESULT:      -9.6      0.000      0.000
REMARK  1 active torsions:
REMARK  status: ('A' for Active; 'I' for Inactive)
REMARK    1  A    between atoms: C_8  and  C_9 
ROOT
HETATM    1  C   UNL     1      -4.153  -0.416 -30.970  1.00  0.00     0.073 C 
HETATM    2  C   UNL     1      -5.253   0.531 -30.642  1.00  0.00     0.062 A 
HETATM    3  N   UNL     1      -5.556   0.759 -29.364  1.00  0.00    -0.178 NA
HETATM    4  N   UNL     1      -6.530   1.668 -29.423  1.00  0.00    -0.262 N 
HETATM    5  H   UNL     1      -6.910   2.011 -28.549  1.00  0.00     0.191 HD
HETATM    6  C   UNL     1      -6.922   1.999 -30.695  1.00  0.00     0.134 A 
HETATM    7  C   UNL     1      -6.084   1.287 -31.543  1.00  0.00     0.032 A 
HETATM    8  C   UNL     1      -5.914   1.317 -33.032  1.00  0.00     0.119 C 
HETATM    9  S   UNL     1      -6.790   2.607 -33.941  1.00  0.00    -0.141 SA
HETATM   10  C   UNL     1      -8.462   2.407 -33.259  1.00  0.00     0.136 C 
HETATM   11  C   UNL     1      -9.461   2.846 -34.331  1.00  0.00     0.031 C 
HETATM   12  C   UNL     1      -8.625   3.236 -31.992  1.00  0.00     0.236 C 
HETATM   13  O   UNL     1      -9.447   4.152 -31.904  1.00  0.00    -0.272 OA
HETATM   14  N   UNL     1      -7.935   2.914 -30.857  1.00  0.00    -0.311 N 
HETATM   15  H   UNL     1      -8.249   3.454 -30.057  1.00  0.00     0.170 HD
ENDROOT
BRANCH   8  16
HETATM   16  C   UNL     1      -6.137  -0.083 -33.592  1.00  0.00    -0.039 A 
HETATM   17  C   UNL     1      -5.057  -0.991 -33.569  1.00  0.00     0.021 A 
HETATM   18  C   UNL     1      -5.189  -2.317 -34.019  1.00  0.00    -0.025 A 
HETATM   19  C   UNL     1      -6.428  -2.748 -34.535  1.00  0.00    -0.026 A 
HETATM   20  C   UNL     1      -4.118  -3.223 -33.952  1.00  0.00     0.012 A 
HETATM   21  C   UNL     1      -7.497  -1.843 -34.590  1.00  0.00     0.013 A 
HETATM   22  C   UNL     1      -6.564  -4.075 -34.975  1.00  0.00     0.012 A 
HETATM   23  C   UNL     1      -7.355  -0.533 -34.123  1.00  0.00     0.009 A 
HETATM   24  C   UNL     1      -5.492  -4.966 -34.899  1.00  0.00     0.001 A 
HETATM   25  C   UNL     1      -4.270  -4.541 -34.387  1.00  0.00     0.001 A 
ENDBRANCH   8  16
TORSDOF 1
ENDMDL
MODEL 2
REMARK VINA RESULT:      -9.6      2.404      2.892
REMARK  1 active torsions:
REMARK  status: ('A' for Active; 'I' for Inactive)
REMARK    1  A    between atoms: C_8  and  C_9 
ROOT
HETATM    1  C   UNL     1      -6.208   0.724 -29.725  1.00  0.00     0.073 C 
HETATM    2  C   UNL     1      -6.311   2.169 -30.072  1.00  0.00     0.062 A 
HETATM    3  N   UNL     1      -7.173   2.938 -29.406  1.00  0.00    -0.178 NA
HETATM    4  N   UNL     1      -6.982   4.153 -29.924  1.00  0.00    -0.262 N 
HETATM    5  H   UNL     1      -7.529   4.918 -29.547  1.00  0.00     0.191 HD
HETATM    6  C   UNL     1      -6.071   4.197 -30.949  1.00  0.00     0.134 A 
HETATM    7  C   UNL     1      -5.578   2.906 -31.069  1.00  0.00     0.032 A 
HETATM    8  C   UNL     1      -4.471   2.335 -31.903  1.00  0.00     0.119 C 
HETATM    9  S   UNL     1      -3.428   3.499 -32.805  1.00  0.00    -0.141 SA
HETATM   10  C   UNL     1      -4.699   4.511 -33.619  1.00  0.00     0.136 C 
HETATM   11  C   UNL     1      -4.108   5.044 -34.924  1.00  0.00     0.031 C 
HETATM   12  C   UNL     1      -5.132   5.655 -32.711  1.00  0.00     0.236 C 
HETATM   13  O   UNL     1      -4.976   6.839 -33.022  1.00  0.00    -0.272 OA
HETATM   14  N   UNL     1      -5.822   5.404 -31.558  1.00  0.00    -0.311 N 
HETATM   15  H   UNL     1      -6.173   6.257 -31.134  1.00  0.00     0.170 HD
ENDROOT
BRANCH   8  16
HETATM   16  C   UNL     1      -5.023   1.210 -32.771  1.00  0.00    -0.039 A 
HETATM   17  C   UNL     1      -4.326  -0.016 -32.798  1.00  0.00     0.021 A 
HETATM   18  C   UNL     1      -4.791  -1.121 -33.532  1.00  0.00    -0.025 A 
HETATM   19  C   UNL     1      -5.976  -0.997 -34.286  1.00  0.00    -0.026 A 
HETATM   20  C   UNL     1      -4.110  -2.350 -33.518  1.00  0.00     0.012 A 
HETATM   21  C   UNL     1      -6.658   0.228 -34.289  1.00  0.00     0.013 A 
HETATM   22  C   UNL     1      -6.448  -2.104 -35.011  1.00  0.00     0.012 A 
HETATM   23  C   UNL     1      -6.192   1.313 -33.541  1.00  0.00     0.009 A 
HETATM   24  C   UNL     1      -5.762  -3.319 -34.985  1.00  0.00     0.001 A 
HETATM   25  C   UNL     1      -4.595  -3.443 -34.238  1.00  0.00     0.001 A 
ENDBRANCH   8  16
TORSDOF 1
ENDMDL
MODEL 3
REMARK VINA RESULT:      -9.3      4.137      5.295
REMARK  1 active torsions:
REMARK  status: ('A' for Active; 'I' for Inactive)
REMARK    1  A    between atoms: C_8  and  C_9 
ROOT
HETATM    1  C   UNL     1      -6.472   3.838 -29.795  1.00  0.00     0.073 C 
HETATM    2  C   UNL     1      -5.789   5.086 -30.233  1.00  0.00     0.062 A 
HETATM    3  N   UNL     1      -6.253   6.264 -29.814  1.00  0.00    -0.178 NA
HETATM    4  N   UNL     1      -5.405   7.147 -30.342  1.00  0.00    -0.262 N 
HETATM    5  H   UNL     1      -5.555   8.127 -30.136  1.00  0.00     0.191 HD
HETATM    6  C   UNL     1      -4.437   6.597 -31.143  1.00  0.00     0.134 A 
HETATM    7  C   UNL     1      -4.635   5.225 -31.083  1.00  0.00     0.032 A 
HETATM    8  C   UNL     1      -3.835   4.078 -31.623  1.00  0.00     0.119 C 
HETATM    9  S   UNL     1      -2.221   4.456 -32.336  1.00  0.00    -0.141 SA
HETATM   10  C   UNL     1      -2.671   5.809 -33.461  1.00  0.00     0.136 C 
HETATM   11  C   UNL     1      -1.689   5.792 -34.633  1.00  0.00     0.031 C 
HETATM   12  C   UNL     1      -2.625   7.146 -32.733  1.00  0.00     0.236 C 
HETATM   13  O   UNL     1      -1.855   8.053 -33.065  1.00  0.00    -0.272 OA
HETATM   14  N   UNL     1      -3.527   7.433 -31.747  1.00  0.00    -0.311 N 
HETATM   15  H   UNL     1      -3.475   8.404 -31.456  1.00  0.00     0.170 HD
ENDROOT
BRANCH   8  16
HETATM   16  C   UNL     1      -4.719   3.230 -32.529  1.00  0.00    -0.039 A 
HETATM   17  C   UNL     1      -4.641   1.826 -32.414  1.00  0.00     0.021 A 
HETATM   18  C   UNL     1      -5.457   0.970 -33.175  1.00  0.00    -0.025 A 
HETATM   19  C   UNL     1      -6.362   1.526 -34.103  1.00  0.00    -0.026 A 
HETATM   20  C   UNL     1      -5.399  -0.425 -33.022  1.00  0.00     0.012 A 
HETATM   21  C   UNL     1      -6.423   2.919 -34.245  1.00  0.00     0.013 A 
HETATM   22  C   UNL     1      -7.185   0.672 -34.856  1.00  0.00     0.012 A 
HETATM   23  C   UNL     1      -5.618   3.758 -33.469  1.00  0.00     0.009 A 
HETATM   24  C   UNL     1      -7.119  -0.712 -34.690  1.00  0.00     0.001 A 
HETATM   25  C   UNL     1      -6.228  -1.260 -33.772  1.00  0.00     0.001 A 
ENDBRANCH   8  16
TORSDOF 1
ENDMDL
MODEL 4
REMARK VINA RESULT:      -9.2      2.388      3.391
REMARK  1 active torsions:
REMARK  status: ('A' for Active; 'I' for Inactive)
REMARK    1  A    between atoms: C_8  and  C_9 
ROOT
HETATM    1  C   UNL     1      -8.548   0.363 -31.579  1.00  0.00     0.073 C 
HETATM    2  C   UNL     1      -8.156   1.745 -31.972  1.00  0.00     0.062 A 
HETATM    3  N   UNL     1      -9.098   2.600 -32.372  1.00  0.00    -0.178 NA
HETATM    4  N   UNL     1      -8.428   3.730 -32.601  1.00  0.00    -0.262 N 
HETATM    5  H   UNL     1      -8.956   4.540 -32.902  1.00  0.00     0.191 HD
HETATM    6  C   UNL     1      -7.071   3.631 -32.425  1.00  0.00     0.134 A 
HETATM    7  C   UNL     1      -6.842   2.336 -31.983  1.00  0.00     0.032 A 
HETATM    8  C   UNL     1      -5.601   1.655 -31.491  1.00  0.00     0.119 C 
HETATM    9  S   UNL     1      -4.141   2.682 -31.227  1.00  0.00    -0.141 SA
HETATM   10  C   UNL     1      -4.078   3.569 -32.810  1.00  0.00     0.136 C 
HETATM   11  C   UNL     1      -2.616   3.915 -33.096  1.00  0.00     0.031 C 
HETATM   12  C   UNL     1      -4.932   4.829 -32.752  1.00  0.00     0.236 C 
HETATM   13  O   UNL     1      -4.454   5.958 -32.890  1.00  0.00    -0.272 OA
HETATM   14  N   UNL     1      -6.293   4.741 -32.656  1.00  0.00    -0.311 N 
HETATM   15  H   UNL     1      -6.740   5.645 -32.775  1.00  0.00     0.170 HD
ENDROOT
BRANCH   8  16
HETATM   16  C   UNL     1      -5.333   0.420 -32.343  1.00  0.00    -0.039 A 
HETATM   17  C   UNL     1      -4.483  -0.579 -31.822  1.00  0.00     0.021 A 
HETATM   18  C   UNL     1      -4.222  -1.772 -32.519  1.00  0.00    -0.025 A 
HETATM   19  C   UNL     1      -4.803  -1.969 -33.788  1.00  0.00    -0.026 A 
HETATM   20  C   UNL     1      -3.406  -2.776 -31.972  1.00  0.00     0.012 A 
HETATM   21  C   UNL     1      -5.624  -0.968 -34.326  1.00  0.00     0.013 A 
HETATM   22  C   UNL     1      -4.551  -3.165 -34.481  1.00  0.00     0.012 A 
HETATM   23  C   UNL     1      -5.888   0.206 -33.614  1.00  0.00     0.009 A 
HETATM   24  C   UNL     1      -3.742  -4.155 -33.923  1.00  0.00     0.001 A 
HETATM   25  C   UNL     1      -3.171  -3.963 -32.669  1.00  0.00     0.001 A 
ENDBRANCH   8  16
TORSDOF 1
ENDMDL
MODEL 5
REMARK VINA RESULT:      -9.2      3.398      5.793
REMARK  1 active torsions:
REMARK  status: ('A' for Active; 'I' for Inactive)
REMARK    1  A    between atoms: C_8  and  C_9 
ROOT
HETATM    1  C   UNL     1      -5.098  -0.667 -33.460  1.00  0.00     0.073 C 
HETATM    2  C   UNL     1      -6.355  -0.108 -34.030  1.00  0.00     0.062 A 
HETATM    3  N   UNL     1      -6.864  -0.649 -35.138  1.00  0.00    -0.178 NA
HETATM    4  N   UNL     1      -7.984   0.044 -35.346  1.00  0.00    -0.262 N 
HETATM    5  H   UNL     1      -8.558  -0.213 -36.141  1.00  0.00     0.191 HD
HETATM    6  C   UNL     1      -8.198   1.061 -34.451  1.00  0.00     0.134 A 
HETATM    7  C   UNL     1      -7.154   0.986 -33.540  1.00  0.00     0.032 A 
HETATM    8  C   UNL     1      -6.891   1.722 -32.261  1.00  0.00     0.119 C 
HETATM    9  S   UNL     1      -8.207   2.784 -31.631  1.00  0.00    -0.141 SA
HETATM   10  C   UNL     1      -8.593   3.743 -33.125  1.00  0.00     0.136 C 
HETATM   11  C   UNL     1      -9.111   5.112 -32.682  1.00  0.00     0.031 C 
HETATM   12  C   UNL     1      -9.631   3.018 -33.972  1.00  0.00     0.236 C 
HETATM   13  O   UNL     1     -10.741   3.501 -34.213  1.00  0.00    -0.272 OA
HETATM   14  N   UNL     1      -9.320   1.842 -34.596  1.00  0.00    -0.311 N 
HETATM   15  H   UNL     1     -10.049   1.551 -35.239  1.00  0.00     0.170 HD
ENDROOT
BRANCH   8  16
HETATM   16  C   UNL     1      -5.536   2.414 -32.348  1.00  0.00    -0.039 A 
HETATM   17  C   UNL     1      -5.334   3.361 -33.375  1.00  0.00     0.021 A 
HETATM   18  C   UNL     1      -4.134   4.082 -33.497  1.00  0.00    -0.025 A 
HETATM   19  C   UNL     1      -3.086   3.835 -32.586  1.00  0.00    -0.026 A 
HETATM   20  C   UNL     1      -3.960   5.051 -34.499  1.00  0.00     0.012 A 
HETATM   21  C   UNL     1      -3.268   2.874 -31.582  1.00  0.00     0.013 A 
HETATM   22  C   UNL     1      -1.890   4.562 -32.700  1.00  0.00     0.012 A 
HETATM   23  C   UNL     1      -4.474   2.177 -31.462  1.00  0.00     0.009 A 
HETATM   24  C   UNL     1      -1.733   5.525 -33.698  1.00  0.00     0.001 A 
HETATM   25  C   UNL     1      -2.768   5.771 -34.596  1.00  0.00     0.001 A 
ENDBRANCH   8  16
TORSDOF 1
ENDMDL
MODEL 6
REMARK VINA RESULT:      -9.1      3.444      5.687
REMARK  1 active torsions:
REMARK  status: ('A' for Active; 'I' for Inactive)
REMARK    1  A    between atoms: C_8  and  C_9 
ROOT
HETATM    1  C   UNL     1      -5.267   0.155 -33.052  1.00  0.00     0.073 C 
HETATM    2  C   UNL     1      -6.670   0.457 -32.653  1.00  0.00     0.062 A 
HETATM    3  N   UNL     1      -7.653  -0.335 -33.083  1.00  0.00    -0.178 NA
HETATM    4  N   UNL     1      -8.747   0.180 -32.519  1.00  0.00    -0.262 N 
HETATM    5  H   UNL     1      -9.631  -0.282 -32.695  1.00  0.00     0.191 HD
HETATM    6  C   UNL     1      -8.526   1.318 -31.786  1.00  0.00     0.134 A 
HETATM    7  C   UNL     1      -7.155   1.530 -31.824  1.00  0.00     0.032 A 
HETATM    8  C   UNL     1      -6.279   2.517 -31.115  1.00  0.00     0.119 C 
HETATM    9  S   UNL     1      -7.042   3.530 -29.831  1.00  0.00    -0.141 SA
HETATM   10  C   UNL     1      -8.500   4.143 -30.724  1.00  0.00     0.136 C 
HETATM   11  C   UNL     1      -8.869   5.507 -30.138  1.00  0.00     0.031 C 
HETATM   12  C   UNL     1      -9.658   3.163 -30.592  1.00  0.00     0.236 C 
HETATM   13  O   UNL     1     -10.723   3.469 -30.046  1.00  0.00    -0.272 OA
HETATM   14  N   UNL     1      -9.598   1.932 -31.182  1.00  0.00    -0.311 N 
HETATM   15  H   UNL     1     -10.489   1.447 -31.139  1.00  0.00     0.170 HD
ENDROOT
BRANCH   8  16
HETATM   16  C   UNL     1      -5.495   3.324 -32.143  1.00  0.00    -0.039 A 
HETATM   17  C   UNL     1      -4.140   3.613 -31.874  1.00  0.00     0.021 A 
HETATM   18  C   UNL     1      -3.331   4.308 -32.789  1.00  0.00    -0.025 A 
HETATM   19  C   UNL     1      -3.892   4.755 -34.003  1.00  0.00    -0.026 A 
HETATM   20  C   UNL     1      -1.973   4.554 -32.527  1.00  0.00     0.012 A 
HETATM   21  C   UNL     1      -5.245   4.498 -34.265  1.00  0.00     0.013 A 
HETATM   22  C   UNL     1      -3.081   5.440 -34.924  1.00  0.00     0.012 A 
HETATM   23  C   UNL     1      -6.033   3.791 -33.352  1.00  0.00     0.009 A 
HETATM   24  C   UNL     1      -1.733   5.674 -34.651  1.00  0.00     0.001 A 
HETATM   25  C   UNL     1      -1.178   5.230 -33.455  1.00  0.00     0.001 A 
ENDBRANCH   8  16
TORSDOF 1
ENDMDL
MODEL 7
REMARK VINA RESULT:      -9.1      1.436      2.045
REMARK  1 active torsions:
REMARK  status: ('A' for Active; 'I' for Inactive)
REMARK    1  A    between atoms: C_8  and  C_9 
ROOT
HETATM    1  C   UNL     1      -3.319   2.069 -32.370  1.00  0.00     0.073 C 
HETATM    2  C   UNL     1      -4.625   2.417 -31.746  1.00  0.00     0.062 A 
HETATM    3  N   UNL     1      -4.637   3.065 -30.580  1.00  0.00    -0.178 NA
HETATM    4  N   UNL     1      -5.934   3.255 -30.333  1.00  0.00    -0.262 N 
HETATM    5  H   UNL     1      -6.186   3.757 -29.490  1.00  0.00     0.191 HD
HETATM    6  C   UNL     1      -6.776   2.701 -31.263  1.00  0.00     0.134 A 
HETATM    7  C   UNL     1      -5.953   2.152 -32.236  1.00  0.00     0.032 A 
HETATM    8  C   UNL     1      -6.258   1.531 -33.566  1.00  0.00     0.119 C 
HETATM    9  S   UNL     1      -7.959   1.638 -34.160  1.00  0.00    -0.141 SA
HETATM   10  C   UNL     1      -8.852   1.042 -32.695  1.00  0.00     0.136 C 
HETATM   11  C   UNL     1     -10.147   0.382 -33.171  1.00  0.00     0.031 C 
HETATM   12  C   UNL     1      -9.148   2.195 -31.744  1.00  0.00     0.236 C 
HETATM   13  O   UNL     1     -10.299   2.533 -31.454  1.00  0.00    -0.272 OA
HETATM   14  N   UNL     1      -8.133   2.829 -31.083  1.00  0.00    -0.311 N 
HETATM   15  H   UNL     1      -8.483   3.470 -30.379  1.00  0.00     0.170 HD
ENDROOT
BRANCH   8  16
HETATM   16  C   UNL     1      -5.685   0.120 -33.606  1.00  0.00    -0.039 A 
HETATM   17  C   UNL     1      -6.480  -0.909 -34.152  1.00  0.00     0.021 A 
HETATM   18  C   UNL     1      -6.011  -2.229 -34.273  1.00  0.00    -0.025 A 
HETATM   19  C   UNL     1      -4.717  -2.544 -33.811  1.00  0.00    -0.026 A 
HETATM   20  C   UNL     1      -6.798  -3.236 -34.857  1.00  0.00     0.012 A 
HETATM   21  C   UNL     1      -3.931  -1.534 -33.239  1.00  0.00     0.013 A 
HETATM   22  C   UNL     1      -4.242  -3.860 -33.941  1.00  0.00     0.012 A 
HETATM   23  C   UNL     1      -4.406  -0.222 -33.140  1.00  0.00     0.009 A 
HETATM   24  C   UNL     1      -5.034  -4.849 -34.527  1.00  0.00     0.001 A 
HETATM   25  C   UNL     1      -6.310  -4.537 -34.986  1.00  0.00     0.001 A 
ENDBRANCH   8  16
TORSDOF 1
ENDMDL
MODEL 8
REMARK VINA RESULT:      -9.0      3.521      5.654
REMARK  1 active torsions:
REMARK  status: ('A' for Active; 'I' for Inactive)
REMARK    1  A    between atoms: C_8  and  C_9 
ROOT
HETATM    1  C   UNL     1      -3.789  -0.206 -33.098  1.00  0.00     0.073 C 
HETATM    2  C   UNL     1      -5.226  -0.499 -33.352  1.00  0.00     0.062 A 
HETATM    3  N   UNL     1      -5.554  -1.584 -34.056  1.00  0.00    -0.178 NA
HETATM    4  N   UNL     1      -6.888  -1.571 -34.059  1.00  0.00    -0.262 N 
HETATM    5  H   UNL     1      -7.366  -2.330 -34.529  1.00  0.00     0.191 HD
HETATM    6  C   UNL     1      -7.447  -0.485 -33.436  1.00  0.00     0.134 A 
HETATM    7  C   UNL     1      -6.383   0.246 -32.927  1.00  0.00     0.032 A 
HETATM    8  C   UNL     1      -6.335   1.452 -32.038  1.00  0.00     0.119 C 
HETATM    9  S   UNL     1      -7.891   2.006 -31.310  1.00  0.00    -0.141 SA
HETATM   10  C   UNL     1      -8.943   2.057 -32.790  1.00  0.00     0.136 C 
HETATM   11  C   UNL     1     -10.010   3.129 -32.571  1.00  0.00     0.031 C 
HETATM   12  C   UNL     1      -9.582   0.697 -33.037  1.00  0.00     0.236 C 
HETATM   13  O   UNL     1     -10.805   0.529 -33.020  1.00  0.00    -0.272 OA
HETATM   14  N   UNL     1      -8.817  -0.375 -33.404  1.00  0.00    -0.311 N 
HETATM   15  H   UNL     1      -9.386  -1.170 -33.677  1.00  0.00     0.170 HD
ENDROOT
BRANCH   8  16
HETATM   16  C   UNL     1      -5.558   2.562 -32.736  1.00  0.00    -0.039 A 
HETATM   17  C   UNL     1      -4.306   2.936 -32.203  1.00  0.00     0.021 A 
HETATM   18  C   UNL     1      -3.500   3.915 -32.812  1.00  0.00    -0.025 A 
HETATM   19  C   UNL     1      -3.966   4.564 -33.974  1.00  0.00    -0.026 A 
HETATM   20  C   UNL     1      -2.238   4.249 -32.296  1.00  0.00     0.012 A 
HETATM   21  C   UNL     1      -5.222   4.219 -34.492  1.00  0.00     0.013 A 
HETATM   22  C   UNL     1      -3.158   5.534 -34.590  1.00  0.00     0.012 A 
HETATM   23  C   UNL     1      -6.005   3.232 -33.885  1.00  0.00     0.009 A 
HETATM   24  C   UNL     1      -1.903   5.853 -34.067  1.00  0.00     0.001 A 
HETATM   25  C   UNL     1      -1.443   5.211 -32.923  1.00  0.00     0.001 A 
ENDBRANCH   8  16
TORSDOF 1
ENDMDL
MODEL 9
REMARK VINA RESULT:      -9.0      2.810      5.433
REMARK  1 active torsions:
REMARK  status: ('A' for Active; 'I' for Inactive)
REMARK    1  A    between atoms: C_8  and  C_9 
ROOT
HETATM    1  C   UNL     1      -6.910  -0.734 -35.169  1.00  0.00     0.073 C 
HETATM    2  C   UNL     1      -6.147  -0.209 -34.003  1.00  0.00     0.062 A 
HETATM    3  N   UNL     1      -5.110  -0.906 -33.537  1.00  0.00    -0.178 NA
HETATM    4  N   UNL     1      -4.637  -0.151 -32.545  1.00  0.00    -0.262 N 
HETATM    5  H   UNL     1      -3.818  -0.482 -32.048  1.00  0.00     0.191 HD
HETATM    6  C   UNL     1      -5.364   0.986 -32.301  1.00  0.00     0.134 A 
HETATM    7  C   UNL     1      -6.365   1.006 -33.261  1.00  0.00     0.032 A 
HETATM    8  C   UNL     1      -7.390   2.041 -33.611  1.00  0.00     0.119 C 
HETATM    9  S   UNL     1      -7.250   3.651 -32.808  1.00  0.00    -0.141 SA
HETATM   10  C   UNL     1      -7.091   3.135 -31.073  1.00  0.00     0.136 C 
HETATM   11  C   UNL     1      -7.669   4.248 -30.198  1.00  0.00     0.031 C 
HETATM   12  C   UNL     1      -5.632   2.873 -30.726  1.00  0.00     0.236 C 
HETATM   13  O   UNL     1      -5.031   3.524 -29.865  1.00  0.00    -0.272 OA
HETATM   14  N   UNL     1      -4.963   1.819 -31.282  1.00  0.00    -0.311 N 
HETATM   15  H   UNL     1      -4.055   1.678 -30.853  1.00  0.00     0.170 HD
ENDROOT
BRANCH   8  16
HETATM   16  C   UNL     1      -8.781   1.427 -33.511  1.00  0.00    -0.039 A 
HETATM   17  C   UNL     1      -9.833   2.034 -34.230  1.00  0.00     0.021 A 
HETATM   18  C   UNL     1     -11.135   1.504 -34.233  1.00  0.00    -0.025 A 
HETATM   19  C   UNL     1     -11.410   0.348 -33.474  1.00  0.00    -0.026 A 
HETATM   20  C   UNL     1     -12.164   2.094 -34.986  1.00  0.00     0.012 A 
HETATM   21  C   UNL     1     -10.378  -0.243 -32.733  1.00  0.00     0.013 A 
HETATM   22  C   UNL     1     -12.708  -0.189 -33.485  1.00  0.00     0.012 A 
HETATM   23  C   UNL     1      -9.083   0.285 -32.753  1.00  0.00     0.009 A 
HETATM   24  C   UNL     1     -13.720   0.406 -34.241  1.00  0.00     0.001 A 
HETATM   25  C   UNL     1     -13.448   1.545 -34.992  1.00  0.00     0.001 A 
ENDBRANCH   8  16
TORSDOF 1
ENDMDL
MODEL 10
REMARK VINA RESULT:      -9.0      3.137      4.463
REMARK  1 active torsions:
REMARK  status: ('A' for Active; 'I' for Inactive)
REMARK    1  A    between atoms: C_8  and  C_9 
ROOT
HETATM    1  C   UNL     1      -6.826   2.388 -29.834  1.00  0.00     0.073 C 
HETATM    2  C   UNL     1      -6.528   3.613 -30.628  1.00  0.00     0.062 A 
HETATM    3  N   UNL     1      -7.473   4.543 -30.767  1.00  0.00    -0.178 NA
HETATM    4  N   UNL     1      -6.876   5.501 -31.478  1.00  0.00    -0.262 N 
HETATM    5  H   UNL     1      -7.411   6.334 -31.692  1.00  0.00     0.191 HD
HETATM    6  C   UNL     1      -5.593   5.205 -31.864  1.00  0.00     0.134 A 
HETATM    7  C   UNL     1      -5.307   3.970 -31.302  1.00  0.00     0.032 A 
HETATM    8  C   UNL     1      -4.039   3.172 -31.240  1.00  0.00     0.119 C 
HETATM    9  S   UNL     1      -2.528   3.971 -31.820  1.00  0.00    -0.141 SA
HETATM   10  C   UNL     1      -3.088   4.592 -33.433  1.00  0.00     0.136 C 
HETATM   11  C   UNL     1      -1.875   4.646 -34.362  1.00  0.00     0.031 C 
HETATM   12  C   UNL     1      -3.720   5.971 -33.284  1.00  0.00     0.236 C 
HETATM   13  O   UNL     1      -3.255   6.973 -33.836  1.00  0.00    -0.272 OA
HETATM   14  N   UNL     1      -4.903   6.125 -32.618  1.00  0.00    -0.311 N 
HETATM   15  H   UNL     1      -5.277   7.062 -32.724  1.00  0.00     0.170 HD
ENDROOT
BRANCH   8  16
HETATM   16  C   UNL     1      -4.278   1.798 -31.854  1.00  0.00    -0.039 A 
HETATM   17  C   UNL     1      -5.308   1.663 -32.809  1.00  0.00     0.021 A 
HETATM   18  C   UNL     1      -5.563   0.444 -33.461  1.00  0.00    -0.025 A 
HETATM   19  C   UNL     1      -4.787  -0.687 -33.135  1.00  0.00    -0.026 A 
HETATM   20  C   UNL     1      -6.565   0.333 -34.440  1.00  0.00     0.012 A 
HETATM   21  C   UNL     1      -3.782  -0.568 -32.165  1.00  0.00     0.013 A 
HETATM   22  C   UNL     1      -5.034  -1.903 -33.794  1.00  0.00     0.012 A 
HETATM   23  C   UNL     1      -3.529   0.655 -31.537  1.00  0.00     0.009 A 
HETATM   24  C   UNL     1      -6.030  -1.997 -34.767  1.00  0.00     0.001 A 
HETATM   25  C   UNL     1      -6.794  -0.880 -35.091  1.00  0.00     0.001 A 
ENDBRANCH   8  16
TORSDOF 1
ENDMDL
