MODEL 1
REMARK VINA RESULT:      -7.7      0.000      0.000
REMARK  3 active torsions:
REMARK  status: ('A' for Active; 'I' for Inactive)
REMARK    1  A    between atoms: C_6  and  N_7 
REMARK       I    between atoms: N_7  and  C_8 
REMARK    2  A    between atoms: C_8  and  C_9 
REMARK    3  A    between atoms: C_9  and  C_10 
ROOT
HETATM    1  C   UNL     1      -8.897   2.538 -32.172  1.00  0.00     0.286 C 
HETATM    2  N   UNL     1      -9.530   3.026 -33.475  1.00  0.00    -0.056 N 
HETATM    3  H   UNL     1      -9.461   4.065 -33.466  1.00  0.00     0.278 HD
HETATM    4  H   UNL     1      -8.983   2.706 -34.284  1.00  0.00     0.278 HD
HETATM    5  C   UNL     1     -10.958   2.580 -33.563  1.00  0.00     0.209 C 
HETATM    6  C   UNL     1     -10.982   1.034 -33.561  1.00  0.00     0.115 C 
HETATM    7  N   UNL     1     -10.239   0.465 -32.439  1.00  0.00    -0.353 N 
HETATM    8  C   UNL     1      -9.052   1.012 -31.992  1.00  0.00     0.249 C 
HETATM    9  O   UNL     1      -8.227   0.317 -31.416  1.00  0.00    -0.271 OA
HETATM   10  C   UNL     1     -11.617   3.137 -34.817  1.00  0.00     0.035 C 
HETATM   11  C   UNL     1     -13.064   2.643 -34.904  1.00  0.00     0.002 C 
HETATM   12  C   UNL     1     -13.165   1.118 -34.818  1.00  0.00     0.002 C 
HETATM   13  C   UNL     1     -12.428   0.543 -33.604  1.00  0.00     0.027 C 
HETATM   14  H   UNL     1     -10.269  -0.546 -32.314  1.00  0.00     0.163 HD
ENDROOT
BRANCH   1  15
HETATM   15  C   UNL     1      -7.435   2.986 -32.064  1.00  0.00     0.146 C 
BRANCH  15  16
HETATM   16  C   UNL     1      -6.911   3.335 -33.433  1.00  0.00     0.224 C 
HETATM   17  N   UNL     1      -6.341   2.416 -34.254  1.00  0.00    -0.327 N 
HETATM   18  H   UNL     1      -5.910   2.850 -35.066  1.00  0.00     0.169 HD
HETATM   19  O   UNL     1      -6.991   4.512 -33.813  1.00  0.00    -0.273 OA
BRANCH  17  20
HETATM   20  C   UNL     1      -6.203   1.016 -34.186  1.00  0.00     0.036 A 
HETATM   21  C   UNL     1      -5.265   0.340 -33.407  1.00  0.00     0.053 A 
HETATM   22  C   UNL     1      -5.222  -1.059 -33.417  1.00  0.00     0.036 A 
HETATM   23  C   UNL     1      -6.112  -1.798 -34.190  1.00  0.00     0.024 A 
HETATM   24 CL   UNL     1      -4.057  -1.875 -32.446  1.00  0.00    -0.084 Cl
HETATM   25  C   UNL     1      -7.069  -1.132 -34.949  1.00  0.00     0.004 A 
HETATM   26  C   UNL     1      -7.120   0.264 -34.937  1.00  0.00     0.029 A 
ENDBRANCH  17  20
ENDBRANCH  15  16
ENDBRANCH   1  15
TORSDOF 3
ENDMDL
MODEL 2
REMARK VINA RESULT:      -7.6      4.714      6.718
REMARK  3 active torsions:
REMARK  status: ('A' for Active; 'I' for Inactive)
REMARK    1  A    between atoms: C_6  and  N_7 
REMARK       I    between atoms: N_7  and  C_8 
REMARK    2  A    between atoms: C_8  and  C_9 
REMARK    3  A    between atoms: C_9  and  C_10 
ROOT
HETATM    1  C   UNL     1      -4.078   0.529 -31.614  1.00  0.00     0.286 C 
HETATM    2  N   UNL     1      -4.916   0.579 -32.891  1.00  0.00    -0.056 N 
HETATM    3  H   UNL     1      -5.705   1.232 -32.702  1.00  0.00     0.278 HD
HETATM    4  H   UNL     1      -4.376   0.994 -33.661  1.00  0.00     0.278 HD
HETATM    5  C   UNL     1      -5.419  -0.788 -33.244  1.00  0.00     0.209 C 
HETATM    6  C   UNL     1      -4.197  -1.699 -33.501  1.00  0.00     0.115 C 
HETATM    7  N   UNL     1      -3.238  -1.673 -32.398  1.00  0.00    -0.353 N 
HETATM    8  C   UNL     1      -2.942  -0.512 -31.712  1.00  0.00     0.249 C 
HETATM    9  O   UNL     1      -1.861  -0.380 -31.152  1.00  0.00    -0.271 OA
HETATM   10  C   UNL     1      -6.325  -0.728 -34.465  1.00  0.00     0.035 C 
HETATM   11  C   UNL     1      -6.799  -2.138 -34.827  1.00  0.00     0.002 C 
HETATM   12  C   UNL     1      -5.637  -3.116 -35.008  1.00  0.00     0.002 C 
HETATM   13  C   UNL     1      -4.671  -3.117 -33.819  1.00  0.00     0.027 C 
HETATM   14  H   UNL     1      -2.441  -2.306 -32.447  1.00  0.00     0.163 HD
ENDROOT
BRANCH   1  15
HETATM   15  C   UNL     1      -3.557   1.920 -31.237  1.00  0.00     0.146 C 
BRANCH  15  16
HETATM   16  C   UNL     1      -4.662   2.932 -31.390  1.00  0.00     0.224 C 
HETATM   17  N   UNL     1      -4.455   4.169 -31.909  1.00  0.00    -0.327 N 
HETATM   18  H   UNL     1      -5.269   4.768 -31.798  1.00  0.00     0.169 HD
HETATM   19  O   UNL     1      -5.801   2.624 -31.010  1.00  0.00    -0.273 OA
BRANCH  17  20
HETATM   20  C   UNL     1      -3.347   4.782 -32.527  1.00  0.00     0.036 A 
HETATM   21  C   UNL     1      -2.289   5.392 -31.855  1.00  0.00     0.053 A 
HETATM   22  C   UNL     1      -1.238   5.969 -32.575  1.00  0.00     0.036 A 
HETATM   23  C   UNL     1      -1.221   5.938 -33.966  1.00  0.00     0.024 A 
HETATM   24 CL   UNL     1       0.060   6.715 -31.725  1.00  0.00    -0.084 Cl
HETATM   25  C   UNL     1      -2.258   5.307 -34.646  1.00  0.00     0.004 A 
HETATM   26  C   UNL     1      -3.307   4.724 -33.930  1.00  0.00     0.029 A 
ENDBRANCH  17  20
ENDBRANCH  15  16
ENDBRANCH   1  15
TORSDOF 3
ENDMDL
MODEL 3
REMARK VINA RESULT:      -7.6      3.132      6.222
REMARK  3 active torsions:
REMARK  status: ('A' for Active; 'I' for Inactive)
REMARK    1  A    between atoms: C_6  and  N_7 
REMARK       I    between atoms: N_7  and  C_8 
REMARK    2  A    between atoms: C_8  and  C_9 
REMARK    3  A    between atoms: C_9  and  C_10 
ROOT
HETATM    1  C   UNL     1      -5.392  -0.446 -32.132  1.00  0.00     0.286 C 
HETATM    2  N   UNL     1      -6.132  -0.865 -33.402  1.00  0.00    -0.056 N 
HETATM    3  H   UNL     1      -7.125  -0.582 -33.272  1.00  0.00     0.278 HD
HETATM    4  H   UNL     1      -5.784  -0.338 -34.212  1.00  0.00     0.278 HD
HETATM    5  C   UNL     1      -6.014  -2.344 -33.614  1.00  0.00     0.209 C 
HETATM    6  C   UNL     1      -4.517  -2.688 -33.789  1.00  0.00     0.115 C 
HETATM    7  N   UNL     1      -3.693  -2.166 -32.701  1.00  0.00    -0.353 N 
HETATM    8  C   UNL     1      -3.925  -0.928 -32.134  1.00  0.00     0.249 C 
HETATM    9  O   UNL     1      -3.015  -0.311 -31.598  1.00  0.00    -0.271 OA
HETATM   10  C   UNL     1      -6.822  -2.777 -34.829  1.00  0.00     0.035 C 
HETATM   11  C   UNL     1      -6.661  -4.284 -35.047  1.00  0.00     0.002 C 
HETATM   12  C   UNL     1      -5.194  -4.706 -35.139  1.00  0.00     0.002 C 
HETATM   13  C   UNL     1      -4.355  -4.198 -33.962  1.00  0.00     0.027 C 
HETATM   14  H   UNL     1      -2.705  -2.415 -32.693  1.00  0.00     0.163 HD
ENDROOT
BRANCH   1  15
HETATM   15  C   UNL     1      -5.503   1.064 -31.897  1.00  0.00     0.146 C 
BRANCH  15  16
HETATM   16  C   UNL     1      -6.350   1.325 -30.679  1.00  0.00     0.224 C 
HETATM   17  N   UNL     1      -7.682   1.579 -30.754  1.00  0.00    -0.327 N 
HETATM   18  H   UNL     1      -8.061   1.880 -29.860  1.00  0.00     0.169 HD
HETATM   19  O   UNL     1      -5.802   1.322 -29.567  1.00  0.00    -0.273 OA
BRANCH  17  20
HETATM   20  C   UNL     1      -8.611   1.541 -31.811  1.00  0.00     0.036 A 
HETATM   21  C   UNL     1      -8.895   2.604 -32.668  1.00  0.00     0.053 A 
HETATM   22  C   UNL     1      -9.841   2.450 -33.688  1.00  0.00     0.036 A 
HETATM   23  C   UNL     1     -10.505   1.241 -33.874  1.00  0.00     0.024 A 
HETATM   24 CL   UNL     1     -10.175   3.774 -34.737  1.00  0.00    -0.084 Cl
HETATM   25  C   UNL     1     -10.208   0.167 -33.041  1.00  0.00     0.004 A 
HETATM   26  C   UNL     1      -9.260   0.314 -32.025  1.00  0.00     0.029 A 
ENDBRANCH  17  20
ENDBRANCH  15  16
ENDBRANCH   1  15
TORSDOF 3
ENDMDL
MODEL 4
REMARK VINA RESULT:      -7.4      4.248      7.498
REMARK  3 active torsions:
REMARK  status: ('A' for Active; 'I' for Inactive)
REMARK    1  A    between atoms: C_6  and  N_7 
REMARK       I    between atoms: N_7  and  C_8 
REMARK    2  A    between atoms: C_8  and  C_9 
REMARK    3  A    between atoms: C_9  and  C_10 
ROOT
HETATM    1  C   UNL     1      -4.209   4.599 -33.044  1.00  0.00     0.286 C 
HETATM    2  N   UNL     1      -3.066   4.181 -32.120  1.00  0.00    -0.056 N 
HETATM    3  H   UNL     1      -3.507   3.756 -31.278  1.00  0.00     0.278 HD
HETATM    4  H   UNL     1      -2.502   3.441 -32.556  1.00  0.00     0.278 HD
HETATM    5  C   UNL     1      -2.228   5.368 -31.752  1.00  0.00     0.209 C 
HETATM    6  C   UNL     1      -1.617   5.948 -33.048  1.00  0.00     0.115 C 
HETATM    7  N   UNL     1      -2.626   6.214 -34.071  1.00  0.00    -0.353 N 
HETATM    8  C   UNL     1      -3.699   5.369 -34.281  1.00  0.00     0.249 C 
HETATM    9  O   UNL     1      -4.243   5.318 -35.375  1.00  0.00    -0.271 OA
HETATM   10  C   UNL     1      -1.141   4.970 -30.763  1.00  0.00     0.035 C 
HETATM   11  C   UNL     1      -0.278   6.189 -30.426  1.00  0.00     0.002 C 
HETATM   12  C   UNL     1       0.287   6.866 -31.677  1.00  0.00     0.002 C 
HETATM   13  C   UNL     1      -0.791   7.190 -32.715  1.00  0.00     0.027 C 
HETATM   14  H   UNL     1      -2.323   6.672 -34.929  1.00  0.00     0.163 HD
ENDROOT
BRANCH   1  15
HETATM   15  C   UNL     1      -5.079   3.398 -33.430  1.00  0.00     0.146 C 
BRANCH  15  16
HETATM   16  C   UNL     1      -5.766   2.856 -32.203  1.00  0.00     0.224 C 
HETATM   17  N   UNL     1      -6.298   1.608 -32.153  1.00  0.00    -0.327 N 
HETATM   18  H   UNL     1      -6.851   1.466 -31.312  1.00  0.00     0.169 HD
HETATM   19  O   UNL     1      -5.861   3.590 -31.208  1.00  0.00    -0.273 OA
BRANCH  17  20
HETATM   20  C   UNL     1      -6.262   0.509 -33.033  1.00  0.00     0.036 A 
HETATM   21  C   UNL     1      -5.350  -0.544 -32.966  1.00  0.00     0.053 A 
HETATM   22  C   UNL     1      -5.411  -1.586 -33.896  1.00  0.00     0.036 A 
HETATM   23  C   UNL     1      -6.380  -1.600 -34.895  1.00  0.00     0.024 A 
HETATM   24 CL   UNL     1      -4.277  -2.878 -33.794  1.00  0.00    -0.084 Cl
HETATM   25  C   UNL     1      -7.311  -0.567 -34.954  1.00  0.00     0.004 A 
HETATM   26  C   UNL     1      -7.258   0.473 -34.023  1.00  0.00     0.029 A 
ENDBRANCH  17  20
ENDBRANCH  15  16
ENDBRANCH   1  15
TORSDOF 3
ENDMDL
MODEL 5
REMARK VINA RESULT:      -7.4      3.009      6.473
REMARK  3 active torsions:
REMARK  status: ('A' for Active; 'I' for Inactive)
REMARK    1  A    between atoms: C_6  and  N_7 
REMARK       I    between atoms: N_7  and  C_8 
REMARK    2  A    between atoms: C_8  and  C_9 
REMARK    3  A    between atoms: C_9  and  C_10 
ROOT
HETATM    1  C   UNL     1      -5.256   0.196 -33.547  1.00  0.00     0.286 C 
HETATM    2  N   UNL     1      -4.769  -0.964 -32.679  1.00  0.00    -0.056 N 
HETATM    3  H   UNL     1      -3.932  -0.617 -32.165  1.00  0.00     0.278 HD
HETATM    4  H   UNL     1      -5.470  -1.199 -31.965  1.00  0.00     0.278 HD
HETATM    5  C   UNL     1      -4.429  -2.150 -33.530  1.00  0.00     0.209 C 
HETATM    6  C   UNL     1      -5.712  -2.600 -34.265  1.00  0.00     0.115 C 
HETATM    7  N   UNL     1      -6.356  -1.504 -34.985  1.00  0.00    -0.353 N 
HETATM    8  C   UNL     1      -6.421  -0.225 -34.469  1.00  0.00     0.249 C 
HETATM    9  O   UNL     1      -7.317   0.536 -34.807  1.00  0.00    -0.271 OA
HETATM   10  C   UNL     1      -3.861  -3.276 -32.677  1.00  0.00     0.035 C 
HETATM   11  C   UNL     1      -3.552  -4.488 -33.561  1.00  0.00     0.002 C 
HETATM   12  C   UNL     1      -4.761  -4.931 -34.386  1.00  0.00     0.002 C 
HETATM   13  C   UNL     1      -5.392  -3.782 -35.180  1.00  0.00     0.027 C 
HETATM   14  H   UNL     1      -7.165  -1.728 -35.564  1.00  0.00     0.163 HD
ENDROOT
BRANCH   1  15
HETATM   15  C   UNL     1      -5.607   1.419 -32.694  1.00  0.00     0.146 C 
BRANCH  15  16
HETATM   16  C   UNL     1      -6.142   0.967 -31.359  1.00  0.00     0.224 C 
HETATM   17  N   UNL     1      -7.467   0.962 -31.065  1.00  0.00    -0.327 N 
HETATM   18  H   UNL     1      -7.635   0.775 -30.080  1.00  0.00     0.169 HD
HETATM   19  O   UNL     1      -5.333   0.601 -30.494  1.00  0.00    -0.273 OA
BRANCH  17  20
HETATM   20  C   UNL     1      -8.625   1.193 -31.832  1.00  0.00     0.036 A 
HETATM   21  C   UNL     1      -9.082   2.446 -32.238  1.00  0.00     0.053 A 
HETATM   22  C   UNL     1     -10.249   2.556 -33.002  1.00  0.00     0.036 A 
HETATM   23  C   UNL     1     -10.967   1.425 -33.378  1.00  0.00     0.024 A 
HETATM   24 CL   UNL     1     -10.794   4.113 -33.494  1.00  0.00    -0.084 Cl
HETATM   25  C   UNL     1     -10.505   0.168 -33.001  1.00  0.00     0.004 A 
HETATM   26  C   UNL     1      -9.336   0.054 -32.243  1.00  0.00     0.029 A 
ENDBRANCH  17  20
ENDBRANCH  15  16
ENDBRANCH   1  15
TORSDOF 3
ENDMDL
MODEL 6
REMARK VINA RESULT:      -7.3      4.691      7.365
REMARK  3 active torsions:
REMARK  status: ('A' for Active; 'I' for Inactive)
REMARK    1  A    between atoms: C_6  and  N_7 
REMARK       I    between atoms: N_7  and  C_8 
REMARK    2  A    between atoms: C_8  and  C_9 
REMARK    3  A    between atoms: C_9  and  C_10 
ROOT
HETATM    1  C   UNL     1      -3.283   2.834 -31.605  1.00  0.00     0.286 C 
HETATM    2  N   UNL     1      -2.474   3.718 -32.554  1.00  0.00    -0.056 N 
HETATM    3  H   UNL     1      -1.724   3.115 -32.952  1.00  0.00     0.278 HD
HETATM    4  H   UNL     1      -3.053   4.020 -33.347  1.00  0.00     0.278 HD
HETATM    5  C   UNL     1      -1.895   4.887 -31.817  1.00  0.00     0.209 C 
HETATM    6  C   UNL     1      -3.062   5.726 -31.249  1.00  0.00     0.115 C 
HETATM    7  N   UNL     1      -3.999   4.923 -30.468  1.00  0.00    -0.353 N 
HETATM    8  C   UNL     1      -4.354   3.641 -30.840  1.00  0.00     0.249 C 
HETATM    9  O   UNL     1      -5.430   3.170 -30.495  1.00  0.00    -0.271 OA
HETATM   10  C   UNL     1      -1.017   5.721 -32.739  1.00  0.00     0.035 C 
HETATM   11  C   UNL     1      -0.463   6.926 -31.975  1.00  0.00     0.002 C 
HETATM   12  C   UNL     1      -1.566   7.753 -31.312  1.00  0.00     0.002 C 
HETATM   13  C   UNL     1      -2.506   6.905 -30.450  1.00  0.00     0.027 C 
HETATM   14  H   UNL     1      -4.756   5.409 -29.989  1.00  0.00     0.163 HD
ENDROOT
BRANCH   1  15
HETATM   15  C   UNL     1      -3.883   1.632 -32.342  1.00  0.00     0.146 C 
BRANCH  15  16
HETATM   16  C   UNL     1      -3.338   0.356 -31.753  1.00  0.00     0.224 C 
HETATM   17  N   UNL     1      -3.781  -0.871 -32.128  1.00  0.00    -0.327 N 
HETATM   18  H   UNL     1      -3.418  -1.605 -31.527  1.00  0.00     0.169 HD
HETATM   19  O   UNL     1      -2.461   0.436 -30.880  1.00  0.00    -0.273 OA
BRANCH  17  20
HETATM   20  C   UNL     1      -4.653  -1.312 -33.143  1.00  0.00     0.036 A 
HETATM   21  C   UNL     1      -5.722  -0.579 -33.657  1.00  0.00     0.053 A 
HETATM   22  C   UNL     1      -6.522  -1.119 -34.669  1.00  0.00     0.036 A 
HETATM   23  C   UNL     1      -6.265  -2.385 -35.187  1.00  0.00     0.024 A 
HETATM   24 CL   UNL     1      -7.837  -0.196 -35.290  1.00  0.00    -0.084 Cl
HETATM   25  C   UNL     1      -5.184  -3.113 -34.700  1.00  0.00     0.004 A 
HETATM   26  C   UNL     1      -4.378  -2.574 -33.694  1.00  0.00     0.029 A 
ENDBRANCH  17  20
ENDBRANCH  15  16
ENDBRANCH   1  15
TORSDOF 3
ENDMDL
MODEL 7
REMARK VINA RESULT:      -7.3      3.973      6.241
REMARK  3 active torsions:
REMARK  status: ('A' for Active; 'I' for Inactive)
REMARK    1  A    between atoms: C_6  and  N_7 
REMARK       I    between atoms: N_7  and  C_8 
REMARK    2  A    between atoms: C_8  and  C_9 
REMARK    3  A    between atoms: C_9  and  C_10 
ROOT
HETATM    1  C   UNL     1      -5.994   2.554 -32.959  1.00  0.00     0.286 C 
HETATM    2  N   UNL     1      -5.457   1.220 -32.441  1.00  0.00    -0.056 N 
HETATM    3  H   UNL     1      -4.471   1.391 -32.153  1.00  0.00     0.278 HD
HETATM    4  H   UNL     1      -5.961   0.933 -31.594  1.00  0.00     0.278 HD
HETATM    5  C   UNL     1      -5.534   0.173 -33.511  1.00  0.00     0.209 C 
HETATM    6  C   UNL     1      -7.020  -0.018 -33.893  1.00  0.00     0.115 C 
HETATM    7  N   UNL     1      -7.676   1.243 -34.232  1.00  0.00    -0.353 N 
HETATM    8  C   UNL     1      -7.414   2.414 -33.547  1.00  0.00     0.249 C 
HETATM    9  O   UNL     1      -8.253   3.304 -33.498  1.00  0.00    -0.271 OA
HETATM   10  C   UNL     1      -4.920  -1.133 -33.028  1.00  0.00     0.035 C 
HETATM   11  C   UNL     1      -5.040  -2.197 -34.123  1.00  0.00     0.002 C 
HETATM   12  C   UNL     1      -6.479  -2.372 -34.610  1.00  0.00     0.002 C 
HETATM   13  C   UNL     1      -7.134  -1.048 -35.016  1.00  0.00     0.027 C 
HETATM   14  H   UNL     1      -8.635   1.202 -34.574  1.00  0.00     0.163 HD
ENDROOT
BRANCH   1  15
HETATM   15  C   UNL     1      -5.922   3.638 -31.878  1.00  0.00     0.146 C 
BRANCH  15  16
HETATM   16  C   UNL     1      -4.857   3.280 -30.874  1.00  0.00     0.224 C 
HETATM   17  N   UNL     1      -3.573   3.707 -30.983  1.00  0.00    -0.327 N 
HETATM   18  H   UNL     1      -2.963   3.251 -30.311  1.00  0.00     0.169 HD
HETATM   19  O   UNL     1      -5.168   2.553 -29.919  1.00  0.00    -0.273 OA
BRANCH  17  20
HETATM   20  C   UNL     1      -2.930   4.613 -31.850  1.00  0.00     0.036 A 
HETATM   21  C   UNL     1      -2.689   5.957 -31.569  1.00  0.00     0.053 A 
HETATM   22  C   UNL     1      -2.037   6.764 -32.508  1.00  0.00     0.036 A 
HETATM   23  C   UNL     1      -1.611   6.245 -33.727  1.00  0.00     0.024 A 
HETATM   24 CL   UNL     1      -1.748   8.422 -32.142  1.00  0.00    -0.084 Cl
HETATM   25  C   UNL     1      -1.823   4.898 -34.005  1.00  0.00     0.004 A 
HETATM   26  C   UNL     1      -2.468   4.087 -33.067  1.00  0.00     0.029 A 
ENDBRANCH  17  20
ENDBRANCH  15  16
ENDBRANCH   1  15
TORSDOF 3
ENDMDL
MODEL 8
REMARK VINA RESULT:      -7.1      2.731      6.210
REMARK  3 active torsions:
REMARK  status: ('A' for Active; 'I' for Inactive)
REMARK    1  A    between atoms: C_6  and  N_7 
REMARK       I    between atoms: N_7  and  C_8 
REMARK    2  A    between atoms: C_8  and  C_9 
REMARK    3  A    between atoms: C_9  and  C_10 
ROOT
HETATM    1  C   UNL     1      -7.137   0.326 -32.310  1.00  0.00     0.286 C 
HETATM    2  N   UNL     1      -7.297  -0.430 -33.629  1.00  0.00    -0.056 N 
HETATM    3  H   UNL     1      -8.315  -0.624 -33.736  1.00  0.00     0.278 HD
HETATM    4  H   UNL     1      -7.032   0.167 -34.422  1.00  0.00     0.278 HD
HETATM    5  C   UNL     1      -6.503  -1.701 -33.605  1.00  0.00     0.209 C 
HETATM    6  C   UNL     1      -5.011  -1.334 -33.434  1.00  0.00     0.115 C 
HETATM    7  N   UNL     1      -4.780  -0.455 -32.290  1.00  0.00    -0.353 N 
HETATM    8  C   UNL     1      -5.653   0.563 -31.959  1.00  0.00     0.249 C 
HETATM    9  O   UNL     1      -5.256   1.546 -31.347  1.00  0.00    -0.271 OA
HETATM   10  C   UNL     1      -6.730  -2.498 -34.882  1.00  0.00     0.035 C 
HETATM   11  C   UNL     1      -5.885  -3.774 -34.851  1.00  0.00     0.002 C 
HETATM   12  C   UNL     1      -4.404  -3.487 -34.595  1.00  0.00     0.002 C 
HETATM   13  C   UNL     1      -4.174  -2.610 -33.360  1.00  0.00     0.027 C 
HETATM   14  H   UNL     1      -3.815  -0.227 -32.055  1.00  0.00     0.163 HD
ENDROOT
BRANCH   1  15
HETATM   15  C   UNL     1      -7.944   1.629 -32.315  1.00  0.00     0.146 C 
BRANCH  15  16
HETATM   16  C   UNL     1      -8.025   2.168 -33.721  1.00  0.00     0.224 C 
HETATM   17  N   UNL     1      -9.197   2.282 -34.394  1.00  0.00    -0.327 N 
HETATM   18  H   UNL     1      -9.051   2.517 -35.372  1.00  0.00     0.169 HD
HETATM   19  O   UNL     1      -6.973   2.503 -34.285  1.00  0.00    -0.273 OA
BRANCH  17  20
HETATM   20  C   UNL     1     -10.544   2.110 -34.020  1.00  0.00     0.036 A 
HETATM   21  C   UNL     1     -11.223   0.892 -34.002  1.00  0.00     0.053 A 
HETATM   22  C   UNL     1     -12.564   0.841 -33.610  1.00  0.00     0.036 A 
HETATM   23  C   UNL     1     -13.242   1.993 -33.223  1.00  0.00     0.024 A 
HETATM   24 CL   UNL     1     -13.383  -0.674 -33.592  1.00  0.00    -0.084 Cl
HETATM   25  C   UNL     1     -12.567   3.209 -33.212  1.00  0.00     0.004 A 
HETATM   26  C   UNL     1     -11.224   3.264 -33.597  1.00  0.00     0.029 A 
ENDBRANCH  17  20
ENDBRANCH  15  16
ENDBRANCH   1  15
TORSDOF 3
ENDMDL
MODEL 9
REMARK VINA RESULT:      -7.1      3.438      6.168
REMARK  3 active torsions:
REMARK  status: ('A' for Active; 'I' for Inactive)
REMARK    1  A    between atoms: C_6  and  N_7 
REMARK       I    between atoms: N_7  and  C_8 
REMARK    2  A    between atoms: C_8  and  C_9 
REMARK    3  A    between atoms: C_9  and  C_10 
ROOT
HETATM    1  C   UNL     1      -5.079   2.550 -32.215  1.00  0.00     0.286 C 
HETATM    2  N   UNL     1      -4.946   3.602 -33.316  1.00  0.00    -0.056 N 
HETATM    3  H   UNL     1      -5.114   3.109 -34.217  1.00  0.00     0.278 HD
HETATM    4  H   UNL     1      -5.686   4.309 -33.231  1.00  0.00     0.278 HD
HETATM    5  C   UNL     1      -3.582   4.223 -33.285  1.00  0.00     0.209 C 
HETATM    6  C   UNL     1      -3.403   4.925 -31.920  1.00  0.00     0.115 C 
HETATM    7  N   UNL     1      -3.688   4.038 -30.794  1.00  0.00    -0.353 N 
HETATM    8  C   UNL     1      -4.721   3.122 -30.826  1.00  0.00     0.249 C 
HETATM    9  O   UNL     1      -5.245   2.741 -29.788  1.00  0.00    -0.271 OA
HETATM   10  C   UNL     1      -3.416   5.208 -34.435  1.00  0.00     0.035 C 
HETATM   11  C   UNL     1      -2.030   5.855 -34.365  1.00  0.00     0.002 C 
HETATM   12  C   UNL     1      -1.753   6.493 -33.002  1.00  0.00     0.002 C 
HETATM   13  C   UNL     1      -2.003   5.533 -31.835  1.00  0.00     0.027 C 
HETATM   14  H   UNL     1      -3.517   4.395 -29.855  1.00  0.00     0.163 HD
ENDROOT
BRANCH   1  15
HETATM   15  C   UNL     1      -6.468   1.902 -32.231  1.00  0.00     0.146 C 
BRANCH  15  16
HETATM   16  C   UNL     1      -7.010   1.905 -33.638  1.00  0.00     0.224 C 
HETATM   17  N   UNL     1      -6.789   0.888 -34.509  1.00  0.00    -0.327 N 
HETATM   18  H   UNL     1      -7.094   1.122 -35.450  1.00  0.00     0.169 HD
HETATM   19  O   UNL     1      -7.670   2.885 -34.013  1.00  0.00    -0.273 OA
BRANCH  17  20
HETATM   20  C   UNL     1      -6.203  -0.386 -34.374  1.00  0.00     0.036 A 
HETATM   21  C   UNL     1      -6.781  -1.584 -34.794  1.00  0.00     0.053 A 
HETATM   22  C   UNL     1      -6.103  -2.793 -34.610  1.00  0.00     0.036 A 
HETATM   23  C   UNL     1      -4.844  -2.826 -34.018  1.00  0.00     0.024 A 
HETATM   24 CL   UNL     1      -6.834  -4.261 -35.137  1.00  0.00    -0.084 Cl
HETATM   25  C   UNL     1      -4.247  -1.634 -33.620  1.00  0.00     0.004 A 
HETATM   26  C   UNL     1      -4.918  -0.422 -33.809  1.00  0.00     0.029 A 
ENDBRANCH  17  20
ENDBRANCH  15  16
ENDBRANCH   1  15
TORSDOF 3
ENDMDL
MODEL 10
REMARK VINA RESULT:      -6.9      4.077      5.467
REMARK  3 active torsions:
REMARK  status: ('A' for Active; 'I' for Inactive)
REMARK    1  A    between atoms: C_6  and  N_7 
REMARK       I    between atoms: N_7  and  C_8 
REMARK    2  A    between atoms: C_8  and  C_9 
REMARK    3  A    between atoms: C_9  and  C_10 
ROOT
HETATM    1  C   UNL     1      -6.428   3.021 -33.090  1.00  0.00     0.286 C 
HETATM    2  N   UNL     1      -7.235   2.075 -32.202  1.00  0.00    -0.056 N 
HETATM    3  H   UNL     1      -6.575   1.336 -31.881  1.00  0.00     0.278 HD
HETATM    4  H   UNL     1      -7.558   2.561 -31.357  1.00  0.00     0.278 HD
HETATM    5  C   UNL     1      -8.378   1.483 -32.968  1.00  0.00     0.209 C 
HETATM    6  C   UNL     1      -9.306   2.635 -33.418  1.00  0.00     0.115 C 
HETATM    7  N   UNL     1      -8.583   3.689 -34.128  1.00  0.00    -0.353 N 
HETATM    8  C   UNL     1      -7.320   4.096 -33.746  1.00  0.00     0.249 C 
HETATM    9  O   UNL     1      -6.930   5.228 -34.003  1.00  0.00    -0.271 OA
HETATM   10  C   UNL     1      -9.132   0.474 -32.113  1.00  0.00     0.035 C 
HETATM   11  C   UNL     1     -10.314  -0.093 -32.904  1.00  0.00     0.002 C 
HETATM   12  C   UNL     1     -11.226   1.004 -33.455  1.00  0.00     0.002 C 
HETATM   13  C   UNL     1     -10.461   2.071 -34.244  1.00  0.00     0.027 C 
HETATM   14  H   UNL     1      -9.129   4.449 -34.531  1.00  0.00     0.163 HD
ENDROOT
BRANCH   1  15
HETATM   15  C   UNL     1      -5.252   3.636 -32.323  1.00  0.00     0.146 C 
BRANCH  15  16
HETATM   16  C   UNL     1      -4.086   2.681 -32.337  1.00  0.00     0.224 C 
HETATM   17  N   UNL     1      -2.822   3.074 -32.640  1.00  0.00    -0.327 N 
HETATM   18  H   UNL     1      -2.196   2.281 -32.749  1.00  0.00     0.169 HD
HETATM   19  O   UNL     1      -4.297   1.488 -32.075  1.00  0.00    -0.273 OA
BRANCH  17  20
HETATM   20  C   UNL     1      -2.231   4.333 -32.860  1.00  0.00     0.036 A 
HETATM   21  C   UNL     1      -1.349   4.970 -31.987  1.00  0.00     0.053 A 
HETATM   22  C   UNL     1      -0.822   6.224 -32.313  1.00  0.00     0.036 A 
HETATM   23  C   UNL     1      -1.155   6.853 -33.508  1.00  0.00     0.024 A 
HETATM   24 CL   UNL     1       0.267   6.991 -31.222  1.00  0.00    -0.084 Cl
HETATM   25  C   UNL     1      -2.013   6.214 -34.398  1.00  0.00     0.004 A 
HETATM   26  C   UNL     1      -2.537   4.959 -34.080  1.00  0.00     0.029 A 
ENDBRANCH  17  20
ENDBRANCH  15  16
ENDBRANCH   1  15
TORSDOF 3
ENDMDL
