MODEL 1
REMARK VINA RESULT:      -7.7      0.000      0.000
REMARK  7 active torsions:
REMARK  status: ('A' for Active; 'I' for Inactive)
REMARK    1  A    between atoms: C_6  and  C_7 
REMARK       I    between atoms: C_7  and  N_8 
REMARK    2  A    between atoms: N_8  and  N_9 
REMARK       I    between atoms: N_9  and  C_10 
REMARK    3  A    between atoms: C_10  and  C_11 
REMARK    4  A    between atoms: C_11  and  C_12 
REMARK    5  A    between atoms: C_12  and  C_13 
REMARK    6  A    between atoms: C_13  and  O_14 
REMARK    7  A    between atoms: O_14  and  C_15 
ROOT
HETATM    1  N   UNL     1      -8.652   1.040 -31.898  1.00  0.00    -0.267 N 
HETATM    2  C   UNL     1      -8.325   2.128 -31.114  1.00  0.00     0.236 C 
HETATM    3  O   UNL     1      -9.145   2.957 -30.731  1.00  0.00    -0.272 OA
HETATM    4  H   UNL     1      -8.011   0.265 -32.060  1.00  0.00     0.190 HD
ENDROOT
BRANCH   2   5
HETATM    5  C   UNL     1      -6.842   2.198 -30.810  1.00  0.00     0.107 C 
BRANCH   5   6
HETATM    6  C   UNL     1      -5.982   2.563 -32.016  1.00  0.00     0.036 C 
BRANCH   6   7
HETATM    7  C   UNL     1      -5.053   1.426 -32.449  1.00  0.00     0.176 C 
BRANCH   7   8
HETATM    8  O   UNL     1      -5.673   0.200 -32.069  1.00  0.00    -0.349 OA
BRANCH   8   9
HETATM    9  C   UNL     1      -5.578  -0.895 -32.881  1.00  0.00     0.090 A 
HETATM   10  C   UNL     1      -4.538  -1.827 -33.025  1.00  0.00     0.069 A 
HETATM   11 CL   UNL     1      -3.063  -1.816 -32.125  1.00  0.00    -0.081 Cl
HETATM   12  C   UNL     1      -4.680  -2.901 -33.919  1.00  0.00     0.050 A 
HETATM   13  C   UNL     1      -5.851  -3.060 -34.654  1.00  0.00     0.035 A 
HETATM   14 CL   UNL     1      -6.012  -4.390 -35.733  1.00  0.00    -0.084 Cl
HETATM   15  C   UNL     1      -6.894  -2.156 -34.511  1.00  0.00     0.026 A 
HETATM   16  C   UNL     1      -6.754  -1.085 -33.627  1.00  0.00     0.040 A 
ENDBRANCH   8   9
ENDBRANCH   7   8
ENDBRANCH   6   7
ENDBRANCH   5   6
ENDBRANCH   2   5
BRANCH   1  17
HETATM   17  N   UNL     1      -9.999   0.787 -32.160  1.00  0.00    -0.262 N 
HETATM   18  C   UNL     1     -10.445   0.740 -33.466  1.00  0.00     0.290 C 
HETATM   19  O   UNL     1      -9.714   0.977 -34.428  1.00  0.00    -0.264 OA
HETATM   20  H   UNL     1     -10.611   0.492 -31.397  1.00  0.00     0.190 HD
BRANCH  18  21
HETATM   21  C   UNL     1     -11.864   0.384 -33.591  1.00  0.00     0.147 A 
HETATM   22  N   UNL     1     -12.349  -0.797 -33.156  1.00  0.00    -0.169 NA
HETATM   23  N   UNL     1     -13.662  -0.738 -33.438  1.00  0.00    -0.282 N 
HETATM   24  C   UNL     1     -14.046   0.430 -34.036  1.00  0.00     0.026 A 
HETATM   25  H   UNL     1     -14.241  -1.534 -33.191  1.00  0.00     0.189 HD
HETATM   26  C   UNL     1     -15.444   0.709 -34.427  1.00  0.00     0.070 C 
HETATM   27  C   UNL     1     -12.896   1.178 -34.154  1.00  0.00     0.065 A 
ENDBRANCH  18  21
ENDBRANCH   1  17
TORSDOF 7
ENDMDL
MODEL 2
REMARK VINA RESULT:      -7.3      5.082      8.596
REMARK  7 active torsions:
REMARK  status: ('A' for Active; 'I' for Inactive)
REMARK    1  A    between atoms: C_6  and  C_7 
REMARK       I    between atoms: C_7  and  N_8 
REMARK    2  A    between atoms: N_8  and  N_9 
REMARK       I    between atoms: N_9  and  C_10 
REMARK    3  A    between atoms: C_10  and  C_11 
REMARK    4  A    between atoms: C_11  and  C_12 
REMARK    5  A    between atoms: C_12  and  C_13 
REMARK    6  A    between atoms: C_13  and  O_14 
REMARK    7  A    between atoms: O_14  and  C_15 
ROOT
HETATM    1  N   UNL     1      -3.550   3.427 -32.119  1.00  0.00    -0.267 N 
HETATM    2  C   UNL     1      -4.718   2.927 -31.577  1.00  0.00     0.236 C 
HETATM    3  O   UNL     1      -4.906   2.807 -30.370  1.00  0.00    -0.272 OA
HETATM    4  H   UNL     1      -3.468   3.692 -33.100  1.00  0.00     0.190 HD
ENDROOT
BRANCH   2   5
HETATM    5  C   UNL     1      -5.719   2.516 -32.637  1.00  0.00     0.107 C 
BRANCH   5   6
HETATM    6  C   UNL     1      -7.035   1.991 -32.073  1.00  0.00     0.036 C 
BRANCH   6   7
HETATM    7  C   UNL     1      -7.370   0.581 -32.563  1.00  0.00     0.176 C 
BRANCH   7   8
HETATM    8  O   UNL     1      -6.595   0.340 -33.734  1.00  0.00    -0.349 OA
BRANCH   8   9
HETATM    9  C   UNL     1      -6.026  -0.885 -33.939  1.00  0.00     0.090 A 
HETATM   10  C   UNL     1      -4.712  -1.323 -33.711  1.00  0.00     0.069 A 
HETATM   11 CL   UNL     1      -3.446  -0.354 -33.043  1.00  0.00    -0.081 Cl
HETATM   12  C   UNL     1      -4.361  -2.656 -33.979  1.00  0.00     0.050 A 
HETATM   13  C   UNL     1      -5.310  -3.554 -34.457  1.00  0.00     0.035 A 
HETATM   14 CL   UNL     1      -4.866  -5.187 -34.766  1.00  0.00    -0.084 Cl
HETATM   15  C   UNL     1      -6.618  -3.142 -34.673  1.00  0.00     0.026 A 
HETATM   16  C   UNL     1      -6.968  -1.816 -34.411  1.00  0.00     0.040 A 
ENDBRANCH   8   9
ENDBRANCH   7   8
ENDBRANCH   6   7
ENDBRANCH   5   6
ENDBRANCH   2   5
BRANCH   1  17
HETATM   17  N   UNL     1      -2.585   3.951 -31.258  1.00  0.00    -0.262 N 
HETATM   18  C   UNL     1      -1.606   4.787 -31.756  1.00  0.00     0.290 C 
HETATM   19  O   UNL     1      -1.502   5.051 -32.955  1.00  0.00    -0.264 OA
HETATM   20  H   UNL     1      -2.696   3.833 -30.250  1.00  0.00     0.190 HD
BRANCH  18  21
HETATM   21  C   UNL     1      -0.712   5.326 -30.725  1.00  0.00     0.147 A 
HETATM   22  N   UNL     1       0.179   4.553 -30.070  1.00  0.00    -0.169 NA
HETATM   23  N   UNL     1       0.800   5.401 -29.233  1.00  0.00    -0.282 N 
HETATM   24  C   UNL     1       0.350   6.688 -29.317  1.00  0.00     0.026 A 
HETATM   25  H   UNL     1       1.528   5.031 -28.630  1.00  0.00     0.189 HD
HETATM   26  C   UNL     1       0.897   7.786 -28.491  1.00  0.00     0.070 C 
HETATM   27  C   UNL     1      -0.638   6.670 -30.277  1.00  0.00     0.065 A 
ENDBRANCH  18  21
ENDBRANCH   1  17
TORSDOF 7
ENDMDL
MODEL 3
REMARK VINA RESULT:      -7.2      5.975      9.485
REMARK  7 active torsions:
REMARK  status: ('A' for Active; 'I' for Inactive)
REMARK    1  A    between atoms: C_6  and  C_7 
REMARK       I    between atoms: C_7  and  N_8 
REMARK    2  A    between atoms: N_8  and  N_9 
REMARK       I    between atoms: N_9  and  C_10 
REMARK    3  A    between atoms: C_10  and  C_11 
REMARK    4  A    between atoms: C_11  and  C_12 
REMARK    5  A    between atoms: C_12  and  C_13 
REMARK    6  A    between atoms: C_13  and  O_14 
REMARK    7  A    between atoms: O_14  and  C_15 
ROOT
HETATM    1  N   UNL     1      -2.213   4.198 -31.446  1.00  0.00    -0.267 N 
HETATM    2  C   UNL     1      -3.584   4.079 -31.558  1.00  0.00     0.236 C 
HETATM    3  O   UNL     1      -4.375   4.620 -30.792  1.00  0.00    -0.272 OA
HETATM    4  H   UNL     1      -1.572   3.900 -32.181  1.00  0.00     0.190 HD
ENDROOT
BRANCH   2   5
HETATM    5  C   UNL     1      -3.995   3.181 -32.707  1.00  0.00     0.107 C 
BRANCH   5   6
HETATM    6  C   UNL     1      -5.436   3.383 -33.163  1.00  0.00     0.036 C 
BRANCH   6   7
HETATM    7  C   UNL     1      -6.240   2.081 -33.184  1.00  0.00     0.176 C 
BRANCH   7   8
HETATM    8  O   UNL     1      -5.396   1.049 -32.681  1.00  0.00    -0.349 OA
BRANCH   8   9
HETATM    9  C   UNL     1      -5.410  -0.190 -33.258  1.00  0.00     0.090 A 
HETATM   10  C   UNL     1      -4.462  -1.223 -33.206  1.00  0.00     0.069 A 
HETATM   11 CL   UNL     1      -2.983  -1.170 -32.313  1.00  0.00    -0.081 Cl
HETATM   12  C   UNL     1      -4.710  -2.436 -33.870  1.00  0.00     0.050 A 
HETATM   13  C   UNL     1      -5.898  -2.629 -34.569  1.00  0.00     0.035 A 
HETATM   14 CL   UNL     1      -6.192  -4.126 -35.363  1.00  0.00    -0.084 Cl
HETATM   15  C   UNL     1      -6.852  -1.622 -34.617  1.00  0.00     0.026 A 
HETATM   16  C   UNL     1      -6.606  -0.415 -33.962  1.00  0.00     0.040 A 
ENDBRANCH   8   9
ENDBRANCH   7   8
ENDBRANCH   6   7
ENDBRANCH   5   6
ENDBRANCH   2   5
BRANCH   1  17
HETATM   17  N   UNL     1      -1.695   5.086 -30.502  1.00  0.00    -0.262 N 
HETATM   18  C   UNL     1      -0.329   5.260 -30.405  1.00  0.00     0.290 C 
HETATM   19  O   UNL     1       0.475   4.614 -31.078  1.00  0.00    -0.264 OA
HETATM   20  H   UNL     1      -2.329   5.706 -29.997  1.00  0.00     0.190 HD
BRANCH  18  21
HETATM   21  C   UNL     1       0.066   6.283 -29.429  1.00  0.00     0.147 A 
HETATM   22  N   UNL     1      -0.234   7.588 -29.594  1.00  0.00    -0.169 NA
HETATM   23  N   UNL     1       0.281   8.185 -28.506  1.00  0.00    -0.282 N 
HETATM   24  C   UNL     1       0.901   7.323 -27.645  1.00  0.00     0.026 A 
HETATM   25  H   UNL     1       0.171   9.190 -28.414  1.00  0.00     0.189 HD
HETATM   26  C   UNL     1       1.532   7.765 -26.383  1.00  0.00     0.070 C 
HETATM   27  C   UNL     1       0.782   6.078 -28.221  1.00  0.00     0.065 A 
ENDBRANCH  18  21
ENDBRANCH   1  17
TORSDOF 7
ENDMDL
MODEL 4
REMARK VINA RESULT:      -7.2      3.904      6.945
REMARK  7 active torsions:
REMARK  status: ('A' for Active; 'I' for Inactive)
REMARK    1  A    between atoms: C_6  and  C_7 
REMARK       I    between atoms: C_7  and  N_8 
REMARK    2  A    between atoms: N_8  and  N_9 
REMARK       I    between atoms: N_9  and  C_10 
REMARK    3  A    between atoms: C_10  and  C_11 
REMARK    4  A    between atoms: C_11  and  C_12 
REMARK    5  A    between atoms: C_12  and  C_13 
REMARK    6  A    between atoms: C_13  and  O_14 
REMARK    7  A    between atoms: O_14  and  C_15 
ROOT
HETATM    1  N   UNL     1      -6.135   2.807 -32.679  1.00  0.00    -0.267 N 
HETATM    2  C   UNL     1      -6.467   2.345 -31.421  1.00  0.00     0.236 C 
HETATM    3  O   UNL     1      -5.765   2.520 -30.429  1.00  0.00    -0.272 OA
HETATM    4  H   UNL     1      -6.797   2.818 -33.454  1.00  0.00     0.190 HD
ENDROOT
BRANCH   2   5
HETATM    5  C   UNL     1      -7.771   1.575 -31.412  1.00  0.00     0.107 C 
BRANCH   5   6
HETATM    6  C   UNL     1      -7.654   0.157 -31.961  1.00  0.00     0.036 C 
BRANCH   6   7
HETATM    7  C   UNL     1      -7.964   0.072 -33.458  1.00  0.00     0.176 C 
BRANCH   7   8
HETATM    8  O   UNL     1      -6.722   0.118 -34.154  1.00  0.00    -0.349 OA
BRANCH   8   9
HETATM    9  C   UNL     1      -5.856  -0.937 -34.080  1.00  0.00     0.090 A 
HETATM   10  C   UNL     1      -4.584  -1.026 -33.493  1.00  0.00     0.069 A 
HETATM   11 CL   UNL     1      -3.791   0.256 -32.646  1.00  0.00    -0.081 Cl
HETATM   12  C   UNL     1      -3.882  -2.242 -33.521  1.00  0.00     0.050 A 
HETATM   13  C   UNL     1      -4.443  -3.368 -34.115  1.00  0.00     0.035 A 
HETATM   14 CL   UNL     1      -3.575  -4.853 -34.128  1.00  0.00    -0.084 Cl
HETATM   15  C   UNL     1      -5.707  -3.302 -34.686  1.00  0.00     0.026 A 
HETATM   16  C   UNL     1      -6.404  -2.093 -34.663  1.00  0.00     0.040 A 
ENDBRANCH   8   9
ENDBRANCH   7   8
ENDBRANCH   6   7
ENDBRANCH   5   6
ENDBRANCH   2   5
BRANCH   1  17
HETATM   17  N   UNL     1      -5.017   3.630 -32.815  1.00  0.00    -0.262 N 
HETATM   18  C   UNL     1      -5.042   4.675 -33.716  1.00  0.00     0.290 C 
HETATM   19  O   UNL     1      -5.996   4.884 -34.467  1.00  0.00    -0.264 OA
HETATM   20  H   UNL     1      -4.250   3.547 -32.146  1.00  0.00     0.190 HD
BRANCH  18  21
HETATM   21  C   UNL     1      -3.831   5.504 -33.692  1.00  0.00     0.147 A 
HETATM   22  N   UNL     1      -3.305   6.040 -34.812  1.00  0.00    -0.169 NA
HETATM   23  N   UNL     1      -2.232   6.723 -34.379  1.00  0.00    -0.282 N 
HETATM   24  C   UNL     1      -2.041   6.651 -33.027  1.00  0.00     0.026 A 
HETATM   25  H   UNL     1      -1.671   7.220 -35.064  1.00  0.00     0.189 HD
HETATM   26  C   UNL     1      -0.924   7.331 -32.336  1.00  0.00     0.070 C 
HETATM   27  C   UNL     1      -3.064   5.860 -32.553  1.00  0.00     0.065 A 
ENDBRANCH  18  21
ENDBRANCH   1  17
TORSDOF 7
ENDMDL
MODEL 5
REMARK VINA RESULT:      -6.9     14.950     17.499
REMARK  7 active torsions:
REMARK  status: ('A' for Active; 'I' for Inactive)
REMARK    1  A    between atoms: C_6  and  C_7 
REMARK       I    between atoms: C_7  and  N_8 
REMARK    2  A    between atoms: N_8  and  N_9 
REMARK       I    between atoms: N_9  and  C_10 
REMARK    3  A    between atoms: C_10  and  C_11 
REMARK    4  A    between atoms: C_11  and  C_12 
REMARK    5  A    between atoms: C_12  and  C_13 
REMARK    6  A    between atoms: C_13  and  O_14 
REMARK    7  A    between atoms: O_14  and  C_15 
ROOT
HETATM    1  N   UNL     1      -2.511 -13.533 -40.380  1.00  0.00    -0.267 N 
HETATM    2  C   UNL     1      -1.424 -13.918 -39.620  1.00  0.00     0.236 C 
HETATM    3  O   UNL     1      -0.579 -14.720 -40.005  1.00  0.00    -0.272 OA
HETATM    4  H   UNL     1      -3.102 -12.740 -40.133  1.00  0.00     0.190 HD
ENDROOT
BRANCH   2   5
HETATM    5  C   UNL     1      -1.414 -13.266 -38.252  1.00  0.00     0.107 C 
BRANCH   5   6
HETATM    6  C   UNL     1      -2.494 -12.205 -38.067  1.00  0.00     0.036 C 
BRANCH   6   7
HETATM    7  C   UNL     1      -3.708 -12.722 -37.293  1.00  0.00     0.176 C 
BRANCH   7   8
HETATM    8  O   UNL     1      -4.456 -13.551 -38.178  1.00  0.00    -0.349 OA
BRANCH   8   9
HETATM    9  C   UNL     1      -5.742 -13.222 -38.502  1.00  0.00     0.090 A 
HETATM   10  C   UNL     1      -6.905 -13.229 -37.716  1.00  0.00     0.069 A 
HETATM   11 CL   UNL     1      -6.967 -13.651 -36.041  1.00  0.00    -0.081 Cl
HETATM   12  C   UNL     1      -8.128 -12.819 -38.270  1.00  0.00     0.050 A 
HETATM   13  C   UNL     1      -8.197 -12.390 -39.593  1.00  0.00     0.035 A 
HETATM   14 CL   UNL     1      -9.701 -11.877 -40.250  1.00  0.00    -0.084 Cl
HETATM   15  C   UNL     1      -7.053 -12.362 -40.379  1.00  0.00     0.026 A 
HETATM   16  C   UNL     1      -5.837 -12.773 -39.831  1.00  0.00     0.040 A 
ENDBRANCH   8   9
ENDBRANCH   7   8
ENDBRANCH   6   7
ENDBRANCH   5   6
ENDBRANCH   2   5
BRANCH   1  17
HETATM   17  N   UNL     1      -2.587 -13.967 -41.704  1.00  0.00    -0.262 N 
HETATM   18  C   UNL     1      -3.494 -14.947 -42.051  1.00  0.00     0.290 C 
HETATM   19  O   UNL     1      -4.210 -15.515 -41.225  1.00  0.00    -0.264 OA
HETATM   20  H   UNL     1      -2.080 -13.455 -42.429  1.00  0.00     0.190 HD
BRANCH  18  21
HETATM   21  C   UNL     1      -3.520 -15.244 -43.489  1.00  0.00     0.147 A 
HETATM   22  N   UNL     1      -4.237 -14.506 -44.361  1.00  0.00    -0.169 NA
HETATM   23  N   UNL     1      -3.996 -15.079 -45.553  1.00  0.00    -0.282 N 
HETATM   24  C   UNL     1      -3.155 -16.155 -45.488  1.00  0.00     0.026 A 
HETATM   25  H   UNL     1      -4.439 -14.680 -46.375  1.00  0.00     0.189 HD
HETATM   26  C   UNL     1      -2.751 -16.931 -46.680  1.00  0.00     0.070 C 
HETATM   27  C   UNL     1      -2.832 -16.290 -44.156  1.00  0.00     0.065 A 
ENDBRANCH  18  21
ENDBRANCH   1  17
TORSDOF 7
ENDMDL
MODEL 6
REMARK VINA RESULT:      -6.9      1.899      2.203
REMARK  7 active torsions:
REMARK  status: ('A' for Active; 'I' for Inactive)
REMARK    1  A    between atoms: C_6  and  C_7 
REMARK       I    between atoms: C_7  and  N_8 
REMARK    2  A    between atoms: N_8  and  N_9 
REMARK       I    between atoms: N_9  and  C_10 
REMARK    3  A    between atoms: C_10  and  C_11 
REMARK    4  A    between atoms: C_11  and  C_12 
REMARK    5  A    between atoms: C_12  and  C_13 
REMARK    6  A    between atoms: C_13  and  O_14 
REMARK    7  A    between atoms: O_14  and  C_15 
ROOT
HETATM    1  N   UNL     1      -8.859   2.426 -31.521  1.00  0.00    -0.267 N 
HETATM    2  C   UNL     1      -7.872   1.519 -31.188  1.00  0.00     0.236 C 
HETATM    3  O   UNL     1      -7.985   0.307 -31.352  1.00  0.00    -0.272 OA
HETATM    4  H   UNL     1      -8.694   3.431 -31.553  1.00  0.00     0.190 HD
ENDROOT
BRANCH   2   5
HETATM    5  C   UNL     1      -6.659   2.183 -30.572  1.00  0.00     0.107 C 
BRANCH   5   6
HETATM    6  C   UNL     1      -5.470   2.298 -31.521  1.00  0.00     0.036 C 
BRANCH   6   7
HETATM    7  C   UNL     1      -4.652   1.007 -31.608  1.00  0.00     0.176 C 
BRANCH   7   8
HETATM    8  O   UNL     1      -4.441   0.728 -32.989  1.00  0.00    -0.349 OA
BRANCH   8   9
HETATM    9  C   UNL     1      -5.062  -0.340 -33.574  1.00  0.00     0.090 A 
HETATM   10  C   UNL     1      -6.256  -0.401 -34.309  1.00  0.00     0.069 A 
HETATM   11 CL   UNL     1      -7.257   0.955 -34.692  1.00  0.00    -0.081 Cl
HETATM   12  C   UNL     1      -6.689  -1.627 -34.841  1.00  0.00     0.050 A 
HETATM   13  C   UNL     1      -5.934  -2.782 -34.660  1.00  0.00     0.035 A 
HETATM   14 CL   UNL     1      -6.472  -4.272 -35.332  1.00  0.00    -0.084 Cl
HETATM   15  C   UNL     1      -4.743  -2.735 -33.949  1.00  0.00     0.026 A 
HETATM   16  C   UNL     1      -4.314  -1.519 -33.415  1.00  0.00     0.040 A 
ENDBRANCH   8   9
ENDBRANCH   7   8
ENDBRANCH   6   7
ENDBRANCH   5   6
ENDBRANCH   2   5
BRANCH   1  17
HETATM   17  N   UNL     1      -9.986   1.966 -32.203  1.00  0.00    -0.262 N 
HETATM   18  C   UNL     1     -10.747   2.851 -32.941  1.00  0.00     0.290 C 
HETATM   19  O   UNL     1     -10.513   4.059 -32.979  1.00  0.00    -0.264 OA
HETATM   20  H   UNL     1     -10.154   0.962 -32.272  1.00  0.00     0.190 HD
BRANCH  18  21
HETATM   21  C   UNL     1     -11.851   2.213 -33.669  1.00  0.00     0.147 A 
HETATM   22  N   UNL     1     -11.734   1.825 -34.955  1.00  0.00    -0.169 NA
HETATM   23  N   UNL     1     -12.931   1.289 -35.248  1.00  0.00    -0.282 N 
HETATM   24  C   UNL     1     -13.817   1.314 -34.207  1.00  0.00     0.026 A 
HETATM   25  H   UNL     1     -13.075   0.921 -36.183  1.00  0.00     0.189 HD
HETATM   26  C   UNL     1     -15.189   0.773 -34.307  1.00  0.00     0.070 C 
HETATM   27  C   UNL     1     -13.144   1.915 -33.166  1.00  0.00     0.065 A 
ENDBRANCH  18  21
ENDBRANCH   1  17
TORSDOF 7
ENDMDL
MODEL 7
REMARK VINA RESULT:      -6.9      1.968      2.174
REMARK  7 active torsions:
REMARK  status: ('A' for Active; 'I' for Inactive)
REMARK    1  A    between atoms: C_6  and  C_7 
REMARK       I    between atoms: C_7  and  N_8 
REMARK    2  A    between atoms: N_8  and  N_9 
REMARK       I    between atoms: N_9  and  C_10 
REMARK    3  A    between atoms: C_10  and  C_11 
REMARK    4  A    between atoms: C_11  and  C_12 
REMARK    5  A    between atoms: C_12  and  C_13 
REMARK    6  A    between atoms: C_13  and  O_14 
REMARK    7  A    between atoms: O_14  and  C_15 
ROOT
HETATM    1  N   UNL     1     -10.298   2.603 -32.277  1.00  0.00    -0.267 N 
HETATM    2  C   UNL     1      -9.636   3.757 -32.649  1.00  0.00     0.236 C 
HETATM    3  O   UNL     1     -10.195   4.721 -33.162  1.00  0.00    -0.272 OA
HETATM    4  H   UNL     1      -9.869   1.886 -31.694  1.00  0.00     0.190 HD
ENDROOT
BRANCH   2   5
HETATM    5  C   UNL     1      -8.147   3.681 -32.383  1.00  0.00     0.107 C 
BRANCH   5   6
HETATM    6  C   UNL     1      -7.386   2.810 -33.378  1.00  0.00     0.036 C 
BRANCH   6   7
HETATM    7  C   UNL     1      -6.969   1.461 -32.789  1.00  0.00     0.176 C 
BRANCH   7   8
HETATM    8  O   UNL     1      -5.785   1.047 -33.464  1.00  0.00    -0.349 OA
BRANCH   8   9
HETATM    9  C   UNL     1      -5.603  -0.268 -33.784  1.00  0.00     0.090 A 
HETATM   10  C   UNL     1      -4.483  -1.096 -33.610  1.00  0.00     0.069 A 
HETATM   11 CL   UNL     1      -2.998  -0.614 -32.869  1.00  0.00    -0.081 Cl
HETATM   12  C   UNL     1      -4.540  -2.444 -34.001  1.00  0.00     0.050 A 
HETATM   13  C   UNL     1      -5.706  -2.972 -34.549  1.00  0.00     0.035 A 
HETATM   14 CL   UNL     1      -5.763  -4.629 -35.009  1.00  0.00    -0.084 Cl
HETATM   15  C   UNL     1      -6.827  -2.171 -34.713  1.00  0.00     0.026 A 
HETATM   16  C   UNL     1      -6.771  -0.830 -34.329  1.00  0.00     0.040 A 
ENDBRANCH   8   9
ENDBRANCH   7   8
ENDBRANCH   6   7
ENDBRANCH   5   6
ENDBRANCH   2   5
BRANCH   1  17
HETATM   17  N   UNL     1     -11.691   2.576 -32.359  1.00  0.00    -0.262 N 
HETATM   18  C   UNL     1     -12.302   1.898 -33.395  1.00  0.00     0.290 C 
HETATM   19  O   UNL     1     -11.669   1.358 -34.303  1.00  0.00    -0.264 OA
HETATM   20  H   UNL     1     -12.245   2.928 -31.578  1.00  0.00     0.190 HD
BRANCH  18  21
HETATM   21  C   UNL     1     -13.767   1.886 -33.307  1.00  0.00     0.147 A 
HETATM   22  N   UNL     1     -14.536   1.252 -34.217  1.00  0.00    -0.169 NA
HETATM   23  N   UNL     1     -15.792   1.461 -33.789  1.00  0.00    -0.282 N 
HETATM   24  C   UNL     1     -15.870   2.202 -32.643  1.00  0.00     0.026 A 
HETATM   25  H   UNL     1     -16.555   1.065 -34.330  1.00  0.00     0.189 HD
HETATM   26  C   UNL     1     -17.153   2.547 -31.995  1.00  0.00     0.070 C 
HETATM   27  C   UNL     1     -14.567   2.498 -32.308  1.00  0.00     0.065 A 
ENDBRANCH  18  21
ENDBRANCH   1  17
TORSDOF 7
ENDMDL
MODEL 8
REMARK VINA RESULT:      -6.8      2.076      2.635
REMARK  7 active torsions:
REMARK  status: ('A' for Active; 'I' for Inactive)
REMARK    1  A    between atoms: C_6  and  C_7 
REMARK       I    between atoms: C_7  and  N_8 
REMARK    2  A    between atoms: N_8  and  N_9 
REMARK       I    between atoms: N_9  and  C_10 
REMARK    3  A    between atoms: C_10  and  C_11 
REMARK    4  A    between atoms: C_11  and  C_12 
REMARK    5  A    between atoms: C_12  and  C_13 
REMARK    6  A    between atoms: C_13  and  O_14 
REMARK    7  A    between atoms: O_14  and  C_15 
ROOT
HETATM    1  N   UNL     1      -6.994   2.184 -31.648  1.00  0.00    -0.267 N 
HETATM    2  C   UNL     1      -6.004   3.132 -31.812  1.00  0.00     0.236 C 
HETATM    3  O   UNL     1      -6.111   4.099 -32.561  1.00  0.00    -0.272 OA
HETATM    4  H   UNL     1      -6.974   1.492 -30.900  1.00  0.00     0.190 HD
ENDROOT
BRANCH   2   5
HETATM    5  C   UNL     1      -4.766   2.826 -30.994  1.00  0.00     0.107 C 
BRANCH   5   6
HETATM    6  C   UNL     1      -3.643   2.176 -31.795  1.00  0.00     0.036 C 
BRANCH   6   7
HETATM    7  C   UNL     1      -3.931   0.714 -32.144  1.00  0.00     0.176 C 
BRANCH   7   8
HETATM    8  O   UNL     1      -4.823   0.708 -33.255  1.00  0.00    -0.349 OA
BRANCH   8   9
HETATM    9  C   UNL     1      -5.260  -0.477 -33.776  1.00  0.00     0.090 A 
HETATM   10  C   UNL     1      -6.390  -0.760 -34.558  1.00  0.00     0.069 A 
HETATM   11 CL   UNL     1      -7.539   0.411 -35.103  1.00  0.00    -0.081 Cl
HETATM   12  C   UNL     1      -6.624  -2.071 -35.004  1.00  0.00     0.050 A 
HETATM   13  C   UNL     1      -5.734  -3.094 -34.689  1.00  0.00     0.035 A 
HETATM   14 CL   UNL     1      -6.028  -4.691 -35.257  1.00  0.00    -0.084 Cl
HETATM   15  C   UNL     1      -4.603  -2.828 -33.930  1.00  0.00     0.026 A 
HETATM   16  C   UNL     1      -4.372  -1.527 -33.482  1.00  0.00     0.040 A 
ENDBRANCH   8   9
ENDBRANCH   7   8
ENDBRANCH   6   7
ENDBRANCH   5   6
ENDBRANCH   2   5
BRANCH   1  17
HETATM   17  N   UNL     1      -8.232   2.399 -32.253  1.00  0.00    -0.262 N 
HETATM   18  C   UNL     1      -9.197   1.413 -32.207  1.00  0.00     0.290 C 
HETATM   19  O   UNL     1      -8.995   0.307 -31.704  1.00  0.00    -0.264 OA
HETATM   20  H   UNL     1      -8.468   3.333 -32.593  1.00  0.00     0.190 HD
BRANCH  18  21
HETATM   21  C   UNL     1     -10.474   1.809 -32.811  1.00  0.00     0.147 A 
HETATM   22  N   UNL     1     -10.962   3.062 -32.702  1.00  0.00    -0.169 NA
HETATM   23  N   UNL     1     -12.120   3.026 -33.384  1.00  0.00    -0.282 N 
HETATM   24  C   UNL     1     -12.402   1.804 -33.928  1.00  0.00     0.026 A 
HETATM   25  H   UNL     1     -12.670   3.877 -33.439  1.00  0.00     0.189 HD
HETATM   26  C   UNL     1     -13.621   1.540 -34.721  1.00  0.00     0.070 C 
HETATM   27  C   UNL     1     -11.351   0.990 -33.568  1.00  0.00     0.065 A 
ENDBRANCH  18  21
ENDBRANCH   1  17
TORSDOF 7
ENDMDL
MODEL 9
REMARK VINA RESULT:      -6.7      4.304      7.907
REMARK  7 active torsions:
REMARK  status: ('A' for Active; 'I' for Inactive)
REMARK    1  A    between atoms: C_6  and  C_7 
REMARK       I    between atoms: C_7  and  N_8 
REMARK    2  A    between atoms: N_8  and  N_9 
REMARK       I    between atoms: N_9  and  C_10 
REMARK    3  A    between atoms: C_10  and  C_11 
REMARK    4  A    between atoms: C_11  and  C_12 
REMARK    5  A    between atoms: C_12  and  C_13 
REMARK    6  A    between atoms: C_13  and  O_14 
REMARK    7  A    between atoms: O_14  and  C_15 
ROOT
HETATM    1  N   UNL     1      -3.686   0.911 -32.556  1.00  0.00    -0.267 N 
HETATM    2  C   UNL     1      -3.229  -0.097 -31.730  1.00  0.00     0.236 C 
HETATM    3  O   UNL     1      -2.310   0.049 -30.930  1.00  0.00    -0.272 OA
HETATM    4  H   UNL     1      -4.556   0.840 -33.082  1.00  0.00     0.190 HD
ENDROOT
BRANCH   2   5
HETATM    5  C   UNL     1      -3.965  -1.403 -31.948  1.00  0.00     0.107 C 
BRANCH   5   6
HETATM    6  C   UNL     1      -4.164  -1.761 -33.418  1.00  0.00     0.036 C 
BRANCH   6   7
HETATM    7  C   UNL     1      -5.632  -1.703 -33.849  1.00  0.00     0.176 C 
BRANCH   7   8
HETATM    8  O   UNL     1      -5.978  -0.330 -34.002  1.00  0.00    -0.349 OA
BRANCH   8   9
HETATM    9  C   UNL     1      -7.227   0.104 -33.656  1.00  0.00     0.090 A 
HETATM   10  C   UNL     1      -7.796   0.309 -32.389  1.00  0.00     0.069 A 
HETATM   11 CL   UNL     1      -6.977   0.075 -30.885  1.00  0.00    -0.081 Cl
HETATM   12  C   UNL     1      -9.110   0.790 -32.281  1.00  0.00     0.050 A 
HETATM   13  C   UNL     1      -9.853   1.082 -33.422  1.00  0.00     0.035 A 
HETATM   14 CL   UNL     1     -11.456   1.686 -33.270  1.00  0.00    -0.084 Cl
HETATM   15  C   UNL     1      -9.299   0.900 -34.682  1.00  0.00     0.026 A 
HETATM   16  C   UNL     1      -7.995   0.417 -34.792  1.00  0.00     0.040 A 
ENDBRANCH   8   9
ENDBRANCH   7   8
ENDBRANCH   6   7
ENDBRANCH   5   6
ENDBRANCH   2   5
BRANCH   1  17
HETATM   17  N   UNL     1      -3.176   2.198 -32.384  1.00  0.00    -0.262 N 
HETATM   18  C   UNL     1      -3.905   3.133 -31.677  1.00  0.00     0.290 C 
HETATM   19  O   UNL     1      -5.032   2.905 -31.236  1.00  0.00    -0.264 OA
HETATM   20  H   UNL     1      -2.210   2.394 -32.651  1.00  0.00     0.190 HD
BRANCH  18  21
HETATM   21  C   UNL     1      -3.210   4.415 -31.506  1.00  0.00     0.147 A 
HETATM   22  N   UNL     1      -3.789   5.470 -30.896  1.00  0.00    -0.169 NA
HETATM   23  N   UNL     1      -2.847   6.428 -30.930  1.00  0.00    -0.282 N 
HETATM   24  C   UNL     1      -1.684   6.038 -31.535  1.00  0.00     0.026 A 
HETATM   25  H   UNL     1      -3.065   7.329 -30.516  1.00  0.00     0.189 HD
HETATM   26  C   UNL     1      -0.515   6.931 -31.677  1.00  0.00     0.070 C 
HETATM   27  C   UNL     1      -1.893   4.734 -31.925  1.00  0.00     0.065 A 
ENDBRANCH  18  21
ENDBRANCH   1  17
TORSDOF 7
ENDMDL
MODEL 10
REMARK VINA RESULT:      -6.3     14.361     15.924
REMARK  7 active torsions:
REMARK  status: ('A' for Active; 'I' for Inactive)
REMARK    1  A    between atoms: C_6  and  C_7 
REMARK       I    between atoms: C_7  and  N_8 
REMARK    2  A    between atoms: N_8  and  N_9 
REMARK       I    between atoms: N_9  and  C_10 
REMARK    3  A    between atoms: C_10  and  C_11 
REMARK    4  A    between atoms: C_11  and  C_12 
REMARK    5  A    between atoms: C_12  and  C_13 
REMARK    6  A    between atoms: C_13  and  O_14 
REMARK    7  A    between atoms: O_14  and  C_15 
ROOT
HETATM    1  N   UNL     1      -7.112 -14.701 -36.509  1.00  0.00    -0.267 N 
HETATM    2  C   UNL     1      -7.923 -15.556 -37.230  1.00  0.00     0.236 C 
HETATM    3  O   UNL     1      -8.175 -16.705 -36.880  1.00  0.00    -0.272 OA
HETATM    4  H   UNL     1      -7.052 -13.703 -36.705  1.00  0.00     0.190 HD
ENDROOT
BRANCH   2   5
HETATM    5  C   UNL     1      -8.434 -14.926 -38.510  1.00  0.00     0.107 C 
BRANCH   5   6
HETATM    6  C   UNL     1      -8.989 -13.517 -38.326  1.00  0.00     0.036 C 
BRANCH   6   7
HETATM    7  C   UNL     1      -8.302 -12.487 -39.225  1.00  0.00     0.176 C 
BRANCH   7   8
HETATM    8  O   UNL     1      -7.022 -12.215 -38.663  1.00  0.00    -0.349 OA
BRANCH   8   9
HETATM    9  C   UNL     1      -5.893 -12.693 -39.266  1.00  0.00     0.090 A 
HETATM   10  C   UNL     1      -4.631 -12.983 -38.725  1.00  0.00     0.069 A 
HETATM   11 CL   UNL     1      -4.205 -12.823 -37.058  1.00  0.00    -0.081 Cl
HETATM   12  C   UNL     1      -3.616 -13.497 -39.550  1.00  0.00     0.050 A 
HETATM   13  C   UNL     1      -3.855 -13.736 -40.899  1.00  0.00     0.035 A 
HETATM   14 CL   UNL     1      -2.606 -14.379 -41.891  1.00  0.00    -0.084 Cl
HETATM   15  C   UNL     1      -5.103 -13.469 -41.446  1.00  0.00     0.026 A 
HETATM   16  C   UNL     1      -6.111 -12.954 -40.630  1.00  0.00     0.040 A 
ENDBRANCH   8   9
ENDBRANCH   7   8
ENDBRANCH   6   7
ENDBRANCH   5   6
ENDBRANCH   2   5
BRANCH   1  17
HETATM   17  N   UNL     1      -6.664 -15.109 -35.252  1.00  0.00    -0.262 N 
HETATM   18  C   UNL     1      -6.973 -14.354 -34.138  1.00  0.00     0.290 C 
HETATM   19  O   UNL     1      -7.582 -13.286 -34.206  1.00  0.00    -0.264 OA
HETATM   20  H   UNL     1      -6.242 -16.032 -35.146  1.00  0.00     0.190 HD
BRANCH  18  21
HETATM   21  C   UNL     1      -6.507 -14.945 -32.878  1.00  0.00     0.147 A 
HETATM   22  N   UNL     1      -5.710 -14.275 -32.021  1.00  0.00    -0.169 NA
HETATM   23  N   UNL     1      -5.519 -15.135 -31.006  1.00  0.00    -0.282 N 
HETATM   24  C   UNL     1      -6.157 -16.332 -31.171  1.00  0.00     0.026 A 
HETATM   25  H   UNL     1      -4.940 -14.837 -30.228  1.00  0.00     0.189 HD
HETATM   26  C   UNL     1      -6.087 -17.423 -30.174  1.00  0.00     0.070 C 
HETATM   27  C   UNL     1      -6.805 -16.241 -32.382  1.00  0.00     0.065 A 
ENDBRANCH  18  21
ENDBRANCH   1  17
TORSDOF 7
ENDMDL
