MODEL 1
REMARK VINA RESULT:      -8.5      0.000      0.000
REMARK  6 active torsions:
REMARK  status: ('A' for Active; 'I' for Inactive)
REMARK    1  A    between atoms: C_9  and  C_10 
REMARK    2  A    between atoms: C_10  and  N_11 
REMARK       I    between atoms: N_11  and  C_12 
REMARK    3  A    between atoms: N_11  and  C_22 
REMARK    4  A    between atoms: C_12  and  C_13 
REMARK    5  A    between atoms: C_16  and  O_17 
REMARK    6  A    between atoms: C_22  and  C_23 
ROOT
HETATM    1  N   UNL     1      -6.668   2.925 -32.811  1.00  0.00    -0.341 N 
HETATM    2  C   UNL     1      -6.457   2.107 -31.695  1.00  0.00     0.254 C 
HETATM    3  O   UNL     1      -7.117   2.182 -30.659  1.00  0.00    -0.267 OA
ENDROOT
BRANCH   1   4
HETATM    4  C   UNL     1      -7.718   3.940 -32.706  1.00  0.00     0.170 C 
BRANCH   4   5
HETATM    5  C   UNL     1      -8.976   3.543 -33.421  1.00  0.00     0.029 A 
HETATM    6  C   UNL     1      -9.531   4.494 -34.431  1.00  0.00     0.253 A 
HETATM    7  N   UNL     1     -10.704   4.136 -35.046  1.00  0.00    -0.322 N 
HETATM    8  O   UNL     1      -8.983   5.561 -34.700  1.00  0.00    -0.268 OA
HETATM    9  C   UNL     1     -11.424   2.977 -34.734  1.00  0.00     0.045 A 
HETATM   10  H   UNL     1     -11.062   4.789 -35.728  1.00  0.00     0.169 HD
HETATM   11  C   UNL     1     -10.922   2.104 -33.765  1.00  0.00    -0.008 A 
HETATM   12  C   UNL     1     -12.636   2.713 -35.367  1.00  0.00     0.031 A 
HETATM   13  C   UNL     1     -11.657   0.967 -33.414  1.00  0.00     0.020 A 
HETATM   14  C   UNL     1      -9.649   2.417 -33.123  1.00  0.00     0.028 A 
HETATM   15  C   UNL     1     -12.895   0.707 -34.018  1.00  0.00    -0.061 A 
HETATM   16  C   UNL     1     -13.678  -0.516 -33.641  1.00  0.00     0.048 C 
HETATM   17  C   UNL     1     -13.367   1.577 -35.012  1.00  0.00     0.009 A 
ENDBRANCH   4   5
ENDBRANCH   1   4
BRANCH   1  18
HETATM   18  C   UNL     1      -5.610   3.222 -33.794  1.00  0.00     0.158 C 
BRANCH  18  19
HETATM   19  C   UNL     1      -5.125   4.687 -33.723  1.00  0.00     0.139 C 
HETATM   20  O   UNL     1      -4.665   5.111 -35.025  1.00  0.00    -0.384 OA
HETATM   21  C   UNL     1      -3.250   5.334 -34.971  1.00  0.00     0.168 C 
HETATM   22  C   UNL     1      -2.756   4.682 -33.701  1.00  0.00     0.029 C 
HETATM   23  C   UNL     1      -3.939   4.857 -32.782  1.00  0.00     0.035 C 
ENDBRANCH  18  19
ENDBRANCH   1  18
BRANCH   2  24
HETATM   24  C   UNL     1      -5.364   1.106 -31.729  1.00  0.00     0.032 A 
HETATM   25  C   UNL     1      -5.592  -0.107 -32.382  1.00  0.00     0.020 A 
HETATM   26  C   UNL     1      -4.591  -1.079 -32.406  1.00  0.00     0.038 A 
HETATM   27  C   UNL     1      -3.360  -0.847 -31.783  1.00  0.00     0.068 A 
HETATM   28  C   UNL     1      -3.116   0.388 -31.178  1.00  0.00     0.038 A 
HETATM   29  C   UNL     1      -4.114   1.370 -31.162  1.00  0.00     0.020 A 
BRANCH  27  30
HETATM   30  O   UNL     1      -2.480  -1.891 -31.855  1.00  0.00    -0.356 OA
HETATM   31  C   UNL     1      -3.041  -3.199 -31.852  1.00  0.00     0.210 C 
ENDBRANCH  27  30
ENDBRANCH   2  24
TORSDOF 6
ENDMDL
MODEL 2
REMARK VINA RESULT:      -8.4      2.431      3.556
REMARK  6 active torsions:
REMARK  status: ('A' for Active; 'I' for Inactive)
REMARK    1  A    between atoms: C_9  and  C_10 
REMARK    2  A    between atoms: C_10  and  N_11 
REMARK       I    between atoms: N_11  and  C_12 
REMARK    3  A    between atoms: N_11  and  C_22 
REMARK    4  A    between atoms: C_12  and  C_13 
REMARK    5  A    between atoms: C_16  and  O_17 
REMARK    6  A    between atoms: C_22  and  C_23 
ROOT
HETATM    1  N   UNL     1      -6.927   1.211 -33.710  1.00  0.00    -0.341 N 
HETATM    2  C   UNL     1      -6.781   0.369 -34.819  1.00  0.00     0.254 C 
HETATM    3  O   UNL     1      -7.029   0.714 -35.974  1.00  0.00    -0.267 OA
ENDROOT
BRANCH   1   4
HETATM    4  C   UNL     1      -7.433   2.561 -33.958  1.00  0.00     0.170 C 
BRANCH   4   5
HETATM    5  C   UNL     1      -8.881   2.710 -33.594  1.00  0.00     0.029 A 
HETATM    6  C   UNL     1      -9.235   3.714 -32.546  1.00  0.00     0.253 A 
HETATM    7  N   UNL     1     -10.557   3.809 -32.194  1.00  0.00    -0.322 N 
HETATM    8  O   UNL     1      -8.389   4.421 -32.002  1.00  0.00    -0.268 OA
HETATM    9  C   UNL     1     -11.561   2.984 -32.713  1.00  0.00     0.045 A 
HETATM   10  H   UNL     1     -10.778   4.496 -31.488  1.00  0.00     0.169 HD
HETATM   11  C   UNL     1     -11.226   2.021 -33.669  1.00  0.00    -0.008 A 
HETATM   12  C   UNL     1     -12.874   3.109 -32.263  1.00  0.00     0.031 A 
HETATM   13  C   UNL     1     -12.214   1.162 -34.160  1.00  0.00     0.020 A 
HETATM   14  C   UNL     1      -9.839   1.921 -34.114  1.00  0.00     0.028 A 
HETATM   15  C   UNL     1     -13.532   1.253 -33.689  1.00  0.00    -0.061 A 
HETATM   16  C   UNL     1     -14.589   0.331 -34.222  1.00  0.00     0.048 C 
HETATM   17  C   UNL     1     -13.857   2.247 -32.755  1.00  0.00     0.009 A 
ENDBRANCH   4   5
ENDBRANCH   1   4
BRANCH   1  18
HETATM   18  C   UNL     1      -7.156   0.700 -32.346  1.00  0.00     0.158 C 
BRANCH  18  19
HETATM   19  C   UNL     1      -6.252   1.382 -31.295  1.00  0.00     0.139 C 
HETATM   20  O   UNL     1      -5.082   1.929 -31.941  1.00  0.00    -0.384 OA
HETATM   21  C   UNL     1      -3.924   1.208 -31.502  1.00  0.00     0.168 C 
HETATM   22  C   UNL     1      -4.424  -0.057 -30.846  1.00  0.00     0.029 C 
HETATM   23  C   UNL     1      -5.735   0.398 -30.253  1.00  0.00     0.035 C 
ENDBRANCH  18  19
ENDBRANCH   1  18
BRANCH   2  24
HETATM   24  C   UNL     1      -6.331  -1.029 -34.613  1.00  0.00     0.032 A 
HETATM   25  C   UNL     1      -5.009  -1.252 -34.221  1.00  0.00     0.020 A 
HETATM   26  C   UNL     1      -4.551  -2.558 -34.045  1.00  0.00     0.038 A 
HETATM   27  C   UNL     1      -5.405  -3.646 -34.256  1.00  0.00     0.068 A 
HETATM   28  C   UNL     1      -6.741  -3.417 -34.595  1.00  0.00     0.038 A 
HETATM   29  C   UNL     1      -7.208  -2.107 -34.760  1.00  0.00     0.020 A 
BRANCH  27  30
HETATM   30  O   UNL     1      -4.823  -4.871 -34.080  1.00  0.00    -0.356 OA
HETATM   31  C   UNL     1      -3.537  -4.882 -33.470  1.00  0.00     0.210 C 
ENDBRANCH  27  30
ENDBRANCH   2  24
TORSDOF 6
ENDMDL
MODEL 3
REMARK VINA RESULT:      -8.3      3.603      6.377
REMARK  6 active torsions:
REMARK  status: ('A' for Active; 'I' for Inactive)
REMARK    1  A    between atoms: C_9  and  C_10 
REMARK    2  A    between atoms: C_10  and  N_11 
REMARK       I    between atoms: N_11  and  C_12 
REMARK    3  A    between atoms: N_11  and  C_22 
REMARK    4  A    between atoms: C_12  and  C_13 
REMARK    5  A    between atoms: C_16  and  O_17 
REMARK    6  A    between atoms: C_22  and  C_23 
ROOT
HETATM    1  N   UNL     1      -5.023   2.538 -31.159  1.00  0.00    -0.341 N 
HETATM    2  C   UNL     1      -3.634   2.624 -31.303  1.00  0.00     0.254 C 
HETATM    3  O   UNL     1      -2.864   1.699 -31.048  1.00  0.00    -0.267 OA
ENDROOT
BRANCH   1   4
HETATM    4  C   UNL     1      -5.566   1.280 -30.645  1.00  0.00     0.170 C 
BRANCH   4   5
HETATM    5  C   UNL     1      -5.778   0.260 -31.726  1.00  0.00     0.029 A 
HETATM    6  C   UNL     1      -7.111   0.229 -32.400  1.00  0.00     0.253 A 
HETATM    7  N   UNL     1      -7.303  -0.735 -33.356  1.00  0.00    -0.322 N 
HETATM    8  O   UNL     1      -8.011   1.015 -32.112  1.00  0.00    -0.268 OA
HETATM    9  C   UNL     1      -6.354  -1.711 -33.680  1.00  0.00     0.045 A 
HETATM   10  H   UNL     1      -8.208  -0.738 -33.804  1.00  0.00     0.169 HD
HETATM   11  C   UNL     1      -5.119  -1.703 -33.025  1.00  0.00    -0.008 A 
HETATM   12  C   UNL     1      -6.648  -2.690 -34.627  1.00  0.00     0.031 A 
HETATM   13  C   UNL     1      -4.181  -2.701 -33.309  1.00  0.00     0.020 A 
HETATM   14  C   UNL     1      -4.849  -0.662 -32.038  1.00  0.00     0.028 A 
HETATM   15  C   UNL     1      -4.477  -3.712 -34.234  1.00  0.00    -0.061 A 
HETATM   16  C   UNL     1      -3.466  -4.778 -34.537  1.00  0.00     0.048 C 
HETATM   17  C   UNL     1      -5.708  -3.685 -34.905  1.00  0.00     0.009 A 
ENDBRANCH   4   5
ENDBRANCH   1   4
BRANCH   1  18
HETATM   18  C   UNL     1      -5.877   3.721 -30.939  1.00  0.00     0.158 C 
BRANCH  18  19
HETATM   19  C   UNL     1      -6.758   4.055 -32.163  1.00  0.00     0.139 C 
HETATM   20  O   UNL     1      -6.152   3.520 -33.360  1.00  0.00    -0.384 OA
HETATM   21  C   UNL     1      -5.732   4.605 -34.197  1.00  0.00     0.168 C 
HETATM   22  C   UNL     1      -5.746   5.846 -33.337  1.00  0.00     0.029 C 
HETATM   23  C   UNL     1      -6.884   5.556 -32.391  1.00  0.00     0.035 C 
ENDBRANCH  18  19
ENDBRANCH   1  18
BRANCH   2  24
HETATM   24  C   UNL     1      -3.031   3.899 -31.761  1.00  0.00     0.032 A 
HETATM   25  C   UNL     1      -3.024   4.985 -30.882  1.00  0.00     0.020 A 
HETATM   26  C   UNL     1      -2.487   6.205 -31.296  1.00  0.00     0.038 A 
HETATM   27  C   UNL     1      -1.955   6.349 -32.581  1.00  0.00     0.068 A 
HETATM   28  C   UNL     1      -1.915   5.246 -33.437  1.00  0.00     0.038 A 
HETATM   29  C   UNL     1      -2.440   4.016 -33.022  1.00  0.00     0.020 A 
BRANCH  27  30
HETATM   30  O   UNL     1      -1.490   7.603 -32.868  1.00  0.00    -0.356 OA
HETATM   31  C   UNL     1      -1.851   8.639 -31.962  1.00  0.00     0.210 C 
ENDBRANCH  27  30
ENDBRANCH   2  24
TORSDOF 6
ENDMDL
MODEL 4
REMARK VINA RESULT:      -8.2      2.618      7.670
REMARK  6 active torsions:
REMARK  status: ('A' for Active; 'I' for Inactive)
REMARK    1  A    between atoms: C_9  and  C_10 
REMARK    2  A    between atoms: C_10  and  N_11 
REMARK       I    between atoms: N_11  and  C_12 
REMARK    3  A    between atoms: N_11  and  C_22 
REMARK    4  A    between atoms: C_12  and  C_13 
REMARK    5  A    between atoms: C_16  and  O_17 
REMARK    6  A    between atoms: C_22  and  C_23 
ROOT
HETATM    1  N   UNL     1      -6.822   1.532 -31.312  1.00  0.00    -0.341 N 
HETATM    2  C   UNL     1      -8.057   2.187 -31.241  1.00  0.00     0.254 C 
HETATM    3  O   UNL     1      -8.337   3.024 -30.384  1.00  0.00    -0.267 OA
ENDROOT
BRANCH   1   4
HETATM    4  C   UNL     1      -5.835   1.855 -30.281  1.00  0.00     0.170 C 
BRANCH   4   5
HETATM    5  C   UNL     1      -4.972   3.024 -30.655  1.00  0.00     0.029 A 
HETATM    6  C   UNL     1      -5.099   4.271 -29.841  1.00  0.00     0.253 A 
HETATM    7  N   UNL     1      -4.335   5.344 -30.222  1.00  0.00    -0.322 N 
HETATM    8  O   UNL     1      -5.862   4.353 -28.881  1.00  0.00    -0.268 OA
HETATM    9  C   UNL     1      -3.505   5.349 -31.349  1.00  0.00     0.045 A 
HETATM   10  H   UNL     1      -4.431   6.177 -29.658  1.00  0.00     0.169 HD
HETATM   11  C   UNL     1      -3.411   4.193 -32.130  1.00  0.00    -0.008 A 
HETATM   12  C   UNL     1      -2.802   6.499 -31.698  1.00  0.00     0.031 A 
HETATM   13  C   UNL     1      -2.621   4.202 -33.284  1.00  0.00     0.020 A 
HETATM   14  C   UNL     1      -4.166   3.009 -31.732  1.00  0.00     0.028 A 
HETATM   15  C   UNL     1      -1.935   5.364 -33.666  1.00  0.00    -0.061 A 
HETATM   16  C   UNL     1      -1.086   5.368 -34.902  1.00  0.00     0.048 C 
HETATM   17  C   UNL     1      -2.015   6.504 -32.852  1.00  0.00     0.009 A 
ENDBRANCH   4   5
ENDBRANCH   1   4
BRANCH   1  18
HETATM   18  C   UNL     1      -6.655   0.210 -31.942  1.00  0.00     0.158 C 
BRANCH  18  19
HETATM   19  C   UNL     1      -5.894   0.282 -33.285  1.00  0.00     0.139 C 
HETATM   20  O   UNL     1      -6.477   1.305 -34.121  1.00  0.00    -0.384 OA
HETATM   21  C   UNL     1      -7.090   0.686 -35.259  1.00  0.00     0.168 C 
HETATM   22  C   UNL     1      -7.209  -0.785 -34.940  1.00  0.00     0.029 C 
HETATM   23  C   UNL     1      -5.995  -1.015 -34.076  1.00  0.00     0.035 C 
ENDBRANCH  18  19
ENDBRANCH   1  18
BRANCH   2  24
HETATM   24  C   UNL     1      -9.113   1.848 -32.225  1.00  0.00     0.032 A 
HETATM   25  C   UNL     1      -9.500   2.822 -33.149  1.00  0.00     0.020 A 
HETATM   26  C   UNL     1     -10.510   2.540 -34.069  1.00  0.00     0.038 A 
HETATM   27  C   UNL     1     -11.137   1.289 -34.077  1.00  0.00     0.068 A 
HETATM   28  C   UNL     1     -10.709   0.300 -33.188  1.00  0.00     0.038 A 
HETATM   29  C   UNL     1      -9.687   0.574 -32.271  1.00  0.00     0.020 A 
BRANCH  27  30
HETATM   30  O   UNL     1     -12.129   1.155 -35.008  1.00  0.00    -0.356 OA
HETATM   31  C   UNL     1     -13.439   0.904 -34.511  1.00  0.00     0.210 C 
ENDBRANCH  27  30
ENDBRANCH   2  24
TORSDOF 6
ENDMDL
MODEL 5
REMARK VINA RESULT:      -8.0      2.442      7.523
REMARK  6 active torsions:
REMARK  status: ('A' for Active; 'I' for Inactive)
REMARK    1  A    between atoms: C_9  and  C_10 
REMARK    2  A    between atoms: C_10  and  N_11 
REMARK       I    between atoms: N_11  and  C_12 
REMARK    3  A    between atoms: N_11  and  C_22 
REMARK    4  A    between atoms: C_12  and  C_13 
REMARK    5  A    between atoms: C_16  and  O_17 
REMARK    6  A    between atoms: C_22  and  C_23 
ROOT
HETATM    1  N   UNL     1      -6.254   2.101 -32.485  1.00  0.00    -0.341 N 
HETATM    2  C   UNL     1      -7.004   2.242 -33.659  1.00  0.00     0.254 C 
HETATM    3  O   UNL     1      -6.519   2.187 -34.788  1.00  0.00    -0.267 OA
ENDROOT
BRANCH   1   4
HETATM    4  C   UNL     1      -4.811   1.909 -32.633  1.00  0.00     0.170 C 
BRANCH   4   5
HETATM    5  C   UNL     1      -4.406   0.469 -32.510  1.00  0.00     0.029 A 
HETATM    6  C   UNL     1      -3.309   0.136 -31.552  1.00  0.00     0.253 A 
HETATM    7  N   UNL     1      -2.921  -1.178 -31.481  1.00  0.00    -0.322 N 
HETATM    8  O   UNL     1      -2.756   0.990 -30.863  1.00  0.00    -0.268 OA
HETATM    9  C   UNL     1      -3.450  -2.190 -32.291  1.00  0.00     0.045 A 
HETATM   10  H   UNL     1      -2.182  -1.386 -30.826  1.00  0.00     0.169 HD
HETATM   11  C   UNL     1      -4.453  -1.873 -33.211  1.00  0.00    -0.008 A 
HETATM   12  C   UNL     1      -2.964  -3.492 -32.194  1.00  0.00     0.031 A 
HETATM   13  C   UNL     1      -4.955  -2.868 -34.055  1.00  0.00     0.020 A 
HETATM   14  C   UNL     1      -4.935  -0.496 -33.283  1.00  0.00     0.028 A 
HETATM   15  C   UNL     1      -4.450  -4.174 -33.993  1.00  0.00    -0.061 A 
HETATM   16  C   UNL     1      -4.995  -5.238 -34.899  1.00  0.00     0.048 C 
HETATM   17  C   UNL     1      -3.467  -4.482 -33.041  1.00  0.00     0.009 A 
ENDBRANCH   4   5
ENDBRANCH   1   4
BRANCH   1  18
HETATM   18  C   UNL     1      -6.678   2.675 -31.195  1.00  0.00     0.158 C 
BRANCH  18  19
HETATM   19  C   UNL     1      -6.295   4.165 -31.052  1.00  0.00     0.139 C 
HETATM   20  O   UNL     1      -5.269   4.310 -30.046  1.00  0.00    -0.384 OA
HETATM   21  C   UNL     1      -5.808   5.023 -28.927  1.00  0.00     0.168 C 
HETATM   22  C   UNL     1      -7.310   5.004 -29.082  1.00  0.00     0.029 C 
HETATM   23  C   UNL     1      -7.466   5.019 -30.583  1.00  0.00     0.035 C 
ENDBRANCH  18  19
ENDBRANCH   1  18
BRANCH   2  24
HETATM   24  C   UNL     1      -8.460   2.501 -33.560  1.00  0.00     0.032 A 
HETATM   25  C   UNL     1      -9.309   1.432 -33.264  1.00  0.00     0.020 A 
HETATM   26  C   UNL     1     -10.687   1.642 -33.192  1.00  0.00     0.038 A 
HETATM   27  C   UNL     1     -11.225   2.913 -33.411  1.00  0.00     0.068 A 
HETATM   28  C   UNL     1     -10.369   3.991 -33.653  1.00  0.00     0.038 A 
HETATM   29  C   UNL     1      -8.985   3.788 -33.714  1.00  0.00     0.020 A 
BRANCH  27  30
HETATM   30  O   UNL     1     -12.590   2.975 -33.341  1.00  0.00    -0.356 OA
HETATM   31  C   UNL     1     -13.294   1.760 -33.572  1.00  0.00     0.210 C 
ENDBRANCH  27  30
ENDBRANCH   2  24
TORSDOF 6
ENDMDL
MODEL 6
REMARK VINA RESULT:      -7.8      1.916      2.256
REMARK  6 active torsions:
REMARK  status: ('A' for Active; 'I' for Inactive)
REMARK    1  A    between atoms: C_9  and  C_10 
REMARK    2  A    between atoms: C_10  and  N_11 
REMARK       I    between atoms: N_11  and  C_12 
REMARK    3  A    between atoms: N_11  and  C_22 
REMARK    4  A    between atoms: C_12  and  C_13 
REMARK    5  A    between atoms: C_16  and  O_17 
REMARK    6  A    between atoms: C_22  and  C_23 
ROOT
HETATM    1  N   UNL     1      -6.698   2.228 -32.367  1.00  0.00    -0.341 N 
HETATM    2  C   UNL     1      -6.650   0.946 -31.808  1.00  0.00     0.254 C 
HETATM    3  O   UNL     1      -7.094   0.670 -30.694  1.00  0.00    -0.267 OA
ENDROOT
BRANCH   1   4
HETATM    4  C   UNL     1      -7.287   3.291 -31.551  1.00  0.00     0.170 C 
BRANCH   4   5
HETATM    5  C   UNL     1      -8.767   3.425 -31.759  1.00  0.00     0.029 A 
HETATM    6  C   UNL     1      -9.500   4.418 -30.917  1.00  0.00     0.253 A 
HETATM    7  N   UNL     1     -10.859   4.499 -31.090  1.00  0.00    -0.322 N 
HETATM    8  O   UNL     1      -8.930   5.126 -30.091  1.00  0.00    -0.268 OA
HETATM    9  C   UNL     1     -11.584   3.671 -31.953  1.00  0.00     0.045 A 
HETATM   10  H   UNL     1     -11.337   5.178 -30.515  1.00  0.00     0.169 HD
HETATM   11  C   UNL     1     -10.903   2.718 -32.717  1.00  0.00    -0.008 A 
HETATM   12  C   UNL     1     -12.971   3.781 -32.031  1.00  0.00     0.031 A 
HETATM   13  C   UNL     1     -11.624   1.856 -33.548  1.00  0.00     0.020 A 
HETATM   14  C   UNL     1      -9.449   2.633 -32.606  1.00  0.00     0.028 A 
HETATM   15  C   UNL     1     -13.022   1.932 -33.609  1.00  0.00    -0.061 A 
HETATM   16  C   UNL     1     -13.791   1.007 -34.506  1.00  0.00     0.048 C 
HETATM   17  C   UNL     1     -13.687   2.915 -32.862  1.00  0.00     0.009 A 
ENDBRANCH   4   5
ENDBRANCH   1   4
BRANCH   1  18
HETATM   18  C   UNL     1      -5.746   2.686 -33.395  1.00  0.00     0.158 C 
BRANCH  18  19
HETATM   19  C   UNL     1      -5.438   4.196 -33.290  1.00  0.00     0.139 C 
HETATM   20  O   UNL     1      -5.362   4.771 -34.613  1.00  0.00    -0.384 OA
HETATM   21  C   UNL     1      -4.015   5.186 -34.867  1.00  0.00     0.168 C 
HETATM   22  C   UNL     1      -3.152   4.523 -33.820  1.00  0.00     0.029 C 
HETATM   23  C   UNL     1      -4.088   4.466 -32.638  1.00  0.00     0.035 C 
ENDBRANCH  18  19
ENDBRANCH   1  18
BRANCH   2  24
HETATM   24  C   UNL     1      -6.007  -0.152 -32.570  1.00  0.00     0.032 A 
HETATM   25  C   UNL     1      -6.746  -0.792 -33.567  1.00  0.00     0.020 A 
HETATM   26  C   UNL     1      -6.176  -1.846 -34.282  1.00  0.00     0.038 A 
HETATM   27  C   UNL     1      -4.870  -2.266 -34.009  1.00  0.00     0.068 A 
HETATM   28  C   UNL     1      -4.115  -1.588 -33.048  1.00  0.00     0.038 A 
HETATM   29  C   UNL     1      -4.679  -0.522 -32.338  1.00  0.00     0.020 A 
BRANCH  27  30
HETATM   30  O   UNL     1      -4.444  -3.327 -34.759  1.00  0.00    -0.356 OA
HETATM   31  C   UNL     1      -3.809  -4.389 -34.056  1.00  0.00     0.210 C 
ENDBRANCH  27  30
ENDBRANCH   2  24
TORSDOF 6
ENDMDL
MODEL 7
REMARK VINA RESULT:      -7.8      3.412      5.359
REMARK  6 active torsions:
REMARK  status: ('A' for Active; 'I' for Inactive)
REMARK    1  A    between atoms: C_9  and  C_10 
REMARK    2  A    between atoms: C_10  and  N_11 
REMARK       I    between atoms: N_11  and  C_12 
REMARK    3  A    between atoms: N_11  and  C_22 
REMARK    4  A    between atoms: C_12  and  C_13 
REMARK    5  A    between atoms: C_16  and  O_17 
REMARK    6  A    between atoms: C_22  and  C_23 
ROOT
HETATM    1  N   UNL     1      -5.316   5.481 -33.088  1.00  0.00    -0.341 N 
HETATM    2  C   UNL     1      -4.129   5.549 -33.827  1.00  0.00     0.254 C 
HETATM    3  O   UNL     1      -4.084   5.471 -35.054  1.00  0.00    -0.267 OA
ENDROOT
BRANCH   1   4
HETATM    4  C   UNL     1      -6.557   5.276 -33.835  1.00  0.00     0.170 C 
BRANCH   4   5
HETATM    5  C   UNL     1      -7.085   3.878 -33.702  1.00  0.00     0.029 A 
HETATM    6  C   UNL     1      -8.325   3.677 -32.893  1.00  0.00     0.253 A 
HETATM    7  N   UNL     1      -8.772   2.389 -32.745  1.00  0.00    -0.322 N 
HETATM    8  O   UNL     1      -8.921   4.612 -32.363  1.00  0.00    -0.268 OA
HETATM    9  C   UNL     1      -8.102   1.270 -33.253  1.00  0.00     0.045 A 
HETATM   10  H   UNL     1      -9.614   2.273 -32.199  1.00  0.00     0.169 HD
HETATM   11  C   UNL     1      -6.924   1.454 -33.982  1.00  0.00    -0.008 A 
HETATM   12  C   UNL     1      -8.595  -0.011 -33.014  1.00  0.00     0.031 A 
HETATM   13  C   UNL     1      -6.223   0.340 -34.454  1.00  0.00     0.020 A 
HETATM   14  C   UNL     1      -6.440   2.812 -34.210  1.00  0.00     0.028 A 
HETATM   15  C   UNL     1      -6.689  -0.956 -34.190  1.00  0.00    -0.061 A 
HETATM   16  C   UNL     1      -5.935  -2.148 -34.703  1.00  0.00     0.048 C 
HETATM   17  C   UNL     1      -7.890  -1.121 -33.486  1.00  0.00     0.009 A 
ENDBRANCH   4   5
ENDBRANCH   1   4
BRANCH   1  18
HETATM   18  C   UNL     1      -5.355   5.042 -31.681  1.00  0.00     0.158 C 
BRANCH  18  19
HETATM   19  C   UNL     1      -5.762   6.177 -30.715  1.00  0.00     0.139 C 
HETATM   20  O   UNL     1      -5.495   7.457 -31.327  1.00  0.00    -0.384 OA
HETATM   21  C   UNL     1      -4.446   8.113 -30.604  1.00  0.00     0.168 C 
HETATM   22  C   UNL     1      -3.791   7.061 -29.741  1.00  0.00     0.029 C 
HETATM   23  C   UNL     1      -4.953   6.153 -29.424  1.00  0.00     0.035 C 
ENDBRANCH  18  19
ENDBRANCH   1  18
BRANCH   2  24
HETATM   24  C   UNL     1      -2.838   5.693 -33.111  1.00  0.00     0.032 A 
HETATM   25  C   UNL     1      -2.339   4.593 -32.409  1.00  0.00     0.020 A 
HETATM   26  C   UNL     1      -1.141   4.709 -31.704  1.00  0.00     0.038 A 
HETATM   27  C   UNL     1      -0.433   5.915 -31.696  1.00  0.00     0.068 A 
HETATM   28  C   UNL     1      -0.908   6.996 -32.443  1.00  0.00     0.038 A 
HETATM   29  C   UNL     1      -2.104   6.882 -33.162  1.00  0.00     0.020 A 
BRANCH  27  30
HETATM   30  O   UNL     1       0.708   5.902 -30.942  1.00  0.00    -0.356 OA
HETATM   31  C   UNL     1       0.751   4.969 -29.868  1.00  0.00     0.210 C 
ENDBRANCH  27  30
ENDBRANCH   2  24
TORSDOF 6
ENDMDL
MODEL 8
REMARK VINA RESULT:      -7.7      5.069      7.851
REMARK  6 active torsions:
REMARK  status: ('A' for Active; 'I' for Inactive)
REMARK    1  A    between atoms: C_9  and  C_10 
REMARK    2  A    between atoms: C_10  and  N_11 
REMARK       I    between atoms: N_11  and  C_12 
REMARK    3  A    between atoms: N_11  and  C_22 
REMARK    4  A    between atoms: C_12  and  C_13 
REMARK    5  A    between atoms: C_16  and  O_17 
REMARK    6  A    between atoms: C_22  and  C_23 
ROOT
HETATM    1  N   UNL     1      -1.029   6.102 -31.644  1.00  0.00    -0.341 N 
HETATM    2  C   UNL     1       0.101   5.729 -30.908  1.00  0.00     0.254 C 
HETATM    3  O   UNL     1       0.900   4.868 -31.274  1.00  0.00    -0.267 OA
ENDROOT
BRANCH   1   4
HETATM    4  C   UNL     1      -1.271   5.394 -32.902  1.00  0.00     0.170 C 
BRANCH   4   5
HETATM    5  C   UNL     1      -2.561   4.627 -32.893  1.00  0.00     0.029 A 
HETATM    6  C   UNL     1      -3.621   5.040 -33.862  1.00  0.00     0.253 A 
HETATM    7  N   UNL     1      -4.810   4.357 -33.813  1.00  0.00    -0.322 N 
HETATM    8  O   UNL     1      -3.458   5.958 -34.662  1.00  0.00    -0.268 OA
HETATM    9  C   UNL     1      -5.094   3.355 -32.878  1.00  0.00     0.045 A 
HETATM   10  H   UNL     1      -5.513   4.646 -34.478  1.00  0.00     0.169 HD
HETATM   11  C   UNL     1      -4.115   2.992 -31.950  1.00  0.00    -0.008 A 
HETATM   12  C   UNL     1      -6.347   2.746 -32.861  1.00  0.00     0.031 A 
HETATM   13  C   UNL     1      -4.405   2.025 -30.983  1.00  0.00     0.020 A 
HETATM   14  C   UNL     1      -2.815   3.655 -31.999  1.00  0.00     0.028 A 
HETATM   15  C   UNL     1      -5.674   1.429 -30.932  1.00  0.00    -0.061 A 
HETATM   16  C   UNL     1      -5.979   0.390 -29.894  1.00  0.00     0.048 C 
HETATM   17  C   UNL     1      -6.633   1.782 -31.892  1.00  0.00     0.009 A 
ENDBRANCH   4   5
ENDBRANCH   1   4
BRANCH   1  18
HETATM   18  C   UNL     1      -2.228   6.693 -31.021  1.00  0.00     0.158 C 
BRANCH  18  19
HETATM   19  C   UNL     1      -2.695   7.981 -31.733  1.00  0.00     0.139 C 
HETATM   20  O   UNL     1      -1.806   9.070 -31.402  1.00  0.00    -0.384 OA
HETATM   21  C   UNL     1      -2.519  10.034 -30.617  1.00  0.00     0.168 C 
HETATM   22  C   UNL     1      -3.780   9.356 -30.138  1.00  0.00     0.029 C 
HETATM   23  C   UNL     1      -4.083   8.420 -31.282  1.00  0.00     0.035 C 
ENDBRANCH  18  19
ENDBRANCH   1  18
BRANCH   2  24
HETATM   24  C   UNL     1       0.355   6.373 -29.597  1.00  0.00     0.032 A 
HETATM   25  C   UNL     1       0.203   5.607 -28.438  1.00  0.00     0.020 A 
HETATM   26  C   UNL     1       0.410   6.195 -27.189  1.00  0.00     0.038 A 
HETATM   27  C   UNL     1       0.769   7.542 -27.087  1.00  0.00     0.068 A 
HETATM   28  C   UNL     1       0.972   8.290 -28.250  1.00  0.00     0.038 A 
HETATM   29  C   UNL     1       0.778   7.702 -29.506  1.00  0.00     0.020 A 
BRANCH  27  30
HETATM   30  O   UNL     1       0.910   8.000 -25.806  1.00  0.00    -0.356 OA
HETATM   31  C   UNL     1       2.193   8.501 -25.447  1.00  0.00     0.210 C 
ENDBRANCH  27  30
ENDBRANCH   2  24
TORSDOF 6
ENDMDL
MODEL 9
REMARK VINA RESULT:      -7.7      2.487      8.103
REMARK  6 active torsions:
REMARK  status: ('A' for Active; 'I' for Inactive)
REMARK    1  A    between atoms: C_9  and  C_10 
REMARK    2  A    between atoms: C_10  and  N_11 
REMARK       I    between atoms: N_11  and  C_12 
REMARK    3  A    between atoms: N_11  and  C_22 
REMARK    4  A    between atoms: C_12  and  C_13 
REMARK    5  A    between atoms: C_16  and  O_17 
REMARK    6  A    between atoms: C_22  and  C_23 
ROOT
HETATM    1  N   UNL     1      -6.500   2.292 -32.010  1.00  0.00    -0.341 N 
HETATM    2  C   UNL     1      -7.815   2.554 -31.609  1.00  0.00     0.254 C 
HETATM    3  O   UNL     1      -8.121   2.940 -30.482  1.00  0.00    -0.267 OA
ENDROOT
BRANCH   1   4
HETATM    4  C   UNL     1      -5.449   2.464 -31.005  1.00  0.00     0.170 C 
BRANCH   4   5
HETATM    5  C   UNL     1      -4.447   3.511 -31.394  1.00  0.00     0.029 A 
HETATM    6  C   UNL     1      -3.199   3.058 -32.080  1.00  0.00     0.253 A 
HETATM    7  N   UNL     1      -2.274   4.022 -32.390  1.00  0.00    -0.322 N 
HETATM    8  O   UNL     1      -2.988   1.877 -32.346  1.00  0.00    -0.268 OA
HETATM    9  C   UNL     1      -2.411   5.372 -32.048  1.00  0.00     0.045 A 
HETATM   10  H   UNL     1      -1.439   3.698 -32.857  1.00  0.00     0.169 HD
HETATM   11  C   UNL     1      -3.563   5.791 -31.377  1.00  0.00    -0.008 A 
HETATM   12  C   UNL     1      -1.400   6.280 -32.354  1.00  0.00     0.031 A 
HETATM   13  C   UNL     1      -3.689   7.129 -30.990  1.00  0.00     0.020 A 
HETATM   14  C   UNL     1      -4.600   4.809 -31.073  1.00  0.00     0.028 A 
HETATM   15  C   UNL     1      -2.663   8.046 -31.260  1.00  0.00    -0.061 A 
HETATM   16  C   UNL     1      -2.805   9.481 -30.846  1.00  0.00     0.048 C 
HETATM   17  C   UNL     1      -1.529   7.615 -31.964  1.00  0.00     0.009 A 
ENDBRANCH   4   5
ENDBRANCH   1   4
BRANCH   1  18
HETATM   18  C   UNL     1      -6.170   1.361 -33.104  1.00  0.00     0.158 C 
BRANCH  18  19
HETATM   19  C   UNL     1      -6.189  -0.117 -32.655  1.00  0.00     0.139 C 
HETATM   20  O   UNL     1      -4.876  -0.694 -32.820  1.00  0.00    -0.384 OA
HETATM   21  C   UNL     1      -4.929  -1.693 -33.846  1.00  0.00     0.168 C 
HETATM   22  C   UNL     1      -6.224  -1.479 -34.592  1.00  0.00     0.029 C 
HETATM   23  C   UNL     1      -7.130  -0.965 -33.502  1.00  0.00     0.035 C 
ENDBRANCH  18  19
ENDBRANCH   1  18
BRANCH   2  24
HETATM   24  C   UNL     1      -8.921   2.334 -32.572  1.00  0.00     0.032 A 
HETATM   25  C   UNL     1      -9.722   1.200 -32.419  1.00  0.00     0.020 A 
HETATM   26  C   UNL     1     -10.753   0.954 -33.326  1.00  0.00     0.038 A 
HETATM   27  C   UNL     1     -10.994   1.834 -34.386  1.00  0.00     0.068 A 
HETATM   28  C   UNL     1     -10.226   2.996 -34.504  1.00  0.00     0.038 A 
HETATM   29  C   UNL     1      -9.198   3.253 -33.589  1.00  0.00     0.020 A 
BRANCH  27  30
HETATM   30  O   UNL     1     -12.013   1.461 -35.218  1.00  0.00    -0.356 OA
HETATM   31  C   UNL     1     -13.237   1.086 -34.596  1.00  0.00     0.210 C 
ENDBRANCH  27  30
ENDBRANCH   2  24
TORSDOF 6
ENDMDL
MODEL 10
REMARK VINA RESULT:      -7.5     16.080     19.028
REMARK  6 active torsions:
REMARK  status: ('A' for Active; 'I' for Inactive)
REMARK    1  A    between atoms: C_9  and  C_10 
REMARK    2  A    between atoms: C_10  and  N_11 
REMARK       I    between atoms: N_11  and  C_12 
REMARK    3  A    between atoms: N_11  and  C_22 
REMARK    4  A    between atoms: C_12  and  C_13 
REMARK    5  A    between atoms: C_16  and  O_17 
REMARK    6  A    between atoms: C_22  and  C_23 
ROOT
HETATM    1  N   UNL     1      -5.731 -13.359 -37.495  1.00  0.00    -0.341 N 
HETATM    2  C   UNL     1      -7.043 -13.532 -37.041  1.00  0.00     0.254 C 
HETATM    3  O   UNL     1      -7.385 -13.380 -35.869  1.00  0.00    -0.267 OA
ENDROOT
BRANCH   1   4
HETATM    4  C   UNL     1      -4.720 -13.007 -36.498  1.00  0.00     0.170 C 
BRANCH   4   5
HETATM    5  C   UNL     1      -3.534 -13.926 -36.531  1.00  0.00     0.029 A 
HETATM    6  C   UNL     1      -3.510 -15.065 -35.565  1.00  0.00     0.253 A 
HETATM    7  N   UNL     1      -2.400 -15.871 -35.579  1.00  0.00    -0.322 N 
HETATM    8  O   UNL     1      -4.428 -15.276 -34.776  1.00  0.00    -0.268 OA
HETATM    9  C   UNL     1      -1.285 -15.646 -36.393  1.00  0.00     0.045 A 
HETATM   10  H   UNL     1      -2.404 -16.639 -34.923  1.00  0.00     0.169 HD
HETATM   11  C   UNL     1      -1.292 -14.560 -37.273  1.00  0.00    -0.008 A 
HETATM   12  C   UNL     1      -0.173 -16.482 -36.309  1.00  0.00     0.031 A 
HETATM   13  C   UNL     1      -0.164 -14.300 -38.058  1.00  0.00     0.020 A 
HETATM   14  C   UNL     1      -2.475 -13.706 -37.332  1.00  0.00     0.028 A 
HETATM   15  C   UNL     1       0.974 -15.113 -37.957  1.00  0.00    -0.061 A 
HETATM   16  C   UNL     1       2.180 -14.831 -38.804  1.00  0.00     0.048 C 
HETATM   17  C   UNL     1       0.951 -16.217 -37.093  1.00  0.00     0.009 A 
ENDBRANCH   4   5
ENDBRANCH   1   4
BRANCH   1  18
HETATM   18  C   UNL     1      -5.210 -14.027 -38.702  1.00  0.00     0.158 C 
BRANCH  18  19
HETATM   19  C   UNL     1      -4.819 -13.028 -39.814  1.00  0.00     0.139 C 
HETATM   20  O   UNL     1      -5.647 -11.848 -39.722  1.00  0.00    -0.384 OA
HETATM   21  C   UNL     1      -6.496 -11.781 -40.874  1.00  0.00     0.168 C 
HETATM   22  C   UNL     1      -6.455 -13.144 -41.523  1.00  0.00     0.029 C 
HETATM   23  C   UNL     1      -5.051 -13.596 -41.208  1.00  0.00     0.035 C 
ENDBRANCH  18  19
ENDBRANCH   1  18
BRANCH   2  24
HETATM   24  C   UNL     1      -8.092 -13.951 -38.002  1.00  0.00     0.032 A 
HETATM   25  C   UNL     1      -8.841 -12.961 -38.643  1.00  0.00     0.020 A 
HETATM   26  C   UNL     1      -9.853 -13.326 -39.532  1.00  0.00     0.038 A 
HETATM   27  C   UNL     1     -10.122 -14.675 -39.788  1.00  0.00     0.068 A 
HETATM   28  C   UNL     1      -9.336 -15.660 -39.187  1.00  0.00     0.038 A 
HETATM   29  C   UNL     1      -8.311 -15.298 -38.304  1.00  0.00     0.020 A 
BRANCH  27  30
HETATM   30  O   UNL     1     -11.158 -14.895 -40.654  1.00  0.00    -0.356 OA
HETATM   31  C   UNL     1     -10.850 -15.613 -41.844  1.00  0.00     0.210 C 
ENDBRANCH  27  30
ENDBRANCH   2  24
TORSDOF 6
ENDMDL
