MODEL 1
REMARK VINA RESULT:      -9.6      0.000      0.000
REMARK  4 active torsions:
REMARK  status: ('A' for Active; 'I' for Inactive)
REMARK    1  A    between atoms: C_3  and  C_4 
REMARK    2  A    between atoms: C_4  and  N_5 
REMARK       I    between atoms: N_5  and  C_6 
REMARK       I    between atoms: C_6  and  N_7 
REMARK    3  A    between atoms: N_7  and  C_8 
REMARK    4  A    between atoms: C_17  and  C_18 
ROOT
HETATM    1  C   UNL     1      -6.036   4.399 -29.383  1.00  0.00     0.049 C 
HETATM    2  C   UNL     1      -5.083   3.929 -30.447  1.00  0.00    -0.053 A 
HETATM    3  C   UNL     1      -4.076   4.766 -30.973  1.00  0.00    -0.035 A 
HETATM    4  C   UNL     1      -3.174   4.242 -31.918  1.00  0.00     0.010 A 
HETATM    5  C   UNL     1      -3.308   2.936 -32.393  1.00  0.00     0.014 A 
HETATM    6  C   UNL     1      -4.371   2.146 -31.953  1.00  0.00    -0.004 A 
HETATM    7  C   UNL     1      -5.231   2.629 -30.960  1.00  0.00     0.021 A 
ENDROOT
BRANCH   3   8
HETATM    8  C   UNL     1      -3.922   6.209 -30.553  1.00  0.00     0.163 C 
BRANCH   8   9
HETATM    9  N   UNL     1      -2.914   6.368 -29.534  1.00  0.00    -0.339 N 
HETATM   10  C   UNL     1      -2.060   7.436 -29.621  1.00  0.00     0.316 C 
HETATM   11  N   UNL     1      -1.194   7.492 -28.562  1.00  0.00    -0.339 N 
HETATM   12  O   UNL     1      -2.059   8.228 -30.553  1.00  0.00    -0.247 OA
HETATM   13  H   UNL     1      -1.333   6.846 -27.802  1.00  0.00     0.164 HD
HETATM   14  H   UNL     1      -3.139   6.034 -28.610  1.00  0.00     0.164 HD
BRANCH  11  15
HETATM   15  C   UNL     1      -0.286   8.618 -28.375  1.00  0.00     0.086 C 
HETATM   16  C   UNL     1      -0.723   9.478 -27.181  1.00  0.00     0.025 C 
HETATM   17  C   UNL     1      -0.465   8.789 -25.841  1.00  0.00     0.002 C 
HETATM   18  C   UNL     1       0.990   8.354 -25.706  1.00  0.00     0.000 C 
HETATM   19  C   UNL     1       1.428   7.471 -26.871  1.00  0.00     0.002 C 
HETATM   20  C   UNL     1       1.161   8.139 -28.219  1.00  0.00     0.025 C 
ENDBRANCH  11  15
ENDBRANCH   8   9
ENDBRANCH   3   8
BRANCH   6  21
HETATM   21  C   UNL     1      -4.594   0.770 -32.479  1.00  0.00     0.098 A 
HETATM   22  N   UNL     1      -3.805  -0.158 -32.026  1.00  0.00    -0.169 NA
HETATM   23  N   UNL     1      -3.930  -1.439 -32.491  1.00  0.00    -0.238 N 
HETATM   24  C   UNL     1      -3.027  -2.423 -31.931  1.00  0.00     0.183 C 
HETATM   25  C   UNL     1      -4.806  -1.827 -33.497  1.00  0.00     0.274 A 
HETATM   26  O   UNL     1      -4.857  -2.964 -33.963  1.00  0.00    -0.266 OA
HETATM   27  C   UNL     1      -5.736  -0.795 -33.986  1.00  0.00     0.046 A 
HETATM   28  C   UNL     1      -5.676   0.491 -33.458  1.00  0.00     0.011 A 
HETATM   29  C   UNL     1      -6.710  -1.131 -34.939  1.00  0.00     0.018 A 
HETATM   30  C   UNL     1      -6.648   1.428 -33.839  1.00  0.00     0.015 A 
HETATM   31  C   UNL     1      -7.620   1.095 -34.787  1.00  0.00     0.001 A 
HETATM   32  C   UNL     1      -7.645  -0.181 -35.346  1.00  0.00     0.001 A 
ENDBRANCH   6  21
TORSDOF 4
ENDMDL
MODEL 2
REMARK VINA RESULT:      -9.6      2.465      3.476
REMARK  4 active torsions:
REMARK  status: ('A' for Active; 'I' for Inactive)
REMARK    1  A    between atoms: C_3  and  C_4 
REMARK    2  A    between atoms: C_4  and  N_5 
REMARK       I    between atoms: N_5  and  C_6 
REMARK       I    between atoms: C_6  and  N_7 
REMARK    3  A    between atoms: N_7  and  C_8 
REMARK    4  A    between atoms: C_17  and  C_18 
ROOT
HETATM    1  C   UNL     1      -3.388   5.531 -34.488  1.00  0.00     0.049 C 
HETATM    2  C   UNL     1      -3.678   4.459 -33.473  1.00  0.00    -0.053 A 
HETATM    3  C   UNL     1      -2.779   4.152 -32.430  1.00  0.00    -0.035 A 
HETATM    4  C   UNL     1      -3.144   3.186 -31.473  1.00  0.00     0.010 A 
HETATM    5  C   UNL     1      -4.342   2.479 -31.585  1.00  0.00     0.014 A 
HETATM    6  C   UNL     1      -5.179   2.707 -32.678  1.00  0.00    -0.004 A 
HETATM    7  C   UNL     1      -4.864   3.716 -33.596  1.00  0.00     0.021 A 
ENDROOT
BRANCH   3   8
HETATM    8  C   UNL     1      -1.436   4.830 -32.293  1.00  0.00     0.163 C 
BRANCH   8   9
HETATM    9  N   UNL     1      -1.404   5.741 -31.176  1.00  0.00    -0.339 N 
HETATM   10  C   UNL     1      -0.531   5.488 -30.151  1.00  0.00     0.316 C 
HETATM   11  N   UNL     1      -0.569   6.459 -29.187  1.00  0.00    -0.339 N 
HETATM   12  O   UNL     1       0.178   4.493 -30.096  1.00  0.00    -0.247 OA
HETATM   13  H   UNL     1      -1.121   7.283 -29.367  1.00  0.00     0.164 HD
HETATM   14  H   UNL     1      -1.622   6.707 -31.365  1.00  0.00     0.164 HD
BRANCH  11  15
HETATM   15  C   UNL     1       0.370   6.468 -28.071  1.00  0.00     0.086 C 
HETATM   16  C   UNL     1       1.134   7.798 -28.012  1.00  0.00     0.025 C 
HETATM   17  C   UNL     1       0.254   8.955 -27.542  1.00  0.00     0.002 C 
HETATM   18  C   UNL     1      -0.416   8.643 -26.208  1.00  0.00     0.000 C 
HETATM   19  C   UNL     1      -1.206   7.340 -26.262  1.00  0.00     0.002 C 
HETATM   20  C   UNL     1      -0.345   6.175 -26.747  1.00  0.00     0.025 C 
ENDBRANCH  11  15
ENDBRANCH   8   9
ENDBRANCH   3   8
BRANCH   6  21
HETATM   21  C   UNL     1      -6.436   1.932 -32.876  1.00  0.00     0.098 A 
HETATM   22  N   UNL     1      -7.547   2.556 -32.616  1.00  0.00    -0.169 NA
HETATM   23  N   UNL     1      -8.739   1.894 -32.742  1.00  0.00    -0.238 N 
HETATM   24  C   UNL     1      -9.936   2.655 -32.449  1.00  0.00     0.183 C 
HETATM   25  C   UNL     1      -8.860   0.548 -33.060  1.00  0.00     0.274 A 
HETATM   26  O   UNL     1      -9.931  -0.056 -33.095  1.00  0.00    -0.266 OA
HETATM   27  C   UNL     1      -7.613  -0.157 -33.402  1.00  0.00     0.046 A 
HETATM   28  C   UNL     1      -6.403   0.529 -33.361  1.00  0.00     0.011 A 
HETATM   29  C   UNL     1      -7.662  -1.496 -33.819  1.00  0.00     0.018 A 
HETATM   30  C   UNL     1      -5.241  -0.116 -33.810  1.00  0.00     0.015 A 
HETATM   31  C   UNL     1      -5.287  -1.450 -34.227  1.00  0.00     0.001 A 
HETATM   32  C   UNL     1      -6.495  -2.144 -34.221  1.00  0.00     0.001 A 
ENDBRANCH   6  21
TORSDOF 4
ENDMDL
MODEL 3
REMARK VINA RESULT:      -9.2      3.214      9.776
REMARK  4 active torsions:
REMARK  status: ('A' for Active; 'I' for Inactive)
REMARK    1  A    between atoms: C_3  and  C_4 
REMARK    2  A    between atoms: C_4  and  N_5 
REMARK       I    between atoms: N_5  and  C_6 
REMARK       I    between atoms: C_6  and  N_7 
REMARK    3  A    between atoms: N_7  and  C_8 
REMARK    4  A    between atoms: C_17  and  C_18 
ROOT
HETATM    1  C   UNL     1      -5.938   1.484 -29.715  1.00  0.00     0.049 C 
HETATM    2  C   UNL     1      -6.135   2.491 -30.814  1.00  0.00    -0.053 A 
HETATM    3  C   UNL     1      -7.113   2.324 -31.817  1.00  0.00    -0.035 A 
HETATM    4  C   UNL     1      -7.292   3.338 -32.776  1.00  0.00     0.010 A 
HETATM    5  C   UNL     1      -6.469   4.466 -32.793  1.00  0.00     0.014 A 
HETATM    6  C   UNL     1      -5.431   4.576 -31.867  1.00  0.00    -0.004 A 
HETATM    7  C   UNL     1      -5.289   3.612 -30.862  1.00  0.00     0.021 A 
ENDROOT
BRANCH   3   8
HETATM    8  C   UNL     1      -7.988   1.095 -31.896  1.00  0.00     0.163 C 
BRANCH   8   9
HETATM    9  N   UNL     1      -7.216  -0.101 -32.134  1.00  0.00    -0.339 N 
HETATM   10  C   UNL     1      -7.016  -0.502 -33.429  1.00  0.00     0.316 C 
HETATM   11  N   UNL     1      -6.225  -1.616 -33.508  1.00  0.00    -0.339 N 
HETATM   12  O   UNL     1      -7.513   0.058 -34.396  1.00  0.00    -0.247 OA
HETATM   13  H   UNL     1      -5.793  -1.951 -32.662  1.00  0.00     0.164 HD
HETATM   14  H   UNL     1      -6.491  -0.319 -31.469  1.00  0.00     0.164 HD
BRANCH  11  15
HETATM   15  C   UNL     1      -5.769  -2.142 -34.790  1.00  0.00     0.086 C 
HETATM   16  C   UNL     1      -4.307  -2.603 -34.700  1.00  0.00     0.025 C 
HETATM   17  C   UNL     1      -4.151  -3.889 -33.891  1.00  0.00     0.002 C 
HETATM   18  C   UNL     1      -5.050  -5.001 -34.424  1.00  0.00     0.000 C 
HETATM   19  C   UNL     1      -6.510  -4.566 -34.487  1.00  0.00     0.002 C 
HETATM   20  C   UNL     1      -6.682  -3.271 -35.280  1.00  0.00     0.025 C 
ENDBRANCH  11  15
ENDBRANCH   8   9
ENDBRANCH   3   8
BRANCH   6  21
HETATM   21  C   UNL     1      -4.486   5.729 -31.885  1.00  0.00     0.098 A 
HETATM   22  N   UNL     1      -4.722   6.684 -31.036  1.00  0.00    -0.169 NA
HETATM   23  N   UNL     1      -3.915   7.789 -31.021  1.00  0.00    -0.238 N 
HETATM   24  C   UNL     1      -4.229   8.807 -30.039  1.00  0.00     0.183 C 
HETATM   25  C   UNL     1      -2.879   8.019 -31.917  1.00  0.00     0.274 A 
HETATM   26  O   UNL     1      -2.209   9.050 -31.945  1.00  0.00    -0.266 OA
HETATM   27  C   UNL     1      -2.573   6.923 -32.853  1.00  0.00     0.046 A 
HETATM   28  C   UNL     1      -3.332   5.758 -32.820  1.00  0.00     0.011 A 
HETATM   29  C   UNL     1      -1.484   7.042 -33.731  1.00  0.00     0.018 A 
HETATM   30  C   UNL     1      -2.952   4.676 -33.627  1.00  0.00     0.015 A 
HETATM   31  C   UNL     1      -1.867   4.792 -34.502  1.00  0.00     0.001 A 
HETATM   32  C   UNL     1      -1.140   5.978 -34.563  1.00  0.00     0.001 A 
ENDBRANCH   6  21
TORSDOF 4
ENDMDL
MODEL 4
REMARK VINA RESULT:      -9.0      5.866      9.556
REMARK  4 active torsions:
REMARK  status: ('A' for Active; 'I' for Inactive)
REMARK    1  A    between atoms: C_3  and  C_4 
REMARK    2  A    between atoms: C_4  and  N_5 
REMARK       I    between atoms: N_5  and  C_6 
REMARK       I    between atoms: C_6  and  N_7 
REMARK    3  A    between atoms: N_7  and  C_8 
REMARK    4  A    between atoms: C_17  and  C_18 
ROOT
HETATM    1  C   UNL     1     -12.577  -0.160 -33.448  1.00  0.00     0.049 C 
HETATM    2  C   UNL     1     -11.356   0.694 -33.651  1.00  0.00    -0.053 A 
HETATM    3  C   UNL     1     -11.387   1.875 -34.421  1.00  0.00    -0.035 A 
HETATM    4  C   UNL     1     -10.225   2.664 -34.514  1.00  0.00     0.010 A 
HETATM    5  C   UNL     1      -9.030   2.257 -33.919  1.00  0.00     0.014 A 
HETATM    6  C   UNL     1      -8.973   1.033 -33.251  1.00  0.00    -0.004 A 
HETATM    7  C   UNL     1     -10.138   0.275 -33.088  1.00  0.00     0.021 A 
ENDROOT
BRANCH   3   8
HETATM    8  C   UNL     1     -12.629   2.334 -35.148  1.00  0.00     0.163 C 
BRANCH   8   9
HETATM    9  N   UNL     1     -12.410   3.566 -35.865  1.00  0.00    -0.339 N 
HETATM   10  C   UNL     1     -12.750   4.746 -35.256  1.00  0.00     0.316 C 
HETATM   11  N   UNL     1     -12.439   5.833 -36.026  1.00  0.00    -0.339 N 
HETATM   12  O   UNL     1     -13.295   4.811 -34.162  1.00  0.00    -0.247 OA
HETATM   13  H   UNL     1     -11.912   5.680 -36.871  1.00  0.00     0.164 HD
HETATM   14  H   UNL     1     -11.636   3.590 -36.510  1.00  0.00     0.164 HD
BRANCH  11  15
HETATM   15  C   UNL     1     -12.587   7.195 -35.524  1.00  0.00     0.086 C 
HETATM   16  C   UNL     1     -11.217   7.867 -35.358  1.00  0.00     0.025 C 
HETATM   17  C   UNL     1     -10.574   8.218 -36.698  1.00  0.00     0.002 C 
HETATM   18  C   UNL     1     -11.503   9.064 -37.562  1.00  0.00     0.000 C 
HETATM   19  C   UNL     1     -12.858   8.392 -37.763  1.00  0.00     0.002 C 
HETATM   20  C   UNL     1     -13.508   8.019 -36.431  1.00  0.00     0.025 C 
ENDBRANCH  11  15
ENDBRANCH   8   9
ENDBRANCH   3   8
BRANCH   6  21
HETATM   21  C   UNL     1      -7.705   0.525 -32.655  1.00  0.00     0.098 A 
HETATM   22  N   UNL     1      -7.367   1.021 -31.502  1.00  0.00    -0.169 NA
HETATM   23  N   UNL     1      -6.197   0.626 -30.913  1.00  0.00    -0.238 N 
HETATM   24  C   UNL     1      -5.892   1.209 -29.623  1.00  0.00     0.183 C 
HETATM   25  C   UNL     1      -5.272  -0.230 -31.499  1.00  0.00     0.274 A 
HETATM   26  O   UNL     1      -4.188  -0.518 -30.995  1.00  0.00    -0.266 OA
HETATM   27  C   UNL     1      -5.664  -0.833 -32.784  1.00  0.00     0.046 A 
HETATM   28  C   UNL     1      -6.891  -0.505 -33.351  1.00  0.00     0.011 A 
HETATM   29  C   UNL     1      -4.823  -1.775 -33.395  1.00  0.00     0.018 A 
HETATM   30  C   UNL     1      -7.308  -1.181 -34.507  1.00  0.00     0.015 A 
HETATM   31  C   UNL     1      -6.472  -2.121 -35.118  1.00  0.00     0.001 A 
HETATM   32  C   UNL     1      -5.225  -2.410 -34.570  1.00  0.00     0.001 A 
ENDBRANCH   6  21
TORSDOF 4
ENDMDL
MODEL 5
REMARK VINA RESULT:      -8.8      1.210      2.513
REMARK  4 active torsions:
REMARK  status: ('A' for Active; 'I' for Inactive)
REMARK    1  A    between atoms: C_3  and  C_4 
REMARK    2  A    between atoms: C_4  and  N_5 
REMARK       I    between atoms: N_5  and  C_6 
REMARK       I    between atoms: C_6  and  N_7 
REMARK    3  A    between atoms: N_7  and  C_8 
REMARK    4  A    between atoms: C_17  and  C_18 
ROOT
HETATM    1  C   UNL     1      -6.895   4.466 -29.260  1.00  0.00     0.049 C 
HETATM    2  C   UNL     1      -5.876   4.159 -30.324  1.00  0.00    -0.053 A 
HETATM    3  C   UNL     1      -4.832   5.052 -30.641  1.00  0.00    -0.035 A 
HETATM    4  C   UNL     1      -3.872   4.673 -31.598  1.00  0.00     0.010 A 
HETATM    5  C   UNL     1      -3.982   3.464 -32.287  1.00  0.00     0.014 A 
HETATM    6  C   UNL     1      -5.077   2.632 -32.050  1.00  0.00    -0.004 A 
HETATM    7  C   UNL     1      -5.998   2.962 -31.049  1.00  0.00     0.021 A 
ENDROOT
BRANCH   3   8
HETATM    8  C   UNL     1      -4.697   6.405 -29.982  1.00  0.00     0.163 C 
BRANCH   8   9
HETATM    9  N   UNL     1      -3.527   6.481 -29.142  1.00  0.00    -0.339 N 
HETATM   10  C   UNL     1      -2.593   7.448 -29.409  1.00  0.00     0.316 C 
HETATM   11  N   UNL     1      -1.566   7.438 -28.504  1.00  0.00    -0.339 N 
HETATM   12  O   UNL     1      -2.661   8.210 -30.363  1.00  0.00    -0.247 OA
HETATM   13  H   UNL     1      -1.646   6.831 -27.703  1.00  0.00     0.164 HD
HETATM   14  H   UNL     1      -3.633   6.199 -28.181  1.00  0.00     0.164 HD
BRANCH  11  15
HETATM   15  C   UNL     1      -0.529   8.463 -28.511  1.00  0.00     0.086 C 
HETATM   16  C   UNL     1      -0.664   9.384 -27.290  1.00  0.00     0.025 C 
HETATM   17  C   UNL     1      -0.252   8.693 -25.991  1.00  0.00     0.002 C 
HETATM   18  C   UNL     1       1.153   8.107 -26.089  1.00  0.00     0.000 C 
HETATM   19  C   UNL     1       1.291   7.164 -27.280  1.00  0.00     0.002 C 
HETATM   20  C   UNL     1       0.867   7.835 -28.586  1.00  0.00     0.025 C 
ENDBRANCH  11  15
ENDBRANCH   8   9
ENDBRANCH   3   8
BRANCH   6  21
HETATM   21  C   UNL     1      -5.273   1.363 -32.807  1.00  0.00     0.098 A 
HETATM   22  N   UNL     1      -6.202   1.369 -33.716  1.00  0.00    -0.169 NA
HETATM   23  N   UNL     1      -6.460   0.227 -34.426  1.00  0.00    -0.238 N 
HETATM   24  C   UNL     1      -7.497   0.311 -35.433  1.00  0.00     0.183 C 
HETATM   25  C   UNL     1      -5.846  -0.998 -34.195  1.00  0.00     0.274 A 
HETATM   26  O   UNL     1      -6.140  -2.036 -34.785  1.00  0.00    -0.266 OA
HETATM   27  C   UNL     1      -4.761  -1.005 -33.199  1.00  0.00     0.046 A 
HETATM   28  C   UNL     1      -4.431   0.170 -32.532  1.00  0.00     0.011 A 
HETATM   29  C   UNL     1      -4.034  -2.184 -32.972  1.00  0.00     0.018 A 
HETATM   30  C   UNL     1      -3.316   0.179 -31.682  1.00  0.00     0.015 A 
HETATM   31  C   UNL     1      -2.589  -0.994 -31.455  1.00  0.00     0.001 A 
HETATM   32  C   UNL     1      -2.954  -2.178 -32.090  1.00  0.00     0.001 A 
ENDBRANCH   6  21
TORSDOF 4
ENDMDL
MODEL 6
REMARK VINA RESULT:      -8.8      3.498      4.644
REMARK  4 active torsions:
REMARK  status: ('A' for Active; 'I' for Inactive)
REMARK    1  A    between atoms: C_3  and  C_4 
REMARK    2  A    between atoms: C_4  and  N_5 
REMARK       I    between atoms: N_5  and  C_6 
REMARK       I    between atoms: C_6  and  N_7 
REMARK    3  A    between atoms: N_7  and  C_8 
REMARK    4  A    between atoms: C_17  and  C_18 
ROOT
HETATM    1  C   UNL     1      -3.124   5.285 -34.990  1.00  0.00     0.049 C 
HETATM    2  C   UNL     1      -4.053   4.738 -33.940  1.00  0.00    -0.053 A 
HETATM    3  C   UNL     1      -3.592   4.336 -32.669  1.00  0.00    -0.035 A 
HETATM    4  C   UNL     1      -4.523   3.897 -31.709  1.00  0.00     0.010 A 
HETATM    5  C   UNL     1      -5.879   3.784 -32.022  1.00  0.00     0.014 A 
HETATM    6  C   UNL     1      -6.317   4.077 -33.315  1.00  0.00    -0.004 A 
HETATM    7  C   UNL     1      -5.413   4.585 -34.255  1.00  0.00     0.021 A 
ENDROOT
BRANCH   3   8
HETATM    8  C   UNL     1      -2.129   4.366 -32.292  1.00  0.00     0.163 C 
BRANCH   8   9
HETATM    9  N   UNL     1      -1.931   4.832 -30.941  1.00  0.00    -0.339 N 
HETATM   10  C   UNL     1      -1.372   6.068 -30.752  1.00  0.00     0.316 C 
HETATM   11  N   UNL     1      -1.293   6.403 -29.427  1.00  0.00    -0.339 N 
HETATM   12  O   UNL     1      -0.966   6.775 -31.664  1.00  0.00    -0.247 OA
HETATM   13  H   UNL     1      -1.735   5.792 -28.757  1.00  0.00     0.164 HD
HETATM   14  H   UNL     1      -2.588   4.514 -30.246  1.00  0.00     0.164 HD
BRANCH  11  15
HETATM   15  C   UNL     1      -0.857   7.726 -28.996  1.00  0.00     0.086 C 
HETATM   16  C   UNL     1      -1.616   8.166 -27.736  1.00  0.00     0.025 C 
HETATM   17  C   UNL     1      -1.176   7.396 -26.492  1.00  0.00     0.002 C 
HETATM   18  C   UNL     1       0.333   7.478 -26.285  1.00  0.00     0.000 C 
HETATM   19  C   UNL     1       1.099   7.012 -27.518  1.00  0.00     0.002 C 
HETATM   20  C   UNL     1       0.660   7.761 -28.776  1.00  0.00     0.025 C 
ENDBRANCH  11  15
ENDBRANCH   8   9
ENDBRANCH   3   8
BRANCH   6  21
HETATM   21  C   UNL     1      -7.742   3.910 -33.715  1.00  0.00     0.098 A 
HETATM   22  N   UNL     1      -8.317   4.945 -34.252  1.00  0.00    -0.169 NA
HETATM   23  N   UNL     1      -9.636   4.874 -34.612  1.00  0.00    -0.238 N 
HETATM   24  C   UNL     1     -10.206   6.059 -35.219  1.00  0.00     0.183 C 
HETATM   25  C   UNL     1     -10.458   3.780 -34.373  1.00  0.00     0.274 A 
HETATM   26  O   UNL     1     -11.661   3.755 -34.630  1.00  0.00    -0.266 OA
HETATM   27  C   UNL     1      -9.807   2.586 -33.806  1.00  0.00     0.046 A 
HETATM   28  C   UNL     1      -8.447   2.618 -33.516  1.00  0.00     0.011 A 
HETATM   29  C   UNL     1     -10.551   1.412 -33.617  1.00  0.00     0.018 A 
HETATM   30  C   UNL     1      -7.814   1.438 -33.098  1.00  0.00     0.015 A 
HETATM   31  C   UNL     1      -8.553   0.266 -32.909  1.00  0.00     0.001 A 
HETATM   32  C   UNL     1      -9.923   0.255 -33.157  1.00  0.00     0.001 A 
ENDBRANCH   6  21
TORSDOF 4
ENDMDL
MODEL 7
REMARK VINA RESULT:      -8.7      6.274     10.187
REMARK  4 active torsions:
REMARK  status: ('A' for Active; 'I' for Inactive)
REMARK    1  A    between atoms: C_3  and  C_4 
REMARK    2  A    between atoms: C_4  and  N_5 
REMARK       I    between atoms: N_5  and  C_6 
REMARK       I    between atoms: C_6  and  N_7 
REMARK    3  A    between atoms: N_7  and  C_8 
REMARK    4  A    between atoms: C_17  and  C_18 
ROOT
HETATM    1  C   UNL     1     -12.465  -0.415 -33.415  1.00  0.00     0.049 C 
HETATM    2  C   UNL     1     -11.310   0.536 -33.569  1.00  0.00    -0.053 A 
HETATM    3  C   UNL     1     -11.425   1.744 -34.289  1.00  0.00    -0.035 A 
HETATM    4  C   UNL     1     -10.326   2.622 -34.336  1.00  0.00     0.010 A 
HETATM    5  C   UNL     1      -9.107   2.280 -33.748  1.00  0.00     0.014 A 
HETATM    6  C   UNL     1      -8.962   1.036 -33.132  1.00  0.00    -0.004 A 
HETATM    7  C   UNL     1     -10.068   0.187 -33.013  1.00  0.00     0.021 A 
ENDROOT
BRANCH   3   8
HETATM    8  C   UNL     1     -12.694   2.140 -35.007  1.00  0.00     0.163 C 
BRANCH   8   9
HETATM    9  N   UNL     1     -13.266   3.347 -34.464  1.00  0.00    -0.339 N 
HETATM   10  C   UNL     1     -14.083   3.248 -33.368  1.00  0.00     0.316 C 
HETATM   11  N   UNL     1     -14.510   4.471 -32.929  1.00  0.00    -0.339 N 
HETATM   12  O   UNL     1     -14.411   2.183 -32.863  1.00  0.00    -0.247 OA
HETATM   13  H   UNL     1     -14.114   5.293 -33.357  1.00  0.00     0.164 HD
HETATM   14  H   UNL     1     -12.728   4.193 -34.559  1.00  0.00     0.164 HD
BRANCH  11  15
HETATM   15  C   UNL     1     -15.278   4.618 -31.698  1.00  0.00     0.086 C 
HETATM   16  C   UNL     1     -14.705   5.746 -30.829  1.00  0.00     0.025 C 
HETATM   17  C   UNL     1     -14.992   7.131 -31.408  1.00  0.00     0.002 C 
HETATM   18  C   UNL     1     -16.482   7.333 -31.665  1.00  0.00     0.000 C 
HETATM   19  C   UNL     1     -17.057   6.236 -32.555  1.00  0.00     0.002 C 
HETATM   20  C   UNL     1     -16.764   4.843 -31.998  1.00  0.00     0.025 C 
ENDBRANCH  11  15
ENDBRANCH   8   9
ENDBRANCH   3   8
BRANCH   6  21
HETATM   21  C   UNL     1      -7.663   0.600 -32.546  1.00  0.00     0.098 A 
HETATM   22  N   UNL     1      -7.311   1.167 -31.431  1.00  0.00    -0.169 NA
HETATM   23  N   UNL     1      -6.114   0.839 -30.855  1.00  0.00    -0.238 N 
HETATM   24  C   UNL     1      -5.793   1.500 -29.606  1.00  0.00     0.183 C 
HETATM   25  C   UNL     1      -5.178  -0.018 -31.420  1.00  0.00     0.274 A 
HETATM   26  O   UNL     1      -4.072  -0.246 -30.933  1.00  0.00    -0.266 OA
HETATM   27  C   UNL     1      -5.585  -0.702 -32.660  1.00  0.00     0.046 A 
HETATM   28  C   UNL     1      -6.836  -0.441 -33.209  1.00  0.00     0.011 A 
HETATM   29  C   UNL     1      -4.731  -1.650 -33.244  1.00  0.00     0.018 A 
HETATM   30  C   UNL     1      -7.262  -1.191 -34.316  1.00  0.00     0.015 A 
HETATM   31  C   UNL     1      -6.413  -2.137 -34.899  1.00  0.00     0.001 A 
HETATM   32  C   UNL     1      -5.144  -2.358 -34.372  1.00  0.00     0.001 A 
ENDBRANCH   6  21
TORSDOF 4
ENDMDL
MODEL 8
REMARK VINA RESULT:      -8.7      3.206      4.263
REMARK  4 active torsions:
REMARK  status: ('A' for Active; 'I' for Inactive)
REMARK    1  A    between atoms: C_3  and  C_4 
REMARK    2  A    between atoms: C_4  and  N_5 
REMARK       I    between atoms: N_5  and  C_6 
REMARK       I    between atoms: C_6  and  N_7 
REMARK    3  A    between atoms: N_7  and  C_8 
REMARK    4  A    between atoms: C_17  and  C_18 
ROOT
HETATM    1  C   UNL     1      -2.658   3.135 -31.247  1.00  0.00     0.049 C 
HETATM    2  C   UNL     1      -3.324   3.831 -32.402  1.00  0.00    -0.053 A 
HETATM    3  C   UNL     1      -2.648   4.787 -33.190  1.00  0.00    -0.035 A 
HETATM    4  C   UNL     1      -3.308   5.351 -34.299  1.00  0.00     0.010 A 
HETATM    5  C   UNL     1      -4.638   5.035 -34.581  1.00  0.00     0.014 A 
HETATM    6  C   UNL     1      -5.338   4.174 -33.735  1.00  0.00    -0.004 A 
HETATM    7  C   UNL     1      -4.673   3.550 -32.673  1.00  0.00     0.021 A 
ENDROOT
BRANCH   3   8
HETATM    8  C   UNL     1      -1.233   5.224 -32.895  1.00  0.00     0.163 C 
BRANCH   8   9
HETATM    9  N   UNL     1      -1.171   6.127 -31.772  1.00  0.00    -0.339 N 
HETATM   10  C   UNL     1      -0.297   5.846 -30.755  1.00  0.00     0.316 C 
HETATM   11  N   UNL     1      -0.305   6.812 -29.785  1.00  0.00    -0.339 N 
HETATM   12  O   UNL     1       0.388   4.834 -30.712  1.00  0.00    -0.247 OA
HETATM   13  H   UNL     1      -0.839   7.650 -29.956  1.00  0.00     0.164 HD
HETATM   14  H   UNL     1      -1.367   7.099 -31.954  1.00  0.00     0.164 HD
BRANCH  11  15
HETATM   15  C   UNL     1       0.641   6.791 -28.676  1.00  0.00     0.086 C 
HETATM   16  C   UNL     1       1.099   8.214 -28.323  1.00  0.00     0.025 C 
HETATM   17  C   UNL     1       0.002   9.024 -27.634  1.00  0.00     0.002 C 
HETATM   18  C   UNL     1      -0.545   8.300 -26.409  1.00  0.00     0.000 C 
HETATM   19  C   UNL     1      -1.034   6.896 -26.753  1.00  0.00     0.002 C 
HETATM   20  C   UNL     1       0.047   6.077 -27.458  1.00  0.00     0.025 C 
ENDBRANCH  11  15
ENDBRANCH   8   9
ENDBRANCH   3   8
BRANCH   6  21
HETATM   21  C   UNL     1      -6.777   3.858 -33.957  1.00  0.00     0.098 A 
HETATM   22  N   UNL     1      -7.584   4.872 -34.061  1.00  0.00    -0.169 NA
HETATM   23  N   UNL     1      -8.924   4.655 -34.231  1.00  0.00    -0.238 N 
HETATM   24  C   UNL     1      -9.760   5.831 -34.354  1.00  0.00     0.183 C 
HETATM   25  C   UNL     1      -9.525   3.402 -34.225  1.00  0.00     0.274 A 
HETATM   26  O   UNL     1     -10.739   3.222 -34.302  1.00  0.00    -0.266 OA
HETATM   27  C   UNL     1      -8.617   2.245 -34.154  1.00  0.00     0.046 A 
HETATM   28  C   UNL     1      -7.244   2.452 -34.068  1.00  0.00     0.011 A 
HETATM   29  C   UNL     1      -9.140   0.944 -34.232  1.00  0.00     0.018 A 
HETATM   30  C   UNL     1      -6.384   1.345 -34.129  1.00  0.00     0.015 A 
HETATM   31  C   UNL     1      -6.903   0.049 -34.207  1.00  0.00     0.001 A 
HETATM   32  C   UNL     1      -8.281  -0.153 -34.246  1.00  0.00     0.001 A 
ENDBRANCH   6  21
TORSDOF 4
ENDMDL
MODEL 9
REMARK VINA RESULT:      -8.6      3.977     10.211
REMARK  4 active torsions:
REMARK  status: ('A' for Active; 'I' for Inactive)
REMARK    1  A    between atoms: C_3  and  C_4 
REMARK    2  A    between atoms: C_4  and  N_5 
REMARK       I    between atoms: N_5  and  C_6 
REMARK       I    between atoms: C_6  and  N_7 
REMARK    3  A    between atoms: N_7  and  C_8 
REMARK    4  A    between atoms: C_17  and  C_18 
ROOT
HETATM    1  C   UNL     1      -5.969   0.702 -29.911  1.00  0.00     0.049 C 
HETATM    2  C   UNL     1      -6.085   1.906 -30.806  1.00  0.00    -0.053 A 
HETATM    3  C   UNL     1      -7.087   2.011 -31.793  1.00  0.00    -0.035 A 
HETATM    4  C   UNL     1      -7.182   3.194 -32.551  1.00  0.00     0.010 A 
HETATM    5  C   UNL     1      -6.257   4.227 -32.389  1.00  0.00     0.014 A 
HETATM    6  C   UNL     1      -5.201   4.074 -31.489  1.00  0.00    -0.004 A 
HETATM    7  C   UNL     1      -5.138   2.936 -30.678  1.00  0.00     0.021 A 
ENDROOT
BRANCH   3   8
HETATM    8  C   UNL     1      -8.074   0.900 -32.066  1.00  0.00     0.163 C 
BRANCH   8   9
HETATM    9  N   UNL     1      -9.438   1.357 -31.971  1.00  0.00    -0.339 N 
HETATM   10  C   UNL     1     -10.105   1.670 -33.126  1.00  0.00     0.316 C 
HETATM   11  N   UNL     1     -11.402   2.036 -32.892  1.00  0.00    -0.339 N 
HETATM   12  O   UNL     1      -9.586   1.649 -34.234  1.00  0.00    -0.247 OA
HETATM   13  H   UNL     1     -11.761   1.936 -31.955  1.00  0.00     0.164 HD
HETATM   14  H   UNL     1      -9.989   1.001 -31.206  1.00  0.00     0.164 HD
BRANCH  11  15
HETATM   15  C   UNL     1     -12.338   2.281 -33.983  1.00  0.00     0.086 C 
HETATM   16  C   UNL     1     -12.928   0.962 -34.502  1.00  0.00     0.025 C 
HETATM   17  C   UNL     1     -13.923   0.343 -33.521  1.00  0.00     0.002 C 
HETATM   18  C   UNL     1     -15.023   1.329 -33.142  1.00  0.00     0.000 C 
HETATM   19  C   UNL     1     -14.451   2.633 -32.594  1.00  0.00     0.002 C 
HETATM   20  C   UNL     1     -13.440   3.257 -33.556  1.00  0.00     0.025 C 
ENDBRANCH  11  15
ENDBRANCH   8   9
ENDBRANCH   3   8
BRANCH   6  21
HETATM   21  C   UNL     1      -4.152   5.121 -31.329  1.00  0.00     0.098 A 
HETATM   22  N   UNL     1      -4.160   5.781 -30.209  1.00  0.00    -0.169 NA
HETATM   23  N   UNL     1      -3.247   6.781 -30.007  1.00  0.00    -0.238 N 
HETATM   24  C   UNL     1      -3.305   7.463 -28.731  1.00  0.00     0.183 C 
HETATM   25  C   UNL     1      -2.335   7.216 -30.960  1.00  0.00     0.274 A 
HETATM   26  O   UNL     1      -1.571   8.166 -30.797  1.00  0.00    -0.266 OA
HETATM   27  C   UNL     1      -2.286   6.446 -32.215  1.00  0.00     0.046 A 
HETATM   28  C   UNL     1      -3.151   5.372 -32.397  1.00  0.00     0.011 A 
HETATM   29  C   UNL     1      -1.330   6.767 -33.192  1.00  0.00     0.018 A 
HETATM   30  C   UNL     1      -3.009   4.570 -33.539  1.00  0.00     0.015 A 
HETATM   31  C   UNL     1      -2.057   4.888 -34.513  1.00  0.00     0.001 A 
HETATM   32  C   UNL     1      -1.226   5.993 -34.346  1.00  0.00     0.001 A 
ENDBRANCH   6  21
TORSDOF 4
ENDMDL
MODEL 10
REMARK VINA RESULT:      -8.6      2.488      3.614
REMARK  4 active torsions:
REMARK  status: ('A' for Active; 'I' for Inactive)
REMARK    1  A    between atoms: C_3  and  C_4 
REMARK    2  A    between atoms: C_4  and  N_5 
REMARK       I    between atoms: N_5  and  C_6 
REMARK       I    between atoms: C_6  and  N_7 
REMARK    3  A    between atoms: N_7  and  C_8 
REMARK    4  A    between atoms: C_17  and  C_18 
ROOT
HETATM    1  C   UNL     1      -3.193   6.053 -34.173  1.00  0.00     0.049 C 
HETATM    2  C   UNL     1      -3.375   4.852 -33.284  1.00  0.00    -0.053 A 
HETATM    3  C   UNL     1      -2.366   4.414 -32.401  1.00  0.00    -0.035 A 
HETATM    4  C   UNL     1      -2.626   3.326 -31.548  1.00  0.00     0.010 A 
HETATM    5  C   UNL     1      -3.835   2.632 -31.616  1.00  0.00     0.014 A 
HETATM    6  C   UNL     1      -4.789   2.998 -32.567  1.00  0.00    -0.004 A 
HETATM    7  C   UNL     1      -4.573   4.124 -33.370  1.00  0.00     0.021 A 
ENDROOT
BRANCH   3   8
HETATM    8  C   UNL     1      -1.010   5.078 -32.329  1.00  0.00     0.163 C 
BRANCH   8   9
HETATM    9  N   UNL     1      -0.940   6.043 -31.259  1.00  0.00    -0.339 N 
HETATM   10  C   UNL     1      -0.225   5.720 -30.135  1.00  0.00     0.316 C 
HETATM   11  N   UNL     1      -0.198   6.745 -29.228  1.00  0.00    -0.339 N 
HETATM   12  O   UNL     1       0.302   4.631 -29.957  1.00  0.00    -0.247 OA
HETATM   13  H   UNL     1      -0.587   7.633 -29.505  1.00  0.00     0.164 HD
HETATM   14  H   UNL     1      -0.975   7.016 -31.516  1.00  0.00     0.164 HD
BRANCH  11  15
HETATM   15  C   UNL     1       0.614   6.676 -28.020  1.00  0.00     0.086 C 
HETATM   16  C   UNL     1       1.321   8.015 -27.761  1.00  0.00     0.025 C 
HETATM   17  C   UNL     1       0.355   9.102 -27.291  1.00  0.00     0.002 C 
HETATM   18  C   UNL     1      -0.443   8.654 -26.071  1.00  0.00     0.000 C 
HETATM   19  C   UNL     1      -1.177   7.341 -26.326  1.00  0.00     0.002 C 
HETATM   20  C   UNL     1      -0.228   6.246 -26.813  1.00  0.00     0.025 C 
ENDBRANCH  11  15
ENDBRANCH   8   9
ENDBRANCH   3   8
BRANCH   6  21
HETATM   21  C   UNL     1      -6.067   2.248 -32.722  1.00  0.00     0.098 A 
HETATM   22  N   UNL     1      -6.058   1.256 -33.562  1.00  0.00    -0.169 NA
HETATM   23  N   UNL     1      -7.206   0.544 -33.781  1.00  0.00    -0.238 N 
HETATM   24  C   UNL     1      -7.118  -0.556 -34.719  1.00  0.00     0.183 C 
HETATM   25  C   UNL     1      -8.440   0.852 -33.221  1.00  0.00     0.274 A 
HETATM   26  O   UNL     1      -9.482   0.254 -33.483  1.00  0.00    -0.266 OA
HETATM   27  C   UNL     1      -8.453   1.944 -32.233  1.00  0.00     0.046 A 
HETATM   28  C   UNL     1      -7.273   2.619 -31.938  1.00  0.00     0.011 A 
HETATM   29  C   UNL     1      -9.643   2.257 -31.558  1.00  0.00     0.018 A 
HETATM   30  C   UNL     1      -7.273   3.569 -30.906  1.00  0.00     0.015 A 
HETATM   31  C   UNL     1      -8.457   3.882 -30.232  1.00  0.00     0.001 A 
HETATM   32  C   UNL     1      -9.645   3.235 -30.565  1.00  0.00     0.001 A 
ENDBRANCH   6  21
TORSDOF 4
ENDMDL
