MODEL 1
REMARK VINA RESULT:      -8.9      0.000      0.000
REMARK  4 active torsions:
REMARK  status: ('A' for Active; 'I' for Inactive)
REMARK    1  A    between atoms: C_3  and  N_4 
REMARK    2  A    between atoms: N_4  and  C_5 
REMARK    3  A    between atoms: C_5  and  C_6 
REMARK    4  A    between atoms: C_8  and  C_9 
REMARK       I    between atoms: C_9  and  N_10 
ROOT
HETATM    1  N   UNL     1      -8.120   0.699 -34.280  1.00  0.00    -0.372 N 
HETATM    2  H   UNL     1      -8.421   0.893 -35.235  1.00  0.00     0.161 HD
ENDROOT
BRANCH   1   3
HETATM    3  C   UNL     1      -7.103  -0.225 -34.186  1.00  0.00     0.107 A 
HETATM    4  C   UNL     1      -5.852   0.114 -33.634  1.00  0.00    -0.017 A 
HETATM    5  C   UNL     1      -5.519   1.496 -33.139  1.00  0.00     0.052 C 
HETATM    6  C   UNL     1      -4.864  -0.875 -33.520  1.00  0.00     0.024 A 
HETATM    7  C   UNL     1      -5.117  -2.181 -33.939  1.00  0.00    -0.009 A 
HETATM    8  C   UNL     1      -6.381  -2.474 -34.486  1.00  0.00     0.043 A 
HETATM    9  C   UNL     1      -4.164  -3.205 -33.832  1.00  0.00     0.014 A 
HETATM   10  N   UNL     1      -7.297  -1.495 -34.574  1.00  0.00    -0.342 N 
HETATM   11  C   UNL     1      -6.674  -3.770 -34.929  1.00  0.00     0.030 A 
HETATM   12  H   UNL     1      -8.185  -1.722 -35.000  1.00  0.00     0.167 HD
HETATM   13  C   UNL     1      -5.715  -4.777 -34.818  1.00  0.00     0.002 A 
HETATM   14  C   UNL     1      -4.466  -4.496 -34.269  1.00  0.00     0.001 A 
ENDBRANCH   1   3
BRANCH   1  15
HETATM   15  C   UNL     1      -9.141   0.966 -33.278  1.00  0.00     0.160 C 
BRANCH  15  16
HETATM   16  C   UNL     1     -10.433   1.477 -33.866  1.00  0.00    -0.040 A 
HETATM   17  C   UNL     1     -11.622   0.738 -33.782  1.00  0.00     0.026 A 
HETATM   18  C   UNL     1     -12.810   1.213 -34.360  1.00  0.00     0.032 A 
HETATM   19  C   UNL     1     -12.815   2.439 -35.029  1.00  0.00     0.017 A 
HETATM   20  C   UNL     1     -11.634   3.174 -35.136  1.00  0.00     0.002 A 
HETATM   21  C   UNL     1     -10.451   2.694 -34.567  1.00  0.00     0.009 A 
BRANCH  18  22
HETATM   22  C   UNL     1     -14.036   0.393 -34.197  1.00  0.00     0.249 C 
HETATM   23  N   UNL     1     -13.955  -0.719 -33.411  1.00  0.00    -0.366 N 
HETATM   24  H   UNL     1     -13.185  -0.901 -32.782  1.00  0.00     0.159 HD
HETATM   25  H   UNL     1     -14.823  -1.211 -33.228  1.00  0.00     0.159 HD
HETATM   26  O   UNL     1     -15.081   0.732 -34.737  1.00  0.00    -0.268 OA
ENDBRANCH  18  22
ENDBRANCH  15  16
ENDBRANCH   1  15
TORSDOF 4
ENDMDL
MODEL 2
REMARK VINA RESULT:      -8.7      4.828      7.396
REMARK  4 active torsions:
REMARK  status: ('A' for Active; 'I' for Inactive)
REMARK    1  A    between atoms: C_3  and  N_4 
REMARK    2  A    between atoms: N_4  and  C_5 
REMARK    3  A    between atoms: C_5  and  C_6 
REMARK    4  A    between atoms: C_8  and  C_9 
REMARK       I    between atoms: C_9  and  N_10 
ROOT
HETATM    1  N   UNL     1      -5.479   1.126 -33.335  1.00  0.00    -0.372 N 
HETATM    2  H   UNL     1      -6.262   1.718 -33.613  1.00  0.00     0.161 HD
ENDROOT
BRANCH   1   3
HETATM    3  C   UNL     1      -5.612  -0.195 -33.706  1.00  0.00     0.107 A 
HETATM    4  C   UNL     1      -6.680  -0.626 -34.516  1.00  0.00    -0.017 A 
HETATM    5  C   UNL     1      -7.763   0.297 -35.009  1.00  0.00     0.052 C 
HETATM    6  C   UNL     1      -6.746  -1.972 -34.902  1.00  0.00     0.024 A 
HETATM    7  C   UNL     1      -5.761  -2.874 -34.498  1.00  0.00    -0.009 A 
HETATM    8  C   UNL     1      -4.713  -2.399 -33.688  1.00  0.00     0.043 A 
HETATM    9  C   UNL     1      -5.779  -4.227 -34.871  1.00  0.00     0.014 A 
HETATM   10  N   UNL     1      -4.690  -1.100 -33.344  1.00  0.00    -0.342 N 
HETATM   11  C   UNL     1      -3.709  -3.272 -33.250  1.00  0.00     0.030 A 
HETATM   12  H   UNL     1      -3.945  -0.790 -32.735  1.00  0.00     0.167 HD
HETATM   13  C   UNL     1      -3.741  -4.615 -33.628  1.00  0.00     0.002 A 
HETATM   14  C   UNL     1      -4.771  -5.089 -34.438  1.00  0.00     0.001 A 
ENDBRANCH   1   3
BRANCH   1  15
HETATM   15  C   UNL     1      -4.738   1.632 -32.190  1.00  0.00     0.160 C 
BRANCH  15  16
HETATM   16  C   UNL     1      -4.129   2.992 -32.430  1.00  0.00    -0.040 A 
HETATM   17  C   UNL     1      -2.997   3.425 -31.723  1.00  0.00     0.026 A 
HETATM   18  C   UNL     1      -2.459   4.704 -31.935  1.00  0.00     0.032 A 
HETATM   19  C   UNL     1      -3.054   5.562 -32.863  1.00  0.00     0.017 A 
HETATM   20  C   UNL     1      -4.191   5.149 -33.558  1.00  0.00     0.002 A 
HETATM   21  C   UNL     1      -4.729   3.878 -33.339  1.00  0.00     0.009 A 
BRANCH  18  22
HETATM   22  C   UNL     1      -1.239   5.077 -31.179  1.00  0.00     0.249 C 
HETATM   23  N   UNL     1      -1.403   5.745 -30.001  1.00  0.00    -0.366 N 
HETATM   24  H   UNL     1      -2.289   5.819 -29.522  1.00  0.00     0.159 HD
HETATM   25  H   UNL     1      -0.568   5.904 -29.447  1.00  0.00     0.159 HD
HETATM   26  O   UNL     1      -0.132   4.766 -31.600  1.00  0.00    -0.268 OA
ENDBRANCH  18  22
ENDBRANCH  15  16
ENDBRANCH   1  15
TORSDOF 4
ENDMDL
MODEL 3
REMARK VINA RESULT:      -8.6      2.275      3.181
REMARK  4 active torsions:
REMARK  status: ('A' for Active; 'I' for Inactive)
REMARK    1  A    between atoms: C_3  and  N_4 
REMARK    2  A    between atoms: N_4  and  C_5 
REMARK    3  A    between atoms: C_5  and  C_6 
REMARK    4  A    between atoms: C_8  and  C_9 
REMARK       I    between atoms: C_9  and  N_10 
ROOT
HETATM    1  N   UNL     1      -6.038   1.321 -33.099  1.00  0.00    -0.372 N 
HETATM    2  H   UNL     1      -5.831   1.984 -33.845  1.00  0.00     0.161 HD
ENDROOT
BRANCH   1   3
HETATM    3  C   UNL     1      -5.685   0.020 -33.387  1.00  0.00     0.107 A 
HETATM    4  C   UNL     1      -6.202  -0.647 -34.515  1.00  0.00    -0.017 A 
HETATM    5  C   UNL     1      -7.188  -0.017 -35.464  1.00  0.00     0.052 C 
HETATM    6  C   UNL     1      -5.779  -1.955 -34.790  1.00  0.00     0.024 A 
HETATM    7  C   UNL     1      -4.849  -2.587 -33.964  1.00  0.00    -0.009 A 
HETATM    8  C   UNL     1      -4.361  -1.883 -32.847  1.00  0.00     0.043 A 
HETATM    9  C   UNL     1      -4.387  -3.890 -34.207  1.00  0.00     0.014 A 
HETATM   10  N   UNL     1      -4.794  -0.631 -32.624  1.00  0.00    -0.342 N 
HETATM   11  C   UNL     1      -3.436  -2.483 -31.984  1.00  0.00     0.030 A 
HETATM   12  H   UNL     1      -4.454  -0.157 -31.798  1.00  0.00     0.167 HD
HETATM   13  C   UNL     1      -2.986  -3.780 -32.238  1.00  0.00     0.002 A 
HETATM   14  C   UNL     1      -3.459  -4.479 -33.347  1.00  0.00     0.001 A 
ENDBRANCH   1   3
BRANCH   1  15
HETATM   15  C   UNL     1      -7.109   1.749 -32.212  1.00  0.00     0.160 C 
BRANCH  15  16
HETATM   16  C   UNL     1      -8.483   1.577 -32.812  1.00  0.00    -0.040 A 
HETATM   17  C   UNL     1      -9.045   2.552 -33.650  1.00  0.00     0.026 A 
HETATM   18  C   UNL     1     -10.337   2.391 -34.176  1.00  0.00     0.032 A 
HETATM   19  C   UNL     1     -11.076   1.248 -33.867  1.00  0.00     0.017 A 
HETATM   20  C   UNL     1     -10.534   0.281 -33.020  1.00  0.00     0.002 A 
HETATM   21  C   UNL     1      -9.251   0.447 -32.489  1.00  0.00     0.009 A 
BRANCH  18  22
HETATM   22  C   UNL     1     -10.850   3.446 -35.085  1.00  0.00     0.249 C 
HETATM   23  N   UNL     1     -11.793   3.088 -36.002  1.00  0.00    -0.366 N 
HETATM   24  H   UNL     1     -12.303   2.217 -35.965  1.00  0.00     0.159 HD
HETATM   25  H   UNL     1     -12.206   3.838 -36.547  1.00  0.00     0.159 HD
HETATM   26  O   UNL     1     -10.445   4.597 -34.985  1.00  0.00    -0.268 OA
ENDBRANCH  18  22
ENDBRANCH  15  16
ENDBRANCH   1  15
TORSDOF 4
ENDMDL
MODEL 4
REMARK VINA RESULT:      -8.5      5.481      8.219
REMARK  4 active torsions:
REMARK  status: ('A' for Active; 'I' for Inactive)
REMARK    1  A    between atoms: C_3  and  N_4 
REMARK    2  A    between atoms: N_4  and  C_5 
REMARK    3  A    between atoms: C_5  and  C_6 
REMARK    4  A    between atoms: C_8  and  C_9 
REMARK       I    between atoms: C_9  and  N_10 
ROOT
HETATM    1  N   UNL     1      -5.620   4.051 -32.892  1.00  0.00    -0.372 N 
HETATM    2  H   UNL     1      -5.577   4.379 -31.927  1.00  0.00     0.161 HD
ENDROOT
BRANCH   1   3
HETATM    3  C   UNL     1      -5.401   2.698 -33.038  1.00  0.00     0.107 A 
HETATM    4  C   UNL     1      -4.329   2.054 -32.388  1.00  0.00    -0.017 A 
HETATM    5  C   UNL     1      -3.335   2.782 -31.522  1.00  0.00     0.052 C 
HETATM    6  C   UNL     1      -4.174   0.668 -32.533  1.00  0.00     0.024 A 
HETATM    7  C   UNL     1      -5.075  -0.068 -33.303  1.00  0.00    -0.009 A 
HETATM    8  C   UNL     1      -6.129   0.617 -33.935  1.00  0.00     0.043 A 
HETATM    9  C   UNL     1      -4.967  -1.458 -33.465  1.00  0.00     0.014 A 
HETATM   10  N   UNL     1      -6.239   1.945 -33.766  1.00  0.00    -0.342 N 
HETATM   11  C   UNL     1      -7.050  -0.081 -34.726  1.00  0.00     0.030 A 
HETATM   12  H   UNL     1      -6.985   2.420 -34.256  1.00  0.00     0.167 HD
HETATM   13  C   UNL     1      -6.929  -1.463 -34.880  1.00  0.00     0.002 A 
HETATM   14  C   UNL     1      -5.893  -2.149 -34.249  1.00  0.00     0.001 A 
ENDBRANCH   1   3
BRANCH   1  15
HETATM   15  C   UNL     1      -5.335   5.083 -33.877  1.00  0.00     0.160 C 
BRANCH  15  16
HETATM   16  C   UNL     1      -3.888   5.509 -33.890  1.00  0.00    -0.040 A 
HETATM   17  C   UNL     1      -3.400   6.482 -33.005  1.00  0.00     0.026 A 
HETATM   18  C   UNL     1      -2.057   6.890 -33.050  1.00  0.00     0.032 A 
HETATM   19  C   UNL     1      -1.190   6.321 -33.986  1.00  0.00     0.017 A 
HETATM   20  C   UNL     1      -1.668   5.367 -34.883  1.00  0.00     0.002 A 
HETATM   21  C   UNL     1      -3.008   4.969 -34.842  1.00  0.00     0.009 A 
BRANCH  18  22
HETATM   22  C   UNL     1      -1.605   7.895 -32.058  1.00  0.00     0.249 C 
HETATM   23  N   UNL     1      -0.844   7.458 -31.014  1.00  0.00    -0.366 N 
HETATM   24  H   UNL     1      -0.406   6.548 -30.987  1.00  0.00     0.159 HD
HETATM   25  H   UNL     1      -0.460   8.169 -30.401  1.00  0.00     0.159 HD
HETATM   26  O   UNL     1      -1.896   9.076 -32.200  1.00  0.00    -0.268 OA
ENDBRANCH  18  22
ENDBRANCH  15  16
ENDBRANCH   1  15
TORSDOF 4
ENDMDL
MODEL 5
REMARK VINA RESULT:      -8.5      2.711      7.703
REMARK  4 active torsions:
REMARK  status: ('A' for Active; 'I' for Inactive)
REMARK    1  A    between atoms: C_3  and  N_4 
REMARK    2  A    between atoms: N_4  and  C_5 
REMARK    3  A    between atoms: C_5  and  C_6 
REMARK    4  A    between atoms: C_8  and  C_9 
REMARK       I    between atoms: C_9  and  N_10 
ROOT
HETATM    1  N   UNL     1      -8.325   0.621 -33.715  1.00  0.00    -0.372 N 
HETATM    2  H   UNL     1      -7.913   0.342 -32.825  1.00  0.00     0.161 HD
ENDROOT
BRANCH   1   3
HETATM    3  C   UNL     1      -9.588   1.163 -33.606  1.00  0.00     0.107 A 
HETATM    4  C   UNL     1      -9.783   2.554 -33.506  1.00  0.00    -0.017 A 
HETATM    5  C   UNL     1      -8.648   3.544 -33.478  1.00  0.00     0.052 C 
HETATM    6  C   UNL     1     -11.089   3.059 -33.443  1.00  0.00     0.024 A 
HETATM    7  C   UNL     1     -12.185   2.196 -33.488  1.00  0.00    -0.009 A 
HETATM    8  C   UNL     1     -11.942   0.813 -33.587  1.00  0.00     0.043 A 
HETATM    9  C   UNL     1     -13.510   2.658 -33.440  1.00  0.00     0.014 A 
HETATM   10  N   UNL     1     -10.674   0.376 -33.646  1.00  0.00    -0.342 N 
HETATM   11  C   UNL     1     -13.013  -0.089 -33.623  1.00  0.00     0.030 A 
HETATM   12  H   UNL     1     -10.524  -0.624 -33.684  1.00  0.00     0.167 HD
HETATM   13  C   UNL     1     -14.325   0.384 -33.573  1.00  0.00     0.002 A 
HETATM   14  C   UNL     1     -14.572   1.753 -33.485  1.00  0.00     0.001 A 
ENDBRANCH   1   3
BRANCH   1  15
HETATM   15  C   UNL     1      -7.789  -0.097 -34.861  1.00  0.00     0.160 C 
BRANCH  15  16
HETATM   16  C   UNL     1      -6.596  -0.957 -34.519  1.00  0.00    -0.040 A 
HETATM   17  C   UNL     1      -6.584  -2.335 -34.783  1.00  0.00     0.026 A 
HETATM   18  C   UNL     1      -5.480  -3.127 -34.432  1.00  0.00     0.032 A 
HETATM   19  C   UNL     1      -4.374  -2.541 -33.812  1.00  0.00     0.017 A 
HETATM   20  C   UNL     1      -4.382  -1.175 -33.528  1.00  0.00     0.002 A 
HETATM   21  C   UNL     1      -5.487  -0.390 -33.871  1.00  0.00     0.009 A 
BRANCH  18  22
HETATM   22  C   UNL     1      -5.525  -4.569 -34.777  1.00  0.00     0.249 C 
HETATM   23  N   UNL     1      -4.528  -5.367 -34.297  1.00  0.00    -0.366 N 
HETATM   24  H   UNL     1      -3.890  -5.082 -33.567  1.00  0.00     0.159 HD
HETATM   25  H   UNL     1      -4.626  -6.364 -34.456  1.00  0.00     0.159 HD
HETATM   26  O   UNL     1      -6.445  -5.014 -35.451  1.00  0.00    -0.268 OA
ENDBRANCH  18  22
ENDBRANCH  15  16
ENDBRANCH   1  15
TORSDOF 4
ENDMDL
MODEL 6
REMARK VINA RESULT:      -8.4      4.373      6.764
REMARK  4 active torsions:
REMARK  status: ('A' for Active; 'I' for Inactive)
REMARK    1  A    between atoms: C_3  and  N_4 
REMARK    2  A    between atoms: N_4  and  C_5 
REMARK    3  A    between atoms: C_5  and  C_6 
REMARK    4  A    between atoms: C_8  and  C_9 
REMARK       I    between atoms: C_9  and  N_10 
ROOT
HETATM    1  N   UNL     1      -5.415   1.099 -33.216  1.00  0.00    -0.372 N 
HETATM    2  H   UNL     1      -6.213   1.698 -33.427  1.00  0.00     0.161 HD
ENDROOT
BRANCH   1   3
HETATM    3  C   UNL     1      -5.563  -0.205 -33.635  1.00  0.00     0.107 A 
HETATM    4  C   UNL     1      -6.614  -0.585 -34.493  1.00  0.00    -0.017 A 
HETATM    5  C   UNL     1      -7.660   0.378 -34.989  1.00  0.00     0.052 C 
HETATM    6  C   UNL     1      -6.696  -1.916 -34.927  1.00  0.00     0.024 A 
HETATM    7  C   UNL     1      -5.743  -2.852 -34.523  1.00  0.00    -0.009 A 
HETATM    8  C   UNL     1      -4.712  -2.428 -33.664  1.00  0.00     0.043 A 
HETATM    9  C   UNL     1      -5.778  -4.191 -34.942  1.00  0.00     0.014 A 
HETATM   10  N   UNL     1      -4.673  -1.143 -33.276  1.00  0.00    -0.342 N 
HETATM   11  C   UNL     1      -3.742  -3.338 -33.225  1.00  0.00     0.030 A 
HETATM   12  H   UNL     1      -3.942  -0.869 -32.633  1.00  0.00     0.167 HD
HETATM   13  C   UNL     1      -3.790  -4.666 -33.649  1.00  0.00     0.002 A 
HETATM   14  C   UNL     1      -4.803  -5.090 -34.507  1.00  0.00     0.001 A 
ENDBRANCH   1   3
BRANCH   1  15
HETATM   15  C   UNL     1      -4.617   1.559 -32.090  1.00  0.00     0.160 C 
BRANCH  15  16
HETATM   16  C   UNL     1      -4.398   3.053 -32.086  1.00  0.00    -0.040 A 
HETATM   17  C   UNL     1      -3.945   3.732 -33.228  1.00  0.00     0.026 A 
HETATM   18  C   UNL     1      -3.718   5.116 -33.200  1.00  0.00     0.032 A 
HETATM   19  C   UNL     1      -3.946   5.835 -32.024  1.00  0.00     0.017 A 
HETATM   20  C   UNL     1      -4.378   5.167 -30.878  1.00  0.00     0.002 A 
HETATM   21  C   UNL     1      -4.595   3.786 -30.905  1.00  0.00     0.009 A 
BRANCH  18  22
HETATM   22  C   UNL     1      -3.276   5.771 -34.456  1.00  0.00     0.249 C 
HETATM   23  N   UNL     1      -2.292   6.711 -34.369  1.00  0.00    -0.366 N 
HETATM   24  H   UNL     1      -1.715   6.838 -33.549  1.00  0.00     0.159 HD
HETATM   25  H   UNL     1      -1.931   7.076 -35.244  1.00  0.00     0.159 HD
HETATM   26  O   UNL     1      -3.772   5.447 -35.528  1.00  0.00    -0.268 OA
ENDBRANCH  18  22
ENDBRANCH  15  16
ENDBRANCH   1  15
TORSDOF 4
ENDMDL
MODEL 7
REMARK VINA RESULT:      -8.4     13.751     15.173
REMARK  4 active torsions:
REMARK  status: ('A' for Active; 'I' for Inactive)
REMARK    1  A    between atoms: C_3  and  N_4 
REMARK    2  A    between atoms: N_4  and  C_5 
REMARK    3  A    between atoms: C_5  and  C_6 
REMARK    4  A    between atoms: C_8  and  C_9 
REMARK       I    between atoms: C_9  and  N_10 
ROOT
HETATM    1  N   UNL     1      -5.207 -13.082 -41.331  1.00  0.00    -0.372 N 
HETATM    2  H   UNL     1      -5.886 -13.686 -41.794  1.00  0.00     0.161 HD
ENDROOT
BRANCH   1   3
HETATM    3  C   UNL     1      -3.972 -13.664 -41.140  1.00  0.00     0.107 A 
HETATM    4  C   UNL     1      -3.424 -14.550 -42.087  1.00  0.00    -0.017 A 
HETATM    5  C   UNL     1      -4.141 -14.952 -43.350  1.00  0.00     0.052 C 
HETATM    6  C   UNL     1      -2.146 -15.083 -41.867  1.00  0.00     0.024 A 
HETATM    7  C   UNL     1      -1.419 -14.733 -40.729  1.00  0.00    -0.009 A 
HETATM    8  C   UNL     1      -2.008 -13.845 -39.808  1.00  0.00     0.043 A 
HETATM    9  C   UNL     1      -0.132 -15.231 -40.473  1.00  0.00     0.014 A 
HETATM   10  N   UNL     1      -3.234 -13.360 -40.061  1.00  0.00    -0.342 N 
HETATM   11  C   UNL     1      -1.318 -13.476 -38.646  1.00  0.00     0.030 A 
HETATM   12  H   UNL     1      -3.649 -12.749 -39.370  1.00  0.00     0.167 HD
HETATM   13  C   UNL     1      -0.040 -13.980 -38.405  1.00  0.00     0.002 A 
HETATM   14  C   UNL     1       0.552 -14.852 -39.317  1.00  0.00     0.001 A 
ENDBRANCH   1   3
BRANCH   1  15
HETATM   15  C   UNL     1      -5.809 -12.043 -40.509  1.00  0.00     0.160 C 
BRANCH  15  16
HETATM   16  C   UNL     1      -7.038 -12.509 -39.768  1.00  0.00    -0.040 A 
HETATM   17  C   UNL     1      -8.324 -12.356 -40.309  1.00  0.00     0.026 A 
HETATM   18  C   UNL     1      -9.460 -12.767 -39.594  1.00  0.00     0.032 A 
HETATM   19  C   UNL     1      -9.315 -13.339 -38.328  1.00  0.00     0.017 A 
HETATM   20  C   UNL     1      -8.043 -13.479 -37.774  1.00  0.00     0.002 A 
HETATM   21  C   UNL     1      -6.914 -13.061 -38.483  1.00  0.00     0.009 A 
BRANCH  18  22
HETATM   22  C   UNL     1     -10.783 -12.608 -40.246  1.00  0.00     0.249 C 
HETATM   23  N   UNL     1     -11.124 -11.365 -40.694  1.00  0.00    -0.366 N 
HETATM   24  H   UNL     1     -10.461 -10.608 -40.793  1.00  0.00     0.159 HD
HETATM   25  H   UNL     1     -11.984 -11.292 -41.226  1.00  0.00     0.159 HD
HETATM   26  O   UNL     1     -11.521 -13.574 -40.390  1.00  0.00    -0.268 OA
ENDBRANCH  18  22
ENDBRANCH  15  16
ENDBRANCH   1  15
TORSDOF 4
ENDMDL
MODEL 8
REMARK VINA RESULT:      -8.4      3.596      4.719
REMARK  4 active torsions:
REMARK  status: ('A' for Active; 'I' for Inactive)
REMARK    1  A    between atoms: C_3  and  N_4 
REMARK    2  A    between atoms: N_4  and  C_5 
REMARK    3  A    between atoms: C_5  and  C_6 
REMARK    4  A    between atoms: C_8  and  C_9 
REMARK       I    between atoms: C_9  and  N_10 
ROOT
HETATM    1  N   UNL     1      -4.796   1.010 -33.002  1.00  0.00    -0.372 N 
HETATM    2  H   UNL     1      -5.124   1.820 -33.526  1.00  0.00     0.161 HD
ENDROOT
BRANCH   1   3
HETATM    3  C   UNL     1      -5.210  -0.200 -33.516  1.00  0.00     0.107 A 
HETATM    4  C   UNL     1      -6.374  -0.303 -34.302  1.00  0.00    -0.017 A 
HETATM    5  C   UNL     1      -7.263   0.871 -34.614  1.00  0.00     0.052 C 
HETATM    6  C   UNL     1      -6.729  -1.549 -34.839  1.00  0.00     0.024 A 
HETATM    7  C   UNL     1      -5.934  -2.673 -34.607  1.00  0.00    -0.009 A 
HETATM    8  C   UNL     1      -4.781  -2.522 -33.814  1.00  0.00     0.043 A 
HETATM    9  C   UNL     1      -6.244  -3.936 -35.135  1.00  0.00     0.014 A 
HETATM   10  N   UNL     1      -4.480  -1.310 -33.322  1.00  0.00    -0.342 N 
HETATM   11  C   UNL     1      -3.962  -3.626 -33.546  1.00  0.00     0.030 A 
HETATM   12  H   UNL     1      -3.665  -1.234 -32.729  1.00  0.00     0.167 HD
HETATM   13  C   UNL     1      -4.282  -4.877 -34.076  1.00  0.00     0.002 A 
HETATM   14  C   UNL     1      -5.418  -5.030 -34.870  1.00  0.00     0.001 A 
ENDBRANCH   1   3
BRANCH   1  15
HETATM   15  C   UNL     1      -4.488   1.296 -31.609  1.00  0.00     0.160 C 
BRANCH  15  16
HETATM   16  C   UNL     1      -5.481   2.231 -30.961  1.00  0.00    -0.040 A 
HETATM   17  C   UNL     1      -6.864   2.038 -31.091  1.00  0.00     0.026 A 
HETATM   18  C   UNL     1      -7.775   2.933 -30.508  1.00  0.00     0.032 A 
HETATM   19  C   UNL     1      -7.304   4.032 -29.785  1.00  0.00     0.017 A 
HETATM   20  C   UNL     1      -5.930   4.243 -29.665  1.00  0.00     0.002 A 
HETATM   21  C   UNL     1      -5.025   3.356 -30.254  1.00  0.00     0.009 A 
BRANCH  18  22
HETATM   22  C   UNL     1      -9.222   2.643 -30.657  1.00  0.00     0.249 C 
HETATM   23  N   UNL     1      -9.578   1.411 -31.120  1.00  0.00    -0.366 N 
HETATM   24  H   UNL     1      -8.938   0.630 -31.172  1.00  0.00     0.159 HD
HETATM   25  H   UNL     1     -10.568   1.192 -31.121  1.00  0.00     0.159 HD
HETATM   26  O   UNL     1     -10.056   3.485 -30.346  1.00  0.00    -0.268 OA
ENDBRANCH  18  22
ENDBRANCH  15  16
ENDBRANCH   1  15
TORSDOF 4
ENDMDL
MODEL 9
REMARK VINA RESULT:      -8.4      1.907      2.435
REMARK  4 active torsions:
REMARK  status: ('A' for Active; 'I' for Inactive)
REMARK    1  A    between atoms: C_3  and  N_4 
REMARK    2  A    between atoms: N_4  and  C_5 
REMARK    3  A    between atoms: C_5  and  C_6 
REMARK    4  A    between atoms: C_8  and  C_9 
REMARK       I    between atoms: C_9  and  N_10 
ROOT
HETATM    1  N   UNL     1      -6.662   1.172 -33.405  1.00  0.00    -0.372 N 
HETATM    2  H   UNL     1      -6.726   1.730 -34.256  1.00  0.00     0.161 HD
ENDROOT
BRANCH   1   3
HETATM    3  C   UNL     1      -5.991  -0.021 -33.562  1.00  0.00     0.107 A 
HETATM    4  C   UNL     1      -4.660  -0.177 -33.126  1.00  0.00    -0.017 A 
HETATM    5  C   UNL     1      -3.866   0.935 -32.493  1.00  0.00     0.052 C 
HETATM    6  C   UNL     1      -4.035  -1.424 -33.269  1.00  0.00     0.024 A 
HETATM    7  C   UNL     1      -4.724  -2.502 -33.827  1.00  0.00    -0.009 A 
HETATM    8  C   UNL     1      -6.052  -2.299 -34.249  1.00  0.00     0.043 A 
HETATM    9  C   UNL     1      -4.144  -3.771 -33.977  1.00  0.00     0.014 A 
HETATM   10  N   UNL     1      -6.609  -1.088 -34.091  1.00  0.00    -0.342 N 
HETATM   11  C   UNL     1      -6.776  -3.351 -34.825  1.00  0.00     0.030 A 
HETATM   12  H   UNL     1      -7.552  -0.958 -34.432  1.00  0.00     0.167 HD
HETATM   13  C   UNL     1      -6.186  -4.607 -34.970  1.00  0.00     0.002 A 
HETATM   14  C   UNL     1      -4.875  -4.816 -34.544  1.00  0.00     0.001 A 
ENDBRANCH   1   3
BRANCH   1  15
HETATM   15  C   UNL     1      -7.715   1.450 -32.440  1.00  0.00     0.160 C 
BRANCH  15  16
HETATM   16  C   UNL     1      -9.101   1.364 -33.030  1.00  0.00    -0.040 A 
HETATM   17  C   UNL     1      -9.610   2.374 -33.861  1.00  0.00     0.026 A 
HETATM   18  C   UNL     1     -10.912   2.294 -34.378  1.00  0.00     0.032 A 
HETATM   19  C   UNL     1     -11.717   1.195 -34.068  1.00  0.00     0.017 A 
HETATM   20  C   UNL     1     -11.228   0.195 -33.228  1.00  0.00     0.002 A 
HETATM   21  C   UNL     1      -9.934   0.281 -32.707  1.00  0.00     0.009 A 
BRANCH  18  22
HETATM   22  C   UNL     1     -11.367   3.381 -35.280  1.00  0.00     0.249 C 
HETATM   23  N   UNL     1     -12.035   3.026 -36.414  1.00  0.00    -0.366 N 
HETATM   24  H   UNL     1     -12.412   2.102 -36.572  1.00  0.00     0.159 HD
HETATM   25  H   UNL     1     -12.427   3.781 -36.968  1.00  0.00     0.159 HD
HETATM   26  O   UNL     1     -11.161   4.552 -34.986  1.00  0.00    -0.268 OA
ENDBRANCH  18  22
ENDBRANCH  15  16
ENDBRANCH   1  15
TORSDOF 4
ENDMDL
MODEL 10
REMARK VINA RESULT:      -8.3      5.137      8.084
REMARK  4 active torsions:
REMARK  status: ('A' for Active; 'I' for Inactive)
REMARK    1  A    between atoms: C_3  and  N_4 
REMARK    2  A    between atoms: N_4  and  C_5 
REMARK    3  A    between atoms: C_5  and  C_6 
REMARK    4  A    between atoms: C_8  and  C_9 
REMARK       I    between atoms: C_9  and  N_10 
ROOT
HETATM    1  N   UNL     1      -4.094   0.847 -31.827  1.00  0.00    -0.372 N 
HETATM    2  H   UNL     1      -4.966   0.522 -31.410  1.00  0.00     0.161 HD
ENDROOT
BRANCH   1   3
HETATM    3  C   UNL     1      -3.972   2.218 -31.883  1.00  0.00     0.107 A 
HETATM    4  C   UNL     1      -4.679   3.055 -30.998  1.00  0.00    -0.017 A 
HETATM    5  C   UNL     1      -5.633   2.531 -29.956  1.00  0.00     0.052 C 
HETATM    6  C   UNL     1      -4.487   4.442 -31.066  1.00  0.00     0.024 A 
HETATM    7  C   UNL     1      -3.600   4.989 -31.993  1.00  0.00    -0.009 A 
HETATM    8  C   UNL     1      -2.916   4.115 -32.859  1.00  0.00     0.043 A 
HETATM    9  C   UNL     1      -3.367   6.370 -32.089  1.00  0.00     0.014 A 
HETATM   10  N   UNL     1      -3.131   2.793 -32.756  1.00  0.00    -0.342 N 
HETATM   11  C   UNL     1      -2.025   4.623 -33.813  1.00  0.00     0.030 A 
HETATM   12  H   UNL     1      -2.653   2.189 -33.410  1.00  0.00     0.167 HD
HETATM   13  C   UNL     1      -1.804   5.998 -33.898  1.00  0.00     0.002 A 
HETATM   14  C   UNL     1      -2.470   6.868 -33.036  1.00  0.00     0.001 A 
ENDBRANCH   1   3
BRANCH   1  15
HETATM   15  C   UNL     1      -3.485  -0.113 -32.735  1.00  0.00     0.160 C 
BRANCH  15  16
HETATM   16  C   UNL     1      -4.491  -1.003 -33.423  1.00  0.00    -0.040 A 
HETATM   17  C   UNL     1      -4.247  -2.369 -33.625  1.00  0.00     0.026 A 
HETATM   18  C   UNL     1      -5.179  -3.178 -34.293  1.00  0.00     0.032 A 
HETATM   19  C   UNL     1      -6.370  -2.620 -34.765  1.00  0.00     0.017 A 
HETATM   20  C   UNL     1      -6.615  -1.259 -34.587  1.00  0.00     0.002 A 
HETATM   21  C   UNL     1      -5.681  -0.454 -33.929  1.00  0.00     0.009 A 
BRANCH  18  22
HETATM   22  C   UNL     1      -4.868  -4.621 -34.435  1.00  0.00     0.249 C 
HETATM   23  N   UNL     1      -3.721  -5.082 -33.860  1.00  0.00    -0.366 N 
HETATM   24  H   UNL     1      -3.187  -4.555 -33.184  1.00  0.00     0.159 HD
HETATM   25  H   UNL     1      -3.573  -6.085 -33.879  1.00  0.00     0.159 HD
HETATM   26  O   UNL     1      -5.639  -5.363 -35.031  1.00  0.00    -0.268 OA
ENDBRANCH  18  22
ENDBRANCH  15  16
ENDBRANCH   1  15
TORSDOF 4
ENDMDL
