MODEL 1
REMARK VINA RESULT:      -8.9      0.000      0.000
REMARK  10 active torsions:
REMARK  status: ('A' for Active; 'I' for Inactive)
REMARK    1  A    between atoms: C_2  and  C_3 
REMARK    2  A    between atoms: C_3  and  C_4 
REMARK    3  A    between atoms: C_4  and  O_5 
REMARK    4  A    between atoms: O_5  and  C_6 
REMARK    5  A    between atoms: C_8  and  C_9 
REMARK       I    between atoms: C_9  and  N_10 
REMARK    6  A    between atoms: N_10  and  C_11 
REMARK    7  A    between atoms: C_11  and  N_12 
REMARK    8  A    between atoms: N_12  and  C_13 
REMARK    9  A    between atoms: C_15  and  O_16 
REMARK   10  A    between atoms: C_17  and  C_18 
ROOT
HETATM    1  N   UNL     1      -7.980   2.419 -33.878  1.00  0.00    -0.333 N 
HETATM    2  H   UNL     1      -8.329   2.925 -34.695  1.00  0.00     0.168 HD
ENDROOT
BRANCH   1   3
HETATM    3  C   UNL     1      -8.738   1.316 -33.573  1.00  0.00     0.179 C 
HETATM    4  S   UNL     1     -10.318   1.230 -33.032  1.00  0.00    -0.040 SA
BRANCH   3   5
HETATM    5  N   UNL     1      -8.094   0.101 -33.757  1.00  0.00    -0.299 N 
HETATM    6  C   UNL     1      -7.203  -0.261 -34.759  1.00  0.00     0.257 C 
HETATM    7  O   UNL     1      -7.075   0.382 -35.799  1.00  0.00    -0.267 OA
HETATM    8  H   UNL     1      -8.281  -0.550 -33.009  1.00  0.00     0.171 HD
BRANCH   6   9
HETATM    9  C   UNL     1      -6.431  -1.524 -34.560  1.00  0.00     0.035 A 
HETATM   10  C   UNL     1      -5.159  -1.550 -33.976  1.00  0.00     0.053 A 
HETATM   11  C   UNL     1      -4.500  -2.769 -33.816  1.00  0.00     0.069 A 
HETATM   12  C   UNL     1      -5.057  -3.957 -34.280  1.00  0.00     0.037 A 
HETATM   13  C   UNL     1      -6.312  -3.934 -34.881  1.00  0.00     0.004 A 
HETATM   14  C   UNL     1      -6.999  -2.724 -35.017  1.00  0.00     0.017 A 
BRANCH  11  15
HETATM   15  O   UNL     1      -3.254  -2.789 -33.256  1.00  0.00    -0.351 OA
BRANCH  15  16
HETATM   16  C   UNL     1      -3.284  -2.291 -31.912  1.00  0.00     0.175 C 
BRANCH  16  17
HETATM   17  C   UNL     1      -2.353  -1.086 -31.798  1.00  0.00     0.026 C 
BRANCH  17  18
HETATM   18  C   UNL     1      -3.033   0.115 -31.138  1.00  0.00    -0.002 C 
HETATM   19  C   UNL     1      -4.521  -0.131 -30.939  1.00  0.00     0.005 C 
ENDBRANCH  17  18
ENDBRANCH  16  17
ENDBRANCH  15  16
ENDBRANCH  11  15
ENDBRANCH   6   9
ENDBRANCH   3   5
ENDBRANCH   1   3
BRANCH   1  20
HETATM   20  C   UNL     1      -6.848   3.002 -33.271  1.00  0.00     0.036 A 
HETATM   21  C   UNL     1      -6.499   2.859 -31.929  1.00  0.00     0.067 A 
HETATM   22  C   UNL     1      -5.311   3.419 -31.436  1.00  0.00     0.082 A 
HETATM   23  C   UNL     1      -4.436   4.128 -32.273  1.00  0.00     0.050 A 
HETATM   24  C   UNL     1      -4.807   4.278 -33.618  1.00  0.00     0.021 A 
HETATM   25  C   UNL     1      -5.987   3.712 -34.113  1.00  0.00     0.030 A 
BRANCH  22  26
HETATM   26  O   UNL     1      -5.019   3.260 -30.106  1.00  0.00    -0.360 OA
HETATM   27  H   UNL     1      -4.770   4.117 -29.723  1.00  0.00     0.217 HD
ENDBRANCH  22  26
BRANCH  23  28
HETATM   28  C   UNL     1      -3.161   4.701 -31.840  1.00  0.00     0.183 A 
HETATM   29  O   UNL     1      -3.203   5.683 -30.883  1.00  0.00    -0.289 OA
HETATM   30  C   UNL     1      -1.894   5.958 -30.629  1.00  0.00     0.107 A 
HETATM   31  C   UNL     1      -1.125   5.132 -31.428  1.00  0.00     0.093 A 
HETATM   32  C   UNL     1      -1.390   6.887 -29.726  1.00  0.00     0.046 A 
HETATM   33  N   UNL     1      -1.938   4.330 -32.187  1.00  0.00    -0.221 NA
HETATM   34  C   UNL     1       0.269   5.217 -31.343  1.00  0.00     0.035 A 
HETATM   35  C   UNL     1       0.822   6.142 -30.443  1.00  0.00     0.009 A 
HETATM   36  C   UNL     1       0.011   6.972 -29.646  1.00  0.00    -0.059 A 
HETATM   37  C   UNL     1       0.653   7.926 -28.678  1.00  0.00     0.048 C 
ENDBRANCH  23  28
ENDBRANCH   1  20
TORSDOF 10
ENDMDL
MODEL 2
REMARK VINA RESULT:      -8.5      2.798      8.668
REMARK  10 active torsions:
REMARK  status: ('A' for Active; 'I' for Inactive)
REMARK    1  A    between atoms: C_2  and  C_3 
REMARK    2  A    between atoms: C_3  and  C_4 
REMARK    3  A    between atoms: C_4  and  O_5 
REMARK    4  A    between atoms: O_5  and  C_6 
REMARK    5  A    between atoms: C_8  and  C_9 
REMARK       I    between atoms: C_9  and  N_10 
REMARK    6  A    between atoms: N_10  and  C_11 
REMARK    7  A    between atoms: C_11  and  N_12 
REMARK    8  A    between atoms: N_12  and  C_13 
REMARK    9  A    between atoms: C_15  and  O_16 
REMARK   10  A    between atoms: C_17  and  C_18 
ROOT
HETATM    1  N   UNL     1      -7.009   6.021 -30.442  1.00  0.00    -0.333 N 
HETATM    2  H   UNL     1      -7.901   6.338 -30.827  1.00  0.00     0.168 HD
ENDROOT
BRANCH   1   3
HETATM    3  C   UNL     1      -6.376   6.989 -29.703  1.00  0.00     0.179 C 
HETATM    4  S   UNL     1      -6.952   7.887 -28.416  1.00  0.00    -0.040 SA
BRANCH   3   5
HETATM    5  N   UNL     1      -5.063   7.239 -30.076  1.00  0.00    -0.299 N 
HETATM    6  C   UNL     1      -3.898   6.975 -29.368  1.00  0.00     0.257 C 
HETATM    7  O   UNL     1      -3.894   6.726 -28.164  1.00  0.00    -0.267 OA
HETATM    8  H   UNL     1      -4.994   7.602 -31.015  1.00  0.00     0.171 HD
BRANCH   6   9
HETATM    9  C   UNL     1      -2.610   7.068 -30.118  1.00  0.00     0.035 A 
HETATM   10  C   UNL     1      -2.548   7.394 -31.478  1.00  0.00     0.053 A 
HETATM   11  C   UNL     1      -1.307   7.470 -32.112  1.00  0.00     0.069 A 
HETATM   12  C   UNL     1      -0.130   7.168 -31.433  1.00  0.00     0.037 A 
HETATM   13  C   UNL     1      -0.188   6.821 -30.086  1.00  0.00     0.004 A 
HETATM   14  C   UNL     1      -1.422   6.776 -29.430  1.00  0.00     0.017 A 
BRANCH  11  15
HETATM   15  O   UNL     1      -1.252   7.778 -33.442  1.00  0.00    -0.351 OA
BRANCH  15  16
HETATM   16  C   UNL     1      -2.122   6.931 -34.204  1.00  0.00     0.175 C 
BRANCH  16  17
HETATM   17  C   UNL     1      -1.479   5.554 -34.361  1.00  0.00     0.026 C 
BRANCH  17  18
HETATM   18  C   UNL     1      -2.443   4.419 -34.010  1.00  0.00    -0.002 C 
HETATM   19  C   UNL     1      -2.346   4.046 -32.539  1.00  0.00     0.005 C 
ENDBRANCH  17  18
ENDBRANCH  16  17
ENDBRANCH  15  16
ENDBRANCH  11  15
ENDBRANCH   6   9
ENDBRANCH   3   5
ENDBRANCH   1   3
BRANCH   1  20
HETATM   20  C   UNL     1      -6.656   4.703 -30.798  1.00  0.00     0.036 A 
HETATM   21  C   UNL     1      -6.658   3.614 -29.929  1.00  0.00     0.067 A 
HETATM   22  C   UNL     1      -6.361   2.324 -30.397  1.00  0.00     0.082 A 
HETATM   23  C   UNL     1      -6.064   2.090 -31.748  1.00  0.00     0.050 A 
HETATM   24  C   UNL     1      -6.049   3.197 -32.609  1.00  0.00     0.021 A 
HETATM   25  C   UNL     1      -6.354   4.482 -32.146  1.00  0.00     0.030 A 
BRANCH  22  26
HETATM   26  O   UNL     1      -6.366   1.289 -29.499  1.00  0.00    -0.360 OA
HETATM   27  H   UNL     1      -6.259   0.448 -29.972  1.00  0.00     0.217 HD
ENDBRANCH  22  26
BRANCH  23  28
HETATM   28  C   UNL     1      -5.787   0.770 -32.316  1.00  0.00     0.183 A 
HETATM   29  O   UNL     1      -6.830   0.110 -32.915  1.00  0.00    -0.289 OA
HETATM   30  C   UNL     1      -6.266  -1.026 -33.410  1.00  0.00     0.107 A 
HETATM   31  C   UNL     1      -4.918  -0.999 -33.102  1.00  0.00     0.093 A 
HETATM   32  C   UNL     1      -6.902  -2.042 -34.114  1.00  0.00     0.046 A 
HETATM   33  N   UNL     1      -4.621   0.151 -32.416  1.00  0.00    -0.221 NA
HETATM   34  C   UNL     1      -4.109  -2.062 -33.517  1.00  0.00     0.035 A 
HETATM   35  C   UNL     1      -4.709  -3.111 -34.232  1.00  0.00     0.009 A 
HETATM   36  C   UNL     1      -6.086  -3.111 -34.525  1.00  0.00    -0.059 A 
HETATM   37  C   UNL     1      -6.674  -4.244 -35.318  1.00  0.00     0.048 C 
ENDBRANCH  23  28
ENDBRANCH   1  20
TORSDOF 10
ENDMDL
MODEL 3
REMARK VINA RESULT:      -8.5      3.102      6.089
REMARK  10 active torsions:
REMARK  status: ('A' for Active; 'I' for Inactive)
REMARK    1  A    between atoms: C_2  and  C_3 
REMARK    2  A    between atoms: C_3  and  C_4 
REMARK    3  A    between atoms: C_4  and  O_5 
REMARK    4  A    between atoms: O_5  and  C_6 
REMARK    5  A    between atoms: C_8  and  C_9 
REMARK       I    between atoms: C_9  and  N_10 
REMARK    6  A    between atoms: N_10  and  C_11 
REMARK    7  A    between atoms: C_11  and  N_12 
REMARK    8  A    between atoms: N_12  and  C_13 
REMARK    9  A    between atoms: C_15  and  O_16 
REMARK   10  A    between atoms: C_17  and  C_18 
ROOT
HETATM    1  N   UNL     1      -1.293   5.010 -33.029  1.00  0.00    -0.333 N 
HETATM    2  H   UNL     1      -0.503   4.832 -33.654  1.00  0.00     0.168 HD
ENDROOT
BRANCH   1   3
HETATM    3  C   UNL     1      -2.494   4.617 -33.567  1.00  0.00     0.179 C 
HETATM    4  S   UNL     1      -3.327   5.243 -34.874  1.00  0.00    -0.040 SA
BRANCH   3   5
HETATM    5  N   UNL     1      -3.084   3.532 -32.936  1.00  0.00    -0.299 N 
HETATM    6  C   UNL     1      -3.891   3.523 -31.805  1.00  0.00     0.257 C 
HETATM    7  O   UNL     1      -3.965   4.479 -31.035  1.00  0.00    -0.267 OA
HETATM    8  H   UNL     1      -2.931   2.668 -33.435  1.00  0.00     0.171 HD
BRANCH   6   9
HETATM    9  C   UNL     1      -4.635   2.263 -31.510  1.00  0.00     0.035 A 
HETATM   10  C   UNL     1      -4.696   1.192 -32.408  1.00  0.00     0.053 A 
HETATM   11  C   UNL     1      -5.406   0.042 -32.061  1.00  0.00     0.069 A 
HETATM   12  C   UNL     1      -6.107  -0.040 -30.862  1.00  0.00     0.037 A 
HETATM   13  C   UNL     1      -6.068   1.032 -29.974  1.00  0.00     0.004 A 
HETATM   14  C   UNL     1      -5.332   2.177 -30.294  1.00  0.00     0.017 A 
BRANCH  11  15
HETATM   15  O   UNL     1      -5.473  -0.998 -32.946  1.00  0.00    -0.351 OA
BRANCH  15  16
HETATM   16  C   UNL     1      -6.815  -1.197 -33.409  1.00  0.00     0.175 C 
BRANCH  16  17
HETATM   17  C   UNL     1      -6.783  -1.796 -34.813  1.00  0.00     0.026 C 
BRANCH  17  18
HETATM   18  C   UNL     1      -5.849  -3.005 -34.908  1.00  0.00    -0.002 C 
HETATM   19  C   UNL     1      -6.631  -4.309 -34.927  1.00  0.00     0.005 C 
ENDBRANCH  17  18
ENDBRANCH  16  17
ENDBRANCH  15  16
ENDBRANCH  11  15
ENDBRANCH   6   9
ENDBRANCH   3   5
ENDBRANCH   1   3
BRANCH   1  20
HETATM   20  C   UNL     1      -0.946   5.634 -31.813  1.00  0.00     0.036 A 
HETATM   21  C   UNL     1      -0.308   5.004 -30.746  1.00  0.00     0.067 A 
HETATM   22  C   UNL     1       0.062   5.732 -29.604  1.00  0.00     0.082 A 
HETATM   23  C   UNL     1      -0.189   7.108 -29.504  1.00  0.00     0.050 A 
HETATM   24  C   UNL     1      -0.846   7.726 -30.578  1.00  0.00     0.021 A 
HETATM   25  C   UNL     1      -1.207   7.005 -31.721  1.00  0.00     0.030 A 
BRANCH  22  26
HETATM   26  O   UNL     1       0.677   5.063 -28.578  1.00  0.00    -0.360 OA
HETATM   27  H   UNL     1       1.019   4.214 -28.902  1.00  0.00     0.217 HD
ENDBRANCH  22  26
BRANCH  23  28
HETATM   28  C   UNL     1       0.206   7.939 -28.366  1.00  0.00     0.183 A 
HETATM   29  O   UNL     1       1.270   7.512 -27.612  1.00  0.00    -0.289 OA
HETATM   30  C   UNL     1       1.450   8.505 -26.697  1.00  0.00     0.107 A 
HETATM   31  C   UNL     1       0.505   9.484 -26.942  1.00  0.00     0.093 A 
HETATM   32  C   UNL     1       2.411   8.558 -25.694  1.00  0.00     0.046 A 
HETATM   33  N   UNL     1      -0.274   9.121 -28.010  1.00  0.00    -0.221 NA
HETATM   34  C   UNL     1       0.491  10.626 -26.134  1.00  0.00     0.035 A 
HETATM   35  C   UNL     1       1.445  10.723 -25.108  1.00  0.00     0.009 A 
HETATM   36  C   UNL     1       2.391   9.705 -24.881  1.00  0.00    -0.059 A 
HETATM   37  C   UNL     1       3.409   9.871 -23.788  1.00  0.00     0.048 C 
ENDBRANCH  23  28
ENDBRANCH   1  20
TORSDOF 10
ENDMDL
MODEL 4
REMARK VINA RESULT:      -8.3      3.121      8.795
REMARK  10 active torsions:
REMARK  status: ('A' for Active; 'I' for Inactive)
REMARK    1  A    between atoms: C_2  and  C_3 
REMARK    2  A    between atoms: C_3  and  C_4 
REMARK    3  A    between atoms: C_4  and  O_5 
REMARK    4  A    between atoms: O_5  and  C_6 
REMARK    5  A    between atoms: C_8  and  C_9 
REMARK       I    between atoms: C_9  and  N_10 
REMARK    6  A    between atoms: N_10  and  C_11 
REMARK    7  A    between atoms: C_11  and  N_12 
REMARK    8  A    between atoms: N_12  and  C_13 
REMARK    9  A    between atoms: C_15  and  O_16 
REMARK   10  A    between atoms: C_17  and  C_18 
ROOT
HETATM    1  N   UNL     1      -6.067   7.277 -28.782  1.00  0.00    -0.333 N 
HETATM    2  H   UNL     1      -6.855   7.308 -28.131  1.00  0.00     0.168 HD
ENDROOT
BRANCH   1   3
HETATM    3  C   UNL     1      -5.269   8.391 -28.705  1.00  0.00     0.179 C 
HETATM    4  S   UNL     1      -5.550   9.846 -27.929  1.00  0.00    -0.040 SA
BRANCH   3   5
HETATM    5  N   UNL     1      -4.049   8.278 -29.355  1.00  0.00    -0.299 N 
HETATM    6  C   UNL     1      -2.884   7.668 -28.907  1.00  0.00     0.257 C 
HETATM    7  O   UNL     1      -2.697   7.379 -27.727  1.00  0.00    -0.267 OA
HETATM    8  H   UNL     1      -4.080   8.645 -30.295  1.00  0.00     0.171 HD
BRANCH   6   9
HETATM    9  C   UNL     1      -1.811   7.427 -29.917  1.00  0.00     0.035 A 
HETATM   10  C   UNL     1      -2.004   7.624 -31.289  1.00  0.00     0.053 A 
HETATM   11  C   UNL     1      -0.953   7.384 -32.174  1.00  0.00     0.069 A 
HETATM   12  C   UNL     1       0.270   6.894 -31.726  1.00  0.00     0.037 A 
HETATM   13  C   UNL     1       0.461   6.675 -30.364  1.00  0.00     0.004 A 
HETATM   14  C   UNL     1      -0.573   6.944 -29.463  1.00  0.00     0.017 A 
BRANCH  11  15
HETATM   15  O   UNL     1      -1.149   7.568 -33.514  1.00  0.00    -0.351 OA
BRANCH  15  16
HETATM   16  C   UNL     1      -2.305   6.852 -33.969  1.00  0.00     0.175 C 
BRANCH  16  17
HETATM   17  C   UNL     1      -1.958   5.373 -34.119  1.00  0.00     0.026 C 
BRANCH  17  18
HETATM   18  C   UNL     1      -2.962   4.464 -33.407  1.00  0.00    -0.002 C 
HETATM   19  C   UNL     1      -2.465   4.064 -32.027  1.00  0.00     0.005 C 
ENDBRANCH  17  18
ENDBRANCH  16  17
ENDBRANCH  15  16
ENDBRANCH  11  15
ENDBRANCH   6   9
ENDBRANCH   3   5
ENDBRANCH   1   3
BRANCH   1  20
HETATM   20  C   UNL     1      -6.031   6.127 -29.598  1.00  0.00     0.036 A 
HETATM   21  C   UNL     1      -5.604   4.867 -29.184  1.00  0.00     0.067 A 
HETATM   22  C   UNL     1      -5.675   3.767 -30.052  1.00  0.00     0.082 A 
HETATM   23  C   UNL     1      -6.184   3.896 -31.353  1.00  0.00     0.050 A 
HETATM   24  C   UNL     1      -6.596   5.173 -31.762  1.00  0.00     0.021 A 
HETATM   25  C   UNL     1      -6.534   6.269 -30.895  1.00  0.00     0.030 A 
BRANCH  22  26
HETATM   26  O   UNL     1      -5.232   2.551 -29.599  1.00  0.00    -0.360 OA
HETATM   27  H   UNL     1      -5.689   1.840 -30.077  1.00  0.00     0.217 HD
ENDBRANCH  22  26
BRANCH  23  28
HETATM   28  C   UNL     1      -6.329   2.788 -32.297  1.00  0.00     0.183 A 
HETATM   29  O   UNL     1      -6.130   1.519 -31.816  1.00  0.00    -0.289 OA
HETATM   30  C   UNL     1      -6.408   0.712 -32.878  1.00  0.00     0.107 A 
HETATM   31  C   UNL     1      -6.768   1.519 -33.941  1.00  0.00     0.093 A 
HETATM   32  C   UNL     1      -6.358  -0.676 -32.913  1.00  0.00     0.046 A 
HETATM   33  N   UNL     1      -6.726   2.836 -33.560  1.00  0.00    -0.221 NA
HETATM   34  C   UNL     1      -7.114   0.920 -35.157  1.00  0.00     0.035 A 
HETATM   35  C   UNL     1      -7.079  -0.481 -35.239  1.00  0.00     0.009 A 
HETATM   36  C   UNL     1      -6.702  -1.275 -34.138  1.00  0.00    -0.059 A 
HETATM   37  C   UNL     1      -6.707  -2.772 -34.269  1.00  0.00     0.048 C 
ENDBRANCH  23  28
ENDBRANCH   1  20
TORSDOF 10
ENDMDL
MODEL 5
REMARK VINA RESULT:      -8.1      2.587      8.541
REMARK  10 active torsions:
REMARK  status: ('A' for Active; 'I' for Inactive)
REMARK    1  A    between atoms: C_2  and  C_3 
REMARK    2  A    between atoms: C_3  and  C_4 
REMARK    3  A    between atoms: C_4  and  O_5 
REMARK    4  A    between atoms: O_5  and  C_6 
REMARK    5  A    between atoms: C_8  and  C_9 
REMARK       I    between atoms: C_9  and  N_10 
REMARK    6  A    between atoms: N_10  and  C_11 
REMARK    7  A    between atoms: C_11  and  N_12 
REMARK    8  A    between atoms: N_12  and  C_13 
REMARK    9  A    between atoms: C_15  and  O_16 
REMARK   10  A    between atoms: C_17  and  C_18 
ROOT
HETATM    1  N   UNL     1      -7.555   5.747 -30.967  1.00  0.00    -0.333 N 
HETATM    2  H   UNL     1      -8.152   5.780 -30.138  1.00  0.00     0.168 HD
ENDROOT
BRANCH   1   3
HETATM    3  C   UNL     1      -7.150   6.992 -31.380  1.00  0.00     0.179 C 
HETATM    4  S   UNL     1      -8.056   8.375 -31.628  1.00  0.00    -0.040 SA
BRANCH   3   5
HETATM    5  N   UNL     1      -5.787   7.113 -31.608  1.00  0.00    -0.299 N 
HETATM    6  C   UNL     1      -4.738   6.841 -30.738  1.00  0.00     0.257 C 
HETATM    7  O   UNL     1      -4.896   6.714 -29.525  1.00  0.00    -0.267 OA
HETATM    8  H   UNL     1      -5.578   7.374 -32.560  1.00  0.00     0.171 HD
BRANCH   6   9
HETATM    9  C   UNL     1      -3.367   6.771 -31.326  1.00  0.00     0.035 A 
HETATM   10  C   UNL     1      -2.471   5.736 -31.036  1.00  0.00     0.053 A 
HETATM   11  C   UNL     1      -1.207   5.733 -31.628  1.00  0.00     0.069 A 
HETATM   12  C   UNL     1      -0.797   6.772 -32.458  1.00  0.00     0.037 A 
HETATM   13  C   UNL     1      -1.676   7.815 -32.732  1.00  0.00     0.004 A 
HETATM   14  C   UNL     1      -2.957   7.813 -32.173  1.00  0.00     0.017 A 
BRANCH  11  15
HETATM   15  O   UNL     1      -0.331   4.726 -31.334  1.00  0.00    -0.351 OA
BRANCH  15  16
HETATM   16  C   UNL     1       0.857   5.240 -30.717  1.00  0.00     0.175 C 
BRANCH  16  17
HETATM   17  C   UNL     1       0.844   4.898 -29.229  1.00  0.00     0.026 C 
BRANCH  17  18
HETATM   18  C   UNL     1       0.505   6.108 -28.357  1.00  0.00    -0.002 C 
HETATM   19  C   UNL     1       0.700   7.411 -29.117  1.00  0.00     0.005 C 
ENDBRANCH  17  18
ENDBRANCH  16  17
ENDBRANCH  15  16
ENDBRANCH  11  15
ENDBRANCH   6   9
ENDBRANCH   3   5
ENDBRANCH   1   3
BRANCH   1  20
HETATM   20  C   UNL     1      -7.338   4.450 -31.477  1.00  0.00     0.036 A 
HETATM   21  C   UNL     1      -7.957   3.924 -32.609  1.00  0.00     0.067 A 
HETATM   22  C   UNL     1      -7.619   2.646 -33.081  1.00  0.00     0.082 A 
HETATM   23  C   UNL     1      -6.646   1.866 -32.438  1.00  0.00     0.050 A 
HETATM   24  C   UNL     1      -6.041   2.401 -31.291  1.00  0.00     0.021 A 
HETATM   25  C   UNL     1      -6.370   3.679 -30.825  1.00  0.00     0.030 A 
BRANCH  22  26
HETATM   26  O   UNL     1      -8.266   2.170 -34.191  1.00  0.00    -0.360 OA
HETATM   27  H   UNL     1      -8.413   2.896 -34.818  1.00  0.00     0.217 HD
ENDBRANCH  22  26
BRANCH  23  28
HETATM   28  C   UNL     1      -6.210   0.546 -32.896  1.00  0.00     0.183 A 
HETATM   29  O   UNL     1      -7.151  -0.258 -33.489  1.00  0.00    -0.289 OA
HETATM   30  C   UNL     1      -6.451  -1.360 -33.876  1.00  0.00     0.107 A 
HETATM   31  C   UNL     1      -5.130  -1.173 -33.513  1.00  0.00     0.093 A 
HETATM   32  C   UNL     1      -6.945  -2.482 -34.530  1.00  0.00     0.046 A 
HETATM   33  N   UNL     1      -4.984   0.045 -32.900  1.00  0.00    -0.221 NA
HETATM   34  C   UNL     1      -4.198  -2.173 -33.814  1.00  0.00     0.035 A 
HETATM   35  C   UNL     1      -4.654  -3.324 -34.475  1.00  0.00     0.009 A 
HETATM   36  C   UNL     1      -6.007  -3.487 -34.827  1.00  0.00    -0.059 A 
HETATM   37  C   UNL     1      -6.438  -4.726 -35.560  1.00  0.00     0.048 C 
ENDBRANCH  23  28
ENDBRANCH   1  20
TORSDOF 10
ENDMDL
MODEL 6
REMARK VINA RESULT:      -8.0      2.548      8.929
REMARK  10 active torsions:
REMARK  status: ('A' for Active; 'I' for Inactive)
REMARK    1  A    between atoms: C_2  and  C_3 
REMARK    2  A    between atoms: C_3  and  C_4 
REMARK    3  A    between atoms: C_4  and  O_5 
REMARK    4  A    between atoms: O_5  and  C_6 
REMARK    5  A    between atoms: C_8  and  C_9 
REMARK       I    between atoms: C_9  and  N_10 
REMARK    6  A    between atoms: N_10  and  C_11 
REMARK    7  A    between atoms: C_11  and  N_12 
REMARK    8  A    between atoms: N_12  and  C_13 
REMARK    9  A    between atoms: C_15  and  O_16 
REMARK   10  A    between atoms: C_17  and  C_18 
ROOT
HETATM    1  N   UNL     1      -6.869   6.327 -32.159  1.00  0.00    -0.333 N 
HETATM    2  H   UNL     1      -7.816   6.553 -32.470  1.00  0.00     0.168 HD
ENDROOT
BRANCH   1   3
HETATM    3  C   UNL     1      -6.179   7.427 -31.715  1.00  0.00     0.179 C 
HETATM    4  S   UNL     1      -6.754   8.932 -31.267  1.00  0.00    -0.040 SA
BRANCH   3   5
HETATM    5  N   UNL     1      -4.807   7.248 -31.611  1.00  0.00    -0.299 N 
HETATM    6  C   UNL     1      -4.068   6.858 -30.502  1.00  0.00     0.257 C 
HETATM    7  O   UNL     1      -4.520   6.885 -29.359  1.00  0.00    -0.267 OA
HETATM    8  H   UNL     1      -4.337   7.368 -32.496  1.00  0.00     0.171 HD
BRANCH   6   9
HETATM    9  C   UNL     1      -2.649   6.456 -30.737  1.00  0.00     0.035 A 
HETATM   10  C   UNL     1      -1.579   7.002 -30.019  1.00  0.00     0.053 A 
HETATM   11  C   UNL     1      -0.278   6.573 -30.289  1.00  0.00     0.069 A 
HETATM   12  C   UNL     1      -0.017   5.655 -31.302  1.00  0.00     0.037 A 
HETATM   13  C   UNL     1      -1.076   5.126 -32.035  1.00  0.00     0.004 A 
HETATM   14  C   UNL     1      -2.386   5.521 -31.751  1.00  0.00     0.017 A 
BRANCH  11  15
HETATM   15  O   UNL     1       0.765   7.116 -29.593  1.00  0.00    -0.351 OA
BRANCH  15  16
HETATM   16  C   UNL     1       0.296   7.895 -28.485  1.00  0.00     0.175 C 
BRANCH  16  17
HETATM   17  C   UNL     1       1.483   8.569 -27.801  1.00  0.00     0.026 C 
BRANCH  17  18
HETATM   18  C   UNL     1       1.816   7.932 -26.451  1.00  0.00    -0.002 C 
HETATM   19  C   UNL     1       1.894   8.978 -25.350  1.00  0.00     0.005 C 
ENDBRANCH  17  18
ENDBRANCH  16  17
ENDBRANCH  15  16
ENDBRANCH  11  15
ENDBRANCH   6   9
ENDBRANCH   3   5
ENDBRANCH   1   3
BRANCH   1  20
HETATM   20  C   UNL     1      -6.519   4.968 -32.299  1.00  0.00     0.036 A 
HETATM   21  C   UNL     1      -6.325   4.080 -31.242  1.00  0.00     0.067 A 
HETATM   22  C   UNL     1      -6.050   2.726 -31.488  1.00  0.00     0.082 A 
HETATM   23  C   UNL     1      -5.972   2.223 -32.795  1.00  0.00     0.050 A 
HETATM   24  C   UNL     1      -6.153   3.130 -33.849  1.00  0.00     0.021 A 
HETATM   25  C   UNL     1      -6.437   4.478 -33.607  1.00  0.00     0.030 A 
BRANCH  22  26
HETATM   26  O   UNL     1      -5.857   1.896 -30.414  1.00  0.00    -0.360 OA
HETATM   27  H   UNL     1      -6.642   1.914 -29.843  1.00  0.00     0.217 HD
ENDBRANCH  22  26
BRANCH  23  28
HETATM   28  C   UNL     1      -5.732   0.818 -33.126  1.00  0.00     0.183 A 
HETATM   29  O   UNL     1      -6.743   0.137 -33.756  1.00  0.00    -0.289 OA
HETATM   30  C   UNL     1      -6.213  -1.093 -34.005  1.00  0.00     0.107 A 
HETATM   31  C   UNL     1      -4.915  -1.099 -33.529  1.00  0.00     0.093 A 
HETATM   32  C   UNL     1      -6.836  -2.164 -34.633  1.00  0.00     0.046 A 
HETATM   33  N   UNL     1      -4.614   0.122 -32.982  1.00  0.00    -0.221 NA
HETATM   34  C   UNL     1      -4.147  -2.259 -33.677  1.00  0.00     0.035 A 
HETATM   35  C   UNL     1      -4.736  -3.367 -34.306  1.00  0.00     0.009 A 
HETATM   36  C   UNL     1      -6.063  -3.330 -34.776  1.00  0.00    -0.059 A 
HETATM   37  C   UNL     1      -6.637  -4.533 -35.469  1.00  0.00     0.048 C 
ENDBRANCH  23  28
ENDBRANCH   1  20
TORSDOF 10
ENDMDL
MODEL 7
REMARK VINA RESULT:      -8.0      1.672      2.169
REMARK  10 active torsions:
REMARK  status: ('A' for Active; 'I' for Inactive)
REMARK    1  A    between atoms: C_2  and  C_3 
REMARK    2  A    between atoms: C_3  and  C_4 
REMARK    3  A    between atoms: C_4  and  O_5 
REMARK    4  A    between atoms: O_5  and  C_6 
REMARK    5  A    between atoms: C_8  and  C_9 
REMARK       I    between atoms: C_9  and  N_10 
REMARK    6  A    between atoms: N_10  and  C_11 
REMARK    7  A    between atoms: C_11  and  N_12 
REMARK    8  A    between atoms: N_12  and  C_13 
REMARK    9  A    between atoms: C_15  and  O_16 
REMARK   10  A    between atoms: C_17  and  C_18 
ROOT
HETATM    1  N   UNL     1      -9.565   1.915 -32.266  1.00  0.00    -0.333 N 
HETATM    2  H   UNL     1     -10.204   2.196 -31.518  1.00  0.00     0.168 HD
ENDROOT
BRANCH   1   3
HETATM    3  C   UNL     1     -10.005   0.811 -32.953  1.00  0.00     0.179 C 
HETATM    4  S   UNL     1     -11.547   0.428 -33.471  1.00  0.00    -0.040 SA
BRANCH   3   5
HETATM    5  N   UNL     1      -9.014  -0.106 -33.273  1.00  0.00    -0.299 N 
HETATM    6  C   UNL     1      -8.078  -0.044 -34.298  1.00  0.00     0.257 C 
HETATM    7  O   UNL     1      -8.186   0.725 -35.251  1.00  0.00    -0.267 OA
HETATM    8  H   UNL     1      -8.967  -0.866 -32.612  1.00  0.00     0.171 HD
BRANCH   6   9
HETATM    9  C   UNL     1      -6.941  -1.011 -34.240  1.00  0.00     0.035 A 
HETATM   10  C   UNL     1      -5.644  -0.633 -33.877  1.00  0.00     0.053 A 
HETATM   11  C   UNL     1      -4.632  -1.593 -33.839  1.00  0.00     0.069 A 
HETATM   12  C   UNL     1      -4.874  -2.911 -34.213  1.00  0.00     0.037 A 
HETATM   13  C   UNL     1      -6.158  -3.288 -34.597  1.00  0.00     0.004 A 
HETATM   14  C   UNL     1      -7.189  -2.344 -34.606  1.00  0.00     0.017 A 
BRANCH  11  15
HETATM   15  O   UNL     1      -3.364  -1.218 -33.495  1.00  0.00    -0.351 OA
BRANCH  15  16
HETATM   16  C   UNL     1      -3.375  -0.007 -32.726  1.00  0.00     0.175 C 
BRANCH  16  17
HETATM   17  C   UNL     1      -3.366  -0.353 -31.239  1.00  0.00     0.026 C 
BRANCH  17  18
HETATM   18  C   UNL     1      -4.479   0.360 -30.469  1.00  0.00    -0.002 C 
HETATM   19  C   UNL     1      -5.783  -0.420 -30.532  1.00  0.00     0.005 C 
ENDBRANCH  17  18
ENDBRANCH  16  17
ENDBRANCH  15  16
ENDBRANCH  11  15
ENDBRANCH   6   9
ENDBRANCH   3   5
ENDBRANCH   1   3
BRANCH   1  20
HETATM   20  C   UNL     1      -8.402   2.706 -32.366  1.00  0.00     0.036 A 
HETATM   21  C   UNL     1      -8.205   3.721 -33.301  1.00  0.00     0.067 A 
HETATM   22  C   UNL     1      -7.040   4.503 -33.273  1.00  0.00     0.082 A 
HETATM   23  C   UNL     1      -6.047   4.297 -32.304  1.00  0.00     0.050 A 
HETATM   24  C   UNL     1      -6.250   3.262 -31.379  1.00  0.00     0.021 A 
HETATM   25  C   UNL     1      -7.415   2.487 -31.400  1.00  0.00     0.030 A 
BRANCH  22  26
HETATM   26  O   UNL     1      -6.890   5.481 -34.221  1.00  0.00    -0.360 OA
HETATM   27  H   UNL     1      -6.485   6.266 -33.818  1.00  0.00     0.217 HD
ENDBRANCH  22  26
BRANCH  23  28
HETATM   28  C   UNL     1      -4.829   5.099 -32.186  1.00  0.00     0.183 A 
HETATM   29  O   UNL     1      -3.785   4.561 -31.476  1.00  0.00    -0.289 OA
HETATM   30  C   UNL     1      -2.786   5.478 -31.605  1.00  0.00     0.107 A 
HETATM   31  C   UNL     1      -3.260   6.514 -32.389  1.00  0.00     0.093 A 
HETATM   32  C   UNL     1      -1.506   5.406 -31.068  1.00  0.00     0.046 A 
HETATM   33  N   UNL     1      -4.554   6.260 -32.763  1.00  0.00    -0.221 NA
HETATM   34  C   UNL     1      -2.408   7.585 -32.679  1.00  0.00     0.035 A 
HETATM   35  C   UNL     1      -1.105   7.555 -32.158  1.00  0.00     0.009 A 
HETATM   36  C   UNL     1      -0.654   6.487 -31.358  1.00  0.00    -0.059 A 
HETATM   37  C   UNL     1       0.759   6.488 -30.848  1.00  0.00     0.048 C 
ENDBRANCH  23  28
ENDBRANCH   1  20
TORSDOF 10
ENDMDL
MODEL 8
REMARK VINA RESULT:      -8.0      2.401      8.394
REMARK  10 active torsions:
REMARK  status: ('A' for Active; 'I' for Inactive)
REMARK    1  A    between atoms: C_2  and  C_3 
REMARK    2  A    between atoms: C_3  and  C_4 
REMARK    3  A    between atoms: C_4  and  O_5 
REMARK    4  A    between atoms: O_5  and  C_6 
REMARK    5  A    between atoms: C_8  and  C_9 
REMARK       I    between atoms: C_9  and  N_10 
REMARK    6  A    between atoms: N_10  and  C_11 
REMARK    7  A    between atoms: C_11  and  N_12 
REMARK    8  A    between atoms: N_12  and  C_13 
REMARK    9  A    between atoms: C_15  and  O_16 
REMARK   10  A    between atoms: C_17  and  C_18 
ROOT
HETATM    1  N   UNL     1      -7.793   4.830 -31.528  1.00  0.00    -0.333 N 
HETATM    2  H   UNL     1      -8.682   4.978 -31.044  1.00  0.00     0.168 HD
ENDROOT
BRANCH   1   3
HETATM    3  C   UNL     1      -7.011   5.957 -31.557  1.00  0.00     0.179 C 
HETATM    4  S   UNL     1      -7.401   7.531 -31.150  1.00  0.00    -0.040 SA
BRANCH   3   5
HETATM    5  N   UNL     1      -5.704   5.746 -31.971  1.00  0.00    -0.299 N 
HETATM    6  C   UNL     1      -5.219   5.608 -33.265  1.00  0.00     0.257 C 
HETATM    7  O   UNL     1      -5.949   5.376 -34.227  1.00  0.00    -0.267 OA
HETATM    8  H   UNL     1      -5.050   5.764 -31.202  1.00  0.00     0.171 HD
BRANCH   6   9
HETATM    9  C   UNL     1      -3.739   5.686 -33.449  1.00  0.00     0.035 A 
HETATM   10  C   UNL     1      -2.877   6.163 -32.455  1.00  0.00     0.053 A 
HETATM   11  C   UNL     1      -1.503   6.202 -32.696  1.00  0.00     0.069 A 
HETATM   12  C   UNL     1      -0.976   5.831 -33.929  1.00  0.00     0.037 A 
HETATM   13  C   UNL     1      -1.831   5.377 -34.929  1.00  0.00     0.004 A 
HETATM   14  C   UNL     1      -3.206   5.300 -34.689  1.00  0.00     0.017 A 
BRANCH  11  15
HETATM   15  O   UNL     1      -0.666   6.679 -31.727  1.00  0.00    -0.351 OA
BRANCH  15  16
HETATM   16  C   UNL     1       0.013   5.607 -31.059  1.00  0.00     0.175 C 
BRANCH  16  17
HETATM   17  C   UNL     1       0.329   6.025 -29.624  1.00  0.00     0.026 C 
BRANCH  17  18
HETATM   18  C   UNL     1       0.324   7.545 -29.446  1.00  0.00    -0.002 C 
HETATM   19  C   UNL     1       1.035   7.954 -28.166  1.00  0.00     0.005 C 
ENDBRANCH  17  18
ENDBRANCH  16  17
ENDBRANCH  15  16
ENDBRANCH  11  15
ENDBRANCH   6   9
ENDBRANCH   3   5
ENDBRANCH   1   3
BRANCH   1  20
HETATM   20  C   UNL     1      -7.627   3.534 -32.058  1.00  0.00     0.036 A 
HETATM   21  C   UNL     1      -8.240   3.060 -33.216  1.00  0.00     0.067 A 
HETATM   22  C   UNL     1      -7.952   1.776 -33.704  1.00  0.00     0.082 A 
HETATM   23  C   UNL     1      -7.037   0.937 -33.052  1.00  0.00     0.050 A 
HETATM   24  C   UNL     1      -6.438   1.419 -31.879  1.00  0.00     0.021 A 
HETATM   25  C   UNL     1      -6.717   2.703 -31.396  1.00  0.00     0.030 A 
BRANCH  22  26
HETATM   26  O   UNL     1      -8.590   1.354 -34.841  1.00  0.00    -0.360 OA
HETATM   27  H   UNL     1      -7.990   0.797 -35.364  1.00  0.00     0.217 HD
ENDBRANCH  22  26
BRANCH  23  28
HETATM   28  C   UNL     1      -6.655  -0.394 -33.524  1.00  0.00     0.183 A 
HETATM   29  O   UNL     1      -5.385  -0.826 -33.236  1.00  0.00    -0.289 OA
HETATM   30  C   UNL     1      -5.347  -2.099 -33.718  1.00  0.00     0.107 A 
HETATM   31  C   UNL     1      -6.586  -2.383 -34.263  1.00  0.00     0.093 A 
HETATM   32  C   UNL     1      -4.275  -2.982 -33.675  1.00  0.00     0.046 A 
HETATM   33  N   UNL     1      -7.414  -1.299 -34.125  1.00  0.00    -0.221 NA
HETATM   34  C   UNL     1      -6.806  -3.647 -34.819  1.00  0.00     0.035 A 
HETATM   35  C   UNL     1      -5.750  -4.573 -34.797  1.00  0.00     0.009 A 
HETATM   36  C   UNL     1      -4.498  -4.251 -34.240  1.00  0.00    -0.059 A 
HETATM   37  C   UNL     1      -3.409  -5.286 -34.216  1.00  0.00     0.048 C 
ENDBRANCH  23  28
ENDBRANCH   1  20
TORSDOF 10
ENDMDL
MODEL 9
REMARK VINA RESULT:      -7.9      2.708      8.886
REMARK  10 active torsions:
REMARK  status: ('A' for Active; 'I' for Inactive)
REMARK    1  A    between atoms: C_2  and  C_3 
REMARK    2  A    between atoms: C_3  and  C_4 
REMARK    3  A    between atoms: C_4  and  O_5 
REMARK    4  A    between atoms: O_5  and  C_6 
REMARK    5  A    between atoms: C_8  and  C_9 
REMARK       I    between atoms: C_9  and  N_10 
REMARK    6  A    between atoms: N_10  and  C_11 
REMARK    7  A    between atoms: C_11  and  N_12 
REMARK    8  A    between atoms: N_12  and  C_13 
REMARK    9  A    between atoms: C_15  and  O_16 
REMARK   10  A    between atoms: C_17  and  C_18 
ROOT
HETATM    1  N   UNL     1      -7.784   5.820 -33.616  1.00  0.00    -0.333 N 
HETATM    2  H   UNL     1      -7.638   6.324 -34.494  1.00  0.00     0.168 HD
ENDROOT
BRANCH   1   3
HETATM    3  C   UNL     1      -8.095   6.653 -32.570  1.00  0.00     0.179 C 
HETATM    4  S   UNL     1      -9.573   6.937 -31.843  1.00  0.00    -0.040 SA
BRANCH   3   5
HETATM    5  N   UNL     1      -7.016   7.343 -32.037  1.00  0.00    -0.299 N 
HETATM    6  C   UNL     1      -5.953   6.844 -31.295  1.00  0.00     0.257 C 
HETATM    7  O   UNL     1      -5.974   5.735 -30.766  1.00  0.00    -0.267 OA
HETATM    8  H   UNL     1      -7.014   8.317 -32.302  1.00  0.00     0.171 HD
BRANCH   6   9
HETATM    9  C   UNL     1      -4.779   7.746 -31.098  1.00  0.00     0.035 A 
HETATM   10  C   UNL     1      -3.592   7.614 -31.828  1.00  0.00     0.053 A 
HETATM   11  C   UNL     1      -2.538   8.497 -31.594  1.00  0.00     0.069 A 
HETATM   12  C   UNL     1      -2.619   9.473 -30.605  1.00  0.00     0.037 A 
HETATM   13  C   UNL     1      -3.789   9.594 -29.860  1.00  0.00     0.004 A 
HETATM   14  C   UNL     1      -4.866   8.738 -30.108  1.00  0.00     0.017 A 
BRANCH  11  15
HETATM   15  O   UNL     1      -1.377   8.358 -32.302  1.00  0.00    -0.351 OA
BRANCH  15  16
HETATM   16  C   UNL     1      -1.134   6.983 -32.630  1.00  0.00     0.175 C 
BRANCH  16  17
HETATM   17  C   UNL     1      -1.197   6.807 -34.146  1.00  0.00     0.026 C 
BRANCH  17  18
HETATM   18  C   UNL     1      -1.339   5.339 -34.555  1.00  0.00    -0.002 C 
HETATM   19  C   UNL     1      -2.477   4.663 -33.805  1.00  0.00     0.005 C 
ENDBRANCH  17  18
ENDBRANCH  16  17
ENDBRANCH  15  16
ENDBRANCH  11  15
ENDBRANCH   6   9
ENDBRANCH   3   5
ENDBRANCH   1   3
BRANCH   1  20
HETATM   20  C   UNL     1      -7.595   4.425 -33.706  1.00  0.00     0.036 A 
HETATM   21  C   UNL     1      -8.618   3.486 -33.820  1.00  0.00     0.067 A 
HETATM   22  C   UNL     1      -8.324   2.123 -33.979  1.00  0.00     0.082 A 
HETATM   23  C   UNL     1      -7.000   1.665 -34.038  1.00  0.00     0.050 A 
HETATM   24  C   UNL     1      -5.979   2.618 -33.906  1.00  0.00     0.021 A 
HETATM   25  C   UNL     1      -6.270   3.979 -33.757  1.00  0.00     0.030 A 
BRANCH  22  26
HETATM   26  O   UNL     1      -9.367   1.239 -34.075  1.00  0.00    -0.360 OA
HETATM   27  H   UNL     1     -10.048   1.467 -33.420  1.00  0.00     0.217 HD
ENDBRANCH  22  26
BRANCH  23  28
HETATM   28  C   UNL     1      -6.617   0.268 -34.244  1.00  0.00     0.183 A 
HETATM   29  O   UNL     1      -5.392  -0.128 -33.770  1.00  0.00    -0.289 OA
HETATM   30  C   UNL     1      -5.350  -1.464 -34.029  1.00  0.00     0.107 A 
HETATM   31  C   UNL     1      -6.542  -1.817 -34.633  1.00  0.00     0.093 A 
HETATM   32  C   UNL     1      -4.313  -2.343 -33.739  1.00  0.00     0.046 A 
HETATM   33  N   UNL     1      -7.346  -0.713 -34.756  1.00  0.00    -0.221 NA
HETATM   34  C   UNL     1      -6.749  -3.154 -34.990  1.00  0.00     0.035 A 
HETATM   35  C   UNL     1      -5.728  -4.078 -34.716  1.00  0.00     0.009 A 
HETATM   36  C   UNL     1      -4.522  -3.685 -34.104  1.00  0.00    -0.059 A 
HETATM   37  C   UNL     1      -3.473  -4.718 -33.806  1.00  0.00     0.048 C 
ENDBRANCH  23  28
ENDBRANCH   1  20
TORSDOF 10
ENDMDL
MODEL 10
REMARK VINA RESULT:      -7.8      3.220      8.702
REMARK  10 active torsions:
REMARK  status: ('A' for Active; 'I' for Inactive)
REMARK    1  A    between atoms: C_2  and  C_3 
REMARK    2  A    between atoms: C_3  and  C_4 
REMARK    3  A    between atoms: C_4  and  O_5 
REMARK    4  A    between atoms: O_5  and  C_6 
REMARK    5  A    between atoms: C_8  and  C_9 
REMARK       I    between atoms: C_9  and  N_10 
REMARK    6  A    between atoms: N_10  and  C_11 
REMARK    7  A    between atoms: C_11  and  N_12 
REMARK    8  A    between atoms: N_12  and  C_13 
REMARK    9  A    between atoms: C_15  and  O_16 
REMARK   10  A    between atoms: C_17  and  C_18 
ROOT
HETATM    1  N   UNL     1      -6.377   8.171 -30.545  1.00  0.00    -0.333 N 
HETATM    2  H   UNL     1      -7.136   8.405 -29.901  1.00  0.00     0.168 HD
ENDROOT
BRANCH   1   3
HETATM    3  C   UNL     1      -5.404   9.138 -30.592  1.00  0.00     0.179 C 
HETATM    4  S   UNL     1      -5.561  10.802 -30.627  1.00  0.00    -0.040 SA
BRANCH   3   5
HETATM    5  N   UNL     1      -4.104   8.653 -30.596  1.00  0.00    -0.299 N 
HETATM    6  C   UNL     1      -3.264   8.423 -29.514  1.00  0.00     0.257 C 
HETATM    7  O   UNL     1      -3.476   8.893 -28.397  1.00  0.00    -0.267 OA
HETATM    8  H   UNL     1      -3.796   8.389 -31.520  1.00  0.00     0.171 HD
BRANCH   6   9
HETATM    9  C   UNL     1      -2.029   7.623 -29.769  1.00  0.00     0.035 A 
HETATM   10  C   UNL     1      -2.044   6.411 -30.469  1.00  0.00     0.053 A 
HETATM   11  C   UNL     1      -0.849   5.720 -30.674  1.00  0.00     0.069 A 
HETATM   12  C   UNL     1       0.352   6.182 -30.144  1.00  0.00     0.037 A 
HETATM   13  C   UNL     1       0.368   7.375 -29.427  1.00  0.00     0.004 A 
HETATM   14  C   UNL     1      -0.816   8.095 -29.244  1.00  0.00     0.017 A 
BRANCH  11  15
HETATM   15  O   UNL     1      -0.870   4.532 -31.349  1.00  0.00    -0.351 OA
BRANCH  15  16
HETATM   16  C   UNL     1      -1.916   4.513 -32.329  1.00  0.00     0.175 C 
BRANCH  16  17
HETATM   17  C   UNL     1      -1.339   4.884 -33.693  1.00  0.00     0.026 C 
BRANCH  17  18
HETATM   18  C   UNL     1      -2.413   5.378 -34.665  1.00  0.00    -0.002 C 
HETATM   19  C   UNL     1      -3.618   5.933 -33.922  1.00  0.00     0.005 C 
ENDBRANCH  17  18
ENDBRANCH  16  17
ENDBRANCH  15  16
ENDBRANCH  11  15
ENDBRANCH   6   9
ENDBRANCH   3   5
ENDBRANCH   1   3
BRANCH   1  20
HETATM   20  C   UNL     1      -6.549   6.950 -31.229  1.00  0.00     0.036 A 
HETATM   21  C   UNL     1      -7.208   6.804 -32.448  1.00  0.00     0.067 A 
HETATM   22  C   UNL     1      -7.262   5.554 -33.086  1.00  0.00     0.082 A 
HETATM   23  C   UNL     1      -6.650   4.423 -32.527  1.00  0.00     0.050 A 
HETATM   24  C   UNL     1      -6.003   4.581 -31.292  1.00  0.00     0.021 A 
HETATM   25  C   UNL     1      -5.940   5.827 -30.659  1.00  0.00     0.030 A 
BRANCH  22  26
HETATM   26  O   UNL     1      -7.933   5.461 -34.278  1.00  0.00    -0.360 OA
HETATM   27  H   UNL     1      -7.295   5.449 -35.010  1.00  0.00     0.217 HD
ENDBRANCH  22  26
BRANCH  23  28
HETATM   28  C   UNL     1      -6.628   3.101 -33.154  1.00  0.00     0.183 A 
HETATM   29  O   UNL     1      -5.641   2.233 -32.761  1.00  0.00    -0.289 OA
HETATM   30  C   UNL     1      -5.918   1.084 -33.438  1.00  0.00     0.107 A 
HETATM   31  C   UNL     1      -7.055   1.302 -34.195  1.00  0.00     0.093 A 
HETATM   32  C   UNL     1      -5.211  -0.112 -33.388  1.00  0.00     0.046 A 
HETATM   33  N   UNL     1      -7.505   2.582 -34.000  1.00  0.00    -0.221 NA
HETATM   34  C   UNL     1      -7.554   0.257 -34.980  1.00  0.00     0.035 A 
HETATM   35  C   UNL     1      -6.872  -0.970 -34.960  1.00  0.00     0.009 A 
HETATM   36  C   UNL     1      -5.713  -1.158 -34.182  1.00  0.00    -0.059 A 
HETATM   37  C   UNL     1      -5.036  -2.500 -34.173  1.00  0.00     0.048 C 
ENDBRANCH  23  28
ENDBRANCH   1  20
TORSDOF 10
ENDMDL
