MODEL 1
REMARK VINA RESULT:      -7.9      0.000      0.000
REMARK  6 active torsions:
REMARK  status: ('A' for Active; 'I' for Inactive)
REMARK    1  A    between atoms: N_1  and  C_5 
REMARK    2  A    between atoms: C_5  and  C_6 
REMARK    3  A    between atoms: C_6  and  O_7 
REMARK    4  A    between atoms: C_6  and  C_8 
REMARK    5  A    between atoms: C_6  and  C_15 
REMARK    6  A    between atoms: C_18  and  C_21 
ROOT
HETATM    1  C   UNL     1      -5.620   0.984 -31.386  1.00  0.00     0.135 C 
ENDROOT
BRANCH   1   2
HETATM    2  C   UNL     1      -7.003   1.564 -30.935  1.00  0.00     0.277 C 
BRANCH   2   3
HETATM    3  N   UNL     1      -6.873   2.140 -29.552  1.00  0.00    -0.076 N 
HETATM    4  H   UNL     1      -7.226   1.425 -28.892  1.00  0.00     0.274 HD
HETATM    5  H   UNL     1      -5.887   2.299 -29.302  1.00  0.00     0.274 HD
HETATM    6  H   UNL     1      -7.401   3.008 -29.417  1.00  0.00     0.274 HD
ENDBRANCH   2   3
ENDBRANCH   1   2
BRANCH   1   7
HETATM    7  O   UNL     1      -5.084   0.450 -30.148  1.00  0.00    -0.378 OA
HETATM    8  H   UNL     1      -4.795   1.201 -29.593  1.00  0.00     0.211 HD
ENDBRANCH   1   7
BRANCH   1   9
HETATM    9  C   UNL     1      -5.677  -0.142 -32.419  1.00  0.00    -0.018 A 
HETATM   10  C   UNL     1      -6.862  -0.532 -33.067  1.00  0.00     0.012 A 
HETATM   11  C   UNL     1      -6.861  -1.580 -33.997  1.00  0.00     0.024 A 
HETATM   12  C   UNL     1      -5.678  -2.252 -34.294  1.00  0.00     0.034 A 
HETATM   13 CL   UNL     1      -5.688  -3.537 -35.434  1.00  0.00    -0.084 Cl
HETATM   14  C   UNL     1      -4.492  -1.882 -33.674  1.00  0.00     0.024 A 
HETATM   15  C   UNL     1      -4.491  -0.837 -32.745  1.00  0.00     0.012 A 
ENDBRANCH   1   9
BRANCH   1  16
HETATM   16  C   UNL     1      -4.745   2.161 -31.848  1.00  0.00    -0.018 A 
HETATM   17  C   UNL     1      -3.504   2.439 -31.254  1.00  0.00     0.011 A 
HETATM   18  C   UNL     1      -2.743   3.543 -31.656  1.00  0.00     0.013 A 
HETATM   19  C   UNL     1      -3.199   4.399 -32.664  1.00  0.00    -0.023 A 
HETATM   20  C   UNL     1      -4.423   4.114 -33.278  1.00  0.00     0.013 A 
HETATM   21  C   UNL     1      -5.184   3.009 -32.881  1.00  0.00     0.011 A 
BRANCH  19  22
HETATM   22  C   UNL     1      -2.401   5.544 -33.064  1.00  0.00     0.010 A 
HETATM   23  C   UNL     1      -2.578   6.472 -34.118  1.00  0.00     0.152 A 
HETATM   24  N   UNL     1      -1.601   7.378 -34.179  1.00  0.00    -0.187 NA
HETATM   25  N   UNL     1      -0.797   7.047 -33.158  1.00  0.00    -0.289 N 
HETATM   26  H   UNL     1       0.033   7.611 -32.998  1.00  0.00     0.188 HD
HETATM   27  C   UNL     1      -1.227   5.951 -32.464  1.00  0.00     0.123 A 
ENDBRANCH  19  22
ENDBRANCH   1  16
TORSDOF 6
ENDMDL
MODEL 2
REMARK VINA RESULT:      -7.9      0.545      1.577
REMARK  6 active torsions:
REMARK  status: ('A' for Active; 'I' for Inactive)
REMARK    1  A    between atoms: N_1  and  C_5 
REMARK    2  A    between atoms: C_5  and  C_6 
REMARK    3  A    between atoms: C_6  and  O_7 
REMARK    4  A    between atoms: C_6  and  C_8 
REMARK    5  A    between atoms: C_6  and  C_15 
REMARK    6  A    between atoms: C_18  and  C_21 
ROOT
HETATM    1  C   UNL     1      -5.639   0.854 -31.375  1.00  0.00     0.135 C 
ENDROOT
BRANCH   1   2
HETATM    2  C   UNL     1      -7.056   1.342 -30.918  1.00  0.00     0.277 C 
BRANCH   2   3
HETATM    3  N   UNL     1      -6.929   2.084 -29.616  1.00  0.00    -0.076 N 
HETATM    4  H   UNL     1      -6.066   2.653 -29.674  1.00  0.00     0.274 HD
HETATM    5  H   UNL     1      -7.704   2.750 -29.486  1.00  0.00     0.274 HD
HETATM    6  H   UNL     1      -6.870   1.470 -28.797  1.00  0.00     0.274 HD
ENDBRANCH   2   3
ENDBRANCH   1   2
BRANCH   1   7
HETATM    7  O   UNL     1      -5.056   0.376 -30.135  1.00  0.00    -0.378 OA
HETATM    8  H   UNL     1      -4.640  -0.491 -30.311  1.00  0.00     0.211 HD
ENDBRANCH   1   7
BRANCH   1   9
HETATM    9  C   UNL     1      -5.626  -0.288 -32.393  1.00  0.00    -0.018 A 
HETATM   10  C   UNL     1      -4.468  -1.013 -32.721  1.00  0.00     0.012 A 
HETATM   11  C   UNL     1      -4.509  -2.042 -33.670  1.00  0.00     0.024 A 
HETATM   12  C   UNL     1      -5.705  -2.362 -34.305  1.00  0.00     0.034 A 
HETATM   13 CL   UNL     1      -5.745  -3.623 -35.471  1.00  0.00    -0.084 Cl
HETATM   14  C   UNL     1      -6.867  -1.665 -33.995  1.00  0.00     0.024 A 
HETATM   15  C   UNL     1      -6.828  -0.638 -33.048  1.00  0.00     0.012 A 
ENDBRANCH   1   9
BRANCH   1  16
HETATM   16  C   UNL     1      -4.854   2.083 -31.861  1.00  0.00    -0.018 A 
HETATM   17  C   UNL     1      -5.342   2.917 -32.880  1.00  0.00     0.011 A 
HETATM   18  C   UNL     1      -4.591   4.004 -33.343  1.00  0.00     0.013 A 
HETATM   19  C   UNL     1      -3.334   4.291 -32.801  1.00  0.00    -0.023 A 
HETATM   20  C   UNL     1      -2.852   3.479 -31.768  1.00  0.00     0.013 A 
HETATM   21  C   UNL     1      -3.602   2.394 -31.300  1.00  0.00     0.011 A 
BRANCH  19  22
HETATM   22  C   UNL     1      -2.565   5.417 -33.298  1.00  0.00     0.010 A 
HETATM   23  C   UNL     1      -1.458   5.464 -34.179  1.00  0.00     0.152 A 
HETATM   24  N   UNL     1      -1.003   6.704 -34.371  1.00  0.00    -0.187 NA
HETATM   25  N   UNL     1      -1.821   7.462 -33.627  1.00  0.00    -0.289 N 
HETATM   26  H   UNL     1      -1.670   8.466 -33.618  1.00  0.00     0.188 HD
HETATM   27  C   UNL     1      -2.769   6.739 -32.957  1.00  0.00     0.123 A 
ENDBRANCH  19  22
ENDBRANCH   1  16
TORSDOF 6
ENDMDL
MODEL 3
REMARK VINA RESULT:      -7.8      3.902      7.272
REMARK  6 active torsions:
REMARK  status: ('A' for Active; 'I' for Inactive)
REMARK    1  A    between atoms: N_1  and  C_5 
REMARK    2  A    between atoms: C_5  and  C_6 
REMARK    3  A    between atoms: C_6  and  O_7 
REMARK    4  A    between atoms: C_6  and  C_8 
REMARK    5  A    between atoms: C_6  and  C_15 
REMARK    6  A    between atoms: C_18  and  C_21 
ROOT
HETATM    1  C   UNL     1      -6.215   2.888 -33.095  1.00  0.00     0.135 C 
ENDROOT
BRANCH   1   2
HETATM    2  C   UNL     1      -6.705   3.033 -31.615  1.00  0.00     0.277 C 
BRANCH   2   3
HETATM    3  N   UNL     1      -8.150   2.624 -31.528  1.00  0.00    -0.076 N 
HETATM    4  H   UNL     1      -8.395   2.588 -30.523  1.00  0.00     0.274 HD
HETATM    5  H   UNL     1      -8.767   3.333 -31.948  1.00  0.00     0.274 HD
HETATM    6  H   UNL     1      -8.344   1.711 -31.952  1.00  0.00     0.274 HD
ENDBRANCH   2   3
ENDBRANCH   1   2
BRANCH   1   7
HETATM    7  O   UNL     1      -7.304   3.482 -33.847  1.00  0.00    -0.378 OA
HETATM    8  H   UNL     1      -8.111   3.440 -33.298  1.00  0.00     0.211 HD
ENDBRANCH   1   7
BRANCH   1   9
HETATM    9  C   UNL     1      -4.921   3.627 -33.442  1.00  0.00    -0.018 A 
HETATM   10  C   UNL     1      -3.718   3.443 -32.739  1.00  0.00     0.012 A 
HETATM   11  C   UNL     1      -2.564   4.155 -33.090  1.00  0.00     0.024 A 
HETATM   12  C   UNL     1      -2.594   5.060 -34.148  1.00  0.00     0.034 A 
HETATM   13 CL   UNL     1      -1.175   5.932 -34.569  1.00  0.00    -0.084 Cl
HETATM   14  C   UNL     1      -3.768   5.256 -34.864  1.00  0.00     0.024 A 
HETATM   15  C   UNL     1      -4.921   4.546 -34.514  1.00  0.00     0.012 A 
ENDBRANCH   1   9
BRANCH   1  16
HETATM   16  C   UNL     1      -6.138   1.387 -33.419  1.00  0.00    -0.018 A 
HETATM   17  C   UNL     1      -5.412   0.493 -32.616  1.00  0.00     0.011 A 
HETATM   18  C   UNL     1      -5.313  -0.862 -32.954  1.00  0.00     0.013 A 
HETATM   19  C   UNL     1      -5.939  -1.363 -34.100  1.00  0.00    -0.023 A 
HETATM   20  C   UNL     1      -6.685  -0.484 -34.891  1.00  0.00     0.013 A 
HETATM   21  C   UNL     1      -6.788   0.871 -34.555  1.00  0.00     0.011 A 
BRANCH  19  22
HETATM   22  C   UNL     1      -5.821  -2.770 -34.439  1.00  0.00     0.010 A 
HETATM   23  C   UNL     1      -6.784  -3.691 -34.915  1.00  0.00     0.152 A 
HETATM   24  N   UNL     1      -6.289  -4.918 -35.083  1.00  0.00    -0.187 NA
HETATM   25  N   UNL     1      -5.002  -4.792 -34.728  1.00  0.00    -0.289 N 
HETATM   26  H   UNL     1      -4.407  -5.613 -34.778  1.00  0.00     0.188 HD
HETATM   27  C   UNL     1      -4.672  -3.527 -34.326  1.00  0.00     0.123 A 
ENDBRANCH  19  22
ENDBRANCH   1  16
TORSDOF 6
ENDMDL
MODEL 4
REMARK VINA RESULT:      -7.8      4.249      7.377
REMARK  6 active torsions:
REMARK  status: ('A' for Active; 'I' for Inactive)
REMARK    1  A    between atoms: N_1  and  C_5 
REMARK    2  A    between atoms: C_5  and  C_6 
REMARK    3  A    between atoms: C_6  and  O_7 
REMARK    4  A    between atoms: C_6  and  C_8 
REMARK    5  A    between atoms: C_6  and  C_15 
REMARK    6  A    between atoms: C_18  and  C_21 
ROOT
HETATM    1  C   UNL     1      -6.680   1.066 -33.051  1.00  0.00     0.135 C 
ENDROOT
BRANCH   1   2
HETATM    2  C   UNL     1      -6.426   1.607 -31.603  1.00  0.00     0.277 C 
BRANCH   2   3
HETATM    3  N   UNL     1      -5.981   3.042 -31.680  1.00  0.00    -0.076 N 
HETATM    4  H   UNL     1      -5.010   3.077 -31.323  1.00  0.00     0.274 HD
HETATM    5  H   UNL     1      -5.941   3.371 -32.654  1.00  0.00     0.274 HD
HETATM    6  H   UNL     1      -6.563   3.682 -31.130  1.00  0.00     0.274 HD
ENDBRANCH   2   3
ENDBRANCH   1   2
BRANCH   1   7
HETATM    7  O   UNL     1      -6.145   2.128 -33.882  1.00  0.00    -0.378 OA
HETATM    8  H   UNL     1      -6.896   2.619 -34.269  1.00  0.00     0.211 HD
ENDBRANCH   1   7
BRANCH   1   9
HETATM    9  C   UNL     1      -5.966  -0.239 -33.407  1.00  0.00    -0.018 A 
HETATM   10  C   UNL     1      -6.370  -1.074 -34.463  1.00  0.00     0.012 A 
HETATM   11  C   UNL     1      -5.688  -2.266 -34.738  1.00  0.00     0.024 A 
HETATM   12  C   UNL     1      -4.593  -2.641 -33.965  1.00  0.00     0.034 A 
HETATM   13 CL   UNL     1      -3.765  -4.106 -34.308  1.00  0.00    -0.084 Cl
HETATM   14  C   UNL     1      -4.168  -1.831 -32.919  1.00  0.00     0.024 A 
HETATM   15  C   UNL     1      -4.848  -0.642 -32.643  1.00  0.00     0.012 A 
ENDBRANCH   1   9
BRANCH   1  16
HETATM   16  C   UNL     1      -8.201   0.979 -33.260  1.00  0.00    -0.018 A 
HETATM   17  C   UNL     1      -8.992   0.056 -32.559  1.00  0.00     0.011 A 
HETATM   18  C   UNL     1     -10.368  -0.041 -32.797  1.00  0.00     0.013 A 
HETATM   19  C   UNL     1     -10.993   0.781 -33.740  1.00  0.00    -0.023 A 
HETATM   20  C   UNL     1     -10.215   1.721 -34.425  1.00  0.00     0.013 A 
HETATM   21  C   UNL     1      -8.840   1.823 -34.187  1.00  0.00     0.011 A 
BRANCH  19  22
HETATM   22  C   UNL     1     -12.420   0.662 -33.981  1.00  0.00     0.010 A 
HETATM   23  C   UNL     1     -13.331   1.552 -34.598  1.00  0.00     0.152 A 
HETATM   24  N   UNL     1     -14.583   1.090 -34.602  1.00  0.00    -0.187 NA
HETATM   25  N   UNL     1     -14.482  -0.104 -34.001  1.00  0.00    -0.289 N 
HETATM   26  H   UNL     1     -15.326  -0.659 -33.890  1.00  0.00     0.188 HD
HETATM   27  C   UNL     1     -13.209  -0.404 -33.602  1.00  0.00     0.123 A 
ENDBRANCH  19  22
ENDBRANCH   1  16
TORSDOF 6
ENDMDL
MODEL 5
REMARK VINA RESULT:      -7.5     16.313     17.683
REMARK  6 active torsions:
REMARK  status: ('A' for Active; 'I' for Inactive)
REMARK    1  A    between atoms: N_1  and  C_5 
REMARK    2  A    between atoms: C_5  and  C_6 
REMARK    3  A    between atoms: C_6  and  O_7 
REMARK    4  A    between atoms: C_6  and  C_8 
REMARK    5  A    between atoms: C_6  and  C_15 
REMARK    6  A    between atoms: C_18  and  C_21 
ROOT
HETATM    1  C   UNL     1      -4.457 -13.382 -36.727  1.00  0.00     0.135 C 
ENDROOT
BRANCH   1   2
HETATM    2  C   UNL     1      -4.673 -14.296 -35.473  1.00  0.00     0.277 C 
BRANCH   2   3
HETATM    3  N   UNL     1      -4.801 -13.435 -34.247  1.00  0.00    -0.076 N 
HETATM    4  H   UNL     1      -5.647 -12.851 -34.373  1.00  0.00     0.274 HD
HETATM    5  H   UNL     1      -4.968 -14.003 -33.404  1.00  0.00     0.274 HD
HETATM    6  H   UNL     1      -3.994 -12.823 -34.089  1.00  0.00     0.274 HD
ENDBRANCH   2   3
ENDBRANCH   1   2
BRANCH   1   7
HETATM    7  O   UNL     1      -4.216 -12.081 -36.130  1.00  0.00    -0.378 OA
HETATM    8  H   UNL     1      -3.869 -11.488 -36.825  1.00  0.00     0.211 HD
ENDBRANCH   1   7
BRANCH   1   9
HETATM    9  C   UNL     1      -3.263 -13.741 -37.613  1.00  0.00    -0.018 A 
HETATM   10  C   UNL     1      -3.108 -14.999 -38.222  1.00  0.00     0.012 A 
HETATM   11  C   UNL     1      -1.989 -15.280 -39.015  1.00  0.00     0.024 A 
HETATM   12  C   UNL     1      -1.009 -14.312 -39.212  1.00  0.00     0.034 A 
HETATM   13 CL   UNL     1       0.363 -14.667 -40.184  1.00  0.00    -0.084 Cl
HETATM   14  C   UNL     1      -1.140 -13.058 -38.628  1.00  0.00     0.024 A 
HETATM   15  C   UNL     1      -2.257 -12.776 -37.836  1.00  0.00     0.012 A 
ENDBRANCH   1   9
BRANCH   1  16
HETATM   16  C   UNL     1      -5.779 -13.340 -37.511  1.00  0.00    -0.018 A 
HETATM   17  C   UNL     1      -5.926 -12.565 -38.672  1.00  0.00     0.011 A 
HETATM   18  C   UNL     1      -7.151 -12.502 -39.347  1.00  0.00     0.013 A 
HETATM   19  C   UNL     1      -8.263 -13.213 -38.882  1.00  0.00    -0.023 A 
HETATM   20  C   UNL     1      -8.117 -14.007 -37.740  1.00  0.00     0.013 A 
HETATM   21  C   UNL     1      -6.893 -14.075 -37.065  1.00  0.00     0.011 A 
BRANCH  19  22
HETATM   22  C   UNL     1      -9.529 -13.131 -39.589  1.00  0.00     0.010 A 
HETATM   23  C   UNL     1     -10.445 -14.141 -39.965  1.00  0.00     0.152 A 
HETATM   24  N   UNL     1     -11.494 -13.664 -40.638  1.00  0.00    -0.187 NA
HETATM   25  N   UNL     1     -11.264 -12.344 -40.689  1.00  0.00    -0.289 N 
HETATM   26  H   UNL     1     -11.945 -11.756 -41.160  1.00  0.00     0.188 HD
HETATM   27  C   UNL     1     -10.096 -11.974 -40.083  1.00  0.00     0.123 A 
ENDBRANCH  19  22
ENDBRANCH   1  16
TORSDOF 6
ENDMDL
MODEL 6
REMARK VINA RESULT:      -7.4      4.530      7.412
REMARK  6 active torsions:
REMARK  status: ('A' for Active; 'I' for Inactive)
REMARK    1  A    between atoms: N_1  and  C_5 
REMARK    2  A    between atoms: C_5  and  C_6 
REMARK    3  A    between atoms: C_6  and  O_7 
REMARK    4  A    between atoms: C_6  and  C_8 
REMARK    5  A    between atoms: C_6  and  C_15 
REMARK    6  A    between atoms: C_18  and  C_21 
ROOT
HETATM    1  C   UNL     1      -7.510   1.969 -33.330  1.00  0.00     0.135 C 
ENDROOT
BRANCH   1   2
HETATM    2  C   UNL     1      -6.584   3.040 -34.002  1.00  0.00     0.277 C 
BRANCH   2   3
HETATM    3  N   UNL     1      -6.224   4.090 -32.988  1.00  0.00    -0.076 N 
HETATM    4  H   UNL     1      -5.456   4.653 -33.394  1.00  0.00     0.274 HD
HETATM    5  H   UNL     1      -7.004   4.743 -32.829  1.00  0.00     0.274 HD
HETATM    6  H   UNL     1      -5.916   3.705 -32.089  1.00  0.00     0.274 HD
ENDBRANCH   2   3
ENDBRANCH   1   2
BRANCH   1   7
HETATM    7  O   UNL     1      -7.379   2.280 -31.919  1.00  0.00    -0.378 OA
HETATM    8  H   UNL     1      -7.458   3.249 -31.814  1.00  0.00     0.211 HD
ENDBRANCH   1   7
BRANCH   1   9
HETATM    9  C   UNL     1      -8.991   2.040 -33.710  1.00  0.00    -0.018 A 
HETATM   10  C   UNL     1      -9.549   3.109 -34.434  1.00  0.00     0.012 A 
HETATM   11  C   UNL     1     -10.914   3.130 -34.744  1.00  0.00     0.024 A 
HETATM   12  C   UNL     1     -11.741   2.086 -34.340  1.00  0.00     0.034 A 
HETATM   13 CL   UNL     1     -13.416   2.122 -34.723  1.00  0.00    -0.084 Cl
HETATM   14  C   UNL     1     -11.214   1.014 -33.630  1.00  0.00     0.024 A 
HETATM   15  C   UNL     1      -9.852   0.992 -33.318  1.00  0.00     0.012 A 
ENDBRANCH   1   9
BRANCH   1  16
HETATM   16  C   UNL     1      -6.901   0.584 -33.601  1.00  0.00    -0.018 A 
HETATM   17  C   UNL     1      -7.097  -0.085 -34.820  1.00  0.00     0.011 A 
HETATM   18  C   UNL     1      -6.574  -1.366 -35.031  1.00  0.00     0.013 A 
HETATM   19  C   UNL     1      -5.838  -2.014 -34.033  1.00  0.00    -0.023 A 
HETATM   20  C   UNL     1      -5.617  -1.343 -32.826  1.00  0.00     0.013 A 
HETATM   21  C   UNL     1      -6.135  -0.061 -32.613  1.00  0.00     0.011 A 
BRANCH  19  22
HETATM   22  C   UNL     1      -5.309  -3.346 -34.265  1.00  0.00     0.010 A 
HETATM   23  C   UNL     1      -5.894  -4.479 -34.879  1.00  0.00     0.152 A 
HETATM   24  N   UNL     1      -5.089  -5.543 -34.875  1.00  0.00    -0.187 NA
HETATM   25  N   UNL     1      -3.978  -5.098 -34.270  1.00  0.00    -0.289 N 
HETATM   26  H   UNL     1      -3.203  -5.744 -34.153  1.00  0.00     0.188 HD
HETATM   27  C   UNL     1      -4.061  -3.791 -33.878  1.00  0.00     0.123 A 
ENDBRANCH  19  22
ENDBRANCH   1  16
TORSDOF 6
ENDMDL
MODEL 7
REMARK VINA RESULT:      -7.0      4.713      7.536
REMARK  6 active torsions:
REMARK  status: ('A' for Active; 'I' for Inactive)
REMARK    1  A    between atoms: N_1  and  C_5 
REMARK    2  A    between atoms: C_5  and  C_6 
REMARK    3  A    between atoms: C_6  and  O_7 
REMARK    4  A    between atoms: C_6  and  C_8 
REMARK    5  A    between atoms: C_6  and  C_15 
REMARK    6  A    between atoms: C_18  and  C_21 
ROOT
HETATM    1  C   UNL     1      -8.030   2.421 -33.188  1.00  0.00     0.135 C 
ENDROOT
BRANCH   1   2
HETATM    2  C   UNL     1      -8.955   2.254 -31.935  1.00  0.00     0.277 C 
BRANCH   2   3
HETATM    3  N   UNL     1     -10.191   1.493 -32.328  1.00  0.00    -0.076 N 
HETATM    4  H   UNL     1     -10.092   1.252 -33.330  1.00  0.00     0.274 HD
HETATM    5  H   UNL     1     -10.258   0.598 -31.823  1.00  0.00     0.274 HD
HETATM    6  H   UNL     1     -11.058   2.023 -32.196  1.00  0.00     0.274 HD
ENDBRANCH   2   3
ENDBRANCH   1   2
BRANCH   1   7
HETATM    7  O   UNL     1      -8.969   2.811 -34.223  1.00  0.00    -0.378 OA
HETATM    8  H   UNL     1      -8.710   3.696 -34.549  1.00  0.00     0.211 HD
ENDBRANCH   1   7
BRANCH   1   9
HETATM    9  C   UNL     1      -6.949   3.498 -33.077  1.00  0.00    -0.018 A 
HETATM   10  C   UNL     1      -6.122   3.872 -34.151  1.00  0.00     0.012 A 
HETATM   11  C   UNL     1      -5.139   4.856 -33.992  1.00  0.00     0.024 A 
HETATM   12  C   UNL     1      -4.967   5.482 -32.761  1.00  0.00     0.034 A 
HETATM   13 CL   UNL     1      -3.756   6.687 -32.574  1.00  0.00    -0.084 Cl
HETATM   14  C   UNL     1      -5.775   5.137 -31.685  1.00  0.00     0.024 A 
HETATM   15  C   UNL     1      -6.757   4.154 -31.841  1.00  0.00     0.012 A 
ENDBRANCH   1   9
BRANCH   1  16
HETATM   16  C   UNL     1      -7.448   1.039 -33.530  1.00  0.00    -0.018 A 
HETATM   17  C   UNL     1      -7.674   0.428 -34.773  1.00  0.00     0.011 A 
HETATM   18  C   UNL     1      -7.176  -0.852 -35.049  1.00  0.00     0.013 A 
HETATM   19  C   UNL     1      -6.437  -1.555 -34.092  1.00  0.00    -0.023 A 
HETATM   20  C   UNL     1      -6.186  -0.942 -32.860  1.00  0.00     0.013 A 
HETATM   21  C   UNL     1      -6.679   0.338 -32.582  1.00  0.00     0.011 A 
BRANCH  19  22
HETATM   22  C   UNL     1      -5.934  -2.884 -34.391  1.00  0.00     0.010 A 
HETATM   23  C   UNL     1      -4.641  -3.439 -34.239  1.00  0.00     0.152 A 
HETATM   24  N   UNL     1      -4.569  -4.703 -34.662  1.00  0.00    -0.187 NA
HETATM   25  N   UNL     1      -5.816  -4.972 -35.075  1.00  0.00    -0.289 N 
HETATM   26  H   UNL     1      -6.011  -5.898 -35.444  1.00  0.00     0.188 HD
HETATM   27  C   UNL     1      -6.670  -3.913 -34.943  1.00  0.00     0.123 A 
ENDBRANCH  19  22
ENDBRANCH   1  16
TORSDOF 6
ENDMDL
MODEL 8
REMARK VINA RESULT:      -6.7      4.896      7.413
REMARK  6 active torsions:
REMARK  status: ('A' for Active; 'I' for Inactive)
REMARK    1  A    between atoms: N_1  and  C_5 
REMARK    2  A    between atoms: C_5  and  C_6 
REMARK    3  A    between atoms: C_6  and  O_7 
REMARK    4  A    between atoms: C_6  and  C_8 
REMARK    5  A    between atoms: C_6  and  C_15 
REMARK    6  A    between atoms: C_18  and  C_21 
ROOT
HETATM    1  C   UNL     1      -8.598   2.324 -31.634  1.00  0.00     0.135 C 
ENDROOT
BRANCH   1   2
HETATM    2  C   UNL     1      -7.459   3.131 -30.921  1.00  0.00     0.277 C 
BRANCH   2   3
HETATM    3  N   UNL     1      -7.539   2.896 -29.438  1.00  0.00    -0.076 N 
HETATM    4  H   UNL     1      -7.887   1.930 -29.302  1.00  0.00     0.274 HD
HETATM    5  H   UNL     1      -6.607   2.929 -29.001  1.00  0.00     0.274 HD
HETATM    6  H   UNL     1      -8.164   3.547 -28.952  1.00  0.00     0.274 HD
ENDBRANCH   2   3
ENDBRANCH   1   2
BRANCH   1   7
HETATM    7  O   UNL     1      -9.401   1.861 -30.519  1.00  0.00    -0.378 OA
HETATM    8  H   UNL     1      -8.939   1.106 -30.105  1.00  0.00     0.211 HD
ENDBRANCH   1   7
BRANCH   1   9
HETATM    9  C   UNL     1      -9.492   3.131 -32.579  1.00  0.00    -0.018 A 
HETATM   10  C   UNL     1     -10.896   3.072 -32.546  1.00  0.00     0.012 A 
HETATM   11  C   UNL     1     -11.667   3.822 -33.442  1.00  0.00     0.024 A 
HETATM   12  C   UNL     1     -11.050   4.642 -34.382  1.00  0.00     0.034 A 
HETATM   13 CL   UNL     1     -12.004   5.556 -35.480  1.00  0.00    -0.084 Cl
HETATM   14  C   UNL     1      -9.664   4.724 -34.432  1.00  0.00     0.024 A 
HETATM   15  C   UNL     1      -8.892   3.976 -33.539  1.00  0.00     0.012 A 
ENDBRANCH   1   9
BRANCH   1  16
HETATM   16  C   UNL     1      -7.952   1.114 -32.329  1.00  0.00    -0.018 A 
HETATM   17  C   UNL     1      -8.616   0.399 -33.338  1.00  0.00     0.011 A 
HETATM   18  C   UNL     1      -8.031  -0.729 -33.926  1.00  0.00     0.013 A 
HETATM   19  C   UNL     1      -6.768  -1.174 -33.524  1.00  0.00    -0.023 A 
HETATM   20  C   UNL     1      -6.089  -0.452 -32.537  1.00  0.00     0.013 A 
HETATM   21  C   UNL     1      -6.669   0.679 -31.949  1.00  0.00     0.011 A 
BRANCH  19  22
HETATM   22  C   UNL     1      -6.179  -2.350 -34.138  1.00  0.00     0.010 A 
HETATM   23  C   UNL     1      -6.784  -3.465 -34.767  1.00  0.00     0.152 A 
HETATM   24  N   UNL     1      -5.894  -4.368 -35.184  1.00  0.00    -0.187 NA
HETATM   25  N   UNL     1      -4.714  -3.835 -34.839  1.00  0.00    -0.289 N 
HETATM   26  H   UNL     1      -3.869  -4.351 -35.064  1.00  0.00     0.188 HD
HETATM   27  C   UNL     1      -4.829  -2.630 -34.202  1.00  0.00     0.123 A 
ENDBRANCH  19  22
ENDBRANCH   1  16
TORSDOF 6
ENDMDL
MODEL 9
REMARK VINA RESULT:      -6.6      1.403      1.873
REMARK  6 active torsions:
REMARK  status: ('A' for Active; 'I' for Inactive)
REMARK    1  A    between atoms: N_1  and  C_5 
REMARK    2  A    between atoms: C_5  and  C_6 
REMARK    3  A    between atoms: C_6  and  O_7 
REMARK    4  A    between atoms: C_6  and  C_8 
REMARK    5  A    between atoms: C_6  and  C_15 
REMARK    6  A    between atoms: C_18  and  C_21 
ROOT
HETATM    1  C   UNL     1      -6.933   1.655 -32.679  1.00  0.00     0.135 C 
ENDROOT
BRANCH   1   2
HETATM    2  C   UNL     1      -8.261   2.273 -33.235  1.00  0.00     0.277 C 
BRANCH   2   3
HETATM    3  N   UNL     1      -9.269   2.366 -32.122  1.00  0.00    -0.076 N 
HETATM    4  H   UNL     1      -9.142   3.291 -31.675  1.00  0.00     0.274 HD
HETATM    5  H   UNL     1     -10.232   2.354 -32.485  1.00  0.00     0.274 HD
HETATM    6  H   UNL     1      -9.165   1.635 -31.411  1.00  0.00     0.274 HD
ENDBRANCH   2   3
ENDBRANCH   1   2
BRANCH   1   7
HETATM    7  O   UNL     1      -7.223   1.505 -31.266  1.00  0.00    -0.378 OA
HETATM    8  H   UNL     1      -7.539   2.366 -30.927  1.00  0.00     0.211 HD
ENDBRANCH   1   7
BRANCH   1   9
HETATM    9  C   UNL     1      -6.549   0.288 -33.247  1.00  0.00    -0.018 A 
HETATM   10  C   UNL     1      -5.374  -0.393 -32.883  1.00  0.00     0.012 A 
HETATM   11  C   UNL     1      -5.063  -1.639 -33.443  1.00  0.00     0.024 A 
HETATM   12  C   UNL     1      -5.919  -2.223 -34.372  1.00  0.00     0.034 A 
HETATM   13 CL   UNL     1      -5.528  -3.750 -35.056  1.00  0.00    -0.084 Cl
HETATM   14  C   UNL     1      -7.090  -1.575 -34.744  1.00  0.00     0.024 A 
HETATM   15  C   UNL     1      -7.402  -0.331 -34.187  1.00  0.00     0.012 A 
ENDBRANCH   1   9
BRANCH   1  16
HETATM   16  C   UNL     1      -5.819   2.699 -32.858  1.00  0.00    -0.018 A 
HETATM   17  C   UNL     1      -4.737   2.787 -31.968  1.00  0.00     0.011 A 
HETATM   18  C   UNL     1      -3.757   3.775 -32.119  1.00  0.00     0.013 A 
HETATM   19  C   UNL     1      -3.827   4.701 -33.165  1.00  0.00    -0.023 A 
HETATM   20  C   UNL     1      -4.889   4.605 -34.071  1.00  0.00     0.013 A 
HETATM   21  C   UNL     1      -5.869   3.616 -33.924  1.00  0.00     0.011 A 
BRANCH  19  22
HETATM   22  C   UNL     1      -2.807   5.724 -33.303  1.00  0.00     0.010 A 
HETATM   23  C   UNL     1      -2.394   6.745 -32.413  1.00  0.00     0.152 A 
HETATM   24  N   UNL     1      -1.432   7.517 -32.923  1.00  0.00    -0.187 NA
HETATM   25  N   UNL     1      -1.212   6.991 -34.136  1.00  0.00    -0.289 N 
HETATM   26  H   UNL     1      -0.502   7.418 -34.723  1.00  0.00     0.188 HD
HETATM   27  C   UNL     1      -2.016   5.921 -34.416  1.00  0.00     0.123 A 
ENDBRANCH  19  22
ENDBRANCH   1  16
TORSDOF 6
ENDMDL
MODEL 10
REMARK VINA RESULT:      -6.5      4.913      7.562
REMARK  6 active torsions:
REMARK  status: ('A' for Active; 'I' for Inactive)
REMARK    1  A    between atoms: N_1  and  C_5 
REMARK    2  A    between atoms: C_5  and  C_6 
REMARK    3  A    between atoms: C_6  and  O_7 
REMARK    4  A    between atoms: C_6  and  C_8 
REMARK    5  A    between atoms: C_6  and  C_15 
REMARK    6  A    between atoms: C_18  and  C_21 
ROOT
HETATM    1  C   UNL     1      -8.345   2.581 -33.194  1.00  0.00     0.135 C 
ENDROOT
BRANCH   1   2
HETATM    2  C   UNL     1      -9.900   2.478 -33.030  1.00  0.00     0.277 C 
BRANCH   2   3
HETATM    3  N   UNL     1     -10.564   2.942 -34.297  1.00  0.00    -0.076 N 
HETATM    4  H   UNL     1     -11.586   2.864 -34.149  1.00  0.00     0.274 HD
HETATM    5  H   UNL     1     -10.377   3.939 -34.477  1.00  0.00     0.274 HD
HETATM    6  H   UNL     1     -10.303   2.394 -35.122  1.00  0.00     0.274 HD
ENDBRANCH   2   3
ENDBRANCH   1   2
BRANCH   1   7
HETATM    7  O   UNL     1      -8.208   3.421 -34.369  1.00  0.00    -0.378 OA
HETATM    8  H   UNL     1      -7.359   3.201 -34.802  1.00  0.00     0.211 HD
ENDBRANCH   1   7
BRANCH   1   9
HETATM    9  C   UNL     1      -7.597   3.239 -32.033  1.00  0.00    -0.018 A 
HETATM   10  C   UNL     1      -6.290   3.743 -32.147  1.00  0.00     0.012 A 
HETATM   11  C   UNL     1      -5.646   4.325 -31.048  1.00  0.00     0.024 A 
HETATM   12  C   UNL     1      -6.296   4.414 -29.821  1.00  0.00     0.034 A 
HETATM   13 CL   UNL     1      -5.496   5.126 -28.478  1.00  0.00    -0.084 Cl
HETATM   14  C   UNL     1      -7.590   3.930 -29.682  1.00  0.00     0.024 A 
HETATM   15  C   UNL     1      -8.235   3.348 -30.777  1.00  0.00     0.012 A 
ENDBRANCH   1   9
BRANCH   1  16
HETATM   16  C   UNL     1      -7.813   1.175 -33.513  1.00  0.00    -0.018 A 
HETATM   17  C   UNL     1      -7.315   0.327 -32.512  1.00  0.00     0.011 A 
HETATM   18  C   UNL     1      -6.790  -0.932 -32.828  1.00  0.00     0.013 A 
HETATM   19  C   UNL     1      -6.749  -1.380 -34.152  1.00  0.00    -0.023 A 
HETATM   20  C   UNL     1      -7.267  -0.551 -35.153  1.00  0.00     0.013 A 
HETATM   21  C   UNL     1      -7.796   0.706 -34.840  1.00  0.00     0.011 A 
BRANCH  19  22
HETATM   22  C   UNL     1      -6.194  -2.685 -34.463  1.00  0.00     0.010 A 
HETATM   23  C   UNL     1      -6.830  -3.904 -34.799  1.00  0.00     0.152 A 
HETATM   24  N   UNL     1      -5.966  -4.903 -34.988  1.00  0.00    -0.187 NA
HETATM   25  N   UNL     1      -4.770  -4.331 -34.787  1.00  0.00    -0.289 N 
HETATM   26  H   UNL     1      -3.940  -4.907 -34.882  1.00  0.00     0.188 HD
HETATM   27  C   UNL     1      -4.852  -3.005 -34.462  1.00  0.00     0.123 A 
ENDBRANCH  19  22
ENDBRANCH   1  16
TORSDOF 6
ENDMDL
