MODEL 1
REMARK VINA RESULT:      -9.5      0.000      0.000
REMARK  9 active torsions:
REMARK  status: ('A' for Active; 'I' for Inactive)
REMARK       I    between atoms: C_2  and  N_3 
REMARK    1  A    between atoms: N_3  and  C_4 
REMARK    2  A    between atoms: C_7  and  O_8 
REMARK    3  A    between atoms: O_8  and  C_9 
REMARK    4  A    between atoms: C_9  and  C_10 
REMARK    5  A    between atoms: C_11  and  O_12 
REMARK    6  A    between atoms: C_16  and  C_17 
REMARK    7  A    between atoms: C_31  and  O_32 
REMARK    8  A    between atoms: O_32  and  C_33 
REMARK    9  A    between atoms: C_33  and  C_34 
ROOT
HETATM    1  C   UNL     1      -2.027   6.730 -31.889  1.00  0.00     0.269 C 
HETATM    2  N   UNL     1      -1.044   6.499 -33.010  1.00  0.00    -0.061 N 
HETATM    3  H   UNL     1      -0.309   5.876 -32.659  1.00  0.00     0.278 HD
HETATM    4  H   UNL     1      -0.592   7.394 -33.229  1.00  0.00     0.278 HD
HETATM    5  C   UNL     1      -1.663   5.887 -34.243  1.00  0.00     0.238 C 
HETATM    6  C   UNL     1      -2.222   4.482 -33.942  1.00  0.00     0.069 C 
HETATM    7  C   UNL     1      -2.973   4.479 -32.654  1.00  0.00    -0.019 A 
HETATM    8  C   UNL     1      -2.841   5.494 -31.724  1.00  0.00     0.052 A 
HETATM    9  N   UNL     1      -3.646   5.199 -30.654  1.00  0.00    -0.356 N 
HETATM   10  H   UNL     1      -3.763   5.754 -29.813  1.00  0.00     0.166 HD
HETATM   11  C   UNL     1      -4.304   4.010 -30.886  1.00  0.00     0.043 A 
HETATM   12  C   UNL     1      -3.904   3.537 -32.138  1.00  0.00     0.002 A 
HETATM   13  C   UNL     1      -5.220   3.327 -30.084  1.00  0.00     0.033 A 
HETATM   14  C   UNL     1      -5.747   2.132 -30.582  1.00  0.00     0.039 A 
HETATM   15  C   UNL     1      -5.381   1.633 -31.833  1.00  0.00     0.070 A 
HETATM   16  C   UNL     1      -4.454   2.328 -32.619  1.00  0.00     0.051 A 
ENDROOT
BRANCH   1  17
HETATM   17  C   UNL     1      -1.325   7.196 -30.634  1.00  0.00    -0.021 A 
HETATM   18  C   UNL     1      -0.045   6.748 -30.278  1.00  0.00     0.012 A 
HETATM   19  C   UNL     1       0.579   7.216 -29.115  1.00  0.00     0.038 A 
HETATM   20  C   UNL     1      -0.068   8.121 -28.268  1.00  0.00     0.076 A 
HETATM   21  C   UNL     1      -1.367   8.547 -28.583  1.00  0.00    -0.000 A 
HETATM   22  C   UNL     1      -1.973   8.096 -29.774  1.00  0.00     0.021 A 
BRANCH  20  23
HETATM   23  O   UNL     1       0.474   8.642 -27.126  1.00  0.00    -0.355 OA
HETATM   24  C   UNL     1       1.478   7.888 -26.458  1.00  0.00     0.210 C 
ENDBRANCH  20  23
BRANCH  21  25
HETATM   25  C   UNL     1      -2.145   9.485 -27.679  1.00  0.00     0.217 C 
BRANCH  25  26
HETATM   26  O   UNL     1      -2.866   8.679 -26.742  1.00  0.00    -0.347 OA
BRANCH  26  27
HETATM   27  C   UNL     1      -4.027   8.106 -27.181  1.00  0.00     0.069 A 
HETATM   28  C   UNL     1      -4.115   6.730 -26.973  1.00  0.00     0.039 A 
HETATM   29  C   UNL     1      -5.244   6.012 -27.386  1.00  0.00     0.032 A 
HETATM   30  C   UNL     1      -6.299   6.663 -28.024  1.00  0.00     0.034 A 
HETATM   31  C   UNL     1      -6.205   8.044 -28.234  1.00  0.00     0.032 A 
HETATM   32  C   UNL     1      -5.077   8.763 -27.817  1.00  0.00     0.039 A 
BRANCH  30  33
HETATM   33  N   UNL     1      -7.468   6.016 -28.478  1.00  0.00    -0.328 N 
HETATM   34  C   UNL     1      -7.855   5.806 -29.789  1.00  0.00     0.218 C 
HETATM   35  C   UNL     1      -9.174   5.078 -29.908  1.00  0.00     0.117 C 
HETATM   36  O   UNL     1      -7.247   6.151 -30.797  1.00  0.00    -0.274 OA
HETATM   37  H   UNL     1      -8.091   5.675 -27.757  1.00  0.00     0.169 HD
ENDBRANCH  30  33
ENDBRANCH  26  27
ENDBRANCH  25  26
ENDBRANCH  21  25
ENDBRANCH   1  17
BRANCH  15  38
HETATM   38  O   UNL     1      -5.995   0.457 -32.170  1.00  0.00    -0.347 OA
BRANCH  38  39
HETATM   39  C   UNL     1      -6.371   0.277 -33.533  1.00  0.00     0.214 C 
BRANCH  39  40
HETATM   40  C   UNL     1      -6.034  -1.138 -33.939  1.00  0.00    -0.034 A 
HETATM   41  C   UNL     1      -7.022  -2.002 -34.429  1.00  0.00     0.009 A 
HETATM   42  C   UNL     1      -6.697  -3.306 -34.807  1.00  0.00     0.001 A 
HETATM   43  C   UNL     1      -5.385  -3.760 -34.694  1.00  0.00     0.000 A 
HETATM   44  C   UNL     1      -4.395  -2.912 -34.200  1.00  0.00     0.001 A 
HETATM   45  C   UNL     1      -4.718  -1.608 -33.822  1.00  0.00     0.009 A 
ENDBRANCH  39  40
ENDBRANCH  38  39
ENDBRANCH  15  38
TORSDOF 9
ENDMDL
MODEL 2
REMARK VINA RESULT:      -9.2      2.366      5.446
REMARK  9 active torsions:
REMARK  status: ('A' for Active; 'I' for Inactive)
REMARK       I    between atoms: C_2  and  N_3 
REMARK    1  A    between atoms: N_3  and  C_4 
REMARK    2  A    between atoms: C_7  and  O_8 
REMARK    3  A    between atoms: O_8  and  C_9 
REMARK    4  A    between atoms: C_9  and  C_10 
REMARK    5  A    between atoms: C_11  and  O_12 
REMARK    6  A    between atoms: C_16  and  C_17 
REMARK    7  A    between atoms: C_31  and  O_32 
REMARK    8  A    between atoms: O_32  and  C_33 
REMARK    9  A    between atoms: C_33  and  C_34 
ROOT
HETATM    1  C   UNL     1      -3.661   6.325 -31.076  1.00  0.00     0.269 C 
HETATM    2  N   UNL     1      -2.373   6.583 -31.818  1.00  0.00    -0.061 N 
HETATM    3  H   UNL     1      -1.599   6.303 -31.207  1.00  0.00     0.278 HD
HETATM    4  H   UNL     1      -2.283   7.595 -31.960  1.00  0.00     0.278 HD
HETATM    5  C   UNL     1      -2.267   5.838 -33.125  1.00  0.00     0.238 C 
HETATM    6  C   UNL     1      -2.264   4.314 -32.895  1.00  0.00     0.069 C 
HETATM    7  C   UNL     1      -3.311   3.930 -31.904  1.00  0.00    -0.019 A 
HETATM    8  C   UNL     1      -3.905   4.856 -31.066  1.00  0.00     0.052 A 
HETATM    9  N   UNL     1      -4.809   4.196 -30.274  1.00  0.00    -0.356 N 
HETATM   10  H   UNL     1      -5.400   4.606 -29.559  1.00  0.00     0.166 HD
HETATM   11  C   UNL     1      -4.813   2.857 -30.597  1.00  0.00     0.043 A 
HETATM   12  C   UNL     1      -3.885   2.661 -31.623  1.00  0.00     0.002 A 
HETATM   13  C   UNL     1      -5.570   1.813 -30.061  1.00  0.00     0.033 A 
HETATM   14  C   UNL     1      -5.376   0.536 -30.596  1.00  0.00     0.039 A 
HETATM   15  C   UNL     1      -4.467   0.303 -31.629  1.00  0.00     0.070 A 
HETATM   16  C   UNL     1      -3.710   1.360 -32.147  1.00  0.00     0.051 A 
ENDROOT
BRANCH   1  17
HETATM   17  C   UNL     1      -3.643   6.971 -29.708  1.00  0.00    -0.021 A 
HETATM   18  C   UNL     1      -4.428   6.503 -28.646  1.00  0.00     0.012 A 
HETATM   19  C   UNL     1      -4.371   7.118 -27.389  1.00  0.00     0.038 A 
HETATM   20  C   UNL     1      -3.551   8.228 -27.171  1.00  0.00     0.076 A 
HETATM   21  C   UNL     1      -2.790   8.740 -28.234  1.00  0.00    -0.000 A 
HETATM   22  C   UNL     1      -2.829   8.092 -29.485  1.00  0.00     0.021 A 
BRANCH  20  23
HETATM   23  O   UNL     1      -3.421   8.877 -25.974  1.00  0.00    -0.355 OA
HETATM   24  C   UNL     1      -3.017   8.117 -24.841  1.00  0.00     0.210 C 
ENDBRANCH  20  23
BRANCH  21  25
HETATM   25  C   UNL     1      -1.922   9.974 -28.077  1.00  0.00     0.217 C 
BRANCH  25  26
HETATM   26  O   UNL     1      -0.568   9.582 -28.325  1.00  0.00    -0.347 OA
BRANCH  26  27
HETATM   27  C   UNL     1       0.211   9.318 -27.235  1.00  0.00     0.069 A 
HETATM   28  C   UNL     1       1.079   8.237 -27.384  1.00  0.00     0.039 A 
HETATM   29  C   UNL     1       1.926   7.847 -26.340  1.00  0.00     0.032 A 
HETATM   30  C   UNL     1       1.909   8.529 -25.125  1.00  0.00     0.034 A 
HETATM   31  C   UNL     1       1.033   9.612 -24.977  1.00  0.00     0.032 A 
HETATM   32  C   UNL     1       0.188  10.005 -26.024  1.00  0.00     0.039 A 
BRANCH  30  33
HETATM   33  N   UNL     1       2.722   8.198 -24.021  1.00  0.00    -0.328 N 
HETATM   34  C   UNL     1       3.823   8.893 -23.552  1.00  0.00     0.218 C 
HETATM   35  C   UNL     1       4.460   8.247 -22.344  1.00  0.00     0.117 C 
HETATM   36  O   UNL     1       4.293   9.925 -24.020  1.00  0.00    -0.274 OA
HETATM   37  H   UNL     1       2.469   7.354 -23.523  1.00  0.00     0.169 HD
ENDBRANCH  30  33
ENDBRANCH  26  27
ENDBRANCH  25  26
ENDBRANCH  21  25
ENDBRANCH   1  17
BRANCH  15  38
HETATM   38  O   UNL     1      -4.406  -1.002 -32.039  1.00  0.00    -0.347 OA
BRANCH  38  39
HETATM   39  C   UNL     1      -3.990  -1.253 -33.379  1.00  0.00     0.214 C 
BRANCH  39  40
HETATM   40  C   UNL     1      -4.777  -2.426 -33.912  1.00  0.00    -0.034 A 
HETATM   41  C   UNL     1      -6.119  -2.283 -34.289  1.00  0.00     0.009 A 
HETATM   42  C   UNL     1      -6.833  -3.375 -34.786  1.00  0.00     0.001 A 
HETATM   43  C   UNL     1      -6.216  -4.619 -34.906  1.00  0.00     0.000 A 
HETATM   44  C   UNL     1      -4.885  -4.774 -34.527  1.00  0.00     0.001 A 
HETATM   45  C   UNL     1      -4.168  -3.685 -34.030  1.00  0.00     0.009 A 
ENDBRANCH  39  40
ENDBRANCH  38  39
ENDBRANCH  15  38
TORSDOF 9
ENDMDL
MODEL 3
REMARK VINA RESULT:      -9.0      3.091      9.740
REMARK  9 active torsions:
REMARK  status: ('A' for Active; 'I' for Inactive)
REMARK       I    between atoms: C_2  and  N_3 
REMARK    1  A    between atoms: N_3  and  C_4 
REMARK    2  A    between atoms: C_7  and  O_8 
REMARK    3  A    between atoms: O_8  and  C_9 
REMARK    4  A    between atoms: C_9  and  C_10 
REMARK    5  A    between atoms: C_11  and  O_12 
REMARK    6  A    between atoms: C_16  and  C_17 
REMARK    7  A    between atoms: C_31  and  O_32 
REMARK    8  A    between atoms: O_32  and  C_33 
REMARK    9  A    between atoms: C_33  and  C_34 
ROOT
HETATM    1  C   UNL     1      -7.305   2.857 -30.140  1.00  0.00     0.269 C 
HETATM    2  N   UNL     1      -6.959   1.390 -30.081  1.00  0.00    -0.061 N 
HETATM    3  H   UNL     1      -7.081   1.002 -31.022  1.00  0.00     0.278 HD
HETATM    4  H   UNL     1      -7.646   0.923 -29.479  1.00  0.00     0.278 HD
HETATM    5  C   UNL     1      -5.551   1.118 -29.613  1.00  0.00     0.238 C 
HETATM    6  C   UNL     1      -4.518   1.704 -30.595  1.00  0.00     0.069 C 
HETATM    7  C   UNL     1      -4.909   3.082 -31.009  1.00  0.00    -0.019 A 
HETATM    8  C   UNL     1      -6.190   3.570 -30.823  1.00  0.00     0.052 A 
HETATM    9  N   UNL     1      -6.234   4.851 -31.312  1.00  0.00    -0.356 N 
HETATM   10  H   UNL     1      -7.038   5.469 -31.318  1.00  0.00     0.166 HD
HETATM   11  C   UNL     1      -4.994   5.199 -31.803  1.00  0.00     0.043 A 
HETATM   12  C   UNL     1      -4.140   4.109 -31.621  1.00  0.00     0.002 A 
HETATM   13  C   UNL     1      -4.570   6.394 -32.388  1.00  0.00     0.033 A 
HETATM   14  C   UNL     1      -3.234   6.477 -32.788  1.00  0.00     0.039 A 
HETATM   15  C   UNL     1      -2.347   5.414 -32.613  1.00  0.00     0.070 A 
HETATM   16  C   UNL     1      -2.792   4.219 -32.033  1.00  0.00     0.051 A 
ENDROOT
BRANCH   1  17
HETATM   17  C   UNL     1      -8.666   3.074 -30.762  1.00  0.00    -0.021 A 
HETATM   18  C   UNL     1      -9.607   3.959 -30.221  1.00  0.00     0.012 A 
HETATM   19  C   UNL     1     -10.852   4.145 -30.835  1.00  0.00     0.038 A 
HETATM   20  C   UNL     1     -11.196   3.433 -31.988  1.00  0.00     0.076 A 
HETATM   21  C   UNL     1     -10.284   2.508 -32.521  1.00  0.00    -0.000 A 
HETATM   22  C   UNL     1      -9.021   2.355 -31.914  1.00  0.00     0.021 A 
BRANCH  20  23
HETATM   23  O   UNL     1     -12.378   3.566 -32.661  1.00  0.00    -0.355 OA
HETATM   24  C   UNL     1     -13.587   3.392 -31.931  1.00  0.00     0.210 C 
ENDBRANCH  20  23
BRANCH  21  25
HETATM   25  C   UNL     1     -10.617   1.664 -33.737  1.00  0.00     0.217 C 
BRANCH  25  26
HETATM   26  O   UNL     1      -9.462   1.652 -34.581  1.00  0.00    -0.347 OA
BRANCH  26  27
HETATM   27  C   UNL     1      -8.607   0.595 -34.447  1.00  0.00     0.069 A 
HETATM   28  C   UNL     1      -7.547   0.582 -35.353  1.00  0.00     0.039 A 
HETATM   29  C   UNL     1      -6.602  -0.451 -35.337  1.00  0.00     0.032 A 
HETATM   30  C   UNL     1      -6.710  -1.493 -34.417  1.00  0.00     0.034 A 
HETATM   31  C   UNL     1      -7.778  -1.477 -33.511  1.00  0.00     0.032 A 
HETATM   32  C   UNL     1      -8.722  -0.442 -33.525  1.00  0.00     0.039 A 
BRANCH  30  33
HETATM   33  N   UNL     1      -5.808  -2.574 -34.337  1.00  0.00    -0.328 N 
HETATM   34  C   UNL     1      -4.556  -2.581 -33.748  1.00  0.00     0.218 C 
HETATM   35  C   UNL     1      -3.860  -3.918 -33.850  1.00  0.00     0.117 C 
HETATM   36  O   UNL     1      -4.004  -1.639 -33.190  1.00  0.00    -0.274 OA
HETATM   37  H   UNL     1      -6.115  -3.438 -34.766  1.00  0.00     0.169 HD
ENDBRANCH  30  33
ENDBRANCH  26  27
ENDBRANCH  25  26
ENDBRANCH  21  25
ENDBRANCH   1  17
BRANCH  15  38
HETATM   38  O   UNL     1      -1.076   5.664 -33.054  1.00  0.00    -0.347 OA
BRANCH  38  39
HETATM   39  C   UNL     1      -0.385   6.770 -32.479  1.00  0.00     0.214 C 
BRANCH  39  40
HETATM   40  C   UNL     1      -0.016   6.417 -31.058  1.00  0.00    -0.034 A 
HETATM   41  C   UNL     1       0.662   5.227 -30.764  1.00  0.00     0.009 A 
HETATM   42  C   UNL     1       1.003   4.914 -29.446  1.00  0.00     0.001 A 
HETATM   43  C   UNL     1       0.666   5.785 -28.412  1.00  0.00     0.000 A 
HETATM   44  C   UNL     1      -0.015   6.968 -28.692  1.00  0.00     0.001 A 
HETATM   45  C   UNL     1      -0.357   7.282 -30.007  1.00  0.00     0.009 A 
ENDBRANCH  39  40
ENDBRANCH  38  39
ENDBRANCH  15  38
TORSDOF 9
ENDMDL
MODEL 4
REMARK VINA RESULT:      -8.8      2.794     10.557
REMARK  9 active torsions:
REMARK  status: ('A' for Active; 'I' for Inactive)
REMARK       I    between atoms: C_2  and  N_3 
REMARK    1  A    between atoms: N_3  and  C_4 
REMARK    2  A    between atoms: C_7  and  O_8 
REMARK    3  A    between atoms: O_8  and  C_9 
REMARK    4  A    between atoms: C_9  and  C_10 
REMARK    5  A    between atoms: C_11  and  O_12 
REMARK    6  A    between atoms: C_16  and  C_17 
REMARK    7  A    between atoms: C_31  and  O_32 
REMARK    8  A    between atoms: O_32  and  C_33 
REMARK    9  A    between atoms: C_33  and  C_34 
ROOT
HETATM    1  C   UNL     1      -2.097   5.603 -30.948  1.00  0.00     0.269 C 
HETATM    2  N   UNL     1      -1.438   6.005 -32.245  1.00  0.00    -0.061 N 
HETATM    3  H   UNL     1      -1.760   6.950 -32.480  1.00  0.00     0.278 HD
HETATM    4  H   UNL     1      -1.781   5.384 -32.985  1.00  0.00     0.278 HD
HETATM    5  C   UNL     1       0.070   5.998 -32.185  1.00  0.00     0.238 C 
HETATM    6  C   UNL     1       0.589   7.032 -31.167  1.00  0.00     0.069 C 
HETATM    7  C   UNL     1      -0.205   6.973 -29.906  1.00  0.00    -0.019 A 
HETATM    8  C   UNL     1      -1.436   6.347 -29.841  1.00  0.00     0.052 A 
HETATM    9  N   UNL     1      -1.910   6.471 -28.560  1.00  0.00    -0.356 N 
HETATM   10  H   UNL     1      -2.791   6.115 -28.204  1.00  0.00     0.166 HD
HETATM   11  C   UNL     1      -0.995   7.161 -27.795  1.00  0.00     0.043 A 
HETATM   12  C   UNL     1       0.090   7.484 -28.613  1.00  0.00     0.002 A 
HETATM   13  C   UNL     1      -1.048   7.515 -26.445  1.00  0.00     0.033 A 
HETATM   14  C   UNL     1       0.043   8.211 -25.918  1.00  0.00     0.039 A 
HETATM   15  C   UNL     1       1.150   8.542 -26.701  1.00  0.00     0.070 A 
HETATM   16  C   UNL     1       1.182   8.187 -28.055  1.00  0.00     0.051 A 
ENDROOT
BRANCH   1  17
HETATM   17  C   UNL     1      -3.597   5.779 -31.021  1.00  0.00    -0.021 A 
HETATM   18  C   UNL     1      -4.216   7.026 -30.860  1.00  0.00     0.012 A 
HETATM   19  C   UNL     1      -5.608   7.151 -30.950  1.00  0.00     0.038 A 
HETATM   20  C   UNL     1      -6.415   6.033 -31.178  1.00  0.00     0.076 A 
HETATM   21  C   UNL     1      -5.818   4.768 -31.298  1.00  0.00    -0.000 A 
HETATM   22  C   UNL     1      -4.414   4.659 -31.239  1.00  0.00     0.021 A 
BRANCH  20  23
HETATM   23  O   UNL     1      -7.777   6.067 -31.298  1.00  0.00    -0.355 OA
HETATM   24  C   UNL     1      -8.539   6.474 -30.168  1.00  0.00     0.210 C 
ENDBRANCH  20  23
BRANCH  21  25
HETATM   25  C   UNL     1      -6.641   3.508 -31.491  1.00  0.00     0.217 C 
BRANCH  25  26
HETATM   26  O   UNL     1      -6.580   3.163 -32.878  1.00  0.00    -0.347 OA
BRANCH  26  27
HETATM   27  C   UNL     1      -6.640   1.834 -33.190  1.00  0.00     0.069 A 
HETATM   28  C   UNL     1      -6.874   1.560 -34.537  1.00  0.00     0.039 A 
HETATM   29  C   UNL     1      -6.973   0.240 -34.994  1.00  0.00     0.032 A 
HETATM   30  C   UNL     1      -6.847  -0.826 -34.105  1.00  0.00     0.034 A 
HETATM   31  C   UNL     1      -6.615  -0.546 -32.753  1.00  0.00     0.032 A 
HETATM   32  C   UNL     1      -6.513   0.775 -32.295  1.00  0.00     0.039 A 
BRANCH  30  33
HETATM   33  N   UNL     1      -6.940  -2.183 -34.479  1.00  0.00    -0.328 N 
HETATM   34  C   UNL     1      -5.899  -3.043 -34.782  1.00  0.00     0.218 C 
HETATM   35  C   UNL     1      -6.366  -4.433 -35.146  1.00  0.00     0.117 C 
HETATM   36  O   UNL     1      -4.702  -2.774 -34.782  1.00  0.00    -0.274 OA
HETATM   37  H   UNL     1      -7.876  -2.562 -34.536  1.00  0.00     0.169 HD
ENDBRANCH  30  33
ENDBRANCH  26  27
ENDBRANCH  25  26
ENDBRANCH  21  25
ENDBRANCH   1  17
BRANCH  15  38
HETATM   38  O   UNL     1       2.132   9.217 -26.027  1.00  0.00    -0.347 OA
BRANCH  38  39
HETATM   39  C   UNL     1       1.837   9.663 -24.705  1.00  0.00     0.214 C 
BRANCH  39  40
HETATM   40  C   UNL     1       2.983   9.273 -23.803  1.00  0.00    -0.034 A 
HETATM   41  C   UNL     1       4.304   9.604 -24.132  1.00  0.00     0.009 A 
HETATM   42  C   UNL     1       5.355   9.243 -23.286  1.00  0.00     0.001 A 
HETATM   43  C   UNL     1       5.097   8.546 -22.108  1.00  0.00     0.000 A 
HETATM   44  C   UNL     1       3.787   8.205 -21.775  1.00  0.00     0.001 A 
HETATM   45  C   UNL     1       2.736   8.564 -22.618  1.00  0.00     0.009 A 
ENDBRANCH  39  40
ENDBRANCH  38  39
ENDBRANCH  15  38
TORSDOF 9
ENDMDL
MODEL 5
REMARK VINA RESULT:      -8.7      1.824      4.394
REMARK  9 active torsions:
REMARK  status: ('A' for Active; 'I' for Inactive)
REMARK       I    between atoms: C_2  and  N_3 
REMARK    1  A    between atoms: N_3  and  C_4 
REMARK    2  A    between atoms: C_7  and  O_8 
REMARK    3  A    between atoms: O_8  and  C_9 
REMARK    4  A    between atoms: C_9  and  C_10 
REMARK    5  A    between atoms: C_11  and  O_12 
REMARK    6  A    between atoms: C_16  and  C_17 
REMARK    7  A    between atoms: C_31  and  O_32 
REMARK    8  A    between atoms: O_32  and  C_33 
REMARK    9  A    between atoms: C_33  and  C_34 
ROOT
HETATM    1  C   UNL     1      -6.874   6.201 -29.339  1.00  0.00     0.269 C 
HETATM    2  N   UNL     1      -7.051   7.184 -30.470  1.00  0.00    -0.061 N 
HETATM    3  H   UNL     1      -6.138   7.311 -30.918  1.00  0.00     0.278 HD
HETATM    4  H   UNL     1      -7.310   8.092 -30.068  1.00  0.00     0.278 HD
HETATM    5  C   UNL     1      -8.054   6.741 -31.506  1.00  0.00     0.238 C 
HETATM    6  C   UNL     1      -7.594   5.447 -32.205  1.00  0.00     0.069 C 
HETATM    7  C   UNL     1      -7.073   4.467 -31.209  1.00  0.00    -0.019 A 
HETATM    8  C   UNL     1      -6.722   4.841 -29.924  1.00  0.00     0.052 A 
HETATM    9  N   UNL     1      -6.275   3.726 -29.263  1.00  0.00    -0.356 N 
HETATM   10  H   UNL     1      -5.946   3.682 -28.305  1.00  0.00     0.166 HD
HETATM   11  C   UNL     1      -6.343   2.634 -30.102  1.00  0.00     0.043 A 
HETATM   12  C   UNL     1      -6.846   3.069 -31.330  1.00  0.00     0.002 A 
HETATM   13  C   UNL     1      -6.001   1.302 -29.861  1.00  0.00     0.033 A 
HETATM   14  C   UNL     1      -6.188   0.391 -30.904  1.00  0.00     0.039 A 
HETATM   15  C   UNL     1      -6.699   0.785 -32.141  1.00  0.00     0.070 A 
HETATM   16  C   UNL     1      -7.028   2.127 -32.367  1.00  0.00     0.051 A 
ENDROOT
BRANCH   1  17
HETATM   17  C   UNL     1      -5.750   6.622 -28.419  1.00  0.00    -0.021 A 
HETATM   18  C   UNL     1      -5.321   5.831 -27.345  1.00  0.00     0.012 A 
HETATM   19  C   UNL     1      -4.264   6.248 -26.526  1.00  0.00     0.038 A 
HETATM   20  C   UNL     1      -3.629   7.474 -26.743  1.00  0.00     0.076 A 
HETATM   21  C   UNL     1      -4.073   8.302 -27.787  1.00  0.00    -0.000 A 
HETATM   22  C   UNL     1      -5.115   7.856 -28.626  1.00  0.00     0.021 A 
BRANCH  20  23
HETATM   23  O   UNL     1      -2.581   7.949 -26.006  1.00  0.00    -0.355 OA
HETATM   24  C   UNL     1      -1.397   7.163 -25.942  1.00  0.00     0.210 C 
ENDBRANCH  20  23
BRANCH  21  25
HETATM   25  C   UNL     1      -3.463   9.667 -28.041  1.00  0.00     0.217 C 
BRANCH  25  26
HETATM   26  O   UNL     1      -2.108   9.462 -28.454  1.00  0.00    -0.347 OA
BRANCH  26  27
HETATM   27  C   UNL     1      -1.912   8.857 -29.662  1.00  0.00     0.069 A 
HETATM   28  C   UNL     1      -1.044   7.765 -29.636  1.00  0.00     0.039 A 
HETATM   29  C   UNL     1      -0.742   7.059 -30.806  1.00  0.00     0.032 A 
HETATM   30  C   UNL     1      -1.300   7.442 -32.025  1.00  0.00     0.034 A 
HETATM   31  C   UNL     1      -2.169   8.541 -32.048  1.00  0.00     0.032 A 
HETATM   32  C   UNL     1      -2.473   9.245 -30.876  1.00  0.00     0.039 A 
BRANCH  30  33
HETATM   33  N   UNL     1      -1.045   6.792 -33.251  1.00  0.00    -0.328 N 
HETATM   34  C   UNL     1      -1.617   5.621 -33.714  1.00  0.00     0.218 C 
HETATM   35  C   UNL     1      -1.106   5.210 -35.075  1.00  0.00     0.117 C 
HETATM   36  O   UNL     1      -2.452   4.934 -33.135  1.00  0.00    -0.274 OA
HETATM   37  H   UNL     1      -0.361   7.235 -33.851  1.00  0.00     0.169 HD
ENDBRANCH  30  33
ENDBRANCH  26  27
ENDBRANCH  25  26
ENDBRANCH  21  25
ENDBRANCH   1  17
BRANCH  15  38
HETATM   38  O   UNL     1      -6.824  -0.234 -33.047  1.00  0.00    -0.347 OA
BRANCH  38  39
HETATM   39  C   UNL     1      -5.723  -0.481 -33.917  1.00  0.00     0.214 C 
BRANCH  39  40
HETATM   40  C   UNL     1      -5.657  -1.963 -34.196  1.00  0.00    -0.034 A 
HETATM   41  C   UNL     1      -6.789  -2.665 -34.632  1.00  0.00     0.009 A 
HETATM   42  C   UNL     1      -6.714  -4.035 -34.892  1.00  0.00     0.001 A 
HETATM   43  C   UNL     1      -5.511  -4.716 -34.717  1.00  0.00     0.000 A 
HETATM   44  C   UNL     1      -4.381  -4.029 -34.277  1.00  0.00     0.001 A 
HETATM   45  C   UNL     1      -4.453  -2.661 -34.016  1.00  0.00     0.009 A 
ENDBRANCH  39  40
ENDBRANCH  38  39
ENDBRANCH  15  38
TORSDOF 9
ENDMDL
MODEL 6
REMARK VINA RESULT:      -8.6      2.794      4.335
REMARK  9 active torsions:
REMARK  status: ('A' for Active; 'I' for Inactive)
REMARK       I    between atoms: C_2  and  N_3 
REMARK    1  A    between atoms: N_3  and  C_4 
REMARK    2  A    between atoms: C_7  and  O_8 
REMARK    3  A    between atoms: O_8  and  C_9 
REMARK    4  A    between atoms: C_9  and  C_10 
REMARK    5  A    between atoms: C_11  and  O_12 
REMARK    6  A    between atoms: C_16  and  C_17 
REMARK    7  A    between atoms: C_31  and  O_32 
REMARK    8  A    between atoms: O_32  and  C_33 
REMARK    9  A    between atoms: C_33  and  C_34 
ROOT
HETATM    1  C   UNL     1      -3.430   6.732 -31.733  1.00  0.00     0.269 C 
HETATM    2  N   UNL     1      -2.078   6.796 -31.066  1.00  0.00    -0.061 N 
HETATM    3  H   UNL     1      -2.211   6.592 -30.070  1.00  0.00     0.278 HD
HETATM    4  H   UNL     1      -1.736   7.761 -31.126  1.00  0.00     0.278 HD
HETATM    5  C   UNL     1      -1.074   5.827 -31.640  1.00  0.00     0.238 C 
HETATM    6  C   UNL     1      -1.526   4.369 -31.426  1.00  0.00     0.069 C 
HETATM    7  C   UNL     1      -2.975   4.215 -31.748  1.00  0.00    -0.019 A 
HETATM    8  C   UNL     1      -3.825   5.302 -31.848  1.00  0.00     0.052 A 
HETATM    9  N   UNL     1      -5.080   4.835 -32.143  1.00  0.00    -0.356 N 
HETATM   10  H   UNL     1      -5.917   5.392 -32.277  1.00  0.00     0.166 HD
HETATM   11  C   UNL     1      -5.049   3.461 -32.243  1.00  0.00     0.043 A 
HETATM   12  C   UNL     1      -3.737   3.044 -32.006  1.00  0.00     0.002 A 
HETATM   13  C   UNL     1      -6.080   2.564 -32.530  1.00  0.00     0.033 A 
HETATM   14  C   UNL     1      -5.757   1.205 -32.582  1.00  0.00     0.039 A 
HETATM   15  C   UNL     1      -4.456   0.751 -32.363  1.00  0.00     0.070 A 
HETATM   16  C   UNL     1      -3.436   1.664 -32.067  1.00  0.00     0.051 A 
ENDROOT
BRANCH   1  17
HETATM   17  C   UNL     1      -4.434   7.609 -31.017  1.00  0.00    -0.021 A 
HETATM   18  C   UNL     1      -4.474   8.999 -31.187  1.00  0.00     0.012 A 
HETATM   19  C   UNL     1      -5.430   9.775 -30.520  1.00  0.00     0.038 A 
HETATM   20  C   UNL     1      -6.351   9.184 -29.649  1.00  0.00     0.076 A 
HETATM   21  C   UNL     1      -6.299   7.799 -29.431  1.00  0.00    -0.000 A 
HETATM   22  C   UNL     1      -5.355   7.024 -30.134  1.00  0.00     0.021 A 
BRANCH  20  23
HETATM   23  O   UNL     1      -7.327   9.862 -28.972  1.00  0.00    -0.355 OA
HETATM   24  C   UNL     1      -7.396  11.274 -29.133  1.00  0.00     0.210 C 
ENDBRANCH  20  23
BRANCH  21  25
HETATM   25  C   UNL     1      -7.234   7.105 -28.457  1.00  0.00     0.217 C 
BRANCH  25  26
HETATM   26  O   UNL     1      -8.498   6.951 -29.111  1.00  0.00    -0.347 OA
BRANCH  26  27
HETATM   27  C   UNL     1      -8.789   5.714 -29.613  1.00  0.00     0.069 A 
HETATM   28  C   UNL     1      -7.863   4.721 -29.297  1.00  0.00     0.039 A 
HETATM   29  C   UNL     1      -8.031   3.410 -29.757  1.00  0.00     0.032 A 
HETATM   30  C   UNL     1      -9.126   3.076 -30.551  1.00  0.00     0.034 A 
HETATM   31  C   UNL     1     -10.053   4.076 -30.869  1.00  0.00     0.032 A 
HETATM   32  C   UNL     1      -9.887   5.388 -30.405  1.00  0.00     0.039 A 
BRANCH  30  33
HETATM   33  N   UNL     1      -9.368   1.783 -31.063  1.00  0.00    -0.328 N 
HETATM   34  C   UNL     1      -9.521   1.421 -32.389  1.00  0.00     0.218 C 
HETATM   35  C   UNL     1      -9.771  -0.058 -32.574  1.00  0.00     0.117 C 
HETATM   36  O   UNL     1      -9.479   2.166 -33.362  1.00  0.00    -0.274 OA
HETATM   37  H   UNL     1      -9.440   1.043 -30.376  1.00  0.00     0.169 HD
ENDBRANCH  30  33
ENDBRANCH  26  27
ENDBRANCH  25  26
ENDBRANCH  21  25
ENDBRANCH   1  17
BRANCH  15  38
HETATM   38  O   UNL     1      -4.312  -0.607 -32.458  1.00  0.00    -0.347 OA
BRANCH  38  39
HETATM   39  C   UNL     1      -3.852  -1.135 -33.699  1.00  0.00     0.214 C 
BRANCH  39  40
HETATM   40  C   UNL     1      -4.728  -2.306 -34.074  1.00  0.00    -0.034 A 
HETATM   41  C   UNL     1      -6.095  -2.132 -34.326  1.00  0.00     0.009 A 
HETATM   42  C   UNL     1      -6.894  -3.222 -34.677  1.00  0.00     0.001 A 
HETATM   43  C   UNL     1      -6.335  -4.495 -34.777  1.00  0.00     0.000 A 
HETATM   44  C   UNL     1      -4.978  -4.681 -34.521  1.00  0.00     0.001 A 
HETATM   45  C   UNL     1      -4.178  -3.594 -34.170  1.00  0.00     0.009 A 
ENDBRANCH  39  40
ENDBRANCH  38  39
ENDBRANCH  15  38
TORSDOF 9
ENDMDL
MODEL 7
REMARK VINA RESULT:      -8.5      4.178      8.854
REMARK  9 active torsions:
REMARK  status: ('A' for Active; 'I' for Inactive)
REMARK       I    between atoms: C_2  and  N_3 
REMARK    1  A    between atoms: N_3  and  C_4 
REMARK    2  A    between atoms: C_7  and  O_8 
REMARK    3  A    between atoms: O_8  and  C_9 
REMARK    4  A    between atoms: C_9  and  C_10 
REMARK    5  A    between atoms: C_11  and  O_12 
REMARK    6  A    between atoms: C_16  and  C_17 
REMARK    7  A    between atoms: C_31  and  O_32 
REMARK    8  A    between atoms: O_32  and  C_33 
REMARK    9  A    between atoms: C_33  and  C_34 
ROOT
HETATM    1  C   UNL     1      -4.018   2.164 -31.177  1.00  0.00     0.269 C 
HETATM    2  N   UNL     1      -3.091   3.091 -31.924  1.00  0.00    -0.061 N 
HETATM    3  H   UNL     1      -3.302   3.005 -32.923  1.00  0.00     0.278 HD
HETATM    4  H   UNL     1      -2.130   2.754 -31.796  1.00  0.00     0.278 HD
HETATM    5  C   UNL     1      -3.220   4.537 -31.513  1.00  0.00     0.238 C 
HETATM    6  C   UNL     1      -4.626   5.080 -31.832  1.00  0.00     0.069 C 
HETATM    7  C   UNL     1      -5.674   4.097 -31.430  1.00  0.00    -0.019 A 
HETATM    8  C   UNL     1      -5.377   2.772 -31.171  1.00  0.00     0.052 A 
HETATM    9  N   UNL     1      -6.543   2.131 -30.839  1.00  0.00    -0.356 N 
HETATM   10  H   UNL     1      -6.648   1.152 -30.597  1.00  0.00     0.166 HD
HETATM   11  C   UNL     1      -7.588   3.030 -30.871  1.00  0.00     0.043 A 
HETATM   12  C   UNL     1      -7.070   4.275 -31.234  1.00  0.00     0.002 A 
HETATM   13  C   UNL     1      -8.943   2.831 -30.602  1.00  0.00     0.033 A 
HETATM   14  C   UNL     1      -9.789   3.939 -30.700  1.00  0.00     0.039 A 
HETATM   15  C   UNL     1      -9.307   5.202 -31.048  1.00  0.00     0.070 A 
HETATM   16  C   UNL     1      -7.946   5.380 -31.323  1.00  0.00     0.051 A 
ENDROOT
BRANCH   1  17
HETATM   17  C   UNL     1      -3.957   0.761 -31.738  1.00  0.00    -0.021 A 
HETATM   18  C   UNL     1      -2.971  -0.159 -31.355  1.00  0.00     0.012 A 
HETATM   19  C   UNL     1      -2.958  -1.455 -31.885  1.00  0.00     0.038 A 
HETATM   20  C   UNL     1      -3.910  -1.855 -32.827  1.00  0.00     0.076 A 
HETATM   21  C   UNL     1      -4.879  -0.935 -33.256  1.00  0.00    -0.000 A 
HETATM   22  C   UNL     1      -4.904   0.356 -32.691  1.00  0.00     0.021 A 
BRANCH  20  23
HETATM   23  O   UNL     1      -3.982  -3.103 -33.380  1.00  0.00    -0.355 OA
HETATM   24  C   UNL     1      -3.275  -4.160 -32.741  1.00  0.00     0.210 C 
ENDBRANCH  20  23
BRANCH  21  25
HETATM   25  C   UNL     1      -5.907  -1.289 -34.315  1.00  0.00     0.217 C 
BRANCH  25  26
HETATM   26  O   UNL     1      -7.167  -1.445 -33.656  1.00  0.00    -0.347 OA
BRANCH  26  27
HETATM   27  C   UNL     1      -8.061  -0.419 -33.776  1.00  0.00     0.069 A 
HETATM   28  C   UNL     1      -9.205  -0.544 -32.988  1.00  0.00     0.039 A 
HETATM   29  C   UNL     1     -10.211   0.429 -33.022  1.00  0.00     0.032 A 
HETATM   30  C   UNL     1     -10.091   1.539 -33.856  1.00  0.00     0.034 A 
HETATM   31  C   UNL     1      -8.942   1.660 -34.649  1.00  0.00     0.032 A 
HETATM   32  C   UNL     1      -7.933   0.688 -34.612  1.00  0.00     0.039 A 
BRANCH  30  33
HETATM   33  N   UNL     1     -11.058   2.561 -33.958  1.00  0.00    -0.328 N 
HETATM   34  C   UNL     1     -12.174   2.581 -34.775  1.00  0.00     0.218 C 
HETATM   35  C   UNL     1     -12.994   3.841 -34.627  1.00  0.00     0.117 C 
HETATM   36  O   UNL     1     -12.520   1.710 -35.566  1.00  0.00    -0.274 OA
HETATM   37  H   UNL     1     -10.910   3.369 -33.367  1.00  0.00     0.169 HD
ENDBRANCH  30  33
ENDBRANCH  26  27
ENDBRANCH  25  26
ENDBRANCH  21  25
ENDBRANCH   1  17
BRANCH  15  38
HETATM   38  O   UNL     1     -10.268   6.177 -31.091  1.00  0.00    -0.347 OA
BRANCH  38  39
HETATM   39  C   UNL     1      -9.970   7.363 -31.822  1.00  0.00     0.214 C 
BRANCH  39  40
HETATM   40  C   UNL     1     -10.651   7.281 -33.166  1.00  0.00    -0.034 A 
HETATM   41  C   UNL     1     -11.953   7.767 -33.346  1.00  0.00     0.009 A 
HETATM   42  C   UNL     1     -12.571   7.690 -34.596  1.00  0.00     0.001 A 
HETATM   43  C   UNL     1     -11.896   7.124 -35.675  1.00  0.00     0.000 A 
HETATM   44  C   UNL     1     -10.604   6.631 -35.507  1.00  0.00     0.001 A 
HETATM   45  C   UNL     1      -9.985   6.706 -34.259  1.00  0.00     0.009 A 
ENDBRANCH  39  40
ENDBRANCH  38  39
ENDBRANCH  15  38
TORSDOF 9
ENDMDL
MODEL 8
REMARK VINA RESULT:      -8.5      1.968      3.237
REMARK  9 active torsions:
REMARK  status: ('A' for Active; 'I' for Inactive)
REMARK       I    between atoms: C_2  and  N_3 
REMARK    1  A    between atoms: N_3  and  C_4 
REMARK    2  A    between atoms: C_7  and  O_8 
REMARK    3  A    between atoms: O_8  and  C_9 
REMARK    4  A    between atoms: C_9  and  C_10 
REMARK    5  A    between atoms: C_11  and  O_12 
REMARK    6  A    between atoms: C_16  and  C_17 
REMARK    7  A    between atoms: C_31  and  O_32 
REMARK    8  A    between atoms: O_32  and  C_33 
REMARK    9  A    between atoms: C_33  and  C_34 
ROOT
HETATM    1  C   UNL     1      -3.745   6.159 -31.438  1.00  0.00     0.269 C 
HETATM    2  N   UNL     1      -2.463   6.430 -32.185  1.00  0.00    -0.061 N 
HETATM    3  H   UNL     1      -1.683   6.218 -31.554  1.00  0.00     0.278 HD
HETATM    4  H   UNL     1      -2.415   7.435 -32.385  1.00  0.00     0.278 HD
HETATM    5  C   UNL     1      -2.314   5.616 -33.447  1.00  0.00     0.238 C 
HETATM    6  C   UNL     1      -2.249   4.110 -33.130  1.00  0.00     0.069 C 
HETATM    7  C   UNL     1      -3.286   3.738 -32.125  1.00  0.00    -0.019 A 
HETATM    8  C   UNL     1      -3.926   4.684 -31.346  1.00  0.00     0.052 A 
HETATM    9  N   UNL     1      -4.809   4.032 -30.523  1.00  0.00    -0.356 N 
HETATM   10  H   UNL     1      -5.422   4.456 -29.836  1.00  0.00     0.166 HD
HETATM   11  C   UNL     1      -4.753   2.677 -30.769  1.00  0.00     0.043 A 
HETATM   12  C   UNL     1      -3.808   2.463 -31.775  1.00  0.00     0.002 A 
HETATM   13  C   UNL     1      -5.469   1.633 -30.179  1.00  0.00     0.033 A 
HETATM   14  C   UNL     1      -5.216   0.338 -30.639  1.00  0.00     0.039 A 
HETATM   15  C   UNL     1      -4.289   0.086 -31.651  1.00  0.00     0.070 A 
HETATM   16  C   UNL     1      -3.573   1.144 -32.224  1.00  0.00     0.051 A 
ENDROOT
BRANCH   1  17
HETATM   17  C   UNL     1      -3.767   6.882 -30.109  1.00  0.00    -0.021 A 
HETATM   18  C   UNL     1      -2.615   7.058 -29.331  1.00  0.00     0.012 A 
HETATM   19  C   UNL     1      -2.673   7.748 -28.113  1.00  0.00     0.038 A 
HETATM   20  C   UNL     1      -3.884   8.255 -27.633  1.00  0.00     0.076 A 
HETATM   21  C   UNL     1      -5.057   8.051 -28.377  1.00  0.00    -0.000 A 
HETATM   22  C   UNL     1      -4.981   7.384 -29.617  1.00  0.00     0.021 A 
BRANCH  20  23
HETATM   23  O   UNL     1      -4.027   8.955 -26.468  1.00  0.00    -0.355 OA
HETATM   24  C   UNL     1      -3.220  10.111 -26.277  1.00  0.00     0.210 C 
ENDBRANCH  20  23
BRANCH  21  25
HETATM   25  C   UNL     1      -6.411   8.528 -27.885  1.00  0.00     0.217 C 
BRANCH  25  26
HETATM   26  O   UNL     1      -7.138   7.377 -27.445  1.00  0.00    -0.347 OA
BRANCH  26  27
HETATM   27  C   UNL     1      -7.782   6.646 -28.403  1.00  0.00     0.069 A 
HETATM   28  C   UNL     1      -8.725   7.356 -29.145  1.00  0.00     0.039 A 
HETATM   29  C   UNL     1      -9.469   6.727 -30.150  1.00  0.00     0.032 A 
HETATM   30  C   UNL     1      -9.285   5.373 -30.422  1.00  0.00     0.034 A 
HETATM   31  C   UNL     1      -8.339   4.662 -29.673  1.00  0.00     0.032 A 
HETATM   32  C   UNL     1      -7.592   5.292 -28.668  1.00  0.00     0.039 A 
BRANCH  30  33
HETATM   33  N   UNL     1      -9.995   4.661 -31.411  1.00  0.00    -0.328 N 
HETATM   34  C   UNL     1     -11.289   4.177 -31.331  1.00  0.00     0.218 C 
HETATM   35  C   UNL     1     -11.731   3.456 -32.583  1.00  0.00     0.117 C 
HETATM   36  O   UNL     1     -12.052   4.279 -30.376  1.00  0.00    -0.274 OA
HETATM   37  H   UNL     1      -9.494   4.483 -32.272  1.00  0.00     0.169 HD
ENDBRANCH  30  33
ENDBRANCH  26  27
ENDBRANCH  25  26
ENDBRANCH  21  25
ENDBRANCH   1  17
BRANCH  15  38
HETATM   38  O   UNL     1      -4.169  -1.236 -31.985  1.00  0.00    -0.347 OA
BRANCH  38  39
HETATM   39  C   UNL     1      -3.715  -1.545 -33.301  1.00  0.00     0.214 C 
BRANCH  39  40
HETATM   40  C   UNL     1      -4.612  -2.613 -33.877  1.00  0.00    -0.034 A 
HETATM   41  C   UNL     1      -4.168  -3.936 -34.006  1.00  0.00     0.009 A 
HETATM   42  C   UNL     1      -5.009  -4.916 -34.536  1.00  0.00     0.001 A 
HETATM   43  C   UNL     1      -6.299  -4.584 -34.945  1.00  0.00     0.000 A 
HETATM   44  C   UNL     1      -6.749  -3.270 -34.829  1.00  0.00     0.001 A 
HETATM   45  C   UNL     1      -5.910  -2.289 -34.300  1.00  0.00     0.009 A 
ENDBRANCH  39  40
ENDBRANCH  38  39
ENDBRANCH  15  38
TORSDOF 9
ENDMDL
MODEL 9
REMARK VINA RESULT:      -8.3      3.927      6.171
REMARK  9 active torsions:
REMARK  status: ('A' for Active; 'I' for Inactive)
REMARK       I    between atoms: C_2  and  N_3 
REMARK    1  A    between atoms: N_3  and  C_4 
REMARK    2  A    between atoms: C_7  and  O_8 
REMARK    3  A    between atoms: O_8  and  C_9 
REMARK    4  A    between atoms: C_9  and  C_10 
REMARK    5  A    between atoms: C_11  and  O_12 
REMARK    6  A    between atoms: C_16  and  C_17 
REMARK    7  A    between atoms: C_31  and  O_32 
REMARK    8  A    between atoms: O_32  and  C_33 
REMARK    9  A    between atoms: C_33  and  C_34 
ROOT
HETATM    1  C   UNL     1      -4.242   1.888 -32.371  1.00  0.00     0.269 C 
HETATM    2  N   UNL     1      -3.958   0.989 -31.193  1.00  0.00    -0.061 N 
HETATM    3  H   UNL     1      -4.287   1.468 -30.348  1.00  0.00     0.278 HD
HETATM    4  H   UNL     1      -2.940   0.895 -31.100  1.00  0.00     0.278 HD
HETATM    5  C   UNL     1      -4.624  -0.361 -31.287  1.00  0.00     0.238 C 
HETATM    6  C   UNL     1      -6.158  -0.224 -31.288  1.00  0.00     0.069 C 
HETATM    7  C   UNL     1      -6.587   0.880 -32.195  1.00  0.00    -0.019 A 
HETATM    8  C   UNL     1      -5.705   1.845 -32.645  1.00  0.00     0.052 A 
HETATM    9  N   UNL     1      -6.399   2.716 -33.446  1.00  0.00    -0.356 N 
HETATM   10  H   UNL     1      -6.024   3.530 -33.922  1.00  0.00     0.166 HD
HETATM   11  C   UNL     1      -7.716   2.319 -33.526  1.00  0.00     0.043 A 
HETATM   12  C   UNL     1      -7.862   1.164 -32.754  1.00  0.00     0.002 A 
HETATM   13  C   UNL     1      -8.779   2.893 -34.225  1.00  0.00     0.033 A 
HETATM   14  C   UNL     1     -10.024   2.262 -34.137  1.00  0.00     0.039 A 
HETATM   15  C   UNL     1     -10.207   1.101 -33.386  1.00  0.00     0.070 A 
HETATM   16  C   UNL     1      -9.130   0.544 -32.684  1.00  0.00     0.051 A 
ENDROOT
BRANCH   1  17
HETATM   17  C   UNL     1      -3.682   3.275 -32.149  1.00  0.00    -0.021 A 
HETATM   18  C   UNL     1      -2.563   3.753 -32.843  1.00  0.00     0.012 A 
HETATM   19  C   UNL     1      -2.083   5.050 -32.621  1.00  0.00     0.038 A 
HETATM   20  C   UNL     1      -2.693   5.890 -31.684  1.00  0.00     0.076 A 
HETATM   21  C   UNL     1      -3.788   5.414 -30.946  1.00  0.00    -0.000 A 
HETATM   22  C   UNL     1      -4.283   4.119 -31.202  1.00  0.00     0.021 A 
BRANCH  20  23
HETATM   23  O   UNL     1      -2.303   7.173 -31.419  1.00  0.00    -0.355 OA
HETATM   24  C   UNL     1      -1.913   7.994 -32.513  1.00  0.00     0.210 C 
ENDBRANCH  20  23
BRANCH  21  25
HETATM   25  C   UNL     1      -4.460   6.254 -29.877  1.00  0.00     0.217 C 
BRANCH  25  26
HETATM   26  O   UNL     1      -5.497   7.009 -30.511  1.00  0.00    -0.347 OA
BRANCH  26  27
HETATM   27  C   UNL     1      -6.632   7.236 -29.785  1.00  0.00     0.069 A 
HETATM   28  C   UNL     1      -7.050   6.160 -29.002  1.00  0.00     0.039 A 
HETATM   29  C   UNL     1      -8.206   6.250 -28.217  1.00  0.00     0.032 A 
HETATM   30  C   UNL     1      -8.967   7.418 -28.212  1.00  0.00     0.034 A 
HETATM   31  C   UNL     1      -8.545   8.495 -29.003  1.00  0.00     0.032 A 
HETATM   32  C   UNL     1      -7.386   8.406 -29.786  1.00  0.00     0.039 A 
BRANCH  30  33
HETATM   33  N   UNL     1     -10.146   7.591 -27.458  1.00  0.00    -0.328 N 
HETATM   34  C   UNL     1     -10.281   8.254 -26.252  1.00  0.00     0.218 C 
HETATM   35  C   UNL     1     -11.696   8.242 -25.723  1.00  0.00     0.117 C 
HETATM   36  O   UNL     1      -9.390   8.812 -25.618  1.00  0.00    -0.274 OA
HETATM   37  H   UNL     1     -10.983   7.175 -27.846  1.00  0.00     0.169 HD
ENDBRANCH  30  33
ENDBRANCH  26  27
ENDBRANCH  25  26
ENDBRANCH  21  25
ENDBRANCH   1  17
BRANCH  15  38
HETATM   38  O   UNL     1     -11.484   0.610 -33.413  1.00  0.00    -0.347 OA
BRANCH  38  39
HETATM   39  C   UNL     1     -12.409   1.229 -34.304  1.00  0.00     0.214 C 
BRANCH  39  40
HETATM   40  C   UNL     1     -13.528   1.832 -33.490  1.00  0.00    -0.034 A 
HETATM   41  C   UNL     1     -13.312   2.967 -32.697  1.00  0.00     0.009 A 
HETATM   42  C   UNL     1     -14.356   3.518 -31.953  1.00  0.00     0.001 A 
HETATM   43  C   UNL     1     -15.623   2.940 -31.990  1.00  0.00     0.000 A 
HETATM   44  C   UNL     1     -15.848   1.807 -32.770  1.00  0.00     0.001 A 
HETATM   45  C   UNL     1     -14.806   1.254 -33.514  1.00  0.00     0.009 A 
ENDBRANCH  39  40
ENDBRANCH  38  39
ENDBRANCH  15  38
TORSDOF 9
ENDMDL
MODEL 10
REMARK VINA RESULT:      -8.1     19.441     21.923
REMARK  9 active torsions:
REMARK  status: ('A' for Active; 'I' for Inactive)
REMARK       I    between atoms: C_2  and  N_3 
REMARK    1  A    between atoms: N_3  and  C_4 
REMARK    2  A    between atoms: C_7  and  O_8 
REMARK    3  A    between atoms: O_8  and  C_9 
REMARK    4  A    between atoms: C_9  and  C_10 
REMARK    5  A    between atoms: C_11  and  O_12 
REMARK    6  A    between atoms: C_16  and  C_17 
REMARK    7  A    between atoms: C_31  and  O_32 
REMARK    8  A    between atoms: O_32  and  C_33 
REMARK    9  A    between atoms: C_33  and  C_34 
ROOT
HETATM    1  C   UNL     1      -2.466 -15.160 -42.396  1.00  0.00     0.269 C 
HETATM    2  N   UNL     1      -2.926 -16.145 -43.442  1.00  0.00    -0.061 N 
HETATM    3  H   UNL     1      -3.323 -16.955 -42.955  1.00  0.00     0.278 HD
HETATM    4  H   UNL     1      -2.100 -16.482 -43.949  1.00  0.00     0.278 HD
HETATM    5  C   UNL     1      -3.956 -15.584 -44.391  1.00  0.00     0.238 C 
HETATM    6  C   UNL     1      -5.249 -15.205 -43.643  1.00  0.00     0.069 C 
HETATM    7  C   UNL     1      -4.932 -14.481 -42.378  1.00  0.00    -0.019 A 
HETATM    8  C   UNL     1      -3.669 -14.504 -41.815  1.00  0.00     0.052 A 
HETATM    9  N   UNL     1      -3.702 -13.758 -40.665  1.00  0.00    -0.356 N 
HETATM   10  H   UNL     1      -2.929 -13.588 -40.031  1.00  0.00     0.166 HD
HETATM   11  C   UNL     1      -4.969 -13.245 -40.484  1.00  0.00     0.043 A 
HETATM   12  C   UNL     1      -5.762 -13.678 -41.549  1.00  0.00     0.002 A 
HETATM   13  C   UNL     1      -5.464 -12.432 -39.463  1.00  0.00     0.033 A 
HETATM   14  C   UNL     1      -6.805 -12.045 -39.540  1.00  0.00     0.039 A 
HETATM   15  C   UNL     1      -7.625 -12.448 -40.595  1.00  0.00     0.070 A 
HETATM   16  C   UNL     1      -7.114 -13.271 -41.605  1.00  0.00     0.051 A 
ENDROOT
BRANCH   1  17
HETATM   17  C   UNL     1      -1.557 -15.821 -41.384  1.00  0.00    -0.021 A 
HETATM   18  C   UNL     1      -1.450 -17.213 -41.266  1.00  0.00     0.012 A 
HETATM   19  C   UNL     1      -0.584 -17.788 -40.328  1.00  0.00     0.038 A 
HETATM   20  C   UNL     1       0.175 -16.988 -39.469  1.00  0.00     0.076 A 
HETATM   21  C   UNL     1       0.050 -15.592 -39.540  1.00  0.00    -0.000 A 
HETATM   22  C   UNL     1      -0.799 -15.024 -40.512  1.00  0.00     0.021 A 
BRANCH  20  23
HETATM   23  O   UNL     1       1.057 -17.464 -38.538  1.00  0.00    -0.355 OA
HETATM   24  C   UNL     1       2.099 -18.325 -38.982  1.00  0.00     0.210 C 
ENDBRANCH  20  23
BRANCH  21  25
HETATM   25  C   UNL     1       0.804 -14.670 -38.601  1.00  0.00     0.217 C 
BRANCH  25  26
HETATM   26  O   UNL     1      -0.040 -13.546 -38.332  1.00  0.00    -0.347 OA
BRANCH  26  27
HETATM   27  C   UNL     1      -1.093 -13.749 -37.486  1.00  0.00     0.069 A 
HETATM   28  C   UNL     1      -2.160 -12.868 -37.658  1.00  0.00     0.039 A 
HETATM   29  C   UNL     1      -3.299 -12.953 -36.849  1.00  0.00     0.032 A 
HETATM   30  C   UNL     1      -3.382 -13.919 -35.847  1.00  0.00     0.034 A 
HETATM   31  C   UNL     1      -2.308 -14.800 -35.675  1.00  0.00     0.032 A 
HETATM   32  C   UNL     1      -1.169 -14.717 -36.488  1.00  0.00     0.039 A 
BRANCH  30  33
HETATM   33  N   UNL     1      -4.489 -14.070 -34.984  1.00  0.00    -0.328 N 
HETATM   34  C   UNL     1      -5.819 -14.201 -35.340  1.00  0.00     0.218 C 
HETATM   35  C   UNL     1      -6.739 -14.341 -34.151  1.00  0.00     0.117 C 
HETATM   36  O   UNL     1      -6.276 -14.205 -36.479  1.00  0.00    -0.274 OA
HETATM   37  H   UNL     1      -4.278 -14.077 -33.995  1.00  0.00     0.169 HD
ENDBRANCH  30  33
ENDBRANCH  26  27
ENDBRANCH  25  26
ENDBRANCH  21  25
ENDBRANCH   1  17
BRANCH  15  38
HETATM   38  O   UNL     1      -8.908 -11.975 -40.520  1.00  0.00    -0.347 OA
BRANCH  38  39
HETATM   39  C   UNL     1      -9.761 -12.538 -39.526  1.00  0.00     0.214 C 
BRANCH  39  40
HETATM   40  C   UNL     1     -10.035 -13.977 -39.891  1.00  0.00    -0.034 A 
HETATM   41  C   UNL     1     -10.868 -14.301 -40.970  1.00  0.00     0.009 A 
HETATM   42  C   UNL     1     -11.109 -15.636 -41.301  1.00  0.00     0.001 A 
HETATM   43  C   UNL     1     -10.525 -16.658 -40.555  1.00  0.00     0.000 A 
HETATM   44  C   UNL     1      -9.702 -16.347 -39.475  1.00  0.00     0.001 A 
HETATM   45  C   UNL     1      -9.459 -15.014 -39.142  1.00  0.00     0.009 A 
ENDBRANCH  39  40
ENDBRANCH  38  39
ENDBRANCH  15  38
TORSDOF 9
ENDMDL
