MODEL 1
REMARK VINA RESULT:      -8.6      0.000      0.000
REMARK  6 active torsions:
REMARK  status: ('A' for Active; 'I' for Inactive)
REMARK    1  A    between atoms: C_2  and  N_3 
REMARK       I    between atoms: N_3  and  C_4 
REMARK    2  A    between atoms: C_4  and  C_5 
REMARK    3  A    between atoms: C_7  and  N_8 
REMARK       I    between atoms: N_8  and  C_9 
REMARK    4  A    between atoms: C_9  and  C_10 
REMARK    5  A    between atoms: C_10  and  C_11 
REMARK    6  A    between atoms: C_15  and  O_16 
ROOT
HETATM    1  N   UNL     1      -4.028   2.859 -31.684  1.00  0.00    -0.327 N 
HETATM    2  C   UNL     1      -3.871   1.598 -31.131  1.00  0.00     0.226 C 
HETATM    3  O   UNL     1      -2.810   0.985 -31.025  1.00  0.00    -0.273 OA
HETATM    4  H   UNL     1      -4.976   3.180 -31.839  1.00  0.00     0.169 HD
ENDROOT
BRANCH   1   5
HETATM    5  C   UNL     1      -2.999   3.747 -32.065  1.00  0.00     0.035 A 
HETATM    6  C   UNL     1      -2.111   4.328 -31.154  1.00  0.00     0.046 A 
HETATM    7  C   UNL     1      -1.113   5.212 -31.587  1.00  0.00     0.034 A 
HETATM    8  C   UNL     1      -1.023   5.530 -32.948  1.00  0.00     0.017 A 
HETATM    9  C   UNL     1      -1.915   4.968 -33.861  1.00  0.00     0.003 A 
HETATM   10  C   UNL     1      -2.901   4.084 -33.420  1.00  0.00     0.029 A 
BRANCH   7  11
HETATM   11  C   UNL     1      -0.165   5.874 -30.641  1.00  0.00     0.251 C 
HETATM   12  N   UNL     1      -0.218   5.481 -29.318  1.00  0.00    -0.357 N 
HETATM   13  H   UNL     1      -0.755   4.668 -29.052  1.00  0.00     0.162 HD
HETATM   14  O   UNL     1       0.622   6.719 -31.056  1.00  0.00    -0.268 OA
BRANCH  12  15
HETATM   15  C   UNL     1       0.666   6.044 -28.318  1.00  0.00     0.118 C 
HETATM   16  C   UNL     1      -0.091   6.428 -27.061  1.00  0.00     0.026 C 
ENDBRANCH  12  15
ENDBRANCH   7  11
ENDBRANCH   1   5
BRANCH   2  17
HETATM   17  C   UNL     1      -5.173   0.981 -30.649  1.00  0.00     0.144 C 
BRANCH  17  18
HETATM   18  C   UNL     1      -5.969   0.367 -31.754  1.00  0.00    -0.014 A 
HETATM   19  C   UNL     1      -5.584  -0.673 -32.662  1.00  0.00     0.006 A 
HETATM   20  C   UNL     1      -6.679  -0.885 -33.491  1.00  0.00     0.088 A 
HETATM   21  C   UNL     1      -4.438  -1.462 -32.874  1.00  0.00     0.017 A 
HETATM   22  C   UNL     1      -6.722  -1.835 -34.506  1.00  0.00     0.074 A 
HETATM   23  O   UNL     1      -7.690  -0.037 -33.161  1.00  0.00    -0.321 OA
HETATM   24  C   UNL     1      -5.585  -2.632 -34.684  1.00  0.00     0.070 A 
HETATM   25  C   UNL     1      -4.456  -2.440 -33.883  1.00  0.00     0.038 A 
HETATM   26  C   UNL     1      -7.255   0.717 -32.123  1.00  0.00     0.151 A 
BRANCH  24  27
HETATM   27  O   UNL     1      -5.698  -3.561 -35.686  1.00  0.00    -0.356 OA
HETATM   28  C   UNL     1      -6.426  -4.745 -35.384  1.00  0.00     0.210 C 
ENDBRANCH  24  27
ENDBRANCH  17  18
ENDBRANCH   2  17
TORSDOF 6
ENDMDL
MODEL 2
REMARK VINA RESULT:      -8.2      2.099      2.591
REMARK  6 active torsions:
REMARK  status: ('A' for Active; 'I' for Inactive)
REMARK    1  A    between atoms: C_2  and  N_3 
REMARK       I    between atoms: N_3  and  C_4 
REMARK    2  A    between atoms: C_4  and  C_5 
REMARK    3  A    between atoms: C_7  and  N_8 
REMARK       I    between atoms: N_8  and  C_9 
REMARK    4  A    between atoms: C_9  and  C_10 
REMARK    5  A    between atoms: C_10  and  C_11 
REMARK    6  A    between atoms: C_15  and  O_16 
ROOT
HETATM    1  N   UNL     1      -3.334   3.223 -31.222  1.00  0.00    -0.327 N 
HETATM    2  C   UNL     1      -4.622   2.734 -31.383  1.00  0.00     0.226 C 
HETATM    3  O   UNL     1      -5.520   3.273 -32.027  1.00  0.00    -0.273 OA
HETATM    4  H   UNL     1      -2.744   2.752 -30.547  1.00  0.00     0.169 HD
ENDROOT
BRANCH   1   5
HETATM    5  C   UNL     1      -2.759   4.321 -31.896  1.00  0.00     0.035 A 
HETATM    6  C   UNL     1      -2.667   5.600 -31.338  1.00  0.00     0.046 A 
HETATM    7  C   UNL     1      -2.094   6.659 -32.056  1.00  0.00     0.034 A 
HETATM    8  C   UNL     1      -1.630   6.431 -33.358  1.00  0.00     0.017 A 
HETATM    9  C   UNL     1      -1.734   5.162 -33.928  1.00  0.00     0.003 A 
HETATM   10  C   UNL     1      -2.300   4.114 -33.201  1.00  0.00     0.029 A 
BRANCH   7  11
HETATM   11  C   UNL     1      -2.003   8.044 -31.505  1.00  0.00     0.251 C 
HETATM   12  N   UNL     1      -2.102   8.185 -30.135  1.00  0.00    -0.357 N 
HETATM   13  H   UNL     1      -2.067   7.371 -29.538  1.00  0.00     0.162 HD
HETATM   14  O   UNL     1      -1.838   8.994 -32.264  1.00  0.00    -0.268 OA
BRANCH  12  15
HETATM   15  C   UNL     1      -2.012   9.480 -29.492  1.00  0.00     0.118 C 
HETATM   16  C   UNL     1      -3.304   9.839 -28.783  1.00  0.00     0.026 C 
ENDBRANCH  12  15
ENDBRANCH   7  11
ENDBRANCH   1   5
BRANCH   2  17
HETATM   17  C   UNL     1      -4.867   1.421 -30.659  1.00  0.00     0.144 C 
BRANCH  17  18
HETATM   18  C   UNL     1      -4.342   0.239 -31.405  1.00  0.00    -0.014 A 
HETATM   19  C   UNL     1      -4.990  -0.537 -32.420  1.00  0.00     0.006 A 
HETATM   20  C   UNL     1      -4.079  -1.517 -32.795  1.00  0.00     0.088 A 
HETATM   21  C   UNL     1      -6.239  -0.520 -33.068  1.00  0.00     0.017 A 
HETATM   22  C   UNL     1      -4.316  -2.473 -33.779  1.00  0.00     0.074 A 
HETATM   23  O   UNL     1      -2.936  -1.401 -32.068  1.00  0.00    -0.321 OA
HETATM   24  C   UNL     1      -5.551  -2.423 -34.434  1.00  0.00     0.070 A 
HETATM   25  C   UNL     1      -6.502  -1.463 -34.076  1.00  0.00     0.038 A 
HETATM   26  C   UNL     1      -3.103  -0.349 -31.230  1.00  0.00     0.151 A 
BRANCH  24  27
HETATM   27  O   UNL     1      -5.714  -3.377 -35.404  1.00  0.00    -0.356 OA
HETATM   28  C   UNL     1      -6.443  -4.544 -35.042  1.00  0.00     0.210 C 
ENDBRANCH  24  27
ENDBRANCH  17  18
ENDBRANCH   2  17
TORSDOF 6
ENDMDL
MODEL 3
REMARK VINA RESULT:      -8.0      1.645      1.909
REMARK  6 active torsions:
REMARK  status: ('A' for Active; 'I' for Inactive)
REMARK    1  A    between atoms: C_2  and  N_3 
REMARK       I    between atoms: N_3  and  C_4 
REMARK    2  A    between atoms: C_4  and  C_5 
REMARK    3  A    between atoms: C_7  and  N_8 
REMARK       I    between atoms: N_8  and  C_9 
REMARK    4  A    between atoms: C_9  and  C_10 
REMARK    5  A    between atoms: C_10  and  C_11 
REMARK    6  A    between atoms: C_15  and  O_16 
ROOT
HETATM    1  N   UNL     1      -4.400   3.446 -33.033  1.00  0.00    -0.327 N 
HETATM    2  C   UNL     1      -5.220   3.136 -31.958  1.00  0.00     0.226 C 
HETATM    3  O   UNL     1      -4.997   3.412 -30.781  1.00  0.00    -0.273 OA
HETATM    4  H   UNL     1      -4.636   3.031 -33.926  1.00  0.00     0.169 HD
ENDROOT
BRANCH   1   5
HETATM    5  C   UNL     1      -3.260   4.276 -33.011  1.00  0.00     0.035 A 
HETATM    6  C   UNL     1      -2.318   4.258 -31.978  1.00  0.00     0.046 A 
HETATM    7  C   UNL     1      -1.207   5.112 -32.002  1.00  0.00     0.034 A 
HETATM    8  C   UNL     1      -1.056   6.009 -33.067  1.00  0.00     0.017 A 
HETATM    9  C   UNL     1      -2.000   6.046 -34.093  1.00  0.00     0.003 A 
HETATM   10  C   UNL     1      -3.099   5.186 -34.062  1.00  0.00     0.029 A 
BRANCH   7  11
HETATM   11  C   UNL     1      -0.195   5.141 -30.903  1.00  0.00     0.251 C 
HETATM   12  N   UNL     1      -0.557   5.772 -29.730  1.00  0.00    -0.357 N 
HETATM   13  H   UNL     1      -1.518   6.046 -29.577  1.00  0.00     0.162 HD
HETATM   14  O   UNL     1       0.898   4.609 -31.065  1.00  0.00    -0.268 OA
BRANCH  12  15
HETATM   15  C   UNL     1       0.339   5.845 -28.594  1.00  0.00     0.118 C 
HETATM   16  C   UNL     1       0.724   7.279 -28.283  1.00  0.00     0.026 C 
ENDBRANCH  12  15
ENDBRANCH   7  11
ENDBRANCH   1   5
BRANCH   2  17
HETATM   17  C   UNL     1      -6.477   2.379 -32.353  1.00  0.00     0.144 C 
BRANCH  17  18
HETATM   18  C   UNL     1      -6.188   1.149 -33.148  1.00  0.00    -0.014 A 
HETATM   19  C   UNL     1      -5.328   0.051 -32.817  1.00  0.00     0.006 A 
HETATM   20  C   UNL     1      -5.411  -0.838 -33.882  1.00  0.00     0.088 A 
HETATM   21  C   UNL     1      -4.495  -0.295 -31.737  1.00  0.00     0.017 A 
HETATM   22  C   UNL     1      -4.735  -2.053 -33.944  1.00  0.00     0.074 A 
HETATM   23  O   UNL     1      -6.243  -0.349 -34.840  1.00  0.00    -0.321 OA
HETATM   24  C   UNL     1      -3.934  -2.395 -32.848  1.00  0.00     0.070 A 
HETATM   25  C   UNL     1      -3.810  -1.522 -31.764  1.00  0.00     0.038 A 
HETATM   26  C   UNL     1      -6.701   0.848 -34.397  1.00  0.00     0.151 A 
BRANCH  24  27
HETATM   27  O   UNL     1      -3.312  -3.611 -32.962  1.00  0.00    -0.356 OA
HETATM   28  C   UNL     1      -3.832  -4.510 -33.934  1.00  0.00     0.210 C 
ENDBRANCH  24  27
ENDBRANCH  17  18
ENDBRANCH   2  17
TORSDOF 6
ENDMDL
MODEL 4
REMARK VINA RESULT:      -7.9      1.750      2.184
REMARK  6 active torsions:
REMARK  status: ('A' for Active; 'I' for Inactive)
REMARK    1  A    between atoms: C_2  and  N_3 
REMARK       I    between atoms: N_3  and  C_4 
REMARK    2  A    between atoms: C_4  and  C_5 
REMARK    3  A    between atoms: C_7  and  N_8 
REMARK       I    between atoms: N_8  and  C_9 
REMARK    4  A    between atoms: C_9  and  C_10 
REMARK    5  A    between atoms: C_10  and  C_11 
REMARK    6  A    between atoms: C_15  and  O_16 
ROOT
HETATM    1  N   UNL     1      -4.659   3.881 -32.893  1.00  0.00    -0.327 N 
HETATM    2  C   UNL     1      -5.755   4.295 -32.152  1.00  0.00     0.226 C 
HETATM    3  O   UNL     1      -5.755   5.189 -31.307  1.00  0.00    -0.273 OA
HETATM    4  H   UNL     1      -4.768   3.039 -33.445  1.00  0.00     0.169 HD
ENDROOT
BRANCH   1   5
HETATM    5  C   UNL     1      -3.395   4.506 -32.953  1.00  0.00     0.035 A 
HETATM    6  C   UNL     1      -2.482   4.492 -31.894  1.00  0.00     0.046 A 
HETATM    7  C   UNL     1      -1.244   5.139 -32.003  1.00  0.00     0.034 A 
HETATM    8  C   UNL     1      -0.932   5.826 -33.184  1.00  0.00     0.017 A 
HETATM    9  C   UNL     1      -1.845   5.860 -34.238  1.00  0.00     0.003 A 
HETATM   10  C   UNL     1      -3.072   5.206 -34.120  1.00  0.00     0.029 A 
BRANCH   7  11
HETATM   11  C   UNL     1      -0.255   5.170 -30.884  1.00  0.00     0.251 C 
HETATM   12  N   UNL     1      -0.626   5.836 -29.733  1.00  0.00    -0.357 N 
HETATM   13  H   UNL     1      -1.583   6.135 -29.607  1.00  0.00     0.162 HD
HETATM   14  O   UNL     1       0.829   4.608 -31.011  1.00  0.00    -0.268 OA
BRANCH  12  15
HETATM   15  C   UNL     1       0.248   5.914 -28.580  1.00  0.00     0.118 C 
HETATM   16  C   UNL     1       0.748   7.328 -28.358  1.00  0.00     0.026 C 
ENDBRANCH  12  15
ENDBRANCH   7  11
ENDBRANCH   1   5
BRANCH   2  17
HETATM   17  C   UNL     1      -7.024   3.519 -32.460  1.00  0.00     0.144 C 
BRANCH  17  18
HETATM   18  C   UNL     1      -6.863   2.046 -32.279  1.00  0.00    -0.014 A 
HETATM   19  C   UNL     1      -6.891   1.014 -33.273  1.00  0.00     0.006 A 
HETATM   20  C   UNL     1      -6.688  -0.181 -32.594  1.00  0.00     0.088 A 
HETATM   21  C   UNL     1      -7.060   0.955 -34.669  1.00  0.00     0.017 A 
HETATM   22  C   UNL     1      -6.626  -1.430 -33.205  1.00  0.00     0.074 A 
HETATM   23  O   UNL     1      -6.557   0.052 -31.261  1.00  0.00    -0.321 OA
HETATM   24  C   UNL     1      -6.765  -1.467 -34.597  1.00  0.00     0.070 A 
HETATM   25  C   UNL     1      -6.988  -0.290 -35.317  1.00  0.00     0.038 A 
HETATM   26  C   UNL     1      -6.671   1.390 -31.077  1.00  0.00     0.151 A 
BRANCH  24  27
HETATM   27  O   UNL     1      -6.675  -2.723 -35.139  1.00  0.00    -0.356 OA
HETATM   28  C   UNL     1      -5.449  -3.419 -34.947  1.00  0.00     0.210 C 
ENDBRANCH  24  27
ENDBRANCH  17  18
ENDBRANCH   2  17
TORSDOF 6
ENDMDL
MODEL 5
REMARK VINA RESULT:      -7.5      4.461      7.685
REMARK  6 active torsions:
REMARK  status: ('A' for Active; 'I' for Inactive)
REMARK    1  A    between atoms: C_2  and  N_3 
REMARK       I    between atoms: N_3  and  C_4 
REMARK    2  A    between atoms: C_4  and  C_5 
REMARK    3  A    between atoms: C_7  and  N_8 
REMARK       I    between atoms: N_8  and  C_9 
REMARK    4  A    between atoms: C_9  and  C_10 
REMARK    5  A    between atoms: C_10  and  C_11 
REMARK    6  A    between atoms: C_15  and  O_16 
ROOT
HETATM    1  N   UNL     1      -7.747   2.108 -30.341  1.00  0.00    -0.327 N 
HETATM    2  C   UNL     1      -6.436   2.106 -30.794  1.00  0.00     0.226 C 
HETATM    3  O   UNL     1      -5.980   2.825 -31.681  1.00  0.00    -0.273 OA
HETATM    4  H   UNL     1      -8.018   1.365 -29.710  1.00  0.00     0.169 HD
ENDROOT
BRANCH   1   5
HETATM    5  C   UNL     1      -8.753   3.038 -30.678  1.00  0.00     0.035 A 
HETATM    6  C   UNL     1      -9.803   2.748 -31.555  1.00  0.00     0.046 A 
HETATM    7  C   UNL     1     -10.771   3.715 -31.863  1.00  0.00     0.034 A 
HETATM    8  C   UNL     1     -10.667   4.992 -31.297  1.00  0.00     0.017 A 
HETATM    9  C   UNL     1      -9.614   5.295 -30.435  1.00  0.00     0.003 A 
HETATM   10  C   UNL     1      -8.659   4.323 -30.130  1.00  0.00     0.029 A 
BRANCH   7  11
HETATM   11  C   UNL     1     -11.890   3.451 -32.817  1.00  0.00     0.251 C 
HETATM   12  N   UNL     1     -12.746   2.412 -32.512  1.00  0.00    -0.357 N 
HETATM   13  H   UNL     1     -12.706   1.972 -31.603  1.00  0.00     0.162 HD
HETATM   14  O   UNL     1     -12.020   4.154 -33.814  1.00  0.00    -0.268 OA
BRANCH  12  15
HETATM   15  C   UNL     1     -13.874   2.078 -33.358  1.00  0.00     0.118 C 
HETATM   16  C   UNL     1     -15.152   1.946 -32.552  1.00  0.00     0.026 C 
ENDBRANCH  12  15
ENDBRANCH   7  11
ENDBRANCH   1   5
BRANCH   2  17
HETATM   17  C   UNL     1      -5.554   1.088 -30.090  1.00  0.00     0.144 C 
BRANCH  17  18
HETATM   18  C   UNL     1      -4.823   0.198 -31.039  1.00  0.00    -0.014 A 
HETATM   19  C   UNL     1      -5.352  -0.593 -32.112  1.00  0.00     0.006 A 
HETATM   20  C   UNL     1      -4.263  -1.232 -32.692  1.00  0.00     0.088 A 
HETATM   21  C   UNL     1      -6.625  -0.836 -32.660  1.00  0.00     0.017 A 
HETATM   22  C   UNL     1      -4.348  -2.086 -33.788  1.00  0.00     0.074 A 
HETATM   23  O   UNL     1      -3.118  -0.900 -32.038  1.00  0.00    -0.321 OA
HETATM   24  C   UNL     1      -5.617  -2.293 -34.340  1.00  0.00     0.070 A 
HETATM   25  C   UNL     1      -6.741  -1.682 -33.776  1.00  0.00     0.038 A 
HETATM   26  C   UNL     1      -3.462  -0.047 -31.042  1.00  0.00     0.151 A 
BRANCH  24  27
HETATM   27  O   UNL     1      -5.630  -3.126 -35.428  1.00  0.00    -0.356 OA
HETATM   28  C   UNL     1      -6.393  -4.321 -35.313  1.00  0.00     0.210 C 
ENDBRANCH  24  27
ENDBRANCH  17  18
ENDBRANCH   2  17
TORSDOF 6
ENDMDL
MODEL 6
REMARK VINA RESULT:      -7.5      2.260      9.198
REMARK  6 active torsions:
REMARK  status: ('A' for Active; 'I' for Inactive)
REMARK    1  A    between atoms: C_2  and  N_3 
REMARK       I    between atoms: N_3  and  C_4 
REMARK    2  A    between atoms: C_4  and  C_5 
REMARK    3  A    between atoms: C_7  and  N_8 
REMARK       I    between atoms: N_8  and  C_9 
REMARK    4  A    between atoms: C_9  and  C_10 
REMARK    5  A    between atoms: C_10  and  C_11 
REMARK    6  A    between atoms: C_15  and  O_16 
ROOT
HETATM    1  N   UNL     1      -5.111   3.429 -32.522  1.00  0.00    -0.327 N 
HETATM    2  C   UNL     1      -5.263   4.385 -33.515  1.00  0.00     0.226 C 
HETATM    3  O   UNL     1      -5.829   4.218 -34.593  1.00  0.00    -0.273 OA
HETATM    4  H   UNL     1      -4.498   3.660 -31.750  1.00  0.00     0.169 HD
ENDROOT
BRANCH   1   5
HETATM    5  C   UNL     1      -5.717   2.155 -32.478  1.00  0.00     0.035 A 
HETATM    6  C   UNL     1      -5.136   1.010 -33.031  1.00  0.00     0.046 A 
HETATM    7  C   UNL     1      -5.787  -0.229 -32.968  1.00  0.00     0.034 A 
HETATM    8  C   UNL     1      -7.047  -0.310 -32.360  1.00  0.00     0.017 A 
HETATM    9  C   UNL     1      -7.642   0.830 -31.822  1.00  0.00     0.003 A 
HETATM   10  C   UNL     1      -6.981   2.058 -31.885  1.00  0.00     0.029 A 
BRANCH   7  11
HETATM   11  C   UNL     1      -5.211  -1.468 -33.571  1.00  0.00     0.251 C 
HETATM   12  N   UNL     1      -6.002  -2.159 -34.468  1.00  0.00    -0.357 N 
HETATM   13  H   UNL     1      -6.855  -1.744 -34.816  1.00  0.00     0.162 HD
HETATM   14  O   UNL     1      -4.076  -1.824 -33.270  1.00  0.00    -0.268 OA
BRANCH  12  15
HETATM   15  C   UNL     1      -5.538  -3.363 -35.126  1.00  0.00     0.118 C 
HETATM   16  C   UNL     1      -6.623  -4.421 -35.176  1.00  0.00     0.026 C 
ENDBRANCH  12  15
ENDBRANCH   7  11
ENDBRANCH   1   5
BRANCH   2  17
HETATM   17  C   UNL     1      -4.636   5.725 -33.167  1.00  0.00     0.144 C 
BRANCH  17  18
HETATM   18  C   UNL     1      -3.168   5.630 -32.909  1.00  0.00    -0.014 A 
HETATM   19  C   UNL     1      -2.435   6.042 -31.749  1.00  0.00     0.006 A 
HETATM   20  C   UNL     1      -1.105   5.732 -32.003  1.00  0.00     0.088 A 
HETATM   21  C   UNL     1      -2.746   6.637 -30.511  1.00  0.00     0.017 A 
HETATM   22  C   UNL     1      -0.063   5.959 -31.109  1.00  0.00     0.074 A 
HETATM   23  O   UNL     1      -0.978   5.180 -33.239  1.00  0.00    -0.321 OA
HETATM   24  C   UNL     1      -0.393   6.522 -29.872  1.00  0.00     0.070 A 
HETATM   25  C   UNL     1      -1.717   6.864 -29.582  1.00  0.00     0.038 A 
HETATM   26  C   UNL     1      -2.219   5.128 -33.781  1.00  0.00     0.151 A 
BRANCH  24  27
HETATM   27  O   UNL     1       0.674   6.700 -29.030  1.00  0.00    -0.356 OA
HETATM   28  C   UNL     1       0.817   7.985 -28.436  1.00  0.00     0.210 C 
ENDBRANCH  24  27
ENDBRANCH  17  18
ENDBRANCH   2  17
TORSDOF 6
ENDMDL
MODEL 7
REMARK VINA RESULT:      -7.4      2.224      9.375
REMARK  6 active torsions:
REMARK  status: ('A' for Active; 'I' for Inactive)
REMARK    1  A    between atoms: C_2  and  N_3 
REMARK       I    between atoms: N_3  and  C_4 
REMARK    2  A    between atoms: C_4  and  C_5 
REMARK    3  A    between atoms: C_7  and  N_8 
REMARK       I    between atoms: N_8  and  C_9 
REMARK    4  A    between atoms: C_9  and  C_10 
REMARK    5  A    between atoms: C_10  and  C_11 
REMARK    6  A    between atoms: C_15  and  O_16 
ROOT
HETATM    1  N   UNL     1      -2.521   4.086 -32.340  1.00  0.00    -0.327 N 
HETATM    2  C   UNL     1      -2.097   4.857 -33.411  1.00  0.00     0.226 C 
HETATM    3  O   UNL     1      -2.649   4.931 -34.507  1.00  0.00    -0.273 OA
HETATM    4  H   UNL     1      -1.891   4.007 -31.550  1.00  0.00     0.169 HD
ENDROOT
BRANCH   1   5
HETATM    5  C   UNL     1      -3.742   3.385 -32.235  1.00  0.00     0.035 A 
HETATM    6  C   UNL     1      -3.850   2.003 -32.417  1.00  0.00     0.046 A 
HETATM    7  C   UNL     1      -5.091   1.359 -32.312  1.00  0.00     0.034 A 
HETATM    8  C   UNL     1      -6.237   2.120 -32.044  1.00  0.00     0.017 A 
HETATM    9  C   UNL     1      -6.139   3.501 -31.878  1.00  0.00     0.003 A 
HETATM   10  C   UNL     1      -4.898   4.131 -31.978  1.00  0.00     0.029 A 
BRANCH   7  11
HETATM   11  C   UNL     1      -5.251  -0.110 -32.528  1.00  0.00     0.251 C 
HETATM   12  N   UNL     1      -5.146  -0.572 -33.825  1.00  0.00    -0.357 N 
HETATM   13  H   UNL     1      -4.810   0.040 -34.555  1.00  0.00     0.162 HD
HETATM   14  O   UNL     1      -5.456  -0.849 -31.570  1.00  0.00    -0.268 OA
BRANCH  12  15
HETATM   15  C   UNL     1      -5.268  -1.979 -34.147  1.00  0.00     0.118 C 
HETATM   16  C   UNL     1      -6.684  -2.334 -34.559  1.00  0.00     0.026 C 
ENDBRANCH  12  15
ENDBRANCH   7  11
ENDBRANCH   1   5
BRANCH   2  17
HETATM   17  C   UNL     1      -0.825   5.638 -33.129  1.00  0.00     0.144 C 
BRANCH  17  18
HETATM   18  C   UNL     1      -0.943   6.533 -31.940  1.00  0.00    -0.014 A 
HETATM   19  C   UNL     1      -0.411   6.346 -30.622  1.00  0.00     0.006 A 
HETATM   20  C   UNL     1      -0.795   7.462 -29.889  1.00  0.00     0.088 A 
HETATM   21  C   UNL     1       0.357   5.363 -29.969  1.00  0.00     0.017 A 
HETATM   22  C   UNL     1      -0.459   7.677 -28.556  1.00  0.00     0.074 A 
HETATM   23  O   UNL     1      -1.537   8.300 -30.661  1.00  0.00    -0.321 OA
HETATM   24  C   UNL     1       0.329   6.706 -27.930  1.00  0.00     0.070 A 
HETATM   25  C   UNL     1       0.724   5.560 -28.627  1.00  0.00     0.038 A 
HETATM   26  C   UNL     1      -1.629   7.733 -31.890  1.00  0.00     0.151 A 
BRANCH  24  27
HETATM   27  O   UNL     1       0.642   6.987 -26.626  1.00  0.00    -0.356 OA
HETATM   28  C   UNL     1       1.720   7.887 -26.403  1.00  0.00     0.210 C 
ENDBRANCH  24  27
ENDBRANCH  17  18
ENDBRANCH   2  17
TORSDOF 6
ENDMDL
MODEL 8
REMARK VINA RESULT:      -7.3     16.607     18.533
REMARK  6 active torsions:
REMARK  status: ('A' for Active; 'I' for Inactive)
REMARK    1  A    between atoms: C_2  and  N_3 
REMARK       I    between atoms: N_3  and  C_4 
REMARK    2  A    between atoms: C_4  and  C_5 
REMARK    3  A    between atoms: C_7  and  N_8 
REMARK       I    between atoms: N_8  and  C_9 
REMARK    4  A    between atoms: C_9  and  C_10 
REMARK    5  A    between atoms: C_10  and  C_11 
REMARK    6  A    between atoms: C_15  and  O_16 
ROOT
HETATM    1  N   UNL     1      -5.235 -12.832 -37.295  1.00  0.00    -0.327 N 
HETATM    2  C   UNL     1      -5.140 -14.051 -36.641  1.00  0.00     0.226 C 
HETATM    3  O   UNL     1      -5.739 -15.080 -36.949  1.00  0.00    -0.273 OA
HETATM    4  H   UNL     1      -4.801 -12.034 -36.847  1.00  0.00     0.169 HD
ENDROOT
BRANCH   1   5
HETATM    5  C   UNL     1      -5.886 -12.581 -38.522  1.00  0.00     0.035 A 
HETATM    6  C   UNL     1      -7.267 -12.709 -38.697  1.00  0.00     0.046 A 
HETATM    7  C   UNL     1      -7.860 -12.457 -39.942  1.00  0.00     0.034 A 
HETATM    8  C   UNL     1      -7.050 -12.094 -41.026  1.00  0.00     0.017 A 
HETATM    9  C   UNL     1      -5.669 -11.981 -40.863  1.00  0.00     0.003 A 
HETATM   10  C   UNL     1      -5.090 -12.228 -39.617  1.00  0.00     0.029 A 
BRANCH   7  11
HETATM   11  C   UNL     1      -9.328 -12.611 -40.176  1.00  0.00     0.251 C 
HETATM   12  N   UNL     1      -9.778 -13.859 -40.557  1.00  0.00    -0.357 N 
HETATM   13  H   UNL     1      -9.159 -14.657 -40.511  1.00  0.00     0.162 HD
HETATM   14  O   UNL     1     -10.075 -11.651 -40.016  1.00  0.00    -0.268 OA
BRANCH  12  15
HETATM   15  C   UNL     1     -11.182 -14.126 -40.793  1.00  0.00     0.118 C 
HETATM   16  C   UNL     1     -11.375 -15.343 -41.677  1.00  0.00     0.026 C 
ENDBRANCH  12  15
ENDBRANCH   7  11
ENDBRANCH   1   5
BRANCH   2  17
HETATM   17  C   UNL     1      -4.206 -14.026 -35.444  1.00  0.00     0.144 C 
BRANCH  17  18
HETATM   18  C   UNL     1      -2.892 -14.679 -35.719  1.00  0.00    -0.014 A 
HETATM   19  C   UNL     1      -1.943 -14.381 -36.751  1.00  0.00     0.006 A 
HETATM   20  C   UNL     1      -0.887 -15.267 -36.571  1.00  0.00     0.088 A 
HETATM   21  C   UNL     1      -1.854 -13.460 -37.812  1.00  0.00     0.017 A 
HETATM   22  C   UNL     1       0.257 -15.293 -37.363  1.00  0.00     0.074 A 
HETATM   23  O   UNL     1      -1.137 -16.090 -35.519  1.00  0.00    -0.321 OA
HETATM   24  C   UNL     1       0.343 -14.351 -38.394  1.00  0.00     0.070 A 
HETATM   25  C   UNL     1      -0.704 -13.453 -38.619  1.00  0.00     0.038 A 
HETATM   26  C   UNL     1      -2.346 -15.737 -35.015  1.00  0.00     0.151 A 
BRANCH  24  27
HETATM   27  O   UNL     1       1.502 -14.417 -39.123  1.00  0.00    -0.356 OA
HETATM   28  C   UNL     1       2.083 -15.704 -39.290  1.00  0.00     0.210 C 
ENDBRANCH  24  27
ENDBRANCH  17  18
ENDBRANCH   2  17
TORSDOF 6
ENDMDL
MODEL 9
REMARK VINA RESULT:      -7.3     16.255     17.472
REMARK  6 active torsions:
REMARK  status: ('A' for Active; 'I' for Inactive)
REMARK    1  A    between atoms: C_2  and  N_3 
REMARK       I    between atoms: N_3  and  C_4 
REMARK    2  A    between atoms: C_4  and  C_5 
REMARK    3  A    between atoms: C_7  and  N_8 
REMARK       I    between atoms: N_8  and  C_9 
REMARK    4  A    between atoms: C_9  and  C_10 
REMARK    5  A    between atoms: C_10  and  C_11 
REMARK    6  A    between atoms: C_15  and  O_16 
ROOT
HETATM    1  N   UNL     1      -5.309 -13.123 -35.595  1.00  0.00    -0.327 N 
HETATM    2  C   UNL     1      -4.801 -13.546 -36.813  1.00  0.00     0.226 C 
HETATM    3  O   UNL     1      -4.509 -14.703 -37.109  1.00  0.00    -0.273 OA
HETATM    4  H   UNL     1      -5.365 -12.124 -35.440  1.00  0.00     0.169 HD
ENDROOT
BRANCH   1   5
HETATM    5  C   UNL     1      -5.751 -13.944 -34.535  1.00  0.00     0.035 A 
HETATM    6  C   UNL     1      -4.990 -14.192 -33.388  1.00  0.00     0.046 A 
HETATM    7  C   UNL     1      -5.473 -15.025 -32.370  1.00  0.00     0.034 A 
HETATM    8  C   UNL     1      -6.727 -15.632 -32.520  1.00  0.00     0.017 A 
HETATM    9  C   UNL     1      -7.485 -15.404 -33.668  1.00  0.00     0.003 A 
HETATM   10  C   UNL     1      -6.996 -14.567 -34.673  1.00  0.00     0.029 A 
BRANCH   7  11
HETATM   11  C   UNL     1      -4.678 -15.335 -31.144  1.00  0.00     0.251 C 
HETATM   12  N   UNL     1      -3.317 -15.502 -31.302  1.00  0.00    -0.357 N 
HETATM   13  H   UNL     1      -2.874 -15.257 -32.176  1.00  0.00     0.162 HD
HETATM   14  O   UNL     1      -5.240 -15.420 -30.057  1.00  0.00    -0.268 OA
BRANCH  12  15
HETATM   15  C   UNL     1      -2.447 -15.789 -30.180  1.00  0.00     0.118 C 
HETATM   16  C   UNL     1      -2.170 -17.276 -30.058  1.00  0.00     0.026 C 
ENDBRANCH  12  15
ENDBRANCH   7  11
ENDBRANCH   1   5
BRANCH   2  17
HETATM   17  C   UNL     1      -4.603 -12.417 -37.812  1.00  0.00     0.144 C 
BRANCH  17  18
HETATM   18  C   UNL     1      -5.623 -12.421 -38.902  1.00  0.00    -0.014 A 
HETATM   19  C   UNL     1      -7.008 -12.781 -38.830  1.00  0.00     0.006 A 
HETATM   20  C   UNL     1      -7.518 -12.609 -40.111  1.00  0.00     0.088 A 
HETATM   21  C   UNL     1      -7.890 -13.226 -37.827  1.00  0.00     0.017 A 
HETATM   22  C   UNL     1      -8.845 -12.835 -40.464  1.00  0.00     0.074 A 
HETATM   23  O   UNL     1      -6.538 -12.190 -40.956  1.00  0.00    -0.321 OA
HETATM   24  C   UNL     1      -9.715 -13.248 -39.449  1.00  0.00     0.070 A 
HETATM   25  C   UNL     1      -9.239 -13.448 -38.150  1.00  0.00     0.038 A 
HETATM   26  C   UNL     1      -5.400 -12.086 -40.225  1.00  0.00     0.151 A 
BRANCH  24  27
HETATM   27  O   UNL     1     -11.010 -13.433 -39.856  1.00  0.00    -0.356 OA
HETATM   28  C   UNL     1     -11.216 -14.292 -40.972  1.00  0.00     0.210 C 
ENDBRANCH  24  27
ENDBRANCH  17  18
ENDBRANCH   2  17
TORSDOF 6
ENDMDL
MODEL 10
REMARK VINA RESULT:      -7.2      2.481      2.718
REMARK  6 active torsions:
REMARK  status: ('A' for Active; 'I' for Inactive)
REMARK    1  A    between atoms: C_2  and  N_3 
REMARK       I    between atoms: N_3  and  C_4 
REMARK    2  A    between atoms: C_4  and  C_5 
REMARK    3  A    between atoms: C_7  and  N_8 
REMARK       I    between atoms: N_8  and  C_9 
REMARK    4  A    between atoms: C_9  and  C_10 
REMARK    5  A    between atoms: C_10  and  C_11 
REMARK    6  A    between atoms: C_15  and  O_16 
ROOT
HETATM    1  N   UNL     1      -5.270   3.901 -32.434  1.00  0.00    -0.327 N 
HETATM    2  C   UNL     1      -5.772   3.264 -31.310  1.00  0.00     0.226 C 
HETATM    3  O   UNL     1      -5.183   3.121 -30.240  1.00  0.00    -0.273 OA
HETATM    4  H   UNL     1      -5.805   3.817 -33.289  1.00  0.00     0.169 HD
ENDROOT
BRANCH   1   5
HETATM    5  C   UNL     1      -4.079   4.653 -32.515  1.00  0.00     0.035 A 
HETATM    6  C   UNL     1      -3.994   5.998 -32.142  1.00  0.00     0.046 A 
HETATM    7  C   UNL     1      -2.787   6.702 -32.253  1.00  0.00     0.034 A 
HETATM    8  C   UNL     1      -1.659   6.048 -32.766  1.00  0.00     0.017 A 
HETATM    9  C   UNL     1      -1.739   4.711 -33.156  1.00  0.00     0.003 A 
HETATM   10  C   UNL     1      -2.945   4.019 -33.035  1.00  0.00     0.029 A 
BRANCH   7  11
HETATM   11  C   UNL     1      -2.665   8.146 -31.892  1.00  0.00     0.251 C 
HETATM   12  N   UNL     1      -3.565   8.643 -30.970  1.00  0.00    -0.357 N 
HETATM   13  H   UNL     1      -4.158   8.011 -30.450  1.00  0.00     0.162 HD
HETATM   14  O   UNL     1      -1.785   8.832 -32.403  1.00  0.00    -0.268 OA
BRANCH  12  15
HETATM   15  C   UNL     1      -3.528  10.024 -30.534  1.00  0.00     0.118 C 
HETATM   16  C   UNL     1      -2.670  10.193 -29.295  1.00  0.00     0.026 C 
ENDBRANCH  12  15
ENDBRANCH   7  11
ENDBRANCH   1   5
BRANCH   2  17
HETATM   17  C   UNL     1      -7.173   2.708 -31.503  1.00  0.00     0.144 C 
BRANCH  17  18
HETATM   18  C   UNL     1      -7.294   1.845 -32.715  1.00  0.00    -0.014 A 
HETATM   19  C   UNL     1      -6.591   0.634 -33.025  1.00  0.00     0.006 A 
HETATM   20  C   UNL     1      -7.067   0.218 -34.262  1.00  0.00     0.088 A 
HETATM   21  C   UNL     1      -5.612  -0.159 -32.397  1.00  0.00     0.017 A 
HETATM   22  C   UNL     1      -6.649  -0.938 -34.915  1.00  0.00     0.074 A 
HETATM   23  O   UNL     1      -7.992   1.098 -34.731  1.00  0.00    -0.321 OA
HETATM   24  C   UNL     1      -5.698  -1.731 -34.264  1.00  0.00     0.070 A 
HETATM   25  C   UNL     1      -5.181  -1.340 -33.025  1.00  0.00     0.038 A 
HETATM   26  C   UNL     1      -8.118   2.077 -33.801  1.00  0.00     0.151 A 
BRANCH  24  27
HETATM   27  O   UNL     1      -5.344  -2.864 -34.949  1.00  0.00    -0.356 OA
HETATM   28  C   UNL     1      -4.343  -3.684 -34.360  1.00  0.00     0.210 C 
ENDBRANCH  24  27
ENDBRANCH  17  18
ENDBRANCH   2  17
TORSDOF 6
ENDMDL
