MODEL 1
REMARK VINA RESULT:      -8.8      0.000      0.000
REMARK  6 active torsions:
REMARK  status: ('A' for Active; 'I' for Inactive)
REMARK    1  A    between atoms: O_2  and  C_3 
REMARK    2  A    between atoms: C_6  and  C_7 
REMARK    3  A    between atoms: C_7  and  N_8 
REMARK       I    between atoms: N_8  and  C_9 
REMARK    4  A    between atoms: C_9  and  C_10 
REMARK    5  A    between atoms: C_10  and  O_11 
REMARK    6  A    between atoms: N_12  and  C_13 
ROOT
HETATM    1  C   UNL     1      -9.019   1.730 -31.946  1.00  0.00     0.256 C 
HETATM    2  N   UNL     1      -7.970   2.368 -31.125  1.00  0.00    -0.254 N 
HETATM    3  C   UNL     1      -8.306   3.381 -30.237  1.00  0.00     0.330 C 
HETATM    4  O   UNL     1      -7.589   3.809 -29.330  1.00  0.00    -0.246 OA
HETATM    5  N   UNL     1      -9.509   3.996 -30.401  1.00  0.00    -0.308 N 
HETATM    6  C   UNL     1     -10.433   3.714 -31.392  1.00  0.00     0.048 A 
HETATM    7  C   UNL     1     -10.215   2.623 -32.222  1.00  0.00     0.034 A 
HETATM    8  C   UNL     1     -11.561   4.526 -31.533  1.00  0.00     0.030 A 
HETATM    9  C   UNL     1     -12.484   4.256 -32.540  1.00  0.00     0.002 A 
HETATM   10  C   UNL     1     -12.286   3.169 -33.385  1.00  0.00     0.001 A 
HETATM   11  C   UNL     1     -11.167   2.348 -33.221  1.00  0.00     0.015 A 
HETATM   12  H   UNL     1      -9.681   4.749 -29.748  1.00  0.00     0.170 HD
ENDROOT
BRANCH   1  13
HETATM   13  C   UNL     1      -8.416   1.238 -33.330  1.00  0.00     0.279 C 
HETATM   14  N   UNL     1      -8.168  -0.113 -33.460  1.00  0.00    -0.352 N 
HETATM   15  H   UNL     1      -8.393  -0.727 -32.685  1.00  0.00     0.162 HD
HETATM   16  O   UNL     1      -8.155   2.058 -34.216  1.00  0.00    -0.268 OA
BRANCH  14  17
HETATM   17  C   UNL     1      -7.827  -0.709 -34.731  1.00  0.00     0.161 C 
BRANCH  17  18
HETATM   18  C   UNL     1      -6.684  -1.687 -34.646  1.00  0.00    -0.040 A 
HETATM   19  C   UNL     1      -5.491  -1.340 -34.000  1.00  0.00     0.011 A 
HETATM   20  C   UNL     1      -4.471  -2.281 -33.843  1.00  0.00     0.037 A 
HETATM   21  C   UNL     1      -4.622  -3.584 -34.324  1.00  0.00     0.068 A 
HETATM   22  C   UNL     1      -5.790  -3.928 -34.998  1.00  0.00     0.037 A 
HETATM   23  C   UNL     1      -6.814  -2.987 -35.153  1.00  0.00     0.011 A 
BRANCH  21  24
HETATM   24  O   UNL     1      -3.566  -4.418 -34.075  1.00  0.00    -0.356 OA
HETATM   25  C   UNL     1      -3.069  -4.425 -32.741  1.00  0.00     0.210 C 
ENDBRANCH  21  24
ENDBRANCH  17  18
ENDBRANCH  14  17
ENDBRANCH   1  13
BRANCH   1  26
HETATM   26  O   UNL     1      -9.536   0.618 -31.210  1.00  0.00    -0.359 OA
HETATM   27  H   UNL     1      -9.068  -0.160 -31.568  1.00  0.00     0.213 HD
ENDBRANCH   1  26
BRANCH   2  28
HETATM   28  C   UNL     1      -6.647   1.789 -31.057  1.00  0.00     0.043 A 
HETATM   29  C   UNL     1      -6.365   0.633 -30.312  1.00  0.00     0.031 A 
HETATM   30  C   UNL     1      -5.090   0.053 -30.323  1.00  0.00     0.026 A 
HETATM   31  C   UNL     1      -4.071   0.625 -31.075  1.00  0.00     0.034 A 
HETATM   32 CL   UNL     1      -2.511  -0.094 -31.099  1.00  0.00    -0.084 Cl
HETATM   33  C   UNL     1      -4.317   1.777 -31.811  1.00  0.00     0.026 A 
HETATM   34  C   UNL     1      -5.593   2.351 -31.801  1.00  0.00     0.031 A 
ENDBRANCH   2  28
TORSDOF 6
ENDMDL
MODEL 2
REMARK VINA RESULT:      -8.4      1.275      1.600
REMARK  6 active torsions:
REMARK  status: ('A' for Active; 'I' for Inactive)
REMARK    1  A    between atoms: O_2  and  C_3 
REMARK    2  A    between atoms: C_6  and  C_7 
REMARK    3  A    between atoms: C_7  and  N_8 
REMARK       I    between atoms: N_8  and  C_9 
REMARK    4  A    between atoms: C_9  and  C_10 
REMARK    5  A    between atoms: C_10  and  O_11 
REMARK    6  A    between atoms: N_12  and  C_13 
ROOT
HETATM    1  C   UNL     1      -9.682   1.622 -32.607  1.00  0.00     0.256 C 
HETATM    2  N   UNL     1      -9.077   2.758 -31.883  1.00  0.00    -0.254 N 
HETATM    3  C   UNL     1      -9.888   3.672 -31.224  1.00  0.00     0.330 C 
HETATM    4  O   UNL     1      -9.511   4.497 -30.390  1.00  0.00    -0.246 OA
HETATM    5  N   UNL     1     -11.208   3.702 -31.555  1.00  0.00    -0.308 N 
HETATM    6  C   UNL     1     -11.821   2.909 -32.509  1.00  0.00     0.048 A 
HETATM    7  C   UNL     1     -11.093   1.886 -33.101  1.00  0.00     0.034 A 
HETATM    8  C   UNL     1     -13.153   3.152 -32.853  1.00  0.00     0.030 A 
HETATM    9  C   UNL     1     -13.769   2.367 -33.825  1.00  0.00     0.002 A 
HETATM   10  C   UNL     1     -13.058   1.337 -34.433  1.00  0.00     0.001 A 
HETATM   11  C   UNL     1     -11.733   1.087 -34.066  1.00  0.00     0.015 A 
HETATM   12  H   UNL     1     -11.739   4.412 -31.069  1.00  0.00     0.170 HD
ENDROOT
BRANCH   1  13
HETATM   13  C   UNL     1      -8.775   1.205 -33.841  1.00  0.00     0.279 C 
HETATM   14  N   UNL     1      -8.210  -0.052 -33.806  1.00  0.00    -0.352 N 
HETATM   15  H   UNL     1      -8.406  -0.655 -33.015  1.00  0.00     0.162 HD
HETATM   16  O   UNL     1      -8.574   2.009 -34.758  1.00  0.00    -0.268 OA
BRANCH  14  17
HETATM   17  C   UNL     1      -7.549  -0.626 -34.956  1.00  0.00     0.161 C 
BRANCH  17  18
HETATM   18  C   UNL     1      -6.402  -1.534 -34.596  1.00  0.00    -0.040 A 
HETATM   19  C   UNL     1      -5.334  -1.065 -33.821  1.00  0.00     0.011 A 
HETATM   20  C   UNL     1      -4.320  -1.935 -33.411  1.00  0.00     0.037 A 
HETATM   21  C   UNL     1      -4.353  -3.286 -33.765  1.00  0.00     0.068 A 
HETATM   22  C   UNL     1      -5.393  -3.754 -34.564  1.00  0.00     0.037 A 
HETATM   23  C   UNL     1      -6.411  -2.884 -34.972  1.00  0.00     0.011 A 
BRANCH  21  24
HETATM   24  O   UNL     1      -3.322  -4.039 -33.272  1.00  0.00    -0.356 OA
HETATM   25  C   UNL     1      -2.942  -3.782 -31.925  1.00  0.00     0.210 C 
ENDBRANCH  21  24
ENDBRANCH  17  18
ENDBRANCH  14  17
ENDBRANCH   1  13
BRANCH   1  26
HETATM   26  O   UNL     1      -9.799   0.531 -31.690  1.00  0.00    -0.359 OA
HETATM   27  H   UNL     1      -8.896   0.169 -31.613  1.00  0.00     0.213 HD
ENDBRANCH   1  26
BRANCH   2  28
HETATM   28  C   UNL     1      -7.650   2.793 -31.649  1.00  0.00     0.043 A 
HETATM   29  C   UNL     1      -7.009   1.922 -30.754  1.00  0.00     0.031 A 
HETATM   30  C   UNL     1      -5.617   1.930 -30.601  1.00  0.00     0.026 A 
HETATM   31  C   UNL     1      -4.841   2.819 -31.337  1.00  0.00     0.034 A 
HETATM   32 CL   UNL     1      -3.132   2.820 -31.159  1.00  0.00    -0.084 Cl
HETATM   33  C   UNL     1      -5.448   3.702 -32.219  1.00  0.00     0.026 A 
HETATM   34  C   UNL     1      -6.839   3.687 -32.372  1.00  0.00     0.031 A 
ENDBRANCH   2  28
TORSDOF 6
ENDMDL
MODEL 3
REMARK VINA RESULT:      -8.4      2.370      3.281
REMARK  6 active torsions:
REMARK  status: ('A' for Active; 'I' for Inactive)
REMARK    1  A    between atoms: O_2  and  C_3 
REMARK    2  A    between atoms: C_6  and  C_7 
REMARK    3  A    between atoms: C_7  and  N_8 
REMARK       I    between atoms: N_8  and  C_9 
REMARK    4  A    between atoms: C_9  and  C_10 
REMARK    5  A    between atoms: C_10  and  O_11 
REMARK    6  A    between atoms: N_12  and  C_13 
ROOT
HETATM    1  C   UNL     1      -9.849   2.108 -32.819  1.00  0.00     0.256 C 
HETATM    2  N   UNL     1      -8.870   3.061 -33.379  1.00  0.00    -0.254 N 
HETATM    3  C   UNL     1      -9.299   4.085 -34.215  1.00  0.00     0.330 C 
HETATM    4  O   UNL     1      -8.640   5.076 -34.534  1.00  0.00    -0.246 OA
HETATM    5  N   UNL     1     -10.535   3.971 -34.775  1.00  0.00    -0.308 N 
HETATM    6  C   UNL     1     -11.407   2.911 -34.600  1.00  0.00     0.048 A 
HETATM    7  C   UNL     1     -11.092   1.928 -33.671  1.00  0.00     0.034 A 
HETATM    8  C   UNL     1     -12.581   2.854 -35.355  1.00  0.00     0.030 A 
HETATM    9  C   UNL     1     -13.453   1.780 -35.195  1.00  0.00     0.002 A 
HETATM   10  C   UNL     1     -13.158   0.782 -34.272  1.00  0.00     0.001 A 
HETATM   11  C   UNL     1     -11.993   0.860 -33.504  1.00  0.00     0.015 A 
HETATM   12  H   UNL     1     -10.775   4.727 -35.401  1.00  0.00     0.170 HD
ENDROOT
BRANCH   1  13
HETATM   13  C   UNL     1      -9.172   0.690 -32.593  1.00  0.00     0.279 C 
HETATM   14  N   UNL     1      -8.468   0.156 -33.652  1.00  0.00    -0.352 N 
HETATM   15  H   UNL     1      -8.398   0.689 -34.511  1.00  0.00     0.162 HD
HETATM   16  O   UNL     1      -9.322   0.099 -31.518  1.00  0.00    -0.268 OA
BRANCH  14  17
HETATM   17  C   UNL     1      -7.634  -1.015 -33.503  1.00  0.00     0.161 C 
BRANCH  17  18
HETATM   18  C   UNL     1      -6.259  -0.705 -32.972  1.00  0.00    -0.040 A 
HETATM   19  C   UNL     1      -6.059  -0.439 -31.612  1.00  0.00     0.011 A 
HETATM   20  C   UNL     1      -4.769  -0.245 -31.109  1.00  0.00     0.037 A 
HETATM   21  C   UNL     1      -3.658  -0.316 -31.951  1.00  0.00     0.068 A 
HETATM   22  C   UNL     1      -3.849  -0.546 -33.311  1.00  0.00     0.037 A 
HETATM   23  C   UNL     1      -5.139  -0.744 -33.815  1.00  0.00     0.011 A 
BRANCH  21  24
HETATM   24  O   UNL     1      -2.450  -0.144 -31.331  1.00  0.00    -0.356 OA
HETATM   25  C   UNL     1      -1.548  -1.243 -31.391  1.00  0.00     0.210 C 
ENDBRANCH  21  24
ENDBRANCH  17  18
ENDBRANCH  14  17
ENDBRANCH   1  13
BRANCH   1  26
HETATM   26  O   UNL     1     -10.314   2.637 -31.575  1.00  0.00    -0.359 OA
HETATM   27  H   UNL     1      -9.588   2.472 -30.944  1.00  0.00     0.213 HD
ENDBRANCH   1  26
BRANCH   2  28
HETATM   28  C   UNL     1      -7.514   3.091 -32.877  1.00  0.00     0.043 A 
HETATM   29  C   UNL     1      -6.398   2.891 -33.705  1.00  0.00     0.031 A 
HETATM   30  C   UNL     1      -5.093   2.998 -33.205  1.00  0.00     0.026 A 
HETATM   31  C   UNL     1      -4.884   3.298 -31.864  1.00  0.00     0.034 A 
HETATM   32 CL   UNL     1      -3.284   3.441 -31.254  1.00  0.00    -0.084 Cl
HETATM   33  C   UNL     1      -5.969   3.486 -31.019  1.00  0.00     0.026 A 
HETATM   34  C   UNL     1      -7.271   3.383 -31.523  1.00  0.00     0.031 A 
ENDBRANCH   2  28
TORSDOF 6
ENDMDL
MODEL 4
REMARK VINA RESULT:      -8.4      2.670      6.380
REMARK  6 active torsions:
REMARK  status: ('A' for Active; 'I' for Inactive)
REMARK    1  A    between atoms: O_2  and  C_3 
REMARK    2  A    between atoms: C_6  and  C_7 
REMARK    3  A    between atoms: C_7  and  N_8 
REMARK       I    between atoms: N_8  and  C_9 
REMARK    4  A    between atoms: C_9  and  C_10 
REMARK    5  A    between atoms: C_10  and  O_11 
REMARK    6  A    between atoms: N_12  and  C_13 
ROOT
HETATM    1  C   UNL     1      -8.221   1.992 -31.718  1.00  0.00     0.256 C 
HETATM    2  N   UNL     1      -7.001   1.975 -32.550  1.00  0.00    -0.254 N 
HETATM    3  C   UNL     1      -6.118   3.046 -32.510  1.00  0.00     0.330 C 
HETATM    4  O   UNL     1      -4.966   3.045 -32.946  1.00  0.00    -0.246 OA
HETATM    5  N   UNL     1      -6.569   4.220 -31.988  1.00  0.00    -0.308 N 
HETATM    6  C   UNL     1      -7.844   4.454 -31.504  1.00  0.00     0.048 A 
HETATM    7  C   UNL     1      -8.725   3.386 -31.392  1.00  0.00     0.034 A 
HETATM    8  C   UNL     1      -8.215   5.749 -31.137  1.00  0.00     0.030 A 
HETATM    9  C   UNL     1      -9.503   5.992 -30.665  1.00  0.00     0.002 A 
HETATM   10  C   UNL     1     -10.404   4.938 -30.546  1.00  0.00     0.001 A 
HETATM   11  C   UNL     1     -10.016   3.641 -30.893  1.00  0.00     0.015 A 
HETATM   12  H   UNL     1      -5.894   4.972 -32.019  1.00  0.00     0.170 HD
ENDROOT
BRANCH   1  13
HETATM   13  C   UNL     1      -9.385   1.177 -32.424  1.00  0.00     0.279 C 
HETATM   14  N   UNL     1     -10.060   1.809 -33.447  1.00  0.00    -0.352 N 
HETATM   15  H   UNL     1      -9.779   2.746 -33.713  1.00  0.00     0.162 HD
HETATM   16  O   UNL     1      -9.674   0.044 -32.025  1.00  0.00    -0.268 OA
BRANCH  14  17
HETATM   17  C   UNL     1     -10.984   1.103 -34.304  1.00  0.00     0.161 C 
BRANCH  17  18
HETATM   18  C   UNL     1     -12.430   1.359 -33.965  1.00  0.00    -0.040 A 
HETATM   19  C   UNL     1     -13.436   0.497 -34.419  1.00  0.00     0.011 A 
HETATM   20  C   UNL     1     -14.763   0.686 -34.024  1.00  0.00     0.037 A 
HETATM   21  C   UNL     1     -15.110   1.735 -33.169  1.00  0.00     0.068 A 
HETATM   22  C   UNL     1     -14.122   2.617 -32.741  1.00  0.00     0.037 A 
HETATM   23  C   UNL     1     -12.792   2.426 -33.133  1.00  0.00     0.011 A 
BRANCH  21  24
HETATM   24  O   UNL     1     -16.434   1.790 -32.829  1.00  0.00    -0.356 OA
HETATM   25  C   UNL     1     -16.853   2.946 -32.112  1.00  0.00     0.210 C 
ENDBRANCH  21  24
ENDBRANCH  17  18
ENDBRANCH  14  17
ENDBRANCH   1  13
BRANCH   1  26
HETATM   26  O   UNL     1      -7.898   1.400 -30.456  1.00  0.00    -0.359 OA
HETATM   27  H   UNL     1      -8.621   0.768 -30.283  1.00  0.00     0.213 HD
ENDBRANCH   1  26
BRANCH   2  28
HETATM   28  C   UNL     1      -6.594   0.758 -33.218  1.00  0.00     0.043 A 
HETATM   29  C   UNL     1      -5.874  -0.256 -32.566  1.00  0.00     0.031 A 
HETATM   30  C   UNL     1      -5.556  -1.455 -33.217  1.00  0.00     0.026 A 
HETATM   31  C   UNL     1      -5.947  -1.656 -34.536  1.00  0.00     0.034 A 
HETATM   32 CL   UNL     1      -5.567  -3.132 -35.330  1.00  0.00    -0.084 Cl
HETATM   33  C   UNL     1      -6.646  -0.665 -35.210  1.00  0.00     0.026 A 
HETATM   34  C   UNL     1      -6.966   0.530 -34.555  1.00  0.00     0.031 A 
ENDBRANCH   2  28
TORSDOF 6
ENDMDL
MODEL 5
REMARK VINA RESULT:      -8.3      2.408      4.378
REMARK  6 active torsions:
REMARK  status: ('A' for Active; 'I' for Inactive)
REMARK    1  A    between atoms: O_2  and  C_3 
REMARK    2  A    between atoms: C_6  and  C_7 
REMARK    3  A    between atoms: C_7  and  N_8 
REMARK       I    between atoms: N_8  and  C_9 
REMARK    4  A    between atoms: C_9  and  C_10 
REMARK    5  A    between atoms: C_10  and  O_11 
REMARK    6  A    between atoms: N_12  and  C_13 
ROOT
HETATM    1  C   UNL     1     -10.177   3.128 -33.815  1.00  0.00     0.256 C 
HETATM    2  N   UNL     1     -10.248   1.679 -33.544  1.00  0.00    -0.254 N 
HETATM    3  C   UNL     1     -11.481   1.071 -33.340  1.00  0.00     0.330 C 
HETATM    4  O   UNL     1     -11.696  -0.142 -33.360  1.00  0.00    -0.246 OA
HETATM    5  N   UNL     1     -12.541   1.872 -33.046  1.00  0.00    -0.308 N 
HETATM    6  C   UNL     1     -12.503   3.249 -32.912  1.00  0.00     0.048 A 
HETATM    7  C   UNL     1     -11.334   3.923 -33.237  1.00  0.00     0.034 A 
HETATM    8  C   UNL     1     -13.636   3.927 -32.458  1.00  0.00     0.030 A 
HETATM    9  C   UNL     1     -13.597   5.312 -32.305  1.00  0.00     0.002 A 
HETATM   10  C   UNL     1     -12.435   6.008 -32.623  1.00  0.00     0.001 A 
HETATM   11  C   UNL     1     -11.314   5.323 -33.099  1.00  0.00     0.015 A 
HETATM   12  H   UNL     1     -13.402   1.369 -32.873  1.00  0.00     0.170 HD
ENDROOT
BRANCH   1  13
HETATM   13  C   UNL     1      -8.815   3.729 -33.263  1.00  0.00     0.279 C 
HETATM   14  N   UNL     1      -8.581   3.606 -31.909  1.00  0.00    -0.352 N 
HETATM   15  H   UNL     1      -9.269   3.131 -31.335  1.00  0.00     0.162 HD
HETATM   16  O   UNL     1      -8.039   4.308 -34.030  1.00  0.00    -0.268 OA
BRANCH  14  17
HETATM   17  C   UNL     1      -7.296   3.914 -31.324  1.00  0.00     0.161 C 
BRANCH  17  18
HETATM   18  C   UNL     1      -6.381   2.721 -31.228  1.00  0.00    -0.040 A 
HETATM   19  C   UNL     1      -5.426   2.469 -32.221  1.00  0.00     0.011 A 
HETATM   20  C   UNL     1      -4.519   1.416 -32.080  1.00  0.00     0.037 A 
HETATM   21  C   UNL     1      -4.545   0.598 -30.948  1.00  0.00     0.068 A 
HETATM   22  C   UNL     1      -5.512   0.820 -29.972  1.00  0.00     0.037 A 
HETATM   23  C   UNL     1      -6.420   1.877 -30.111  1.00  0.00     0.011 A 
BRANCH  21  24
HETATM   24  O   UNL     1      -3.582  -0.374 -30.915  1.00  0.00    -0.356 OA
HETATM   25  C   UNL     1      -2.934  -0.661 -32.149  1.00  0.00     0.210 C 
ENDBRANCH  21  24
ENDBRANCH  17  18
ENDBRANCH  14  17
ENDBRANCH   1  13
BRANCH   1  26
HETATM   26  O   UNL     1     -10.259   3.313 -35.231  1.00  0.00    -0.359 OA
HETATM   27  H   UNL     1      -9.758   4.132 -35.407  1.00  0.00     0.213 HD
ENDBRANCH   1  26
BRANCH   2  28
HETATM   28  C   UNL     1      -9.080   0.846 -33.727  1.00  0.00     0.043 A 
HETATM   29  C   UNL     1      -8.478   0.145 -32.670  1.00  0.00     0.031 A 
HETATM   30  C   UNL     1      -7.392  -0.712 -32.890  1.00  0.00     0.026 A 
HETATM   31  C   UNL     1      -6.883  -0.875 -34.173  1.00  0.00     0.034 A 
HETATM   32 CL   UNL     1      -5.558  -1.936 -34.445  1.00  0.00    -0.084 Cl
HETATM   33  C   UNL     1      -7.449  -0.183 -35.236  1.00  0.00     0.026 A 
HETATM   34  C   UNL     1      -8.537   0.668 -35.012  1.00  0.00     0.031 A 
ENDBRANCH   2  28
TORSDOF 6
ENDMDL
MODEL 6
REMARK VINA RESULT:      -8.2      2.676      7.185
REMARK  6 active torsions:
REMARK  status: ('A' for Active; 'I' for Inactive)
REMARK    1  A    between atoms: O_2  and  C_3 
REMARK    2  A    between atoms: C_6  and  C_7 
REMARK    3  A    between atoms: C_7  and  N_8 
REMARK       I    between atoms: N_8  and  C_9 
REMARK    4  A    between atoms: C_9  and  C_10 
REMARK    5  A    between atoms: C_10  and  O_11 
REMARK    6  A    between atoms: N_12  and  C_13 
ROOT
HETATM    1  C   UNL     1      -6.370  -0.112 -33.744  1.00  0.00     0.256 C 
HETATM    2  N   UNL     1      -5.354   0.529 -32.885  1.00  0.00    -0.254 N 
HETATM    3  C   UNL     1      -4.053   0.043 -32.868  1.00  0.00     0.330 C 
HETATM    4  O   UNL     1      -3.073   0.629 -32.406  1.00  0.00    -0.246 OA
HETATM    5  N   UNL     1      -3.838  -1.209 -33.359  1.00  0.00    -0.308 N 
HETATM    6  C   UNL     1      -4.807  -2.058 -33.863  1.00  0.00     0.048 A 
HETATM    7  C   UNL     1      -6.098  -1.578 -34.032  1.00  0.00     0.034 A 
HETATM    8  C   UNL     1      -4.467  -3.372 -34.192  1.00  0.00     0.030 A 
HETATM    9  C   UNL     1      -5.443  -4.235 -34.684  1.00  0.00     0.002 A 
HETATM   10  C   UNL     1      -6.745  -3.777 -34.860  1.00  0.00     0.001 A 
HETATM   11  C   UNL     1      -7.070  -2.454 -34.550  1.00  0.00     0.015 A 
HETATM   12  H   UNL     1      -2.879  -1.521 -33.286  1.00  0.00     0.170 HD
ENDROOT
BRANCH   1  13
HETATM   13  C   UNL     1      -7.811   0.024 -33.092  1.00  0.00     0.279 C 
HETATM   14  N   UNL     1      -8.791   0.621 -33.859  1.00  0.00    -0.352 N 
HETATM   15  H   UNL     1      -8.558   0.928 -34.797  1.00  0.00     0.162 HD
HETATM   16  O   UNL     1      -8.005  -0.361 -31.935  1.00  0.00    -0.268 OA
BRANCH  14  17
HETATM   17  C   UNL     1     -10.182   0.609 -33.468  1.00  0.00     0.161 C 
BRANCH  17  18
HETATM   18  C   UNL     1     -10.973   1.757 -34.037  1.00  0.00    -0.040 A 
HETATM   19  C   UNL     1     -10.377   3.008 -34.239  1.00  0.00     0.011 A 
HETATM   20  C   UNL     1     -11.089   4.042 -34.854  1.00  0.00     0.037 A 
HETATM   21  C   UNL     1     -12.405   3.847 -35.279  1.00  0.00     0.068 A 
HETATM   22  C   UNL     1     -13.018   2.618 -35.051  1.00  0.00     0.037 A 
HETATM   23  C   UNL     1     -12.304   1.581 -34.439  1.00  0.00     0.011 A 
BRANCH  21  24
HETATM   24  O   UNL     1     -12.978   4.924 -35.897  1.00  0.00    -0.356 OA
HETATM   25  C   UNL     1     -12.459   6.202 -35.546  1.00  0.00     0.210 C 
ENDBRANCH  21  24
ENDBRANCH  17  18
ENDBRANCH  14  17
ENDBRANCH   1  13
BRANCH   1  26
HETATM   26  O   UNL     1      -6.341   0.537 -35.017  1.00  0.00    -0.359 OA
HETATM   27  H   UNL     1      -6.678   1.437 -34.849  1.00  0.00     0.213 HD
ENDBRANCH   1  26
BRANCH   2  28
HETATM   28  C   UNL     1      -5.634   1.799 -32.251  1.00  0.00     0.043 A 
HETATM   29  C   UNL     1      -5.768   1.936 -30.860  1.00  0.00     0.031 A 
HETATM   30  C   UNL     1      -5.966   3.190 -30.268  1.00  0.00     0.026 A 
HETATM   31  C   UNL     1      -6.043   4.329 -31.061  1.00  0.00     0.034 A 
HETATM   32 CL   UNL     1      -6.275   5.869 -30.334  1.00  0.00    -0.084 Cl
HETATM   33  C   UNL     1      -5.930   4.222 -32.441  1.00  0.00     0.026 A 
HETATM   34  C   UNL     1      -5.727   2.968 -33.027  1.00  0.00     0.031 A 
ENDBRANCH   2  28
TORSDOF 6
ENDMDL
MODEL 7
REMARK VINA RESULT:      -8.0      4.117      7.331
REMARK  6 active torsions:
REMARK  status: ('A' for Active; 'I' for Inactive)
REMARK    1  A    between atoms: O_2  and  C_3 
REMARK    2  A    between atoms: C_6  and  C_7 
REMARK    3  A    between atoms: C_7  and  N_8 
REMARK       I    between atoms: N_8  and  C_9 
REMARK    4  A    between atoms: C_9  and  C_10 
REMARK    5  A    between atoms: C_10  and  O_11 
REMARK    6  A    between atoms: N_12  and  C_13 
ROOT
HETATM    1  C   UNL     1      -6.605   2.306 -32.215  1.00  0.00     0.256 C 
HETATM    2  N   UNL     1      -7.186   3.556 -32.745  1.00  0.00    -0.254 N 
HETATM    3  C   UNL     1      -8.194   3.504 -33.699  1.00  0.00     0.330 C 
HETATM    4  O   UNL     1      -8.924   4.441 -34.026  1.00  0.00    -0.246 OA
HETATM    5  N   UNL     1      -8.368   2.333 -34.373  1.00  0.00    -0.308 N 
HETATM    6  C   UNL     1      -7.617   1.183 -34.205  1.00  0.00     0.048 A 
HETATM    7  C   UNL     1      -6.689   1.132 -33.174  1.00  0.00     0.034 A 
HETATM    8  C   UNL     1      -7.808   0.104 -35.071  1.00  0.00     0.030 A 
HETATM    9  C   UNL     1      -7.041  -1.049 -34.917  1.00  0.00     0.002 A 
HETATM   10  C   UNL     1      -6.104  -1.122 -33.891  1.00  0.00     0.001 A 
HETATM   11  C   UNL     1      -5.936  -0.046 -33.016  1.00  0.00     0.015 A 
HETATM   12  H   UNL     1      -9.092   2.367 -35.078  1.00  0.00     0.170 HD
ENDROOT
BRANCH   1  13
HETATM   13  C   UNL     1      -5.087   2.530 -31.808  1.00  0.00     0.279 C 
HETATM   14  N   UNL     1      -4.213   2.874 -32.818  1.00  0.00    -0.352 N 
HETATM   15  H   UNL     1      -4.572   2.984 -33.759  1.00  0.00     0.162 HD
HETATM   16  O   UNL     1      -4.730   2.358 -30.638  1.00  0.00    -0.268 OA
BRANCH  14  17
HETATM   17  C   UNL     1      -2.863   3.312 -32.544  1.00  0.00     0.161 C 
BRANCH  17  18
HETATM   18  C   UNL     1      -2.718   4.811 -32.501  1.00  0.00    -0.040 A 
HETATM   19  C   UNL     1      -2.726   5.496 -31.279  1.00  0.00     0.011 A 
HETATM   20  C   UNL     1      -2.498   6.874 -31.239  1.00  0.00     0.037 A 
HETATM   21  C   UNL     1      -2.255   7.592 -32.412  1.00  0.00     0.068 A 
HETATM   22  C   UNL     1      -2.280   6.925 -33.634  1.00  0.00     0.037 A 
HETATM   23  C   UNL     1      -2.505   5.545 -33.675  1.00  0.00     0.011 A 
BRANCH  21  24
HETATM   24  O   UNL     1      -2.011   8.927 -32.233  1.00  0.00    -0.356 OA
HETATM   25  C   UNL     1      -2.461   9.491 -31.006  1.00  0.00     0.210 C 
ENDBRANCH  21  24
ENDBRANCH  17  18
ENDBRANCH  14  17
ENDBRANCH   1  13
BRANCH   1  26
HETATM   26  O   UNL     1      -7.371   1.918 -31.072  1.00  0.00    -0.359 OA
HETATM   27  H   UNL     1      -7.291   2.666 -30.450  1.00  0.00     0.213 HD
ENDBRANCH   1  26
BRANCH   2  28
HETATM   28  C   UNL     1      -6.891   4.822 -32.110  1.00  0.00     0.043 A 
HETATM   29  C   UNL     1      -6.226   5.864 -32.775  1.00  0.00     0.031 A 
HETATM   30  C   UNL     1      -6.018   7.105 -32.158  1.00  0.00     0.026 A 
HETATM   31  C   UNL     1      -6.466   7.321 -30.860  1.00  0.00     0.034 A 
HETATM   32 CL   UNL     1      -6.222   8.847 -30.109  1.00  0.00    -0.084 Cl
HETATM   33  C   UNL     1      -7.114   6.304 -30.173  1.00  0.00     0.026 A 
HETATM   34  C   UNL     1      -7.323   5.067 -30.794  1.00  0.00     0.031 A 
ENDBRANCH   2  28
TORSDOF 6
ENDMDL
MODEL 8
REMARK VINA RESULT:      -8.0      4.335      7.232
REMARK  6 active torsions:
REMARK  status: ('A' for Active; 'I' for Inactive)
REMARK    1  A    between atoms: O_2  and  C_3 
REMARK    2  A    between atoms: C_6  and  C_7 
REMARK    3  A    between atoms: C_7  and  N_8 
REMARK       I    between atoms: N_8  and  C_9 
REMARK    4  A    between atoms: C_9  and  C_10 
REMARK    5  A    between atoms: C_10  and  O_11 
REMARK    6  A    between atoms: N_12  and  C_13 
ROOT
HETATM    1  C   UNL     1      -3.401   5.806 -31.243  1.00  0.00     0.256 C 
HETATM    2  N   UNL     1      -4.407   5.809 -30.163  1.00  0.00    -0.254 N 
HETATM    3  C   UNL     1      -4.225   6.615 -29.047  1.00  0.00     0.330 C 
HETATM    4  O   UNL     1      -5.090   6.898 -28.216  1.00  0.00    -0.246 OA
HETATM    5  N   UNL     1      -2.976   7.102 -28.813  1.00  0.00    -0.308 N 
HETATM    6  C   UNL     1      -1.853   6.852 -29.583  1.00  0.00     0.048 A 
HETATM    7  C   UNL     1      -2.000   6.169 -30.783  1.00  0.00     0.034 A 
HETATM    8  C   UNL     1      -0.604   7.293 -29.142  1.00  0.00     0.030 A 
HETATM    9  C   UNL     1       0.531   7.029 -29.905  1.00  0.00     0.002 A 
HETATM   10  C   UNL     1       0.409   6.344 -31.110  1.00  0.00     0.001 A 
HETATM   11  C   UNL     1      -0.849   5.928 -31.555  1.00  0.00     0.015 A 
HETATM   12  H   UNL     1      -2.898   7.651 -27.968  1.00  0.00     0.170 HD
ENDROOT
BRANCH   1  13
HETATM   13  C   UNL     1      -3.356   4.389 -31.956  1.00  0.00     0.279 C 
HETATM   14  N   UNL     1      -3.245   3.282 -31.140  1.00  0.00    -0.352 N 
HETATM   15  H   UNL     1      -3.213   3.416 -30.136  1.00  0.00     0.162 HD
HETATM   16  O   UNL     1      -3.383   4.316 -33.189  1.00  0.00    -0.268 OA
BRANCH  14  17
HETATM   17  C   UNL     1      -3.411   1.939 -31.647  1.00  0.00     0.161 C 
BRANCH  17  18
HETATM   18  C   UNL     1      -4.846   1.483 -31.674  1.00  0.00    -0.040 A 
HETATM   19  C   UNL     1      -5.699   1.863 -32.718  1.00  0.00     0.011 A 
HETATM   20  C   UNL     1      -7.002   1.361 -32.788  1.00  0.00     0.037 A 
HETATM   21  C   UNL     1      -7.476   0.472 -31.821  1.00  0.00     0.068 A 
HETATM   22  C   UNL     1      -6.648   0.116 -30.761  1.00  0.00     0.037 A 
HETATM   23  C   UNL     1      -5.342   0.615 -30.692  1.00  0.00     0.011 A 
BRANCH  21  24
HETATM   24  O   UNL     1      -8.754   0.027 -32.022  1.00  0.00    -0.356 OA
HETATM   25  C   UNL     1      -9.412   0.507 -33.190  1.00  0.00     0.210 C 
ENDBRANCH  21  24
ENDBRANCH  17  18
ENDBRANCH  14  17
ENDBRANCH   1  13
BRANCH   1  26
HETATM   26  O   UNL     1      -3.766   6.820 -32.184  1.00  0.00    -0.359 OA
HETATM   27  H   UNL     1      -3.181   7.574 -31.980  1.00  0.00     0.213 HD
ENDBRANCH   1  26
BRANCH   2  28
HETATM   28  C   UNL     1      -5.690   5.171 -30.363  1.00  0.00     0.043 A 
HETATM   29  C   UNL     1      -6.157   4.138 -29.535  1.00  0.00     0.031 A 
HETATM   30  C   UNL     1      -7.434   3.588 -29.707  1.00  0.00     0.026 A 
HETATM   31  C   UNL     1      -8.264   4.059 -30.719  1.00  0.00     0.034 A 
HETATM   32 CL   UNL     1      -9.835   3.394 -30.922  1.00  0.00    -0.084 Cl
HETATM   33  C   UNL     1      -7.823   5.070 -31.562  1.00  0.00     0.026 A 
HETATM   34  C   UNL     1      -6.548   5.619 -31.383  1.00  0.00     0.031 A 
ENDBRANCH   2  28
TORSDOF 6
ENDMDL
MODEL 9
REMARK VINA RESULT:      -8.0      3.496      6.494
REMARK  6 active torsions:
REMARK  status: ('A' for Active; 'I' for Inactive)
REMARK    1  A    between atoms: O_2  and  C_3 
REMARK    2  A    between atoms: C_6  and  C_7 
REMARK    3  A    between atoms: C_7  and  N_8 
REMARK       I    between atoms: N_8  and  C_9 
REMARK    4  A    between atoms: C_9  and  C_10 
REMARK    5  A    between atoms: C_10  and  O_11 
REMARK    6  A    between atoms: N_12  and  C_13 
ROOT
HETATM    1  C   UNL     1      -7.200   2.787 -32.468  1.00  0.00     0.256 C 
HETATM    2  N   UNL     1      -7.735   1.410 -32.474  1.00  0.00    -0.254 N 
HETATM    3  C   UNL     1      -9.072   1.184 -32.174  1.00  0.00     0.330 C 
HETATM    4  O   UNL     1      -9.690   0.140 -32.390  1.00  0.00    -0.246 OA
HETATM    5  N   UNL     1      -9.757   2.177 -31.544  1.00  0.00    -0.308 N 
HETATM    6  C   UNL     1      -9.236   3.399 -31.154  1.00  0.00     0.048 A 
HETATM    7  C   UNL     1      -7.948   3.735 -31.547  1.00  0.00     0.034 A 
HETATM    8  C   UNL     1     -10.014   4.263 -30.381  1.00  0.00     0.030 A 
HETATM    9  C   UNL     1      -9.487   5.486 -29.972  1.00  0.00     0.002 A 
HETATM   10  C   UNL     1      -8.197   5.844 -30.352  1.00  0.00     0.001 A 
HETATM   11  C   UNL     1      -7.435   4.983 -31.146  1.00  0.00     0.015 A 
HETATM   12  H   UNL     1     -10.714   1.940 -31.320  1.00  0.00     0.170 HD
ENDROOT
BRANCH   1  13
HETATM   13  C   UNL     1      -5.665   2.782 -32.063  1.00  0.00     0.279 C 
HETATM   14  N   UNL     1      -4.762   3.167 -33.032  1.00  0.00    -0.352 N 
HETATM   15  H   UNL     1      -5.110   3.448 -33.941  1.00  0.00     0.162 HD
HETATM   16  O   UNL     1      -5.325   2.409 -30.936  1.00  0.00    -0.268 OA
BRANCH  14  17
HETATM   17  C   UNL     1      -3.371   3.412 -32.726  1.00  0.00     0.161 C 
BRANCH  17  18
HETATM   18  C   UNL     1      -3.013   4.875 -32.694  1.00  0.00    -0.040 A 
HETATM   19  C   UNL     1      -3.825   5.796 -32.021  1.00  0.00     0.011 A 
HETATM   20  C   UNL     1      -3.440   7.135 -31.914  1.00  0.00     0.037 A 
HETATM   21  C   UNL     1      -2.240   7.579 -32.474  1.00  0.00     0.068 A 
HETATM   22  C   UNL     1      -1.443   6.678 -33.175  1.00  0.00     0.037 A 
HETATM   23  C   UNL     1      -1.826   5.336 -33.279  1.00  0.00     0.011 A 
BRANCH  21  24
HETATM   24  O   UNL     1      -1.962   8.903 -32.270  1.00  0.00    -0.356 OA
HETATM   25  C   UNL     1      -2.349   9.442 -31.011  1.00  0.00     0.210 C 
ENDBRANCH  21  24
ENDBRANCH  17  18
ENDBRANCH  14  17
ENDBRANCH   1  13
BRANCH   1  26
HETATM   26  O   UNL     1      -7.363   3.326 -33.782  1.00  0.00    -0.359 OA
HETATM   27  H   UNL     1      -6.555   3.851 -33.940  1.00  0.00     0.213 HD
ENDBRANCH   1  26
BRANCH   2  28
HETATM   28  C   UNL     1      -6.949   0.327 -33.023  1.00  0.00     0.043 A 
HETATM   29  C   UNL     1      -6.111  -0.475 -32.232  1.00  0.00     0.031 A 
HETATM   30  C   UNL     1      -5.417  -1.562 -32.777  1.00  0.00     0.026 A 
HETATM   31  C   UNL     1      -5.544  -1.861 -34.129  1.00  0.00     0.034 A 
HETATM   32 CL   UNL     1      -4.703  -3.204 -34.796  1.00  0.00    -0.084 Cl
HETATM   33  C   UNL     1      -6.354  -1.077 -34.939  1.00  0.00     0.026 A 
HETATM   34  C   UNL     1      -7.049   0.006 -34.389  1.00  0.00     0.031 A 
ENDBRANCH   2  28
TORSDOF 6
ENDMDL
MODEL 10
REMARK VINA RESULT:      -7.9      2.666      7.219
REMARK  6 active torsions:
REMARK  status: ('A' for Active; 'I' for Inactive)
REMARK    1  A    between atoms: O_2  and  C_3 
REMARK    2  A    between atoms: C_6  and  C_7 
REMARK    3  A    between atoms: C_7  and  N_8 
REMARK       I    between atoms: N_8  and  C_9 
REMARK    4  A    between atoms: C_9  and  C_10 
REMARK    5  A    between atoms: C_10  and  O_11 
REMARK    6  A    between atoms: N_12  and  C_13 
ROOT
HETATM    1  C   UNL     1      -6.745   0.827 -33.506  1.00  0.00     0.256 C 
HETATM    2  N   UNL     1      -6.177   1.548 -32.349  1.00  0.00    -0.254 N 
HETATM    3  C   UNL     1      -4.864   1.314 -31.962  1.00  0.00     0.330 C 
HETATM    4  O   UNL     1      -4.204   2.018 -31.196  1.00  0.00    -0.246 OA
HETATM    5  N   UNL     1      -4.258   0.186 -32.426  1.00  0.00    -0.308 N 
HETATM    6  C   UNL     1      -4.839  -0.768 -33.242  1.00  0.00     0.048 A 
HETATM    7  C   UNL     1      -6.099  -0.521 -33.771  1.00  0.00     0.034 A 
HETATM    8  C   UNL     1      -4.150  -1.951 -33.518  1.00  0.00     0.030 A 
HETATM    9  C   UNL     1      -4.739  -2.921 -34.325  1.00  0.00     0.002 A 
HETATM   10  C   UNL     1      -6.002  -2.697 -34.864  1.00  0.00     0.001 A 
HETATM   11  C   UNL     1      -6.674  -1.500 -34.602  1.00  0.00     0.015 A 
HETATM   12  H   UNL     1      -3.316   0.053 -32.081  1.00  0.00     0.170 HD
ENDROOT
BRANCH   1  13
HETATM   13  C   UNL     1      -8.307   0.620 -33.317  1.00  0.00     0.279 C 
HETATM   14  N   UNL     1      -9.140   1.340 -34.148  1.00  0.00    -0.352 N 
HETATM   15  H   UNL     1      -8.726   1.950 -34.844  1.00  0.00     0.162 HD
HETATM   16  O   UNL     1      -8.727  -0.131 -32.430  1.00  0.00    -0.268 OA
BRANCH  14  17
HETATM   17  C   UNL     1     -10.559   1.080 -34.221  1.00  0.00     0.161 C 
BRANCH  17  18
HETATM   18  C   UNL     1     -11.388   2.055 -33.426  1.00  0.00    -0.040 A 
HETATM   19  C   UNL     1     -10.779   3.071 -32.679  1.00  0.00     0.011 A 
HETATM   20  C   UNL     1     -11.555   4.028 -32.020  1.00  0.00     0.037 A 
HETATM   21  C   UNL     1     -12.949   3.992 -32.096  1.00  0.00     0.068 A 
HETATM   22  C   UNL     1     -13.564   2.966 -32.808  1.00  0.00     0.037 A 
HETATM   23  C   UNL     1     -12.788   2.009 -33.471  1.00  0.00     0.011 A 
BRANCH  21  24
HETATM   24  O   UNL     1     -13.590   5.005 -31.437  1.00  0.00    -0.356 OA
HETATM   25  C   UNL     1     -12.815   5.729 -30.487  1.00  0.00     0.210 C 
ENDBRANCH  21  24
ENDBRANCH  17  18
ENDBRANCH  14  17
ENDBRANCH   1  13
BRANCH   1  26
HETATM   26  O   UNL     1      -6.489   1.607 -34.676  1.00  0.00    -0.359 OA
HETATM   27  H   UNL     1      -6.032   1.000 -35.289  1.00  0.00     0.213 HD
ENDBRANCH   1  26
BRANCH   2  28
HETATM   28  C   UNL     1      -6.888   2.665 -31.768  1.00  0.00     0.043 A 
HETATM   29  C   UNL     1      -7.530   2.586 -30.522  1.00  0.00     0.031 A 
HETATM   30  C   UNL     1      -8.149   3.705 -29.950  1.00  0.00     0.026 A 
HETATM   31  C   UNL     1      -8.143   4.922 -30.621  1.00  0.00     0.034 A 
HETATM   32 CL   UNL     1      -8.892   6.298 -29.914  1.00  0.00    -0.084 Cl
HETATM   33  C   UNL     1      -7.529   5.027 -31.861  1.00  0.00     0.026 A 
HETATM   34  C   UNL     1      -6.908   3.907 -32.427  1.00  0.00     0.031 A 
ENDBRANCH   2  28
TORSDOF 6
ENDMDL
