MODEL 1
REMARK VINA RESULT:      -8.8      0.000      0.000
REMARK  7 active torsions:
REMARK  status: ('A' for Active; 'I' for Inactive)
REMARK    1  A    between atoms: C_2  and  N_3 
REMARK    2  A    between atoms: N_7  and  C_8 
REMARK    3  A    between atoms: C_9  and  N_10 
REMARK       I    between atoms: N_10  and  C_11 
REMARK    4  A    between atoms: C_11  and  C_12 
REMARK    5  A    between atoms: C_15  and  C_16 
REMARK    6  A    between atoms: C_16  and  O_17 
REMARK    7  A    between atoms: O_17  and  C_18 
ROOT
HETATM    1  N   UNL     1      -2.346   4.319 -31.267  1.00  0.00    -0.321 N 
HETATM    2  C   UNL     1      -2.845   4.030 -32.520  1.00  0.00     0.256 C 
HETATM    3  O   UNL     1      -2.678   4.695 -33.535  1.00  0.00    -0.267 OA
HETATM    4  H   UNL     1      -2.768   3.871 -30.462  1.00  0.00     0.169 HD
ENDROOT
BRANCH   1   5
HETATM    5  C   UNL     1      -1.468   5.383 -30.959  1.00  0.00     0.061 A 
HETATM    6  C   UNL     1      -1.995   6.509 -30.267  1.00  0.00     0.057 A 
HETATM    7  C   UNL     1      -1.061   7.433 -29.764  1.00  0.00     0.031 A 
HETATM    8  C   UNL     1       0.310   7.311 -30.024  1.00  0.00     0.002 A 
HETATM    9  C   UNL     1       0.785   6.251 -30.783  1.00  0.00     0.002 A 
HETATM   10  C   UNL     1      -0.100   5.282 -31.241  1.00  0.00     0.032 A 
BRANCH   6  11
HETATM   11  N   UNL     1      -3.395   6.689 -30.136  1.00  0.00    -0.376 N 
HETATM   12  C   UNL     1      -4.022   7.472 -31.238  1.00  0.00     0.150 C 
HETATM   13  C   UNL     1      -3.953   8.986 -30.975  1.00  0.00     0.254 C 
HETATM   14  N   UNL     1      -4.628   9.323 -29.645  1.00  0.00    -0.068 N 
HETATM   15  H   UNL     1      -5.604   9.004 -29.704  1.00  0.00     0.280 HD
HETATM   16  C   UNL     1      -3.973   8.529 -28.509  1.00  0.00     0.254 C 
HETATM   17  C   UNL     1      -3.965   7.009 -28.809  1.00  0.00     0.150 C 
BRANCH  14  18
HETATM   18  C   UNL     1      -4.635  10.805 -29.349  1.00  0.00     0.230 C 
HETATM   19  C   UNL     1      -3.267  11.412 -29.605  1.00  0.00     0.034 C 
ENDBRANCH  14  18
ENDBRANCH   6  11
ENDBRANCH   1   5
BRANCH   2  20
HETATM   20  C   UNL     1      -3.775   2.876 -32.556  1.00  0.00     0.032 A 
HETATM   21  C   UNL     1      -5.053   3.065 -33.088  1.00  0.00     0.017 A 
HETATM   22  C   UNL     1      -5.952   1.999 -33.133  1.00  0.00     0.010 A 
HETATM   23  C   UNL     1      -5.574   0.730 -32.666  1.00  0.00    -0.034 A 
HETATM   24  C   UNL     1      -4.284   0.549 -32.144  1.00  0.00     0.010 A 
HETATM   25  C   UNL     1      -3.386   1.619 -32.084  1.00  0.00     0.017 A 
BRANCH  23  26
HETATM   26  C   UNL     1      -6.536  -0.431 -32.782  1.00  0.00     0.214 C 
BRANCH  26  27
HETATM   27  O   UNL     1      -6.422  -0.951 -34.102  1.00  0.00    -0.347 OA
BRANCH  27  28
HETATM   28  C   UNL     1      -5.921  -2.215 -34.237  1.00  0.00     0.069 A 
HETATM   29  C   UNL     1      -4.605  -2.611 -33.996  1.00  0.00     0.037 A 
HETATM   30  C   UNL     1      -4.229  -3.945 -34.180  1.00  0.00     0.003 A 
HETATM   31  C   UNL     1      -5.166  -4.887 -34.604  1.00  0.00     0.000 A 
HETATM   32  C   UNL     1      -6.480  -4.497 -34.846  1.00  0.00     0.003 A 
HETATM   33  C   UNL     1      -6.854  -3.166 -34.661  1.00  0.00     0.037 A 
ENDBRANCH  27  28
ENDBRANCH  26  27
ENDBRANCH  23  26
ENDBRANCH   2  20
TORSDOF 7
ENDMDL
MODEL 2
REMARK VINA RESULT:      -8.6      3.246      9.500
REMARK  7 active torsions:
REMARK  status: ('A' for Active; 'I' for Inactive)
REMARK    1  A    between atoms: C_2  and  N_3 
REMARK    2  A    between atoms: N_7  and  C_8 
REMARK    3  A    between atoms: C_9  and  N_10 
REMARK       I    between atoms: N_10  and  C_11 
REMARK    4  A    between atoms: C_11  and  C_12 
REMARK    5  A    between atoms: C_15  and  C_16 
REMARK    6  A    between atoms: C_16  and  O_17 
REMARK    7  A    between atoms: O_17  and  C_18 
ROOT
HETATM    1  N   UNL     1      -4.899   1.344 -33.186  1.00  0.00    -0.321 N 
HETATM    2  C   UNL     1      -4.131   1.654 -32.082  1.00  0.00     0.256 C 
HETATM    3  O   UNL     1      -3.926   0.928 -31.118  1.00  0.00    -0.267 OA
HETATM    4  H   UNL     1      -5.228   2.100 -33.775  1.00  0.00     0.169 HD
ENDROOT
BRANCH   1   5
HETATM    5  C   UNL     1      -5.500   0.091 -33.441  1.00  0.00     0.061 A 
HETATM    6  C   UNL     1      -6.921   0.012 -33.421  1.00  0.00     0.057 A 
HETATM    7  C   UNL     1      -7.492  -1.176 -33.912  1.00  0.00     0.031 A 
HETATM    8  C   UNL     1      -6.704  -2.268 -34.297  1.00  0.00     0.002 A 
HETATM    9  C   UNL     1      -5.321  -2.195 -34.216  1.00  0.00     0.002 A 
HETATM   10  C   UNL     1      -4.718  -1.015 -33.799  1.00  0.00     0.032 A 
BRANCH   6  11
HETATM   11  N   UNL     1      -7.699   1.073 -32.895  1.00  0.00    -0.376 N 
HETATM   12  C   UNL     1      -8.592   0.684 -31.768  1.00  0.00     0.150 C 
HETATM   13  C   UNL     1      -9.941   0.142 -32.269  1.00  0.00     0.254 C 
HETATM   14  N   UNL     1     -10.635   1.181 -33.150  1.00  0.00    -0.068 N 
HETATM   15  H   UNL     1     -10.767   2.029 -32.583  1.00  0.00     0.280 HD
HETATM   16  C   UNL     1      -9.722   1.571 -34.319  1.00  0.00     0.254 C 
HETATM   17  C   UNL     1      -8.331   2.038 -33.821  1.00  0.00     0.150 C 
BRANCH  14  18
HETATM   18  C   UNL     1     -11.991   0.727 -33.638  1.00  0.00     0.230 C 
HETATM   19  C   UNL     1     -12.386   1.469 -34.903  1.00  0.00     0.034 C 
ENDBRANCH  14  18
ENDBRANCH   6  11
ENDBRANCH   1   5
BRANCH   2  20
HETATM   20  C   UNL     1      -3.650   3.056 -32.047  1.00  0.00     0.032 A 
HETATM   21  C   UNL     1      -2.736   3.473 -33.018  1.00  0.00     0.017 A 
HETATM   22  C   UNL     1      -2.263   4.786 -33.008  1.00  0.00     0.010 A 
HETATM   23  C   UNL     1      -2.716   5.698 -32.042  1.00  0.00    -0.034 A 
HETATM   24  C   UNL     1      -3.642   5.271 -31.078  1.00  0.00     0.010 A 
HETATM   25  C   UNL     1      -4.106   3.952 -31.076  1.00  0.00     0.017 A 
BRANCH  23  26
HETATM   26  C   UNL     1      -2.245   7.134 -32.084  1.00  0.00     0.214 C 
BRANCH  26  27
HETATM   27  O   UNL     1      -0.826   7.123 -31.961  1.00  0.00    -0.347 OA
BRANCH  27  28
HETATM   28  C   UNL     1      -0.302   6.682 -30.780  1.00  0.00     0.069 A 
HETATM   29  C   UNL     1       0.398   5.492 -30.581  1.00  0.00     0.037 A 
HETATM   30  C   UNL     1       0.877   5.164 -29.308  1.00  0.00     0.003 A 
HETATM   31  C   UNL     1       0.660   6.023 -28.233  1.00  0.00     0.000 A 
HETATM   32  C   UNL     1      -0.038   7.213 -28.426  1.00  0.00     0.003 A 
HETATM   33  C   UNL     1      -0.514   7.539 -29.696  1.00  0.00     0.037 A 
ENDBRANCH  27  28
ENDBRANCH  26  27
ENDBRANCH  23  26
ENDBRANCH   2  20
TORSDOF 7
ENDMDL
MODEL 3
REMARK VINA RESULT:      -8.2      2.887      9.964
REMARK  7 active torsions:
REMARK  status: ('A' for Active; 'I' for Inactive)
REMARK    1  A    between atoms: C_2  and  N_3 
REMARK    2  A    between atoms: N_7  and  C_8 
REMARK    3  A    between atoms: C_9  and  N_10 
REMARK       I    between atoms: N_10  and  C_11 
REMARK    4  A    between atoms: C_11  and  C_12 
REMARK    5  A    between atoms: C_15  and  C_16 
REMARK    6  A    between atoms: C_16  and  O_17 
REMARK    7  A    between atoms: O_17  and  C_18 
ROOT
HETATM    1  N   UNL     1      -6.187   2.976 -32.420  1.00  0.00    -0.321 N 
HETATM    2  C   UNL     1      -5.226   3.060 -31.434  1.00  0.00     0.256 C 
HETATM    3  O   UNL     1      -5.254   2.495 -30.348  1.00  0.00    -0.267 OA
HETATM    4  H   UNL     1      -6.206   3.687 -33.141  1.00  0.00     0.169 HD
ENDROOT
BRANCH   1   5
HETATM    5  C   UNL     1      -7.325   2.137 -32.387  1.00  0.00     0.061 A 
HETATM    6  C   UNL     1      -7.244   0.871 -33.033  1.00  0.00     0.057 A 
HETATM    7  C   UNL     1      -8.291  -0.033 -32.780  1.00  0.00     0.031 A 
HETATM    8  C   UNL     1      -9.411   0.331 -32.021  1.00  0.00     0.002 A 
HETATM    9  C   UNL     1      -9.506   1.605 -31.481  1.00  0.00     0.002 A 
HETATM   10  C   UNL     1      -8.460   2.505 -31.654  1.00  0.00     0.032 A 
BRANCH   6  11
HETATM   11  N   UNL     1      -6.172   0.573 -33.912  1.00  0.00    -0.376 N 
HETATM   12  C   UNL     1      -6.584  -0.063 -35.194  1.00  0.00     0.150 C 
HETATM   13  C   UNL     1      -6.706  -1.590 -35.063  1.00  0.00     0.254 C 
HETATM   14  N   UNL     1      -5.380  -2.187 -34.586  1.00  0.00    -0.068 N 
HETATM   15  H   UNL     1      -4.661  -1.933 -35.276  1.00  0.00     0.280 HD
HETATM   16  C   UNL     1      -4.963  -1.544 -33.258  1.00  0.00     0.254 C 
HETATM   17  C   UNL     1      -4.922   0.002 -33.364  1.00  0.00     0.150 C 
BRANCH  14  18
HETATM   18  C   UNL     1      -5.419  -3.694 -34.480  1.00  0.00     0.230 C 
HETATM   19  C   UNL     1      -6.669  -4.249 -35.139  1.00  0.00     0.034 C 
ENDBRANCH  14  18
ENDBRANCH   6  11
ENDBRANCH   1   5
BRANCH   2  20
HETATM   20  C   UNL     1      -4.155   4.048 -31.708  1.00  0.00     0.032 A 
HETATM   21  C   UNL     1      -3.130   3.694 -32.589  1.00  0.00     0.017 A 
HETATM   22  C   UNL     1      -2.107   4.601 -32.865  1.00  0.00     0.010 A 
HETATM   23  C   UNL     1      -2.110   5.877 -32.278  1.00  0.00    -0.034 A 
HETATM   24  C   UNL     1      -3.151   6.225 -31.403  1.00  0.00     0.010 A 
HETATM   25  C   UNL     1      -4.169   5.313 -31.114  1.00  0.00     0.017 A 
BRANCH  23  26
HETATM   26  C   UNL     1      -1.030   6.873 -32.637  1.00  0.00     0.214 C 
BRANCH  26  27
HETATM   27  O   UNL     1       0.209   6.347 -32.173  1.00  0.00    -0.347 OA
BRANCH  27  28
HETATM   28  C   UNL     1       0.401   6.295 -30.821  1.00  0.00     0.069 A 
HETATM   29  C   UNL     1       0.645   5.147 -30.066  1.00  0.00     0.037 A 
HETATM   30  C   UNL     1       0.820   5.243 -28.681  1.00  0.00     0.003 A 
HETATM   31  C   UNL     1       0.753   6.483 -28.049  1.00  0.00     0.000 A 
HETATM   32  C   UNL     1       0.510   7.631 -28.798  1.00  0.00     0.003 A 
HETATM   33  C   UNL     1       0.337   7.535 -30.179  1.00  0.00     0.037 A 
ENDBRANCH  27  28
ENDBRANCH  26  27
ENDBRANCH  23  26
ENDBRANCH   2  20
TORSDOF 7
ENDMDL
MODEL 4
REMARK VINA RESULT:      -8.2      3.239      9.860
REMARK  7 active torsions:
REMARK  status: ('A' for Active; 'I' for Inactive)
REMARK    1  A    between atoms: C_2  and  N_3 
REMARK    2  A    between atoms: N_7  and  C_8 
REMARK    3  A    between atoms: C_9  and  N_10 
REMARK       I    between atoms: N_10  and  C_11 
REMARK    4  A    between atoms: C_11  and  C_12 
REMARK    5  A    between atoms: C_15  and  C_16 
REMARK    6  A    between atoms: C_16  and  O_17 
REMARK    7  A    between atoms: O_17  and  C_18 
ROOT
HETATM    1  N   UNL     1      -4.743   1.652 -32.987  1.00  0.00    -0.321 N 
HETATM    2  C   UNL     1      -3.695   1.934 -32.136  1.00  0.00     0.256 C 
HETATM    3  O   UNL     1      -3.122   1.134 -31.406  1.00  0.00    -0.267 OA
HETATM    4  H   UNL     1      -5.315   2.419 -33.321  1.00  0.00     0.169 HD
ENDROOT
BRANCH   1   5
HETATM    5  C   UNL     1      -5.271   0.366 -33.240  1.00  0.00     0.061 A 
HETATM    6  C   UNL     1      -6.686   0.213 -33.259  1.00  0.00     0.057 A 
HETATM    7  C   UNL     1      -7.181  -1.010 -33.748  1.00  0.00     0.031 A 
HETATM    8  C   UNL     1      -6.327  -2.064 -34.095  1.00  0.00     0.002 A 
HETATM    9  C   UNL     1      -4.952  -1.918 -33.978  1.00  0.00     0.002 A 
HETATM   10  C   UNL     1      -4.423  -0.702 -33.561  1.00  0.00     0.032 A 
BRANCH   6  11
HETATM   11  N   UNL     1      -7.533   1.239 -32.769  1.00  0.00    -0.376 N 
HETATM   12  C   UNL     1      -8.429   0.821 -31.655  1.00  0.00     0.150 C 
HETATM   13  C   UNL     1      -9.735   0.197 -32.175  1.00  0.00     0.254 C 
HETATM   14  N   UNL     1     -10.464   1.181 -33.091  1.00  0.00    -0.068 N 
HETATM   15  H   UNL     1     -10.655   2.030 -32.542  1.00  0.00     0.280 HD
HETATM   16  C   UNL     1      -9.547   1.600 -34.246  1.00  0.00     0.254 C 
HETATM   17  C   UNL     1      -8.195   2.152 -33.726  1.00  0.00     0.150 C 
BRANCH  14  18
HETATM   18  C   UNL     1     -11.781   0.645 -33.600  1.00  0.00     0.230 C 
HETATM   19  C   UNL     1     -12.314   1.507 -34.731  1.00  0.00     0.034 C 
ENDBRANCH  14  18
ENDBRANCH   6  11
ENDBRANCH   1   5
BRANCH   2  20
HETATM   20  C   UNL     1      -3.365   3.376 -32.029  1.00  0.00     0.032 A 
HETATM   21  C   UNL     1      -4.023   4.141 -31.062  1.00  0.00     0.017 A 
HETATM   22  C   UNL     1      -3.736   5.501 -30.940  1.00  0.00     0.010 A 
HETATM   23  C   UNL     1      -2.774   6.102 -31.767  1.00  0.00    -0.034 A 
HETATM   24  C   UNL     1      -2.111   5.321 -32.726  1.00  0.00     0.010 A 
HETATM   25  C   UNL     1      -2.408   3.961 -32.862  1.00  0.00     0.017 A 
BRANCH  23  26
HETATM   26  C   UNL     1      -2.426   7.561 -31.578  1.00  0.00     0.214 C 
BRANCH  26  27
HETATM   27  O   UNL     1      -2.556   7.856 -30.192  1.00  0.00    -0.347 OA
BRANCH  27  28
HETATM   28  C   UNL     1      -1.405   8.019 -29.474  1.00  0.00     0.069 A 
HETATM   29  C   UNL     1      -0.207   7.331 -29.668  1.00  0.00     0.037 A 
HETATM   30  C   UNL     1       0.896   7.599 -28.851  1.00  0.00     0.003 A 
HETATM   31  C   UNL     1       0.807   8.556 -27.842  1.00  0.00     0.000 A 
HETATM   32  C   UNL     1      -0.386   9.247 -27.645  1.00  0.00     0.003 A 
HETATM   33  C   UNL     1      -1.486   8.978 -28.460  1.00  0.00     0.037 A 
ENDBRANCH  27  28
ENDBRANCH  26  27
ENDBRANCH  23  26
ENDBRANCH   2  20
TORSDOF 7
ENDMDL
MODEL 5
REMARK VINA RESULT:      -8.1      4.324      9.248
REMARK  7 active torsions:
REMARK  status: ('A' for Active; 'I' for Inactive)
REMARK    1  A    between atoms: C_2  and  N_3 
REMARK    2  A    between atoms: N_7  and  C_8 
REMARK    3  A    between atoms: C_9  and  N_10 
REMARK       I    between atoms: N_10  and  C_11 
REMARK    4  A    between atoms: C_11  and  C_12 
REMARK    5  A    between atoms: C_15  and  C_16 
REMARK    6  A    between atoms: C_16  and  O_17 
REMARK    7  A    between atoms: O_17  and  C_18 
ROOT
HETATM    1  N   UNL     1      -7.003   2.605 -33.671  1.00  0.00    -0.321 N 
HETATM    2  C   UNL     1      -6.185   3.116 -32.685  1.00  0.00     0.256 C 
HETATM    3  O   UNL     1      -6.443   3.171 -31.489  1.00  0.00    -0.267 OA
HETATM    4  H   UNL     1      -6.819   2.862 -34.634  1.00  0.00     0.169 HD
ENDROOT
BRANCH   1   5
HETATM    5  C   UNL     1      -8.244   1.963 -33.457  1.00  0.00     0.061 A 
HETATM    6  C   UNL     1      -9.433   2.678 -33.772  1.00  0.00     0.057 A 
HETATM    7  C   UNL     1     -10.629   1.938 -33.780  1.00  0.00     0.031 A 
HETATM    8  C   UNL     1     -10.667   0.594 -33.390  1.00  0.00     0.002 A 
HETATM    9  C   UNL     1      -9.503  -0.053 -32.997  1.00  0.00     0.002 A 
HETATM   10  C   UNL     1      -8.291   0.627 -33.040  1.00  0.00     0.032 A 
BRANCH   6  11
HETATM   11  N   UNL     1      -9.395   4.072 -34.025  1.00  0.00    -0.376 N 
HETATM   12  C   UNL     1      -9.417   4.923 -32.802  1.00  0.00     0.150 C 
HETATM   13  C   UNL     1     -10.853   5.200 -32.324  1.00  0.00     0.254 C 
HETATM   14  N   UNL     1     -11.662   5.866 -33.438  1.00  0.00    -0.068 N 
HETATM   15  H   UNL     1     -11.182   6.740 -33.688  1.00  0.00     0.280 HD
HETATM   16  C   UNL     1     -11.652   4.984 -34.692  1.00  0.00     0.254 C 
HETATM   17  C   UNL     1     -10.207   4.632 -35.128  1.00  0.00     0.150 C 
BRANCH  14  18
HETATM   18  C   UNL     1     -13.072   6.207 -33.017  1.00  0.00     0.230 C 
HETATM   19  C   UNL     1     -13.927   4.955 -32.928  1.00  0.00     0.034 C 
ENDBRANCH  14  18
ENDBRANCH   6  11
ENDBRANCH   1   5
BRANCH   2  20
HETATM   20  C   UNL     1      -4.954   3.770 -33.190  1.00  0.00     0.032 A 
HETATM   21  C   UNL     1      -3.727   3.410 -32.627  1.00  0.00     0.017 A 
HETATM   22  C   UNL     1      -2.552   4.012 -33.079  1.00  0.00     0.010 A 
HETATM   23  C   UNL     1      -2.592   4.961 -34.113  1.00  0.00    -0.034 A 
HETATM   24  C   UNL     1      -3.828   5.306 -34.679  1.00  0.00     0.010 A 
HETATM   25  C   UNL     1      -5.009   4.717 -34.217  1.00  0.00     0.017 A 
BRANCH  23  26
HETATM   26  C   UNL     1      -1.304   5.555 -34.638  1.00  0.00     0.214 C 
BRANCH  26  27
HETATM   27  O   UNL     1      -1.295   6.935 -34.287  1.00  0.00    -0.347 OA
BRANCH  27  28
HETATM   28  C   UNL     1      -1.244   7.244 -32.957  1.00  0.00     0.069 A 
HETATM   29  C   UNL     1      -2.140   8.058 -32.264  1.00  0.00     0.037 A 
HETATM   30  C   UNL     1      -1.963   8.292 -30.897  1.00  0.00     0.003 A 
HETATM   31  C   UNL     1      -0.892   7.712 -30.218  1.00  0.00     0.000 A 
HETATM   32  C   UNL     1       0.005   6.897 -30.905  1.00  0.00     0.003 A 
HETATM   33  C   UNL     1      -0.174   6.665 -32.269  1.00  0.00     0.037 A 
ENDBRANCH  27  28
ENDBRANCH  26  27
ENDBRANCH  23  26
ENDBRANCH   2  20
TORSDOF 7
ENDMDL
MODEL 6
REMARK VINA RESULT:      -7.9      5.877      8.477
REMARK  7 active torsions:
REMARK  status: ('A' for Active; 'I' for Inactive)
REMARK    1  A    between atoms: C_2  and  N_3 
REMARK    2  A    between atoms: N_7  and  C_8 
REMARK    3  A    between atoms: C_9  and  N_10 
REMARK       I    between atoms: N_10  and  C_11 
REMARK    4  A    between atoms: C_11  and  C_12 
REMARK    5  A    between atoms: C_15  and  C_16 
REMARK    6  A    between atoms: C_16  and  O_17 
REMARK    7  A    between atoms: O_17  and  C_18 
ROOT
HETATM    1  N   UNL     1      -9.412   3.212 -33.927  1.00  0.00    -0.321 N 
HETATM    2  C   UNL     1      -8.619   3.319 -32.803  1.00  0.00     0.256 C 
HETATM    3  O   UNL     1      -8.606   4.257 -32.016  1.00  0.00    -0.267 OA
HETATM    4  H   UNL     1      -9.147   2.547 -34.645  1.00  0.00     0.169 HD
ENDROOT
BRANCH   1   5
HETATM    5  C   UNL     1     -10.422   4.123 -34.308  1.00  0.00     0.061 A 
HETATM    6  C   UNL     1     -11.634   4.133 -33.561  1.00  0.00     0.057 A 
HETATM    7  C   UNL     1     -12.514   5.203 -33.804  1.00  0.00     0.031 A 
HETATM    8  C   UNL     1     -12.266   6.149 -34.806  1.00  0.00     0.002 A 
HETATM    9  C   UNL     1     -11.121   6.059 -35.584  1.00  0.00     0.002 A 
HETATM   10  C   UNL     1     -10.194   5.054 -35.329  1.00  0.00     0.032 A 
BRANCH   6  11
HETATM   11  N   UNL     1     -11.932   3.088 -32.651  1.00  0.00    -0.376 N 
HETATM   12  C   UNL     1     -12.533   1.877 -33.278  1.00  0.00     0.150 C 
HETATM   13  C   UNL     1     -14.061   1.999 -33.409  1.00  0.00     0.254 C 
HETATM   14  N   UNL     1     -14.692   2.245 -32.037  1.00  0.00    -0.068 N 
HETATM   15  H   UNL     1     -14.436   1.453 -31.433  1.00  0.00     0.280 HD
HETATM   16  C   UNL     1     -14.085   3.500 -31.399  1.00  0.00     0.254 C 
HETATM   17  C   UNL     1     -12.538   3.417 -31.342  1.00  0.00     0.150 C 
BRANCH  14  18
HETATM   18  C   UNL     1     -16.199   2.328 -32.091  1.00  0.00     0.230 C 
HETATM   19  C   UNL     1     -16.662   3.772 -32.027  1.00  0.00     0.034 C 
ENDBRANCH  14  18
ENDBRANCH   6  11
ENDBRANCH   1   5
BRANCH   2  20
HETATM   20  C   UNL     1      -7.612   2.240 -32.661  1.00  0.00     0.032 A 
HETATM   21  C   UNL     1      -6.542   2.203 -33.558  1.00  0.00     0.017 A 
HETATM   22  C   UNL     1      -5.580   1.198 -33.451  1.00  0.00     0.010 A 
HETATM   23  C   UNL     1      -5.668   0.236 -32.433  1.00  0.00    -0.034 A 
HETATM   24  C   UNL     1      -6.740   0.290 -31.529  1.00  0.00     0.010 A 
HETATM   25  C   UNL     1      -7.714   1.286 -31.644  1.00  0.00     0.017 A 
BRANCH  23  26
HETATM   26  C   UNL     1      -4.583  -0.807 -32.288  1.00  0.00     0.214 C 
BRANCH  26  27
HETATM   27  O   UNL     1      -4.257  -1.270 -33.595  1.00  0.00    -0.347 OA
BRANCH  27  28
HETATM   28  C   UNL     1      -4.900  -2.390 -34.042  1.00  0.00     0.069 A 
HETATM   29  C   UNL     1      -6.183  -2.442 -34.588  1.00  0.00     0.037 A 
HETATM   30  C   UNL     1      -6.720  -3.665 -35.002  1.00  0.00     0.003 A 
HETATM   31  C   UNL     1      -5.977  -4.838 -34.874  1.00  0.00     0.000 A 
HETATM   32  C   UNL     1      -4.696  -4.791 -34.331  1.00  0.00     0.003 A 
HETATM   33  C   UNL     1      -4.162  -3.570 -33.919  1.00  0.00     0.037 A 
ENDBRANCH  27  28
ENDBRANCH  26  27
ENDBRANCH  23  26
ENDBRANCH   2  20
TORSDOF 7
ENDMDL
MODEL 7
REMARK VINA RESULT:      -7.8      2.939      9.605
REMARK  7 active torsions:
REMARK  status: ('A' for Active; 'I' for Inactive)
REMARK    1  A    between atoms: C_2  and  N_3 
REMARK    2  A    between atoms: N_7  and  C_8 
REMARK    3  A    between atoms: C_9  and  N_10 
REMARK       I    between atoms: N_10  and  C_11 
REMARK    4  A    between atoms: C_11  and  C_12 
REMARK    5  A    between atoms: C_15  and  C_16 
REMARK    6  A    between atoms: C_16  and  O_17 
REMARK    7  A    between atoms: O_17  and  C_18 
ROOT
HETATM    1  N   UNL     1      -3.650   2.824 -31.135  1.00  0.00    -0.321 N 
HETATM    2  C   UNL     1      -3.023   3.713 -31.985  1.00  0.00     0.256 C 
HETATM    3  O   UNL     1      -2.563   3.454 -33.089  1.00  0.00    -0.267 OA
HETATM    4  H   UNL     1      -3.734   3.068 -30.156  1.00  0.00     0.169 HD
ENDROOT
BRANCH   1   5
HETATM    5  C   UNL     1      -3.960   1.479 -31.440  1.00  0.00     0.061 A 
HETATM    6  C   UNL     1      -5.165   1.212 -32.149  1.00  0.00     0.057 A 
HETATM    7  C   UNL     1      -5.326  -0.093 -32.646  1.00  0.00     0.031 A 
HETATM    8  C   UNL     1      -4.404  -1.109 -32.365  1.00  0.00     0.002 A 
HETATM    9  C   UNL     1      -3.285  -0.841 -31.590  1.00  0.00     0.002 A 
HETATM   10  C   UNL     1      -3.056   0.453 -31.136  1.00  0.00     0.032 A 
BRANCH   6  11
HETATM   11  N   UNL     1      -6.153   2.217 -32.302  1.00  0.00    -0.376 N 
HETATM   12  C   UNL     1      -7.201   2.218 -31.243  1.00  0.00     0.150 C 
HETATM   13  C   UNL     1      -8.348   1.248 -31.572  1.00  0.00     0.254 C 
HETATM   14  N   UNL     1      -8.971   1.604 -32.923  1.00  0.00    -0.068 N 
HETATM   15  H   UNL     1      -9.314   2.571 -32.860  1.00  0.00     0.280 HD
HETATM   16  C   UNL     1      -7.896   1.587 -34.016  1.00  0.00     0.254 C 
HETATM   17  C   UNL     1      -6.698   2.500 -33.648  1.00  0.00     0.150 C 
BRANCH  14  18
HETATM   18  C   UNL     1     -10.137   0.714 -33.284  1.00  0.00     0.230 C 
HETATM   19  C   UNL     1     -11.075   1.419 -34.248  1.00  0.00     0.034 C 
ENDBRANCH  14  18
ENDBRANCH   6  11
ENDBRANCH   1   5
BRANCH   2  20
HETATM   20  C   UNL     1      -2.788   5.055 -31.399  1.00  0.00     0.032 A 
HETATM   21  C   UNL     1      -3.808   5.645 -30.650  1.00  0.00     0.017 A 
HETATM   22  C   UNL     1      -3.617   6.908 -30.089  1.00  0.00     0.010 A 
HETATM   23  C   UNL     1      -2.397   7.582 -30.255  1.00  0.00    -0.034 A 
HETATM   24  C   UNL     1      -1.374   6.974 -30.999  1.00  0.00     0.010 A 
HETATM   25  C   UNL     1      -1.568   5.715 -31.575  1.00  0.00     0.017 A 
BRANCH  23  26
HETATM   26  C   UNL     1      -2.180   8.921 -29.586  1.00  0.00     0.214 C 
BRANCH  26  27
HETATM   27  O   UNL     1      -2.063   8.686 -28.186  1.00  0.00    -0.347 OA
BRANCH  27  28
HETATM   28  C   UNL     1      -0.820   8.391 -27.702  1.00  0.00     0.069 A 
HETATM   29  C   UNL     1       0.339   9.144 -27.891  1.00  0.00     0.037 A 
HETATM   30  C   UNL     1       1.551   8.718 -27.337  1.00  0.00     0.003 A 
HETATM   31  C   UNL     1       1.607   7.541 -26.592  1.00  0.00     0.000 A 
HETATM   32  C   UNL     1       0.452   6.787 -26.399  1.00  0.00     0.003 A 
HETATM   33  C   UNL     1      -0.755   7.213 -26.952  1.00  0.00     0.037 A 
ENDBRANCH  27  28
ENDBRANCH  26  27
ENDBRANCH  23  26
ENDBRANCH   2  20
TORSDOF 7
ENDMDL
MODEL 8
REMARK VINA RESULT:      -7.7      1.796      2.545
REMARK  7 active torsions:
REMARK  status: ('A' for Active; 'I' for Inactive)
REMARK    1  A    between atoms: C_2  and  N_3 
REMARK    2  A    between atoms: N_7  and  C_8 
REMARK    3  A    between atoms: C_9  and  N_10 
REMARK       I    between atoms: N_10  and  C_11 
REMARK    4  A    between atoms: C_11  and  C_12 
REMARK    5  A    between atoms: C_15  and  C_16 
REMARK    6  A    between atoms: C_16  and  O_17 
REMARK    7  A    between atoms: O_17  and  C_18 
ROOT
HETATM    1  N   UNL     1      -2.240   5.585 -30.154  1.00  0.00    -0.321 N 
HETATM    2  C   UNL     1      -2.756   5.580 -31.434  1.00  0.00     0.256 C 
HETATM    3  O   UNL     1      -2.672   6.490 -32.250  1.00  0.00    -0.267 OA
HETATM    4  H   UNL     1      -2.602   4.918 -29.483  1.00  0.00     0.169 HD
ENDROOT
BRANCH   1   5
HETATM    5  C   UNL     1      -1.433   6.604 -29.599  1.00  0.00     0.061 A 
HETATM    6  C   UNL     1      -2.035   7.516 -28.687  1.00  0.00     0.057 A 
HETATM    7  C   UNL     1      -1.165   8.358 -27.972  1.00  0.00     0.031 A 
HETATM    8  C   UNL     1       0.212   8.378 -28.222  1.00  0.00     0.002 A 
HETATM    9  C   UNL     1       0.760   7.543 -29.186  1.00  0.00     0.002 A 
HETATM   10  C   UNL     1      -0.059   6.649 -29.867  1.00  0.00     0.032 A 
BRANCH   6  11
HETATM   11  N   UNL     1      -3.445   7.579 -28.551  1.00  0.00    -0.376 N 
HETATM   12  C   UNL     1      -4.037   8.907 -28.874  1.00  0.00     0.150 C 
HETATM   13  C   UNL     1      -4.026   9.850 -27.659  1.00  0.00     0.254 C 
HETATM   14  N   UNL     1      -4.779   9.213 -26.489  1.00  0.00    -0.068 N 
HETATM   15  H   UNL     1      -5.740   9.029 -26.804  1.00  0.00     0.280 HD
HETATM   16  C   UNL     1      -4.160   7.853 -26.146  1.00  0.00     0.254 C 
HETATM   17  C   UNL     1      -4.092   6.930 -27.389  1.00  0.00     0.150 C 
BRANCH  14  18
HETATM   18  C   UNL     1      -4.844  10.110 -25.275  1.00  0.00     0.230 C 
HETATM   19  C   UNL     1      -6.283  10.460 -24.940  1.00  0.00     0.034 C 
ENDBRANCH  14  18
ENDBRANCH   6  11
ENDBRANCH   1   5
BRANCH   2  20
HETATM   20  C   UNL     1      -3.601   4.403 -31.748  1.00  0.00     0.032 A 
HETATM   21  C   UNL     1      -2.992   3.148 -31.830  1.00  0.00     0.017 A 
HETATM   22  C   UNL     1      -3.760   2.022 -32.127  1.00  0.00     0.010 A 
HETATM   23  C   UNL     1      -5.145   2.137 -32.322  1.00  0.00    -0.034 A 
HETATM   24  C   UNL     1      -5.748   3.401 -32.226  1.00  0.00     0.010 A 
HETATM   25  C   UNL     1      -4.979   4.534 -31.944  1.00  0.00     0.017 A 
BRANCH  23  26
HETATM   26  C   UNL     1      -5.975   0.899 -32.578  1.00  0.00     0.214 C 
BRANCH  26  27
HETATM   27  O   UNL     1      -5.711   0.475 -33.912  1.00  0.00    -0.347 OA
BRANCH  27  28
HETATM   28  C   UNL     1      -5.747  -0.868 -34.162  1.00  0.00     0.069 A 
HETATM   29  C   UNL     1      -6.856  -1.597 -34.591  1.00  0.00     0.037 A 
HETATM   30  C   UNL     1      -6.748  -2.976 -34.804  1.00  0.00     0.003 A 
HETATM   31  C   UNL     1      -5.534  -3.627 -34.592  1.00  0.00     0.000 A 
HETATM   32  C   UNL     1      -4.425  -2.903 -34.164  1.00  0.00     0.003 A 
HETATM   33  C   UNL     1      -4.533  -1.528 -33.952  1.00  0.00     0.037 A 
ENDBRANCH  27  28
ENDBRANCH  26  27
ENDBRANCH  23  26
ENDBRANCH   2  20
TORSDOF 7
ENDMDL
MODEL 9
REMARK VINA RESULT:      -7.7      6.138      9.704
REMARK  7 active torsions:
REMARK  status: ('A' for Active; 'I' for Inactive)
REMARK    1  A    between atoms: C_2  and  N_3 
REMARK    2  A    between atoms: N_7  and  C_8 
REMARK    3  A    between atoms: C_9  and  N_10 
REMARK       I    between atoms: N_10  and  C_11 
REMARK    4  A    between atoms: C_11  and  C_12 
REMARK    5  A    between atoms: C_15  and  C_16 
REMARK    6  A    between atoms: C_16  and  O_17 
REMARK    7  A    between atoms: O_17  and  C_18 
ROOT
HETATM    1  N   UNL     1      -8.578   1.744 -34.575  1.00  0.00    -0.321 N 
HETATM    2  C   UNL     1      -9.887   1.714 -34.139  1.00  0.00     0.256 C 
HETATM    3  O   UNL     1     -10.433   0.785 -33.556  1.00  0.00    -0.267 OA
HETATM    4  H   UNL     1      -8.317   2.425 -35.278  1.00  0.00     0.169 HD
ENDROOT
BRANCH   1   5
HETATM    5  C   UNL     1      -7.610   0.744 -34.331  1.00  0.00     0.061 A 
HETATM    6  C   UNL     1      -6.806   0.859 -33.162  1.00  0.00     0.057 A 
HETATM    7  C   UNL     1      -6.028  -0.262 -32.820  1.00  0.00     0.031 A 
HETATM    8  C   UNL     1      -5.962  -1.393 -33.645  1.00  0.00     0.002 A 
HETATM    9  C   UNL     1      -6.686  -1.438 -34.828  1.00  0.00     0.002 A 
HETATM   10  C   UNL     1      -7.517  -0.376 -35.166  1.00  0.00     0.032 A 
BRANCH   6  11
HETATM   11  N   UNL     1      -6.778   2.065 -32.418  1.00  0.00    -0.376 N 
HETATM   12  C   UNL     1      -6.267   3.244 -33.172  1.00  0.00     0.150 C 
HETATM   13  C   UNL     1      -4.734   3.343 -33.110  1.00  0.00     0.254 C 
HETATM   14  N   UNL     1      -4.267   3.412 -31.655  1.00  0.00    -0.068 N 
HETATM   15  H   UNL     1      -4.707   4.238 -31.228  1.00  0.00     0.280 HD
HETATM   16  C   UNL     1      -4.779   2.191 -30.882  1.00  0.00     0.254 C 
HETATM   17  C   UNL     1      -6.316   2.040 -31.013  1.00  0.00     0.150 C 
BRANCH  14  18
HETATM   18  C   UNL     1      -2.769   3.558 -31.525  1.00  0.00     0.230 C 
HETATM   19  C   UNL     1      -2.263   4.707 -32.378  1.00  0.00     0.034 C 
ENDBRANCH  14  18
ENDBRANCH   6  11
ENDBRANCH   1   5
BRANCH   2  20
HETATM   20  C   UNL     1     -10.700   2.879 -34.565  1.00  0.00     0.032 A 
HETATM   21  C   UNL     1     -10.096   4.138 -34.595  1.00  0.00     0.017 A 
HETATM   22  C   UNL     1     -10.837   5.254 -34.989  1.00  0.00     0.010 A 
HETATM   23  C   UNL     1     -12.179   5.116 -35.376  1.00  0.00    -0.034 A 
HETATM   24  C   UNL     1     -12.771   3.844 -35.353  1.00  0.00     0.010 A 
HETATM   25  C   UNL     1     -12.037   2.727 -34.944  1.00  0.00     0.017 A 
BRANCH  23  26
HETATM   26  C   UNL     1     -12.949   6.323 -35.863  1.00  0.00     0.214 C 
BRANCH  26  27
HETATM   27  O   UNL     1     -12.132   7.468 -35.644  1.00  0.00    -0.347 OA
BRANCH  27  28
HETATM   28  C   UNL     1     -11.752   8.186 -36.742  1.00  0.00     0.069 A 
HETATM   29  C   UNL     1     -10.465   8.650 -37.020  1.00  0.00     0.037 A 
HETATM   30  C   UNL     1     -10.219   9.380 -38.187  1.00  0.00     0.003 A 
HETATM   31  C   UNL     1     -11.256   9.647 -39.081  1.00  0.00     0.000 A 
HETATM   32  C   UNL     1     -12.541   9.185 -38.809  1.00  0.00     0.003 A 
HETATM   33  C   UNL     1     -12.785   8.457 -37.644  1.00  0.00     0.037 A 
ENDBRANCH  27  28
ENDBRANCH  26  27
ENDBRANCH  23  26
ENDBRANCH   2  20
TORSDOF 7
ENDMDL
MODEL 10
REMARK VINA RESULT:      -7.5      6.016      8.122
REMARK  7 active torsions:
REMARK  status: ('A' for Active; 'I' for Inactive)
REMARK    1  A    between atoms: C_2  and  N_3 
REMARK    2  A    between atoms: N_7  and  C_8 
REMARK    3  A    between atoms: C_9  and  N_10 
REMARK       I    between atoms: N_10  and  C_11 
REMARK    4  A    between atoms: C_11  and  C_12 
REMARK    5  A    between atoms: C_15  and  C_16 
REMARK    6  A    between atoms: C_16  and  O_17 
REMARK    7  A    between atoms: O_17  and  C_18 
ROOT
HETATM    1  N   UNL     1     -10.853   3.246 -31.680  1.00  0.00    -0.321 N 
HETATM    2  C   UNL     1      -9.706   3.329 -30.917  1.00  0.00     0.256 C 
HETATM    3  O   UNL     1      -9.437   4.210 -30.110  1.00  0.00    -0.267 OA
HETATM    4  H   UNL     1     -10.848   2.651 -32.500  1.00  0.00     0.169 HD
ENDROOT
BRANCH   1   5
HETATM    5  C   UNL     1     -11.965   4.113 -31.585  1.00  0.00     0.061 A 
HETATM    6  C   UNL     1     -12.298   4.904 -32.721  1.00  0.00     0.057 A 
HETATM    7  C   UNL     1     -13.537   5.568 -32.684  1.00  0.00     0.031 A 
HETATM    8  C   UNL     1     -14.353   5.543 -31.546  1.00  0.00     0.002 A 
HETATM    9  C   UNL     1     -13.958   4.839 -30.418  1.00  0.00     0.002 A 
HETATM   10  C   UNL     1     -12.771   4.116 -30.440  1.00  0.00     0.032 A 
BRANCH   6  11
HETATM   11  N   UNL     1     -11.394   5.032 -33.805  1.00  0.00    -0.376 N 
HETATM   12  C   UNL     1     -10.388   6.120 -33.646  1.00  0.00     0.150 C 
HETATM   13  C   UNL     1     -10.930   7.475 -34.132  1.00  0.00     0.254 C 
HETATM   14  N   UNL     1     -11.366   7.377 -35.594  1.00  0.00    -0.068 N 
HETATM   15  H   UNL     1     -10.544   7.090 -36.143  1.00  0.00     0.280 HD
HETATM   16  C   UNL     1     -12.412   6.267 -35.756  1.00  0.00     0.254 C 
HETATM   17  C   UNL     1     -11.901   4.918 -35.190  1.00  0.00     0.150 C 
BRANCH  14  18
HETATM   18  C   UNL     1     -11.866   8.690 -36.147  1.00  0.00     0.230 C 
HETATM   19  C   UNL     1     -11.446   8.861 -37.596  1.00  0.00     0.034 C 
ENDBRANCH  14  18
ENDBRANCH   6  11
ENDBRANCH   1   5
BRANCH   2  20
HETATM   20  C   UNL     1      -8.679   2.312 -31.246  1.00  0.00     0.032 A 
HETATM   21  C   UNL     1      -7.373   2.510 -30.791  1.00  0.00     0.017 A 
HETATM   22  C   UNL     1      -6.384   1.572 -31.088  1.00  0.00     0.010 A 
HETATM   23  C   UNL     1      -6.696   0.418 -31.823  1.00  0.00    -0.034 A 
HETATM   24  C   UNL     1      -8.014   0.223 -32.264  1.00  0.00     0.010 A 
HETATM   25  C   UNL     1      -9.004   1.168 -31.982  1.00  0.00     0.017 A 
BRANCH  23  26
HETATM   26  C   UNL     1      -5.629  -0.622 -32.079  1.00  0.00     0.214 C 
BRANCH  26  27
HETATM   27  O   UNL     1      -5.531  -0.796 -33.489  1.00  0.00    -0.347 OA
BRANCH  27  28
HETATM   28  C   UNL     1      -5.641  -2.069 -33.974  1.00  0.00     0.069 A 
HETATM   29  C   UNL     1      -6.784  -2.644 -34.528  1.00  0.00     0.037 A 
HETATM   30  C   UNL     1      -6.754  -3.967 -34.982  1.00  0.00     0.003 A 
HETATM   31  C   UNL     1      -5.582  -4.716 -34.886  1.00  0.00     0.000 A 
HETATM   32  C   UNL     1      -4.438  -4.145 -34.335  1.00  0.00     0.003 A 
HETATM   33  C   UNL     1      -4.469  -2.826 -33.882  1.00  0.00     0.037 A 
ENDBRANCH  27  28
ENDBRANCH  26  27
ENDBRANCH  23  26
ENDBRANCH   2  20
TORSDOF 7
ENDMDL
