MODEL 1
REMARK VINA RESULT:      -9.2      0.000      0.000
REMARK  9 active torsions:
REMARK  status: ('A' for Active; 'I' for Inactive)
REMARK    1  A    between atoms: C_6  and  C_7 
REMARK    2  A    between atoms: C_7  and  C_8 
REMARK       I    between atoms: C_8  and  N_9 
REMARK    3  A    between atoms: N_9  and  C_10 
REMARK    4  A    between atoms: C_10  and  C_11 
REMARK    5  A    between atoms: C_11  and  N_12 
REMARK    6  A    between atoms: C_20  and  C_21 
REMARK    7  A    between atoms: C_24  and  C_25 
REMARK    8  A    between atoms: C_32  and  C_33 
REMARK    9  A    between atoms: C_33  and  O_34 
ROOT
HETATM    1  C   UNL     1      -8.919   5.015 -33.278  1.00  0.00     0.071 C 
HETATM    2  C   UNL     1      -7.747   4.148 -33.665  1.00  0.00     0.048 C 
HETATM    3  N   UNL     1      -6.679   4.847 -34.251  1.00  0.00    -0.229 NA
HETATM    4  C   UNL     1      -5.488   4.368 -34.063  1.00  0.00     0.170 C 
HETATM    5  N   UNL     1      -5.245   2.968 -33.339  1.00  0.00    -0.319 N 
HETATM    6  C   UNL     1      -4.545   3.352 -32.308  1.00  0.00     0.011 C 
HETATM    7  C   UNL     1      -6.398   2.143 -33.751  1.00  0.00     0.166 C 
HETATM    8  S   UNL     1      -4.013   5.284 -34.097  1.00  0.00    -0.086 SA
HETATM    9  C   UNL     1      -3.337   4.172 -32.770  1.00  0.00     0.135 C 
HETATM   10  C   UNL     1      -7.640   2.840 -33.334  1.00  0.00     0.069 C 
ENDROOT
BRANCH   6  11
HETATM   11  C   UNL     1      -5.241   3.667 -31.008  1.00  0.00     0.156 C 
BRANCH  11  12
HETATM   12  C   UNL     1      -5.431   5.086 -30.551  1.00  0.00     0.223 C 
HETATM   13  N   UNL     1      -4.494   5.496 -29.640  1.00  0.00    -0.359 N 
HETATM   14  H   UNL     1      -3.660   4.910 -29.519  1.00  0.00     0.162 HD
HETATM   15  O   UNL     1      -6.415   5.749 -30.871  1.00  0.00    -0.273 OA
BRANCH  13  16
HETATM   16  C   UNL     1      -4.617   6.534 -28.613  1.00  0.00     0.150 C 
BRANCH  16  17
HETATM   17  C   UNL     1      -3.471   7.534 -28.378  1.00  0.00     0.254 C 
BRANCH  17  18
HETATM   18  N   UNL     1      -2.091   6.909 -28.281  1.00  0.00    -0.070 N 
HETATM   19  H   UNL     1      -2.251   5.889 -28.408  1.00  0.00     0.279 HD
HETATM   20  C   UNL     1      -1.106   7.368 -29.329  1.00  0.00     0.235 C 
HETATM   21  C   UNL     1       0.204   6.604 -29.183  1.00  0.00     0.028 C 
HETATM   22  C   UNL     1       0.785   6.736 -27.782  1.00  0.00     0.003 C 
HETATM   23  C   UNL     1      -0.236   6.321 -26.731  1.00  0.00     0.028 C 
HETATM   24  C   UNL     1      -1.538   7.090 -26.881  1.00  0.00     0.235 C 
ENDBRANCH  17  18
ENDBRANCH  16  17
ENDBRANCH  13  16
ENDBRANCH  11  12
ENDBRANCH   6  11
BRANCH   7  25
HETATM   25  C   UNL     1      -6.272   0.630 -33.776  1.00  0.00    -0.030 A 
HETATM   26  C   UNL     1      -5.279  -0.088 -33.094  1.00  0.00     0.010 A 
HETATM   27  C   UNL     1      -4.991  -1.417 -33.450  1.00  0.00     0.008 A 
HETATM   28  C   UNL     1      -5.679  -2.066 -34.486  1.00  0.00    -0.055 A 
HETATM   29  C   UNL     1      -6.733  -1.389 -35.097  1.00  0.00     0.008 A 
HETATM   30  C   UNL     1      -7.010  -0.063 -34.762  1.00  0.00     0.010 A 
BRANCH  28  31
HETATM   31  C   UNL     1      -5.248  -3.450 -34.953  1.00  0.00     0.010 C 
HETATM   32  C   UNL     1      -4.108  -3.993 -34.094  1.00  0.00     0.015 C 
HETATM   33  C   UNL     1      -6.411  -4.452 -34.993  1.00  0.00     0.015 C 
ENDBRANCH  28  31
ENDBRANCH   7  25
BRANCH  10  34
HETATM   34  C   UNL     1      -8.459   2.192 -32.300  1.00  0.00     0.293 C 
HETATM   35  O   UNL     1      -8.046   2.109 -31.150  1.00  0.00    -0.259 OA
BRANCH  34  36
HETATM   36  O   UNL     1      -9.559   1.630 -32.827  1.00  0.00    -0.323 OA
HETATM   37  C   UNL     1      -9.735   0.251 -32.478  1.00  0.00     0.213 C 
ENDBRANCH  34  36
ENDBRANCH  10  34
TORSDOF 9
ENDMDL
MODEL 2
REMARK VINA RESULT:      -8.5      2.424      3.711
REMARK  9 active torsions:
REMARK  status: ('A' for Active; 'I' for Inactive)
REMARK    1  A    between atoms: C_6  and  C_7 
REMARK    2  A    between atoms: C_7  and  C_8 
REMARK       I    between atoms: C_8  and  N_9 
REMARK    3  A    between atoms: N_9  and  C_10 
REMARK    4  A    between atoms: C_10  and  C_11 
REMARK    5  A    between atoms: C_11  and  N_12 
REMARK    6  A    between atoms: C_20  and  C_21 
REMARK    7  A    between atoms: C_24  and  C_25 
REMARK    8  A    between atoms: C_32  and  C_33 
REMARK    9  A    between atoms: C_33  and  O_34 
ROOT
HETATM    1  C   UNL     1      -5.256   3.842 -29.577  1.00  0.00     0.071 C 
HETATM    2  C   UNL     1      -6.003   2.899 -30.487  1.00  0.00     0.048 C 
HETATM    3  N   UNL     1      -7.401   2.987 -30.389  1.00  0.00    -0.229 NA
HETATM    4  C   UNL     1      -8.085   2.717 -31.459  1.00  0.00     0.170 C 
HETATM    5  N   UNL     1      -7.395   2.155 -32.783  1.00  0.00    -0.319 N 
HETATM    6  C   UNL     1      -7.688   3.106 -33.625  1.00  0.00     0.011 C 
HETATM    7  C   UNL     1      -6.293   1.308 -32.285  1.00  0.00     0.166 C 
HETATM    8  S   UNL     1      -9.671   3.321 -31.826  1.00  0.00    -0.086 SA
HETATM    9  C   UNL     1      -9.197   3.363 -33.622  1.00  0.00     0.135 C 
HETATM   10  C   UNL     1      -5.406   2.147 -31.442  1.00  0.00     0.069 C 
ENDROOT
BRANCH   6  11
HETATM   11  C   UNL     1      -6.713   4.235 -33.846  1.00  0.00     0.156 C 
BRANCH  11  12
HETATM   12  C   UNL     1      -6.842   5.533 -33.098  1.00  0.00     0.223 C 
HETATM   13  N   UNL     1      -5.667   5.959 -32.536  1.00  0.00    -0.359 N 
HETATM   14  H   UNL     1      -4.801   5.500 -32.841  1.00  0.00     0.162 HD
HETATM   15  O   UNL     1      -7.931   6.070 -32.906  1.00  0.00    -0.273 OA
BRANCH  13  16
HETATM   16  C   UNL     1      -5.478   6.817 -31.365  1.00  0.00     0.150 C 
BRANCH  16  17
HETATM   17  C   UNL     1      -4.267   7.763 -31.281  1.00  0.00     0.254 C 
BRANCH  17  18
HETATM   18  N   UNL     1      -2.924   7.101 -31.538  1.00  0.00    -0.070 N 
HETATM   19  H   UNL     1      -3.158   6.187 -31.976  1.00  0.00     0.279 HD
HETATM   20  C   UNL     1      -2.009   7.854 -32.475  1.00  0.00     0.235 C 
HETATM   21  C   UNL     1      -0.742   7.046 -32.724  1.00  0.00     0.028 C 
HETATM   22  C   UNL     1      -0.032   6.689 -31.426  1.00  0.00     0.003 C 
HETATM   23  C   UNL     1      -0.980   5.977 -30.470  1.00  0.00     0.028 C 
HETATM   24  C   UNL     1      -2.240   6.790 -30.223  1.00  0.00     0.235 C 
ENDBRANCH  17  18
ENDBRANCH  16  17
ENDBRANCH  13  16
ENDBRANCH  11  12
ENDBRANCH   6  11
BRANCH   7  25
HETATM   25  C   UNL     1      -5.775   0.165 -33.140  1.00  0.00    -0.030 A 
HETATM   26  C   UNL     1      -6.360  -0.240 -34.348  1.00  0.00     0.010 A 
HETATM   27  C   UNL     1      -6.075  -1.507 -34.887  1.00  0.00     0.008 A 
HETATM   28  C   UNL     1      -5.203  -2.399 -34.245  1.00  0.00    -0.055 A 
HETATM   29  C   UNL     1      -4.544  -1.960 -33.098  1.00  0.00     0.008 A 
HETATM   30  C   UNL     1      -4.839  -0.712 -32.548  1.00  0.00     0.010 A 
BRANCH  28  31
HETATM   31  C   UNL     1      -5.026  -3.819 -34.765  1.00  0.00     0.010 C 
HETATM   32  C   UNL     1      -4.119  -4.636 -33.846  1.00  0.00     0.015 C 
HETATM   33  C   UNL     1      -6.363  -4.546 -34.977  1.00  0.00     0.015 C 
ENDBRANCH  28  31
ENDBRANCH   7  25
BRANCH  10  34
HETATM   34  C   UNL     1      -4.043   2.388 -31.933  1.00  0.00     0.293 C 
HETATM   35  O   UNL     1      -3.091   1.821 -31.412  1.00  0.00    -0.259 OA
BRANCH  34  36
HETATM   36  O   UNL     1      -4.021   3.361 -32.859  1.00  0.00    -0.323 OA
HETATM   37  C   UNL     1      -2.719   3.914 -33.095  1.00  0.00     0.213 C 
ENDBRANCH  34  36
ENDBRANCH  10  34
TORSDOF 9
ENDMDL
MODEL 3
REMARK VINA RESULT:      -8.5      2.675      5.057
REMARK  9 active torsions:
REMARK  status: ('A' for Active; 'I' for Inactive)
REMARK    1  A    between atoms: C_6  and  C_7 
REMARK    2  A    between atoms: C_7  and  C_8 
REMARK       I    between atoms: C_8  and  N_9 
REMARK    3  A    between atoms: N_9  and  C_10 
REMARK    4  A    between atoms: C_10  and  C_11 
REMARK    5  A    between atoms: C_11  and  N_12 
REMARK    6  A    between atoms: C_20  and  C_21 
REMARK    7  A    between atoms: C_24  and  C_25 
REMARK    8  A    between atoms: C_32  and  C_33 
REMARK    9  A    between atoms: C_33  and  O_34 
ROOT
HETATM    1  C   UNL     1      -4.209  -0.388 -31.185  1.00  0.00     0.071 C 
HETATM    2  C   UNL     1      -5.468   0.442 -31.193  1.00  0.00     0.048 C 
HETATM    3  N   UNL     1      -5.530   1.408 -30.176  1.00  0.00    -0.229 NA
HETATM    4  C   UNL     1      -6.194   2.494 -30.433  1.00  0.00     0.170 C 
HETATM    5  N   UNL     1      -7.038   2.669 -31.775  1.00  0.00    -0.319 N 
HETATM    6  C   UNL     1      -6.429   3.693 -32.306  1.00  0.00     0.011 C 
HETATM    7  C   UNL     1      -7.551   1.314 -32.060  1.00  0.00     0.166 C 
HETATM    8  S   UNL     1      -5.932   4.040 -29.689  1.00  0.00    -0.086 SA
HETATM    9  C   UNL     1      -6.375   4.848 -31.302  1.00  0.00     0.135 C 
HETATM   10  C   UNL     1      -6.392   0.395 -32.181  1.00  0.00     0.069 C 
ENDROOT
BRANCH   6  11
HETATM   11  C   UNL     1      -5.307   3.469 -33.287  1.00  0.00     0.156 C 
BRANCH  11  12
HETATM   12  C   UNL     1      -3.889   3.827 -32.943  1.00  0.00     0.223 C 
HETATM   13  N   UNL     1      -3.459   4.985 -33.536  1.00  0.00    -0.359 N 
HETATM   14  H   UNL     1      -4.168   5.593 -33.962  1.00  0.00     0.162 HD
HETATM   15  O   UNL     1      -3.161   3.072 -32.302  1.00  0.00    -0.273 OA
BRANCH  13  16
HETATM   16  C   UNL     1      -2.090   5.379 -33.877  1.00  0.00     0.150 C 
BRANCH  16  17
HETATM   17  C   UNL     1      -1.535   6.740 -33.421  1.00  0.00     0.254 C 
BRANCH  17  18
HETATM   18  N   UNL     1      -0.681   6.690 -32.167  1.00  0.00    -0.070 N 
HETATM   19  H   UNL     1       0.204   7.171 -32.428  1.00  0.00     0.279 HD
HETATM   20  C   UNL     1      -1.266   7.395 -30.966  1.00  0.00     0.235 C 
HETATM   21  C   UNL     1      -0.278   7.356 -29.807  1.00  0.00     0.028 C 
HETATM   22  C   UNL     1       0.137   5.932 -29.464  1.00  0.00     0.003 C 
HETATM   23  C   UNL     1       0.677   5.215 -30.694  1.00  0.00     0.028 C 
HETATM   24  C   UNL     1      -0.315   5.255 -31.845  1.00  0.00     0.235 C 
ENDBRANCH  17  18
ENDBRANCH  16  17
ENDBRANCH  13  16
ENDBRANCH  11  12
ENDBRANCH   6  11
BRANCH   7  25
HETATM   25  C   UNL     1      -8.824   1.145 -32.869  1.00  0.00    -0.030 A 
HETATM   26  C   UNL     1      -9.390   2.152 -33.664  1.00  0.00     0.010 A 
HETATM   27  C   UNL     1     -10.732   2.064 -34.076  1.00  0.00     0.008 A 
HETATM   28  C   UNL     1     -11.541   0.977 -33.713  1.00  0.00    -0.055 A 
HETATM   29  C   UNL     1     -10.953  -0.072 -33.008  1.00  0.00     0.008 A 
HETATM   30  C   UNL     1      -9.628   0.020 -32.580  1.00  0.00     0.010 A 
BRANCH  28  31
HETATM   31  C   UNL     1     -13.028   0.976 -34.041  1.00  0.00     0.010 C 
HETATM   32  C   UNL     1     -13.677  -0.354 -33.660  1.00  0.00     0.015 C 
HETATM   33  C   UNL     1     -13.782   2.144 -33.388  1.00  0.00     0.015 C 
ENDBRANCH  28  31
ENDBRANCH   7  25
BRANCH  10  34
HETATM   34  C   UNL     1      -6.142  -0.199 -33.501  1.00  0.00     0.293 C 
HETATM   35  O   UNL     1      -5.896   0.518 -34.463  1.00  0.00    -0.259 OA
BRANCH  34  36
HETATM   36  O   UNL     1      -6.363  -1.524 -33.492  1.00  0.00    -0.323 OA
HETATM   37  C   UNL     1      -5.782  -2.221 -34.602  1.00  0.00     0.213 C 
ENDBRANCH  34  36
ENDBRANCH  10  34
TORSDOF 9
ENDMDL
MODEL 4
REMARK VINA RESULT:      -8.5      1.744      2.139
REMARK  9 active torsions:
REMARK  status: ('A' for Active; 'I' for Inactive)
REMARK    1  A    between atoms: C_6  and  C_7 
REMARK    2  A    between atoms: C_7  and  C_8 
REMARK       I    between atoms: C_8  and  N_9 
REMARK    3  A    between atoms: N_9  and  C_10 
REMARK    4  A    between atoms: C_10  and  C_11 
REMARK    5  A    between atoms: C_11  and  N_12 
REMARK    6  A    between atoms: C_20  and  C_21 
REMARK    7  A    between atoms: C_24  and  C_25 
REMARK    8  A    between atoms: C_32  and  C_33 
REMARK    9  A    between atoms: C_33  and  O_34 
ROOT
HETATM    1  C   UNL     1      -8.434   5.364 -32.784  1.00  0.00     0.071 C 
HETATM    2  C   UNL     1      -7.404   4.436 -33.378  1.00  0.00     0.048 C 
HETATM    3  N   UNL     1      -6.447   5.075 -34.183  1.00  0.00    -0.229 NA
HETATM    4  C   UNL     1      -5.264   4.541 -34.227  1.00  0.00     0.170 C 
HETATM    5  N   UNL     1      -4.942   3.141 -33.533  1.00  0.00    -0.319 N 
HETATM    6  C   UNL     1      -4.033   3.506 -32.673  1.00  0.00     0.011 C 
HETATM    7  C   UNL     1      -6.190   2.367 -33.685  1.00  0.00     0.166 C 
HETATM    8  S   UNL     1      -3.787   5.384 -34.578  1.00  0.00    -0.086 SA
HETATM    9  C   UNL     1      -2.908   4.261 -33.387  1.00  0.00     0.135 C 
HETATM   10  C   UNL     1      -7.291   3.129 -33.044  1.00  0.00     0.069 C 
ENDROOT
BRANCH   6  11
HETATM   11  C   UNL     1      -4.438   3.873 -31.268  1.00  0.00     0.156 C 
BRANCH  11  12
HETATM   12  C   UNL     1      -4.391   5.297 -30.791  1.00  0.00     0.223 C 
HETATM   13  N   UNL     1      -5.562   5.979 -30.990  1.00  0.00    -0.359 N 
HETATM   14  H   UNL     1      -6.396   5.431 -31.230  1.00  0.00     0.162 HD
HETATM   15  O   UNL     1      -3.352   5.819 -30.391  1.00  0.00    -0.273 OA
BRANCH  13  16
HETATM   16  C   UNL     1      -5.759   7.421 -31.156  1.00  0.00     0.150 C 
BRANCH  16  17
HETATM   17  C   UNL     1      -5.961   8.326 -29.928  1.00  0.00     0.254 C 
BRANCH  17  18
HETATM   18  N   UNL     1      -4.734   9.119 -29.514  1.00  0.00    -0.070 N 
HETATM   19  H   UNL     1      -5.101  10.053 -29.241  1.00  0.00     0.279 HD
HETATM   20  C   UNL     1      -3.969   8.550 -28.342  1.00  0.00     0.235 C 
HETATM   21  C   UNL     1      -2.824   9.481 -27.967  1.00  0.00     0.028 C 
HETATM   22  C   UNL     1      -1.903   9.752 -29.149  1.00  0.00     0.003 C 
HETATM   23  C   UNL     1      -2.693  10.275 -30.341  1.00  0.00     0.028 C 
HETATM   24  C   UNL     1      -3.832   9.340 -30.712  1.00  0.00     0.235 C 
ENDBRANCH  17  18
ENDBRANCH  16  17
ENDBRANCH  13  16
ENDBRANCH  11  12
ENDBRANCH   6  11
BRANCH   7  25
HETATM   25  C   UNL     1      -6.139   0.850 -33.699  1.00  0.00    -0.030 A 
HETATM   26  C   UNL     1      -5.107   0.093 -33.127  1.00  0.00     0.010 A 
HETATM   27  C   UNL     1      -4.925  -1.253 -33.491  1.00  0.00     0.008 A 
HETATM   28  C   UNL     1      -5.762  -1.880 -34.428  1.00  0.00    -0.055 A 
HETATM   29  C   UNL     1      -6.848  -1.159 -34.922  1.00  0.00     0.008 A 
HETATM   30  C   UNL     1      -7.021   0.182 -34.578  1.00  0.00     0.010 A 
BRANCH  28  31
HETATM   31  C   UNL     1      -5.455  -3.288 -34.919  1.00  0.00     0.010 C 
HETATM   32  C   UNL     1      -4.320  -3.919 -34.114  1.00  0.00     0.015 C 
HETATM   33  C   UNL     1      -6.689  -4.203 -34.909  1.00  0.00     0.015 C 
ENDBRANCH  28  31
ENDBRANCH   7  25
BRANCH  10  34
HETATM   34  C   UNL     1      -7.912   2.537 -31.852  1.00  0.00     0.293 C 
HETATM   35  O   UNL     1      -7.294   2.486 -30.796  1.00  0.00    -0.259 OA
BRANCH  34  36
HETATM   36  O   UNL     1      -9.099   1.980 -32.144  1.00  0.00    -0.323 OA
HETATM   37  C   UNL     1      -9.224   0.616 -31.721  1.00  0.00     0.213 C 
ENDBRANCH  34  36
ENDBRANCH  10  34
TORSDOF 9
ENDMDL
MODEL 5
REMARK VINA RESULT:      -8.4      2.578      9.541
REMARK  9 active torsions:
REMARK  status: ('A' for Active; 'I' for Inactive)
REMARK    1  A    between atoms: C_6  and  C_7 
REMARK    2  A    between atoms: C_7  and  C_8 
REMARK       I    between atoms: C_8  and  N_9 
REMARK    3  A    between atoms: N_9  and  C_10 
REMARK    4  A    between atoms: C_10  and  C_11 
REMARK    5  A    between atoms: C_11  and  N_12 
REMARK    6  A    between atoms: C_20  and  C_21 
REMARK    7  A    between atoms: C_24  and  C_25 
REMARK    8  A    between atoms: C_32  and  C_33 
REMARK    9  A    between atoms: C_33  and  O_34 
ROOT
HETATM    1  C   UNL     1      -2.198   5.193 -34.957  1.00  0.00     0.071 C 
HETATM    2  C   UNL     1      -2.996   5.865 -33.869  1.00  0.00     0.048 C 
HETATM    3  N   UNL     1      -4.376   5.933 -34.122  1.00  0.00    -0.229 NA
HETATM    4  C   UNL     1      -5.166   5.914 -33.092  1.00  0.00     0.170 C 
HETATM    5  N   UNL     1      -4.608   5.972 -31.599  1.00  0.00    -0.319 N 
HETATM    6  C   UNL     1      -5.048   4.834 -31.138  1.00  0.00     0.011 C 
HETATM    7  C   UNL     1      -3.413   6.833 -31.692  1.00  0.00     0.166 C 
HETATM    8  S   UNL     1      -6.813   5.366 -33.091  1.00  0.00    -0.086 SA
HETATM    9  C   UNL     1      -6.558   4.723 -31.367  1.00  0.00     0.135 C 
HETATM   10  C   UNL     1      -2.478   6.226 -32.671  1.00  0.00     0.069 C 
ENDROOT
BRANCH   6  11
HETATM   11  C   UNL     1      -4.166   3.612 -31.199  1.00  0.00     0.156 C 
BRANCH  11  12
HETATM   12  C   UNL     1      -4.641   2.341 -31.843  1.00  0.00     0.223 C 
HETATM   13  N   UNL     1      -4.531   1.243 -31.031  1.00  0.00    -0.359 N 
HETATM   14  H   UNL     1      -4.353   1.406 -30.033  1.00  0.00     0.162 HD
HETATM   15  O   UNL     1      -4.963   2.289 -33.028  1.00  0.00    -0.273 OA
BRANCH  13  16
HETATM   16  C   UNL     1      -4.383  -0.163 -31.416  1.00  0.00     0.150 C 
BRANCH  16  17
HETATM   17  C   UNL     1      -3.692  -0.538 -32.739  1.00  0.00     0.254 C 
BRANCH  17  18
HETATM   18  N   UNL     1      -4.576  -1.270 -33.733  1.00  0.00    -0.070 N 
HETATM   19  H   UNL     1      -4.373  -0.823 -34.650  1.00  0.00     0.279 HD
HETATM   20  C   UNL     1      -4.307  -2.751 -33.858  1.00  0.00     0.235 C 
HETATM   21  C   UNL     1      -5.188  -3.350 -34.947  1.00  0.00     0.028 C 
HETATM   22  C   UNL     1      -6.665  -3.076 -34.697  1.00  0.00     0.003 C 
HETATM   23  C   UNL     1      -6.916  -1.584 -34.519  1.00  0.00     0.028 C 
HETATM   24  C   UNL     1      -6.035  -0.995 -33.429  1.00  0.00     0.235 C 
ENDBRANCH  17  18
ENDBRANCH  16  17
ENDBRANCH  13  16
ENDBRANCH  11  12
ENDBRANCH   6  11
BRANCH   7  25
HETATM   25  C   UNL     1      -2.941   7.602 -30.471  1.00  0.00    -0.030 A 
HETATM   26  C   UNL     1      -2.499   8.932 -30.501  1.00  0.00     0.010 A 
HETATM   27  C   UNL     1      -1.739   9.454 -29.440  1.00  0.00     0.008 A 
HETATM   28  C   UNL     1      -1.403   8.673 -28.323  1.00  0.00    -0.055 A 
HETATM   29  C   UNL     1      -1.925   7.383 -28.245  1.00  0.00     0.008 A 
HETATM   30  C   UNL     1      -2.663   6.854 -29.304  1.00  0.00     0.010 A 
BRANCH  28  31
HETATM   31  C   UNL     1      -0.455   9.211 -27.260  1.00  0.00     0.010 C 
HETATM   32  C   UNL     1       0.984   8.773 -27.529  1.00  0.00     0.015 C 
HETATM   33  C   UNL     1      -0.530  10.738 -27.114  1.00  0.00     0.015 C 
ENDBRANCH  28  31
ENDBRANCH   7  25
BRANCH  10  34
HETATM   34  C   UNL     1      -1.197   5.726 -32.156  1.00  0.00     0.293 C 
HETATM   35  O   UNL     1      -1.134   4.623 -31.626  1.00  0.00    -0.259 OA
BRANCH  34  36
HETATM   36  O   UNL     1      -0.240   6.666 -32.225  1.00  0.00    -0.323 OA
HETATM   37  C   UNL     1       0.586   6.747 -31.056  1.00  0.00     0.213 C 
ENDBRANCH  34  36
ENDBRANCH  10  34
TORSDOF 9
ENDMDL
MODEL 6
REMARK VINA RESULT:      -8.3      1.213      1.670
REMARK  9 active torsions:
REMARK  status: ('A' for Active; 'I' for Inactive)
REMARK    1  A    between atoms: C_6  and  C_7 
REMARK    2  A    between atoms: C_7  and  C_8 
REMARK       I    between atoms: C_8  and  N_9 
REMARK    3  A    between atoms: N_9  and  C_10 
REMARK    4  A    between atoms: C_10  and  C_11 
REMARK    5  A    between atoms: C_11  and  N_12 
REMARK    6  A    between atoms: C_20  and  C_21 
REMARK    7  A    between atoms: C_24  and  C_25 
REMARK    8  A    between atoms: C_32  and  C_33 
REMARK    9  A    between atoms: C_33  and  O_34 
ROOT
HETATM    1  C   UNL     1      -8.714   5.330 -33.482  1.00  0.00     0.071 C 
HETATM    2  C   UNL     1      -7.561   4.392 -33.737  1.00  0.00     0.048 C 
HETATM    3  N   UNL     1      -6.381   5.028 -34.155  1.00  0.00    -0.229 NA
HETATM    4  C   UNL     1      -5.259   4.463 -33.827  1.00  0.00     0.170 C 
HETATM    5  N   UNL     1      -5.208   3.034 -33.121  1.00  0.00    -0.319 N 
HETATM    6  C   UNL     1      -4.629   3.346 -31.995  1.00  0.00     0.011 C 
HETATM    7  C   UNL     1      -6.348   2.300 -33.705  1.00  0.00     0.166 C 
HETATM    8  S   UNL     1      -3.736   5.274 -33.638  1.00  0.00    -0.086 SA
HETATM    9  C   UNL     1      -3.319   4.090 -32.269  1.00  0.00     0.135 C 
HETATM   10  C   UNL     1      -7.586   3.073 -33.435  1.00  0.00     0.069 C 
ENDROOT
BRANCH   6  11
HETATM   11  C   UNL     1      -5.470   3.681 -30.789  1.00  0.00     0.156 C 
BRANCH  11  12
HETATM   12  C   UNL     1      -5.605   5.096 -30.303  1.00  0.00     0.223 C 
HETATM   13  N   UNL     1      -4.867   5.360 -29.179  1.00  0.00    -0.359 N 
HETATM   14  H   UNL     1      -4.153   4.675 -28.908  1.00  0.00     0.162 HD
HETATM   15  O   UNL     1      -6.409   5.883 -30.798  1.00  0.00    -0.273 OA
BRANCH  13  16
HETATM   16  C   UNL     1      -5.111   6.371 -28.147  1.00  0.00     0.150 C 
BRANCH  16  17
HETATM   17  C   UNL     1      -4.611   7.814 -28.338  1.00  0.00     0.254 C 
BRANCH  17  18
HETATM   18  N   UNL     1      -3.597   8.277 -27.307  1.00  0.00    -0.070 N 
HETATM   19  H   UNL     1      -3.984   9.169 -26.936  1.00  0.00     0.279 HD
HETATM   20  C   UNL     1      -3.386   7.333 -26.148  1.00  0.00     0.235 C 
HETATM   21  C   UNL     1      -2.423   7.951 -25.142  1.00  0.00     0.028 C 
HETATM   22  C   UNL     1      -1.100   8.338 -25.788  1.00  0.00     0.003 C 
HETATM   23  C   UNL     1      -1.329   9.248 -26.987  1.00  0.00     0.028 C 
HETATM   24  C   UNL     1      -2.288   8.623 -27.988  1.00  0.00     0.235 C 
ENDBRANCH  17  18
ENDBRANCH  16  17
ENDBRANCH  13  16
ENDBRANCH  11  12
ENDBRANCH   6  11
BRANCH   7  25
HETATM   25  C   UNL     1      -6.320   0.783 -33.760  1.00  0.00    -0.030 A 
HETATM   26  C   UNL     1      -5.421  -0.013 -33.036  1.00  0.00     0.010 A 
HETATM   27  C   UNL     1      -5.198  -1.351 -33.406  1.00  0.00     0.008 A 
HETATM   28  C   UNL     1      -5.862  -1.931 -34.498  1.00  0.00    -0.055 A 
HETATM   29  C   UNL     1      -6.829  -1.173 -35.156  1.00  0.00     0.008 A 
HETATM   30  C   UNL     1      -7.039   0.161 -34.805  1.00  0.00     0.010 A 
BRANCH  28  31
HETATM   31  C   UNL     1      -5.494  -3.331 -34.972  1.00  0.00     0.010 C 
HETATM   32  C   UNL     1      -4.309  -3.888 -34.184  1.00  0.00     0.015 C 
HETATM   33  C   UNL     1      -6.678  -4.308 -34.916  1.00  0.00     0.015 C 
ENDBRANCH  28  31
ENDBRANCH   7  25
BRANCH  10  34
HETATM   34  C   UNL     1      -8.576   2.462 -32.539  1.00  0.00     0.293 C 
HETATM   35  O   UNL     1      -9.576   1.925 -33.000  1.00  0.00    -0.259 OA
BRANCH  34  36
HETATM   36  O   UNL     1      -8.291   2.710 -31.250  1.00  0.00    -0.323 OA
HETATM   37  C   UNL     1      -9.407   3.181 -30.484  1.00  0.00     0.213 C 
ENDBRANCH  34  36
ENDBRANCH  10  34
TORSDOF 9
ENDMDL
MODEL 7
REMARK VINA RESULT:      -8.3      1.643      2.155
REMARK  9 active torsions:
REMARK  status: ('A' for Active; 'I' for Inactive)
REMARK    1  A    between atoms: C_6  and  C_7 
REMARK    2  A    between atoms: C_7  and  C_8 
REMARK       I    between atoms: C_8  and  N_9 
REMARK    3  A    between atoms: N_9  and  C_10 
REMARK    4  A    between atoms: C_10  and  C_11 
REMARK    5  A    between atoms: C_11  and  N_12 
REMARK    6  A    between atoms: C_20  and  C_21 
REMARK    7  A    between atoms: C_24  and  C_25 
REMARK    8  A    between atoms: C_32  and  C_33 
REMARK    9  A    between atoms: C_33  and  O_34 
ROOT
HETATM    1  C   UNL     1      -6.705   6.275 -31.168  1.00  0.00     0.071 C 
HETATM    2  C   UNL     1      -6.159   5.238 -32.117  1.00  0.00     0.048 C 
HETATM    3  N   UNL     1      -5.498   5.770 -33.236  1.00  0.00    -0.229 NA
HETATM    4  C   UNL     1      -4.533   5.063 -33.741  1.00  0.00     0.170 C 
HETATM    5  N   UNL     1      -4.206   3.590 -33.226  1.00  0.00    -0.319 N 
HETATM    6  C   UNL     1      -2.986   3.754 -32.796  1.00  0.00     0.011 C 
HETATM    7  C   UNL     1      -5.525   3.029 -32.871  1.00  0.00     0.166 C 
HETATM    8  S   UNL     1      -3.191   5.688 -34.649  1.00  0.00    -0.086 SA
HETATM    9  C   UNL     1      -2.119   4.369 -33.898  1.00  0.00     0.135 C 
HETATM   10  C   UNL     1      -6.145   3.911 -31.850  1.00  0.00     0.069 C 
ENDROOT
BRANCH   6  11
HETATM   11  C   UNL     1      -2.744   4.090 -31.346  1.00  0.00     0.156 C 
BRANCH  11  12
HETATM   12  C   UNL     1      -2.480   5.503 -30.908  1.00  0.00     0.223 C 
HETATM   13  N   UNL     1      -3.326   5.937 -29.922  1.00  0.00    -0.359 N 
HETATM   14  H   UNL     1      -3.891   5.231 -29.437  1.00  0.00     0.162 HD
HETATM   15  O   UNL     1      -1.670   6.226 -31.486  1.00  0.00    -0.273 OA
BRANCH  13  16
HETATM   16  C   UNL     1      -3.736   7.309 -29.613  1.00  0.00     0.150 C 
BRANCH  16  17
HETATM   17  C   UNL     1      -2.897   8.175 -28.657  1.00  0.00     0.254 C 
BRANCH  17  18
HETATM   18  N   UNL     1      -1.496   7.654 -28.390  1.00  0.00    -0.070 N 
HETATM   19  H   UNL     1      -1.339   6.928 -29.119  1.00  0.00     0.279 HD
HETATM   20  C   UNL     1      -0.398   8.684 -28.505  1.00  0.00     0.235 C 
HETATM   21  C   UNL     1       0.960   8.022 -28.310  1.00  0.00     0.028 C 
HETATM   22  C   UNL     1       1.041   7.272 -26.987  1.00  0.00     0.003 C 
HETATM   23  C   UNL     1      -0.102   6.273 -26.861  1.00  0.00     0.028 C 
HETATM   24  C   UNL     1      -1.453   6.942 -27.053  1.00  0.00     0.235 C 
ENDBRANCH  17  18
ENDBRANCH  16  17
ENDBRANCH  13  16
ENDBRANCH  11  12
ENDBRANCH   6  11
BRANCH   7  25
HETATM   25  C   UNL     1      -5.737   1.526 -32.899  1.00  0.00    -0.030 A 
HETATM   26  C   UNL     1      -4.960   0.609 -32.178  1.00  0.00     0.010 A 
HETATM   27  C   UNL     1      -4.960  -0.753 -32.528  1.00  0.00     0.008 A 
HETATM   28  C   UNL     1      -5.729  -1.237 -33.597  1.00  0.00    -0.055 A 
HETATM   29  C   UNL     1      -6.578  -0.345 -34.250  1.00  0.00     0.008 A 
HETATM   30  C   UNL     1      -6.568   1.011 -33.919  1.00  0.00     0.010 A 
BRANCH  28  31
HETATM   31  C   UNL     1      -5.598  -2.684 -34.053  1.00  0.00     0.010 C 
HETATM   32  C   UNL     1      -6.763  -3.086 -34.957  1.00  0.00     0.015 C 
HETATM   33  C   UNL     1      -4.259  -2.968 -34.751  1.00  0.00     0.015 C 
ENDBRANCH  28  31
ENDBRANCH   7  25
BRANCH  10  34
HETATM   34  C   UNL     1      -6.342   3.348 -30.508  1.00  0.00     0.293 C 
HETATM   35  O   UNL     1      -5.480   3.487 -29.649  1.00  0.00    -0.259 OA
BRANCH  34  36
HETATM   36  O   UNL     1      -7.455   2.599 -30.449  1.00  0.00    -0.323 OA
HETATM   37  C   UNL     1      -8.670   3.359 -30.396  1.00  0.00     0.213 C 
ENDBRANCH  34  36
ENDBRANCH  10  34
TORSDOF 9
ENDMDL
MODEL 8
REMARK VINA RESULT:      -8.1      3.333      7.632
REMARK  9 active torsions:
REMARK  status: ('A' for Active; 'I' for Inactive)
REMARK    1  A    between atoms: C_6  and  C_7 
REMARK    2  A    between atoms: C_7  and  C_8 
REMARK       I    between atoms: C_8  and  N_9 
REMARK    3  A    between atoms: N_9  and  C_10 
REMARK    4  A    between atoms: C_10  and  C_11 
REMARK    5  A    between atoms: C_11  and  N_12 
REMARK    6  A    between atoms: C_20  and  C_21 
REMARK    7  A    between atoms: C_24  and  C_25 
REMARK    8  A    between atoms: C_32  and  C_33 
REMARK    9  A    between atoms: C_33  and  O_34 
ROOT
HETATM    1  C   UNL     1      -5.208   5.133 -30.556  1.00  0.00     0.071 C 
HETATM    2  C   UNL     1      -5.967   3.891 -30.951  1.00  0.00     0.048 C 
HETATM    3  N   UNL     1      -7.132   3.662 -30.199  1.00  0.00    -0.229 NA
HETATM    4  C   UNL     1      -8.107   3.048 -30.796  1.00  0.00     0.170 C 
HETATM    5  N   UNL     1      -7.949   2.435 -32.260  1.00  0.00    -0.319 N 
HETATM    6  C   UNL     1      -8.853   3.121 -32.903  1.00  0.00     0.011 C 
HETATM    7  C   UNL     1      -6.546   1.978 -32.312  1.00  0.00     0.166 C 
HETATM    8  S   UNL     1      -9.789   3.183 -30.386  1.00  0.00    -0.086 SA
HETATM    9  C   UNL     1     -10.203   3.009 -32.189  1.00  0.00     0.135 C 
HETATM   10  C   UNL     1      -5.668   3.141 -32.038  1.00  0.00     0.069 C 
ENDROOT
BRANCH   6  11
HETATM   11  C   UNL     1      -8.460   4.389 -33.618  1.00  0.00     0.156 C 
BRANCH  11  12
HETATM   12  C   UNL     1      -9.487   5.248 -34.300  1.00  0.00     0.223 C 
HETATM   13  N   UNL     1     -10.580   5.518 -33.519  1.00  0.00    -0.359 N 
HETATM   14  H   UNL     1     -10.510   5.309 -32.516  1.00  0.00     0.162 HD
HETATM   15  O   UNL     1      -9.399   5.554 -35.487  1.00  0.00    -0.273 OA
BRANCH  13  16
HETATM   16  C   UNL     1     -11.945   5.836 -33.943  1.00  0.00     0.150 C 
BRANCH  16  17
HETATM   17  C   UNL     1     -13.146   5.115 -33.305  1.00  0.00     0.254 C 
BRANCH  17  18
HETATM   18  N   UNL     1     -13.476   3.765 -33.917  1.00  0.00    -0.070 N 
HETATM   19  H   UNL     1     -14.363   3.920 -34.439  1.00  0.00     0.279 HD
HETATM   20  C   UNL     1     -12.446   3.232 -34.883  1.00  0.00     0.235 C 
HETATM   21  C   UNL     1     -12.934   1.926 -35.497  1.00  0.00     0.028 C 
HETATM   22  C   UNL     1     -13.282   0.894 -34.434  1.00  0.00     0.003 C 
HETATM   23  C   UNL     1     -14.282   1.462 -33.436  1.00  0.00     0.028 C 
HETATM   24  C   UNL     1     -13.786   2.762 -32.825  1.00  0.00     0.235 C 
ENDBRANCH  17  18
ENDBRANCH  16  17
ENDBRANCH  13  16
ENDBRANCH  11  12
ENDBRANCH   6  11
BRANCH   7  25
HETATM   25  C   UNL     1      -6.154   0.854 -33.255  1.00  0.00    -0.030 A 
HETATM   26  C   UNL     1      -6.978   0.362 -34.277  1.00  0.00     0.010 A 
HETATM   27  C   UNL     1      -6.722  -0.894 -34.855  1.00  0.00     0.008 A 
HETATM   28  C   UNL     1      -5.644  -1.689 -34.436  1.00  0.00    -0.055 A 
HETATM   29  C   UNL     1      -4.767  -1.159 -33.491  1.00  0.00     0.008 A 
HETATM   30  C   UNL     1      -5.028   0.078 -32.901  1.00  0.00     0.010 A 
BRANCH  28  31
HETATM   31  C   UNL     1      -5.475  -3.106 -34.968  1.00  0.00     0.010 C 
HETATM   32  C   UNL     1      -4.347  -3.838 -34.241  1.00  0.00     0.015 C 
HETATM   33  C   UNL     1      -6.773  -3.925 -34.901  1.00  0.00     0.015 C 
ENDBRANCH  28  31
ENDBRANCH   7  25
BRANCH  10  34
HETATM   34  C   UNL     1      -4.806   3.605 -33.133  1.00  0.00     0.293 C 
HETATM   35  O   UNL     1      -5.300   4.114 -34.131  1.00  0.00    -0.259 OA
BRANCH  34  36
HETATM   36  O   UNL     1      -3.524   3.262 -32.928  1.00  0.00    -0.323 OA
HETATM   37  C   UNL     1      -2.592   4.333 -33.132  1.00  0.00     0.213 C 
ENDBRANCH  34  36
ENDBRANCH  10  34
TORSDOF 9
ENDMDL
MODEL 9
REMARK VINA RESULT:      -7.8      3.048      8.625
REMARK  9 active torsions:
REMARK  status: ('A' for Active; 'I' for Inactive)
REMARK    1  A    between atoms: C_6  and  C_7 
REMARK    2  A    between atoms: C_7  and  C_8 
REMARK       I    between atoms: C_8  and  N_9 
REMARK    3  A    between atoms: N_9  and  C_10 
REMARK    4  A    between atoms: C_10  and  C_11 
REMARK    5  A    between atoms: C_11  and  N_12 
REMARK    6  A    between atoms: C_20  and  C_21 
REMARK    7  A    between atoms: C_24  and  C_25 
REMARK    8  A    between atoms: C_32  and  C_33 
REMARK    9  A    between atoms: C_33  and  O_34 
ROOT
HETATM    1  C   UNL     1      -9.035   3.205 -30.635  1.00  0.00     0.071 C 
HETATM    2  C   UNL     1      -7.580   2.880 -30.861  1.00  0.00     0.048 C 
HETATM    3  N   UNL     1      -7.248   1.532 -30.646  1.00  0.00    -0.229 NA
HETATM    4  C   UNL     1      -6.271   1.046 -31.349  1.00  0.00     0.170 C 
HETATM    5  N   UNL     1      -5.376   1.964 -32.298  1.00  0.00    -0.319 N 
HETATM    6  C   UNL     1      -5.618   1.414 -33.456  1.00  0.00     0.011 C 
HETATM    7  C   UNL     1      -5.305   3.257 -31.590  1.00  0.00     0.166 C 
HETATM    8  S   UNL     1      -6.058  -0.626 -31.765  1.00  0.00    -0.086 SA
HETATM    9  C   UNL     1      -5.337  -0.090 -33.391  1.00  0.00     0.135 C 
HETATM   10  C   UNL     1      -6.689   3.753 -31.387  1.00  0.00     0.069 C 
ENDROOT
BRANCH   6  11
HETATM   11  C   UNL     1      -6.725   1.957 -34.324  1.00  0.00     0.156 C 
BRANCH  11  12
HETATM   12  C   UNL     1      -7.981   1.168 -34.566  1.00  0.00     0.223 C 
HETATM   13  N   UNL     1      -9.051   1.605 -33.830  1.00  0.00    -0.359 N 
HETATM   14  H   UNL     1      -8.969   2.519 -33.369  1.00  0.00     0.162 HD
HETATM   15  O   UNL     1      -7.991   0.151 -35.256  1.00  0.00    -0.273 OA
BRANCH  13  16
HETATM   16  C   UNL     1     -10.223   0.846 -33.391  1.00  0.00     0.150 C 
BRANCH  16  17
HETATM   17  C   UNL     1     -11.627   1.215 -33.903  1.00  0.00     0.254 C 
BRANCH  17  18
HETATM   18  N   UNL     1     -12.506   1.928 -32.891  1.00  0.00    -0.070 N 
HETATM   19  H   UNL     1     -12.354   1.416 -31.999  1.00  0.00     0.279 HD
HETATM   20  C   UNL     1     -12.170   3.383 -32.665  1.00  0.00     0.235 C 
HETATM   21  C   UNL     1     -13.056   3.957 -31.567  1.00  0.00     0.028 C 
HETATM   22  C   UNL     1     -14.535   3.772 -31.876  1.00  0.00     0.003 C 
HETATM   23  C   UNL     1     -14.851   2.309 -32.154  1.00  0.00     0.028 C 
HETATM   24  C   UNL     1     -13.966   1.744 -33.253  1.00  0.00     0.235 C 
ENDBRANCH  17  18
ENDBRANCH  16  17
ENDBRANCH  13  16
ENDBRANCH  11  12
ENDBRANCH   6  11
BRANCH   7  25
HETATM   25  C   UNL     1      -4.125   4.183 -31.827  1.00  0.00    -0.030 A 
HETATM   26  C   UNL     1      -3.038   3.874 -32.656  1.00  0.00     0.010 A 
HETATM   27  C   UNL     1      -1.831   4.587 -32.543  1.00  0.00     0.008 A 
HETATM   28  C   UNL     1      -1.675   5.623 -31.609  1.00  0.00    -0.055 A 
HETATM   29  C   UNL     1      -2.786   5.998 -30.855  1.00  0.00     0.008 A 
HETATM   30  C   UNL     1      -3.979   5.280 -30.950  1.00  0.00     0.010 A 
BRANCH  28  31
HETATM   31  C   UNL     1      -0.317   6.278 -31.400  1.00  0.00     0.010 C 
HETATM   32  C   UNL     1      -0.397   7.399 -30.365  1.00  0.00     0.015 C 
HETATM   33  C   UNL     1       0.776   5.271 -31.012  1.00  0.00     0.015 C 
ENDBRANCH  28  31
ENDBRANCH   7  25
BRANCH  10  34
HETATM   34  C   UNL     1      -7.074   4.978 -32.099  1.00  0.00     0.293 C 
HETATM   35  O   UNL     1      -7.303   6.007 -31.475  1.00  0.00    -0.259 OA
BRANCH  34  36
HETATM   36  O   UNL     1      -7.259   4.747 -33.409  1.00  0.00    -0.323 OA
HETATM   37  C   UNL     1      -8.502   5.244 -33.921  1.00  0.00     0.213 C 
ENDBRANCH  34  36
ENDBRANCH  10  34
TORSDOF 9
ENDMDL
MODEL 10
REMARK VINA RESULT:      -7.8      2.406      3.609
REMARK  9 active torsions:
REMARK  status: ('A' for Active; 'I' for Inactive)
REMARK    1  A    between atoms: C_6  and  C_7 
REMARK    2  A    between atoms: C_7  and  C_8 
REMARK       I    between atoms: C_8  and  N_9 
REMARK    3  A    between atoms: N_9  and  C_10 
REMARK    4  A    between atoms: C_10  and  C_11 
REMARK    5  A    between atoms: C_11  and  N_12 
REMARK    6  A    between atoms: C_20  and  C_21 
REMARK    7  A    between atoms: C_24  and  C_25 
REMARK    8  A    between atoms: C_32  and  C_33 
REMARK    9  A    between atoms: C_33  and  O_34 
ROOT
HETATM    1  C   UNL     1      -7.440   3.773 -29.048  1.00  0.00     0.071 C 
HETATM    2  C   UNL     1      -7.777   3.257 -30.425  1.00  0.00     0.048 C 
HETATM    3  N   UNL     1      -8.967   3.775 -30.961  1.00  0.00    -0.229 NA
HETATM    4  C   UNL     1      -9.031   3.891 -32.252  1.00  0.00     0.170 C 
HETATM    5  N   UNL     1      -7.884   3.329 -33.208  1.00  0.00    -0.319 N 
HETATM    6  C   UNL     1      -7.491   4.432 -33.781  1.00  0.00     0.011 C 
HETATM    7  C   UNL     1      -7.405   2.112 -32.522  1.00  0.00     0.166 C 
HETATM    8  S   UNL     1     -10.028   5.017 -33.119  1.00  0.00    -0.086 SA
HETATM    9  C   UNL     1      -8.690   5.156 -34.400  1.00  0.00     0.135 C 
HETATM   10  C   UNL     1      -6.939   2.495 -31.166  1.00  0.00     0.069 C 
ENDROOT
BRANCH   6  11
HETATM   11  C   UNL     1      -6.337   5.208 -33.198  1.00  0.00     0.156 C 
BRANCH  11  12
HETATM   12  C   UNL     1      -4.996   5.235 -33.876  1.00  0.00     0.223 C 
HETATM   13  N   UNL     1      -4.019   5.839 -33.128  1.00  0.00    -0.359 N 
HETATM   14  H   UNL     1      -4.218   6.013 -32.137  1.00  0.00     0.162 HD
HETATM   15  O   UNL     1      -4.844   4.870 -35.039  1.00  0.00    -0.273 OA
BRANCH  13  16
HETATM   16  C   UNL     1      -2.802   6.509 -33.593  1.00  0.00     0.150 C 
BRANCH  16  17
HETATM   17  C   UNL     1      -1.417   5.952 -33.219  1.00  0.00     0.254 C 
BRANCH  17  18
HETATM   18  N   UNL     1      -1.060   6.071 -31.748  1.00  0.00    -0.070 N 
HETATM   19  H   UNL     1      -1.865   5.648 -31.244  1.00  0.00     0.279 HD
HETATM   20  C   UNL     1       0.195   5.339 -31.333  1.00  0.00     0.235 C 
HETATM   21  C   UNL     1       0.391   5.456 -29.828  1.00  0.00     0.028 C 
HETATM   22  C   UNL     1       0.421   6.908 -29.370  1.00  0.00     0.003 C 
HETATM   23  C   UNL     1      -0.824   7.648 -29.839  1.00  0.00     0.028 C 
HETATM   24  C   UNL     1      -1.012   7.531 -31.343  1.00  0.00     0.235 C 
ENDBRANCH  17  18
ENDBRANCH  16  17
ENDBRANCH  13  16
ENDBRANCH  11  12
ENDBRANCH   6  11
BRANCH   7  25
HETATM   25  C   UNL     1      -6.765   0.995 -33.327  1.00  0.00    -0.030 A 
HETATM   26  C   UNL     1      -7.154   0.641 -34.627  1.00  0.00     0.010 A 
HETATM   27  C   UNL     1      -6.794  -0.609 -35.162  1.00  0.00     0.008 A 
HETATM   28  C   UNL     1      -6.040  -1.533 -34.424  1.00  0.00    -0.055 A 
HETATM   29  C   UNL     1      -5.568  -1.143 -33.172  1.00  0.00     0.008 A 
HETATM   30  C   UNL     1      -5.939   0.087 -32.629  1.00  0.00     0.010 A 
BRANCH  28  31
HETATM   31  C   UNL     1      -5.791  -2.935 -34.964  1.00  0.00     0.010 C 
HETATM   32  C   UNL     1      -4.490  -3.517 -34.412  1.00  0.00     0.015 C 
HETATM   33  C   UNL     1      -6.960  -3.893 -34.693  1.00  0.00     0.015 C 
ENDBRANCH  28  31
ENDBRANCH   7  25
BRANCH  10  34
HETATM   34  C   UNL     1      -5.505   2.353 -30.884  1.00  0.00     0.293 C 
HETATM   35  O   UNL     1      -5.127   1.656 -29.950  1.00  0.00    -0.259 OA
BRANCH  34  36
HETATM   36  O   UNL     1      -4.769   3.164 -31.661  1.00  0.00    -0.323 OA
HETATM   37  C   UNL     1      -3.377   2.824 -31.711  1.00  0.00     0.213 C 
ENDBRANCH  34  36
ENDBRANCH  10  34
TORSDOF 9
ENDMDL
