MODEL 1
REMARK VINA RESULT:      -8.9      0.000      0.000
REMARK  6 active torsions:
REMARK  status: ('A' for Active; 'I' for Inactive)
REMARK    1  A    between atoms: C_7  and  S_8 
REMARK    2  A    between atoms: S_8  and  C_9 
REMARK    3  A    between atoms: C_9  and  C_10 
REMARK    4  A    between atoms: C_18  and  C_19 
REMARK    5  A    between atoms: C_26  and  C_27 
REMARK    6  A    between atoms: C_27  and  O_28 
ROOT
HETATM    1  C   UNL     1      -7.213   5.002 -29.908  1.00  0.00     0.070 C 
HETATM    2  C   UNL     1      -6.235   4.217 -30.746  1.00  0.00     0.037 C 
HETATM    3  N   UNL     1      -5.741   3.053 -30.161  1.00  0.00    -0.192 N 
HETATM    4  C   UNL     1      -5.083   2.108 -30.860  1.00  0.00     0.726 A 
HETATM    5  N   UNL     1      -4.688   2.372 -32.141  1.00  0.00    -0.082 N 
HETATM    6  N   UNL     1      -4.141   1.284 -32.722  1.00  0.00    -0.128 NA
HETATM    7  C   UNL     1      -4.213   0.402 -31.715  1.00  0.00     0.226 A 
HETATM    8  N   UNL     1      -4.769   0.879 -30.553  1.00  0.00    -0.035 NA
HETATM    9  C   UNL     1      -4.929   3.650 -32.822  1.00  0.00     0.203 C 
HETATM   10  C   UNL     1      -5.877   4.534 -32.016  1.00  0.00     0.070 C 
HETATM   11  H   UNL     1      -6.111   2.796 -29.248  1.00  0.00     0.184 HD
ENDROOT
BRANCH   7  12
HETATM   12  S   UNL     1      -3.713  -1.259 -31.855  1.00  0.00    -0.083 SA
BRANCH  12  13
HETATM   13  C   UNL     1      -3.658  -1.471 -33.655  1.00  0.00     0.123 C 
BRANCH  13  14
HETATM   14  C   UNL     1      -4.619  -2.552 -34.099  1.00  0.00    -0.027 A 
HETATM   15  C   UNL     1      -5.950  -2.289 -34.461  1.00  0.00     0.041 A 
HETATM   16 CL   UNL     1      -6.604  -0.689 -34.468  1.00  0.00    -0.084 Cl
HETATM   17  C   UNL     1      -6.807  -3.333 -34.829  1.00  0.00     0.024 A 
HETATM   18  C   UNL     1      -6.351  -4.651 -34.831  1.00  0.00     0.002 A 
HETATM   19  C   UNL     1      -5.038  -4.929 -34.467  1.00  0.00     0.001 A 
HETATM   20  C   UNL     1      -4.179  -3.890 -34.103  1.00  0.00     0.009 A 
ENDBRANCH  13  14
ENDBRANCH  12  13
ENDBRANCH   7  12
BRANCH   9  21
HETATM   21  C   UNL     1      -3.602   4.353 -33.111  1.00  0.00    -0.026 A 
HETATM   22  C   UNL     1      -2.641   4.474 -32.093  1.00  0.00     0.033 A 
HETATM   23  C   UNL     1      -1.415   5.090 -32.349  1.00  0.00     0.034 A 
HETATM   24 CL   UNL     1      -0.247   5.226 -31.092  1.00  0.00    -0.084 Cl
HETATM   25  C   UNL     1      -1.125   5.588 -33.617  1.00  0.00     0.024 A 
HETATM   26  C   UNL     1      -2.065   5.469 -34.639  1.00  0.00     0.002 A 
HETATM   27  C   UNL     1      -3.294   4.853 -34.390  1.00  0.00     0.010 A 
ENDBRANCH   9  21
BRANCH  10  28
HETATM   28  C   UNL     1      -6.391   5.689 -32.781  1.00  0.00     0.293 C 
HETATM   29  O   UNL     1      -6.249   6.844 -32.404  1.00  0.00    -0.259 OA
BRANCH  28  30
HETATM   30  O   UNL     1      -7.072   5.292 -33.881  1.00  0.00    -0.323 OA
HETATM   31  C   UNL     1      -8.446   4.985 -33.635  1.00  0.00     0.213 C 
ENDBRANCH  28  30
ENDBRANCH  10  28
TORSDOF 6
ENDMDL
MODEL 2
REMARK VINA RESULT:      -8.6      1.415      1.827
REMARK  6 active torsions:
REMARK  status: ('A' for Active; 'I' for Inactive)
REMARK    1  A    between atoms: C_7  and  S_8 
REMARK    2  A    between atoms: S_8  and  C_9 
REMARK    3  A    between atoms: C_9  and  C_10 
REMARK    4  A    between atoms: C_18  and  C_19 
REMARK    5  A    between atoms: C_26  and  C_27 
REMARK    6  A    between atoms: C_27  and  O_28 
ROOT
HETATM    1  C   UNL     1      -5.791   6.339 -28.546  1.00  0.00     0.070 C 
HETATM    2  C   UNL     1      -5.494   5.388 -29.678  1.00  0.00     0.037 C 
HETATM    3  N   UNL     1      -5.324   4.054 -29.314  1.00  0.00    -0.192 N 
HETATM    4  C   UNL     1      -5.323   3.047 -30.209  1.00  0.00     0.726 A 
HETATM    5  N   UNL     1      -5.271   3.336 -31.544  1.00  0.00    -0.082 N 
HETATM    6  N   UNL     1      -5.386   2.219 -32.293  1.00  0.00    -0.128 NA
HETATM    7  C   UNL     1      -5.474   1.285 -31.335  1.00  0.00     0.226 A 
HETATM    8  N   UNL     1      -5.422   1.756 -30.046  1.00  0.00    -0.035 NA
HETATM    9  C   UNL     1      -5.206   4.699 -32.082  1.00  0.00     0.203 C 
HETATM   10  C   UNL     1      -5.450   5.736 -30.989  1.00  0.00     0.070 C 
HETATM   11  H   UNL     1      -5.465   3.816 -28.334  1.00  0.00     0.184 HD
ENDROOT
BRANCH   7  12
HETATM   12  S   UNL     1      -5.712  -0.408 -31.663  1.00  0.00    -0.083 SA
BRANCH  12  13
HETATM   13  C   UNL     1      -4.757  -0.619 -33.191  1.00  0.00     0.123 C 
BRANCH  13  14
HETATM   14  C   UNL     1      -5.034  -1.968 -33.816  1.00  0.00    -0.027 A 
HETATM   15  C   UNL     1      -6.183  -2.237 -34.578  1.00  0.00     0.041 A 
HETATM   16 CL   UNL     1      -7.375  -1.028 -34.902  1.00  0.00    -0.084 Cl
HETATM   17  C   UNL     1      -6.406  -3.515 -35.102  1.00  0.00     0.024 A 
HETATM   18  C   UNL     1      -5.493  -4.543 -34.866  1.00  0.00     0.002 A 
HETATM   19  C   UNL     1      -4.354  -4.296 -34.107  1.00  0.00     0.001 A 
HETATM   20  C   UNL     1      -4.126  -3.020 -33.586  1.00  0.00     0.009 A 
ENDBRANCH  13  14
ENDBRANCH  12  13
ENDBRANCH   7  12
BRANCH   9  21
HETATM   21  C   UNL     1      -3.870   4.924 -32.792  1.00  0.00    -0.026 A 
HETATM   22  C   UNL     1      -2.683   4.981 -32.041  1.00  0.00     0.033 A 
HETATM   23  C   UNL     1      -1.454   5.158 -32.677  1.00  0.00     0.034 A 
HETATM   24 CL   UNL     1      -0.009   5.222 -31.743  1.00  0.00    -0.084 Cl
HETATM   25  C   UNL     1      -1.384   5.277 -34.063  1.00  0.00     0.024 A 
HETATM   26  C   UNL     1      -2.552   5.215 -34.821  1.00  0.00     0.002 A 
HETATM   27  C   UNL     1      -3.786   5.036 -34.192  1.00  0.00     0.010 A 
ENDBRANCH   9  21
BRANCH  10  28
HETATM   28  C   UNL     1      -5.696   7.095 -31.517  1.00  0.00     0.293 C 
HETATM   29  O   UNL     1      -6.729   7.398 -32.097  1.00  0.00    -0.259 OA
BRANCH  28  30
HETATM   30  O   UNL     1      -4.624   7.901 -31.330  1.00  0.00    -0.323 OA
HETATM   31  C   UNL     1      -4.956   9.210 -30.862  1.00  0.00     0.213 C 
ENDBRANCH  28  30
ENDBRANCH  10  28
TORSDOF 6
ENDMDL
MODEL 3
REMARK VINA RESULT:      -8.4      2.873      7.462
REMARK  6 active torsions:
REMARK  status: ('A' for Active; 'I' for Inactive)
REMARK    1  A    between atoms: C_7  and  S_8 
REMARK    2  A    between atoms: S_8  and  C_9 
REMARK    3  A    between atoms: C_9  and  C_10 
REMARK    4  A    between atoms: C_18  and  C_19 
REMARK    5  A    between atoms: C_26  and  C_27 
REMARK    6  A    between atoms: C_27  and  O_28 
ROOT
HETATM    1  C   UNL     1      -8.707   4.344 -33.180  1.00  0.00     0.070 C 
HETATM    2  C   UNL     1      -7.244   3.983 -33.128  1.00  0.00     0.037 C 
HETATM    3  N   UNL     1      -6.439   4.590 -34.090  1.00  0.00    -0.192 N 
HETATM    4  C   UNL     1      -5.094   4.593 -34.020  1.00  0.00     0.726 A 
HETATM    5  N   UNL     1      -4.467   3.801 -33.100  1.00  0.00    -0.082 N 
HETATM    6  N   UNL     1      -3.134   4.009 -33.098  1.00  0.00    -0.128 NA
HETATM    7  C   UNL     1      -3.024   4.926 -34.070  1.00  0.00     0.226 A 
HETATM    8  N   UNL     1      -4.205   5.294 -34.668  1.00  0.00    -0.035 NA
HETATM    9  C   UNL     1      -5.176   2.918 -32.166  1.00  0.00     0.203 C 
HETATM   10  C   UNL     1      -6.679   3.183 -32.188  1.00  0.00     0.070 C 
HETATM   11  H   UNL     1      -6.883   5.262 -34.713  1.00  0.00     0.184 HD
ENDROOT
BRANCH   7  12
HETATM   12  S   UNL     1      -1.518   5.672 -34.522  1.00  0.00    -0.083 SA
BRANCH  12  13
HETATM   13  C   UNL     1      -1.550   7.186 -33.524  1.00  0.00     0.123 C 
BRANCH  13  14
HETATM   14  C   UNL     1      -0.995   6.930 -32.141  1.00  0.00    -0.027 A 
HETATM   15  C   UNL     1      -1.268   7.761 -31.042  1.00  0.00     0.041 A 
HETATM   16 CL   UNL     1      -2.302   9.141 -31.166  1.00  0.00    -0.084 Cl
HETATM   17  C   UNL     1      -0.697   7.498 -29.791  1.00  0.00     0.024 A 
HETATM   18  C   UNL     1       0.159   6.410 -29.622  1.00  0.00     0.002 A 
HETATM   19  C   UNL     1       0.446   5.582 -30.703  1.00  0.00     0.001 A 
HETATM   20  C   UNL     1      -0.125   5.839 -31.950  1.00  0.00     0.009 A 
ENDBRANCH  13  14
ENDBRANCH  12  13
ENDBRANCH   7  12
BRANCH   9  21
HETATM   21  C   UNL     1      -4.851   1.455 -32.472  1.00  0.00    -0.026 A 
HETATM   22  C   UNL     1      -5.622   0.753 -33.414  1.00  0.00     0.033 A 
HETATM   23  C   UNL     1      -5.321  -0.574 -33.724  1.00  0.00     0.034 A 
HETATM   24 CL   UNL     1      -6.273  -1.419 -34.883  1.00  0.00    -0.084 Cl
HETATM   25  C   UNL     1      -4.252  -1.220 -33.108  1.00  0.00     0.024 A 
HETATM   26  C   UNL     1      -3.473  -0.534 -32.177  1.00  0.00     0.002 A 
HETATM   27  C   UNL     1      -3.768   0.794 -31.863  1.00  0.00     0.010 A 
ENDBRANCH   9  21
BRANCH  10  28
HETATM   28  C   UNL     1      -7.401   2.547 -31.066  1.00  0.00     0.293 C 
HETATM   29  O   UNL     1      -8.264   1.698 -31.237  1.00  0.00    -0.259 OA
BRANCH  28  30
HETATM   30  O   UNL     1      -7.028   3.071 -29.875  1.00  0.00    -0.323 OA
HETATM   31  C   UNL     1      -7.728   4.266 -29.521  1.00  0.00     0.213 C 
ENDBRANCH  28  30
ENDBRANCH  10  28
TORSDOF 6
ENDMDL
MODEL 4
REMARK VINA RESULT:      -8.4      4.719      6.125
REMARK  6 active torsions:
REMARK  status: ('A' for Active; 'I' for Inactive)
REMARK    1  A    between atoms: C_7  and  S_8 
REMARK    2  A    between atoms: S_8  and  C_9 
REMARK    3  A    between atoms: C_9  and  C_10 
REMARK    4  A    between atoms: C_18  and  C_19 
REMARK    5  A    between atoms: C_26  and  C_27 
REMARK    6  A    between atoms: C_27  and  O_28 
ROOT
HETATM    1  C   UNL     1     -13.730   0.659 -34.249  1.00  0.00     0.070 C 
HETATM    2  C   UNL     1     -12.315   1.147 -34.058  1.00  0.00     0.037 C 
HETATM    3  N   UNL     1     -11.528   0.387 -33.195  1.00  0.00    -0.192 N 
HETATM    4  C   UNL     1     -10.189   0.517 -33.123  1.00  0.00     0.726 A 
HETATM    5  N   UNL     1      -9.582   1.569 -33.750  1.00  0.00    -0.082 N 
HETATM    6  N   UNL     1      -8.238   1.484 -33.663  1.00  0.00    -0.128 NA
HETATM    7  C   UNL     1      -8.106   0.363 -32.939  1.00  0.00     0.226 A 
HETATM    8  N   UNL     1      -9.283  -0.246 -32.577  1.00  0.00    -0.035 NA
HETATM    9  C   UNL     1     -10.306   2.596 -34.508  1.00  0.00     0.203 C 
HETATM   10  C   UNL     1     -11.768   2.205 -34.708  1.00  0.00     0.070 C 
HETATM   11  H   UNL     1     -11.943  -0.457 -32.806  1.00  0.00     0.184 HD
ENDROOT
BRANCH   7  12
HETATM   12  S   UNL     1      -6.567  -0.342 -32.530  1.00  0.00    -0.083 SA
BRANCH  12  13
HETATM   13  C   UNL     1      -5.931  -0.797 -34.166  1.00  0.00     0.123 C 
BRANCH  13  14
HETATM   14  C   UNL     1      -5.507  -2.249 -34.193  1.00  0.00    -0.027 A 
HETATM   15  C   UNL     1      -4.316  -2.709 -33.606  1.00  0.00     0.041 A 
HETATM   16 CL   UNL     1      -3.239  -1.652 -32.762  1.00  0.00    -0.084 Cl
HETATM   17  C   UNL     1      -3.955  -4.058 -33.693  1.00  0.00     0.024 A 
HETATM   18  C   UNL     1      -4.769  -4.963 -34.373  1.00  0.00     0.002 A 
HETATM   19  C   UNL     1      -5.948  -4.523 -34.966  1.00  0.00     0.001 A 
HETATM   20  C   UNL     1      -6.313  -3.178 -34.878  1.00  0.00     0.009 A 
ENDBRANCH  13  14
ENDBRANCH  12  13
ENDBRANCH   7  12
BRANCH   9  21
HETATM   21  C   UNL     1     -10.169   3.955 -33.820  1.00  0.00    -0.026 A 
HETATM   22  C   UNL     1     -10.805   4.179 -32.586  1.00  0.00     0.033 A 
HETATM   23  C   UNL     1     -10.667   5.405 -31.934  1.00  0.00     0.034 A 
HETATM   24 CL   UNL     1     -11.449   5.661 -30.422  1.00  0.00    -0.084 Cl
HETATM   25  C   UNL     1      -9.895   6.421 -32.491  1.00  0.00     0.024 A 
HETATM   26  C   UNL     1      -9.253   6.211 -33.710  1.00  0.00     0.002 A 
HETATM   27  C   UNL     1      -9.385   4.986 -34.369  1.00  0.00     0.010 A 
ENDBRANCH   9  21
BRANCH  10  28
HETATM   28  C   UNL     1     -12.464   3.041 -35.709  1.00  0.00     0.293 C 
HETATM   29  O   UNL     1     -12.357   2.852 -36.912  1.00  0.00    -0.259 OA
BRANCH  28  30
HETATM   30  O   UNL     1     -13.155   4.046 -35.122  1.00  0.00    -0.323 OA
HETATM   31  C   UNL     1     -12.914   5.331 -35.699  1.00  0.00     0.213 C 
ENDBRANCH  28  30
ENDBRANCH  10  28
TORSDOF 6
ENDMDL
MODEL 5
REMARK VINA RESULT:      -8.4      2.976      7.303
REMARK  6 active torsions:
REMARK  status: ('A' for Active; 'I' for Inactive)
REMARK    1  A    between atoms: C_7  and  S_8 
REMARK    2  A    between atoms: S_8  and  C_9 
REMARK    3  A    between atoms: C_9  and  C_10 
REMARK    4  A    between atoms: C_18  and  C_19 
REMARK    5  A    between atoms: C_26  and  C_27 
REMARK    6  A    between atoms: C_27  and  O_28 
ROOT
HETATM    1  C   UNL     1      -8.839   5.164 -32.824  1.00  0.00     0.070 C 
HETATM    2  C   UNL     1      -7.471   4.542 -32.955  1.00  0.00     0.037 C 
HETATM    3  N   UNL     1      -6.609   5.168 -33.852  1.00  0.00    -0.192 N 
HETATM    4  C   UNL     1      -5.286   4.915 -33.891  1.00  0.00     0.726 A 
HETATM    5  N   UNL     1      -4.783   3.859 -33.184  1.00  0.00    -0.082 N 
HETATM    6  N   UNL     1      -3.436   3.819 -33.252  1.00  0.00    -0.128 NA
HETATM    7  C   UNL     1      -3.195   4.872 -34.047  1.00  0.00     0.226 A 
HETATM    8  N   UNL     1      -4.308   5.556 -34.471  1.00  0.00    -0.035 NA
HETATM    9  C   UNL     1      -5.606   2.955 -32.372  1.00  0.00     0.203 C 
HETATM   10  C   UNL     1      -7.030   3.486 -32.225  1.00  0.00     0.070 C 
HETATM   11  H   UNL     1      -6.942   6.017 -34.305  1.00  0.00     0.184 HD
ENDROOT
BRANCH   7  12
HETATM   12  S   UNL     1      -1.595   5.407 -34.474  1.00  0.00    -0.083 SA
BRANCH  12  13
HETATM   13  C   UNL     1      -1.476   6.965 -33.554  1.00  0.00     0.123 C 
BRANCH  13  14
HETATM   14  C   UNL     1      -0.988   6.720 -32.143  1.00  0.00    -0.027 A 
HETATM   15  C   UNL     1      -1.261   7.593 -31.078  1.00  0.00     0.041 A 
HETATM   16 CL   UNL     1      -2.218   9.019 -31.278  1.00  0.00    -0.084 Cl
HETATM   17  C   UNL     1      -0.752   7.337 -29.799  1.00  0.00     0.024 A 
HETATM   18  C   UNL     1       0.042   6.214 -29.569  1.00  0.00     0.002 A 
HETATM   19  C   UNL     1       0.328   5.343 -30.616  1.00  0.00     0.001 A 
HETATM   20  C   UNL     1      -0.181   5.594 -31.891  1.00  0.00     0.009 A 
ENDBRANCH  13  14
ENDBRANCH  12  13
ENDBRANCH   7  12
BRANCH   9  21
HETATM   21  C   UNL     1      -5.583   1.545 -32.964  1.00  0.00    -0.026 A 
HETATM   22  C   UNL     1      -4.774   0.556 -32.378  1.00  0.00     0.033 A 
HETATM   23  C   UNL     1      -4.763  -0.742 -32.891  1.00  0.00     0.034 A 
HETATM   24 CL   UNL     1      -3.769  -1.942 -32.160  1.00  0.00    -0.084 Cl
HETATM   25  C   UNL     1      -5.556  -1.077 -33.985  1.00  0.00     0.024 A 
HETATM   26  C   UNL     1      -6.369  -0.110 -34.572  1.00  0.00     0.002 A 
HETATM   27  C   UNL     1      -6.386   1.191 -34.064  1.00  0.00     0.010 A 
ENDBRANCH   9  21
BRANCH  10  28
HETATM   28  C   UNL     1      -7.810   2.786 -31.184  1.00  0.00     0.293 C 
HETATM   29  O   UNL     1      -7.459   2.750 -30.013  1.00  0.00    -0.259 OA
BRANCH  28  30
HETATM   30  O   UNL     1      -8.889   2.160 -31.709  1.00  0.00    -0.323 OA
HETATM   31  C   UNL     1      -8.879   0.741 -31.536  1.00  0.00     0.213 C 
ENDBRANCH  28  30
ENDBRANCH  10  28
TORSDOF 6
ENDMDL
MODEL 6
REMARK VINA RESULT:      -8.0      3.113      4.749
REMARK  6 active torsions:
REMARK  status: ('A' for Active; 'I' for Inactive)
REMARK    1  A    between atoms: C_7  and  S_8 
REMARK    2  A    between atoms: S_8  and  C_9 
REMARK    3  A    between atoms: C_9  and  C_10 
REMARK    4  A    between atoms: C_18  and  C_19 
REMARK    5  A    between atoms: C_26  and  C_27 
REMARK    6  A    between atoms: C_27  and  O_28 
ROOT
HETATM    1  C   UNL     1      -1.497   5.205 -34.970  1.00  0.00     0.070 C 
HETATM    2  C   UNL     1      -2.395   5.031 -33.771  1.00  0.00     0.037 C 
HETATM    3  N   UNL     1      -3.634   4.447 -34.027  1.00  0.00    -0.192 N 
HETATM    4  C   UNL     1      -4.435   3.977 -33.051  1.00  0.00     0.726 A 
HETATM    5  N   UNL     1      -4.143   4.262 -31.747  1.00  0.00    -0.082 N 
HETATM    6  N   UNL     1      -4.984   3.626 -30.904  1.00  0.00    -0.128 NA
HETATM    7  C   UNL     1      -5.781   2.995 -31.778  1.00  0.00     0.226 A 
HETATM    8  N   UNL     1      -5.483   3.201 -33.103  1.00  0.00    -0.035 NA
HETATM    9  C   UNL     1      -2.994   5.072 -31.326  1.00  0.00     0.203 C 
HETATM   10  C   UNL     1      -2.049   5.339 -32.495  1.00  0.00     0.070 C 
HETATM   11  H   UNL     1      -3.816   4.137 -34.979  1.00  0.00     0.184 HD
ENDROOT
BRANCH   7  12
HETATM   12  S   UNL     1      -7.068   1.923 -31.304  1.00  0.00    -0.083 SA
BRANCH  12  13
HETATM   13  C   UNL     1      -6.160   0.388 -30.979  1.00  0.00     0.123 C 
BRANCH  13  14
HETATM   14  C   UNL     1      -6.065  -0.456 -32.230  1.00  0.00    -0.027 A 
HETATM   15  C   UNL     1      -4.907  -1.167 -32.587  1.00  0.00     0.041 A 
HETATM   16 CL   UNL     1      -3.488  -1.169 -31.599  1.00  0.00    -0.084 Cl
HETATM   17  C   UNL     1      -4.862  -1.903 -33.777  1.00  0.00     0.024 A 
HETATM   18  C   UNL     1      -5.965  -1.932 -34.629  1.00  0.00     0.002 A 
HETATM   19  C   UNL     1      -7.116  -1.227 -34.295  1.00  0.00     0.001 A 
HETATM   20  C   UNL     1      -7.166  -0.496 -33.107  1.00  0.00     0.009 A 
ENDBRANCH  13  14
ENDBRANCH  12  13
ENDBRANCH   7  12
BRANCH   9  21
HETATM   21  C   UNL     1      -3.472   6.369 -30.673  1.00  0.00    -0.026 A 
HETATM   22  C   UNL     1      -3.023   6.709 -29.385  1.00  0.00     0.033 A 
HETATM   23  C   UNL     1      -3.430   7.902 -28.788  1.00  0.00     0.034 A 
HETATM   24 CL   UNL     1      -2.868   8.304 -27.211  1.00  0.00    -0.084 Cl
HETATM   25  C   UNL     1      -4.282   8.776 -29.459  1.00  0.00     0.024 A 
HETATM   26  C   UNL     1      -4.729   8.457 -30.741  1.00  0.00     0.002 A 
HETATM   27  C   UNL     1      -4.325   7.265 -31.345  1.00  0.00     0.010 A 
ENDBRANCH   9  21
BRANCH  10  28
HETATM   28  C   UNL     1      -0.740   5.883 -32.076  1.00  0.00     0.293 C 
HETATM   29  O   UNL     1      -0.432   7.054 -32.241  1.00  0.00    -0.259 OA
BRANCH  28  30
HETATM   30  O   UNL     1       0.058   4.916 -31.566  1.00  0.00    -0.323 OA
HETATM   31  C   UNL     1       0.548   5.199 -30.254  1.00  0.00     0.213 C 
ENDBRANCH  28  30
ENDBRANCH  10  28
TORSDOF 6
ENDMDL
MODEL 7
REMARK VINA RESULT:      -7.9      3.747      6.071
REMARK  6 active torsions:
REMARK  status: ('A' for Active; 'I' for Inactive)
REMARK    1  A    between atoms: C_7  and  S_8 
REMARK    2  A    between atoms: S_8  and  C_9 
REMARK    3  A    between atoms: C_9  and  C_10 
REMARK    4  A    between atoms: C_18  and  C_19 
REMARK    5  A    between atoms: C_26  and  C_27 
REMARK    6  A    between atoms: C_27  and  O_28 
ROOT
HETATM    1  C   UNL     1      -3.415   6.693 -30.904  1.00  0.00     0.070 C 
HETATM    2  C   UNL     1      -4.395   5.773 -31.589  1.00  0.00     0.037 C 
HETATM    3  N   UNL     1      -5.713   6.220 -31.627  1.00  0.00    -0.192 N 
HETATM    4  C   UNL     1      -6.649   5.665 -32.421  1.00  0.00     0.726 A 
HETATM    5  N   UNL     1      -6.376   4.489 -33.062  1.00  0.00    -0.082 N 
HETATM    6  N   UNL     1      -7.379   4.137 -33.892  1.00  0.00    -0.128 NA
HETATM    7  C   UNL     1      -8.244   5.139 -33.678  1.00  0.00     0.226 A 
HETATM    8  N   UNL     1      -7.835   6.084 -32.769  1.00  0.00    -0.035 NA
HETATM    9  C   UNL     1      -5.105   3.767 -32.934  1.00  0.00     0.203 C 
HETATM   10  C   UNL     1      -4.061   4.611 -32.205  1.00  0.00     0.070 C 
HETATM   11  H   UNL     1      -5.905   7.143 -31.243  1.00  0.00     0.184 HD
ENDROOT
BRANCH   7  12
HETATM   12  S   UNL     1      -9.755   5.303 -34.526  1.00  0.00    -0.083 SA
BRANCH  12  13
HETATM   13  C   UNL     1     -10.878   4.373 -33.448  1.00  0.00     0.123 C 
BRANCH  13  14
HETATM   14  C   UNL     1     -10.301   3.015 -33.114  1.00  0.00    -0.027 A 
HETATM   15  C   UNL     1      -9.738   2.709 -31.865  1.00  0.00     0.041 A 
HETATM   16 CL   UNL     1      -9.687   3.858 -30.574  1.00  0.00    -0.084 Cl
HETATM   17  C   UNL     1      -9.185   1.446 -31.622  1.00  0.00     0.024 A 
HETATM   18  C   UNL     1      -9.178   0.476 -32.624  1.00  0.00     0.002 A 
HETATM   19  C   UNL     1      -9.725   0.765 -33.870  1.00  0.00     0.001 A 
HETATM   20  C   UNL     1     -10.281   2.023 -34.114  1.00  0.00     0.009 A 
ENDBRANCH  13  14
ENDBRANCH  12  13
ENDBRANCH   7  12
BRANCH   9  21
HETATM   21  C   UNL     1      -5.329   2.420 -32.245  1.00  0.00    -0.026 A 
HETATM   22  C   UNL     1      -5.321   1.238 -33.006  1.00  0.00     0.033 A 
HETATM   23  C   UNL     1      -5.498  -0.000 -32.388  1.00  0.00     0.034 A 
HETATM   24 CL   UNL     1      -5.482  -1.438 -33.334  1.00  0.00    -0.084 Cl
HETATM   25  C   UNL     1      -5.679  -0.084 -31.010  1.00  0.00     0.024 A 
HETATM   26  C   UNL     1      -5.681   1.078 -30.241  1.00  0.00     0.002 A 
HETATM   27  C   UNL     1      -5.504   2.321 -30.852  1.00  0.00     0.010 A 
ENDBRANCH   9  21
BRANCH  10  28
HETATM   28  C   UNL     1      -2.692   4.066 -32.312  1.00  0.00     0.293 C 
HETATM   29  O   UNL     1      -2.091   3.604 -31.352  1.00  0.00    -0.259 OA
BRANCH  28  30
HETATM   30  O   UNL     1      -2.197   4.210 -33.563  1.00  0.00    -0.323 OA
HETATM   31  C   UNL     1      -1.299   5.313 -33.710  1.00  0.00     0.213 C 
ENDBRANCH  28  30
ENDBRANCH  10  28
TORSDOF 6
ENDMDL
MODEL 8
REMARK VINA RESULT:      -7.8      3.507      5.321
REMARK  6 active torsions:
REMARK  status: ('A' for Active; 'I' for Inactive)
REMARK    1  A    between atoms: C_7  and  S_8 
REMARK    2  A    between atoms: S_8  and  C_9 
REMARK    3  A    between atoms: C_9  and  C_10 
REMARK    4  A    between atoms: C_18  and  C_19 
REMARK    5  A    between atoms: C_26  and  C_27 
REMARK    6  A    between atoms: C_27  and  O_28 
ROOT
HETATM    1  C   UNL     1      -1.669   5.575 -34.629  1.00  0.00     0.070 C 
HETATM    2  C   UNL     1      -2.880   5.448 -33.739  1.00  0.00     0.037 C 
HETATM    3  N   UNL     1      -4.105   5.365 -34.397  1.00  0.00    -0.192 N 
HETATM    4  C   UNL     1      -5.240   4.982 -33.781  1.00  0.00     0.726 A 
HETATM    5  N   UNL     1      -5.260   4.870 -32.419  1.00  0.00    -0.082 N 
HETATM    6  N   UNL     1      -6.438   4.376 -31.984  1.00  0.00    -0.128 NA
HETATM    7  C   UNL     1      -7.095   4.239 -33.145  1.00  0.00     0.226 A 
HETATM    8  N   UNL     1      -6.396   4.618 -34.265  1.00  0.00    -0.035 NA
HETATM    9  C   UNL     1      -4.106   5.155 -31.559  1.00  0.00     0.203 C 
HETATM   10  C   UNL     1      -2.836   5.346 -32.386  1.00  0.00     0.070 C 
HETATM   11  H   UNL     1      -4.087   5.344 -35.414  1.00  0.00     0.184 HD
ENDROOT
BRANCH   7  12
HETATM   12  S   UNL     1      -8.695   3.566 -33.271  1.00  0.00    -0.083 SA
BRANCH  12  13
HETATM   13  C   UNL     1      -8.527   2.046 -32.296  1.00  0.00     0.123 C 
BRANCH  13  14
HETATM   14  C   UNL     1      -7.921   0.939 -33.129  1.00  0.00    -0.027 A 
HETATM   15  C   UNL     1      -7.070  -0.042 -32.594  1.00  0.00     0.041 A 
HETATM   16 CL   UNL     1      -6.665  -0.091 -30.914  1.00  0.00    -0.084 Cl
HETATM   17  C   UNL     1      -6.507  -1.023 -33.418  1.00  0.00     0.024 A 
HETATM   18  C   UNL     1      -6.777  -1.034 -34.786  1.00  0.00     0.002 A 
HETATM   19  C   UNL     1      -7.612  -0.065 -35.334  1.00  0.00     0.001 A 
HETATM   20  C   UNL     1      -8.178   0.913 -34.513  1.00  0.00     0.009 A 
ENDBRANCH  13  14
ENDBRANCH  12  13
ENDBRANCH   7  12
BRANCH   9  21
HETATM   21  C   UNL     1      -4.394   6.365 -30.670  1.00  0.00    -0.026 A 
HETATM   22  C   UNL     1      -4.586   7.629 -31.255  1.00  0.00     0.033 A 
HETATM   23  C   UNL     1      -4.876   8.738 -30.459  1.00  0.00     0.034 A 
HETATM   24 CL   UNL     1      -5.112  10.278 -31.191  1.00  0.00    -0.084 Cl
HETATM   25  C   UNL     1      -4.985   8.608 -29.077  1.00  0.00     0.024 A 
HETATM   26  C   UNL     1      -4.805   7.359 -28.483  1.00  0.00     0.002 A 
HETATM   27  C   UNL     1      -4.515   6.245 -29.274  1.00  0.00     0.010 A 
ENDBRANCH   9  21
BRANCH  10  28
HETATM   28  C   UNL     1      -1.602   5.333 -31.572  1.00  0.00     0.293 C 
HETATM   29  O   UNL     1      -1.153   4.311 -31.075  1.00  0.00    -0.259 OA
BRANCH  28  30
HETATM   30  O   UNL     1      -1.102   6.581 -31.411  1.00  0.00    -0.323 OA
HETATM   31  C   UNL     1       0.308   6.616 -31.179  1.00  0.00     0.213 C 
ENDBRANCH  28  30
ENDBRANCH  10  28
TORSDOF 6
ENDMDL
MODEL 9
REMARK VINA RESULT:      -7.8      2.550      4.172
REMARK  6 active torsions:
REMARK  status: ('A' for Active; 'I' for Inactive)
REMARK    1  A    between atoms: C_7  and  S_8 
REMARK    2  A    between atoms: S_8  and  C_9 
REMARK    3  A    between atoms: C_9  and  C_10 
REMARK    4  A    between atoms: C_18  and  C_19 
REMARK    5  A    between atoms: C_26  and  C_27 
REMARK    6  A    between atoms: C_27  and  O_28 
ROOT
HETATM    1  C   UNL     1      -3.244   6.532 -30.228  1.00  0.00     0.070 C 
HETATM    2  C   UNL     1      -4.003   5.269 -30.548  1.00  0.00     0.037 C 
HETATM    3  N   UNL     1      -3.272   4.275 -31.194  1.00  0.00    -0.192 N 
HETATM    4  C   UNL     1      -3.708   3.005 -31.309  1.00  0.00     0.726 A 
HETATM    5  N   UNL     1      -4.999   2.706 -30.975  1.00  0.00    -0.082 N 
HETATM    6  N   UNL     1      -5.231   1.379 -31.048  1.00  0.00    -0.128 NA
HETATM    7  C   UNL     1      -4.034   0.939 -31.463  1.00  0.00     0.226 A 
HETATM    8  N   UNL     1      -3.082   1.912 -31.649  1.00  0.00    -0.035 NA
HETATM    9  C   UNL     1      -5.970   3.698 -30.499  1.00  0.00     0.203 C 
HETATM   10  C   UNL     1      -5.292   5.031 -30.194  1.00  0.00     0.070 C 
HETATM   11  H   UNL     1      -2.282   4.451 -31.352  1.00  0.00     0.184 HD
ENDROOT
BRANCH   7  12
HETATM   12  S   UNL     1      -3.654  -0.744 -31.692  1.00  0.00    -0.083 SA
BRANCH  12  13
HETATM   13  C   UNL     1      -3.646  -0.872 -33.500  1.00  0.00     0.123 C 
BRANCH  13  14
HETATM   14  C   UNL     1      -4.692  -1.856 -33.974  1.00  0.00    -0.027 A 
HETATM   15  C   UNL     1      -6.033  -1.501 -34.194  1.00  0.00     0.041 A 
HETATM   16 CL   UNL     1      -6.604   0.116 -33.975  1.00  0.00    -0.084 Cl
HETATM   17  C   UNL     1      -6.967  -2.463 -34.598  1.00  0.00     0.024 A 
HETATM   18  C   UNL     1      -6.579  -3.790 -34.778  1.00  0.00     0.002 A 
HETATM   19  C   UNL     1      -5.256  -4.160 -34.557  1.00  0.00     0.001 A 
HETATM   20  C   UNL     1      -4.321  -3.203 -34.158  1.00  0.00     0.009 A 
ENDBRANCH  13  14
ENDBRANCH  12  13
ENDBRANCH   7  12
BRANCH   9  21
HETATM   21  C   UNL     1      -7.105   3.855 -31.511  1.00  0.00    -0.026 A 
HETATM   22  C   UNL     1      -8.440   3.756 -31.083  1.00  0.00     0.033 A 
HETATM   23  C   UNL     1      -9.487   3.924 -31.990  1.00  0.00     0.034 A 
HETATM   24 CL   UNL     1     -11.116   3.803 -31.448  1.00  0.00    -0.084 Cl
HETATM   25  C   UNL     1      -9.225   4.198 -33.330  1.00  0.00     0.024 A 
HETATM   26  C   UNL     1      -7.906   4.307 -33.769  1.00  0.00     0.002 A 
HETATM   27  C   UNL     1      -6.853   4.141 -32.866  1.00  0.00     0.010 A 
ENDBRANCH   9  21
BRANCH  10  28
HETATM   28  C   UNL     1      -6.151   5.963 -29.434  1.00  0.00     0.293 C 
HETATM   29  O   UNL     1      -6.582   7.001 -29.916  1.00  0.00    -0.259 OA
BRANCH  28  30
HETATM   30  O   UNL     1      -6.326   5.547 -28.158  1.00  0.00    -0.323 OA
HETATM   31  C   UNL     1      -5.362   6.067 -27.239  1.00  0.00     0.213 C 
ENDBRANCH  28  30
ENDBRANCH  10  28
TORSDOF 6
ENDMDL
MODEL 10
REMARK VINA RESULT:      -7.7      2.653      4.560
REMARK  6 active torsions:
REMARK  status: ('A' for Active; 'I' for Inactive)
REMARK    1  A    between atoms: C_7  and  S_8 
REMARK    2  A    between atoms: S_8  and  C_9 
REMARK    3  A    between atoms: C_9  and  C_10 
REMARK    4  A    between atoms: C_18  and  C_19 
REMARK    5  A    between atoms: C_26  and  C_27 
REMARK    6  A    between atoms: C_27  and  O_28 
ROOT
HETATM    1  C   UNL     1      -1.055   6.260 -34.258  1.00  0.00     0.070 C 
HETATM    2  C   UNL     1      -2.056   5.669 -33.298  1.00  0.00     0.037 C 
HETATM    3  N   UNL     1      -2.556   4.416 -33.646  1.00  0.00    -0.192 N 
HETATM    4  C   UNL     1      -3.238   3.637 -32.784  1.00  0.00     0.726 A 
HETATM    5  N   UNL     1      -3.650   4.158 -31.589  1.00  0.00    -0.082 N 
HETATM    6  N   UNL     1      -4.221   3.214 -30.812  1.00  0.00    -0.128 NA
HETATM    7  C   UNL     1      -4.144   2.146 -31.620  1.00  0.00     0.226 A 
HETATM    8  N   UNL     1      -3.563   2.375 -32.843  1.00  0.00    -0.035 NA
HETATM    9  C   UNL     1      -3.403   5.544 -31.174  1.00  0.00     0.203 C 
HETATM   10  C   UNL     1      -2.431   6.239 -32.124  1.00  0.00     0.070 C 
HETATM   11  H   UNL     1      -2.175   3.977 -34.481  1.00  0.00     0.184 HD
ENDROOT
BRANCH   7  12
HETATM   12  S   UNL     1      -4.668   0.552 -31.158  1.00  0.00    -0.083 SA
BRANCH  12  13
HETATM   13  C   UNL     1      -5.054  -0.184 -32.770  1.00  0.00     0.123 C 
BRANCH  13  14
HETATM   14  C   UNL     1      -4.460  -1.570 -32.884  1.00  0.00    -0.027 A 
HETATM   15  C   UNL     1      -4.859  -2.495 -33.862  1.00  0.00     0.041 A 
HETATM   16 CL   UNL     1      -6.050  -2.115 -35.056  1.00  0.00    -0.084 Cl
HETATM   17  C   UNL     1      -4.302  -3.779 -33.899  1.00  0.00     0.024 A 
HETATM   18  C   UNL     1      -3.347  -4.159 -32.956  1.00  0.00     0.002 A 
HETATM   19  C   UNL     1      -2.946  -3.257 -31.975  1.00  0.00     0.001 A 
HETATM   20  C   UNL     1      -3.497  -1.975 -31.939  1.00  0.00     0.009 A 
ENDBRANCH  13  14
ENDBRANCH  12  13
ENDBRANCH   7  12
BRANCH   9  21
HETATM   21  C   UNL     1      -4.725   6.304 -31.057  1.00  0.00    -0.026 A 
HETATM   22  C   UNL     1      -5.165   6.746 -29.797  1.00  0.00     0.033 A 
HETATM   23  C   UNL     1      -6.355   7.464 -29.677  1.00  0.00     0.034 A 
HETATM   24 CL   UNL     1      -6.878   8.002 -28.128  1.00  0.00    -0.084 Cl
HETATM   25  C   UNL     1      -7.121   7.758 -30.803  1.00  0.00     0.024 A 
HETATM   26  C   UNL     1      -6.694   7.333 -32.060  1.00  0.00     0.002 A 
HETATM   27  C   UNL     1      -5.503   6.614 -32.187  1.00  0.00     0.010 A 
ENDBRANCH   9  21
BRANCH  10  28
HETATM   28  C   UNL     1      -1.914   7.519 -31.597  1.00  0.00     0.293 C 
HETATM   29  O   UNL     1      -2.099   8.586 -32.164  1.00  0.00    -0.259 OA
BRANCH  28  30
HETATM   30  O   UNL     1      -1.179   7.333 -30.476  1.00  0.00    -0.323 OA
HETATM   31  C   UNL     1       0.209   7.096 -30.723  1.00  0.00     0.213 C 
ENDBRANCH  28  30
ENDBRANCH  10  28
TORSDOF 6
ENDMDL
