MODEL 1
REMARK VINA RESULT:      -7.3      0.000      0.000
REMARK  5 active torsions:
REMARK  status: ('A' for Active; 'I' for Inactive)
REMARK    1  A    between atoms: C_2  and  O_3 
REMARK    2  A    between atoms: C_4  and  C_5 
REMARK    3  A    between atoms: C_5  and  O_6 
REMARK    4  A    between atoms: C_9  and  C_10 
REMARK    5  A    between atoms: C_22  and  O_23 
ROOT
HETATM    1  C   UNL     1      -5.502   4.235 -34.373  1.00  0.00     0.047 C 
HETATM    2  C   UNL     1      -4.855   4.881 -33.137  1.00  0.00     0.073 C 
HETATM    3  C   UNL     1      -3.827   3.914 -32.460  1.00  0.00     0.133 C 
HETATM    4  C   UNL     1      -4.396   2.781 -31.554  1.00  0.00     0.074 C 
HETATM    5  C   UNL     1      -5.719   3.140 -30.973  1.00  0.00     0.030 A 
HETATM    6  C   UNL     1      -6.403   4.300 -31.268  1.00  0.00     0.042 A 
HETATM    7  N   UNL     1      -7.542   4.294 -30.514  1.00  0.00    -0.279 N 
HETATM    8  H   UNL     1      -8.276   4.994 -30.468  1.00  0.00     0.189 HD
HETATM    9  N   UNL     1      -7.638   3.203 -29.723  1.00  0.00    -0.149 NA
HETATM   10  C   UNL     1      -6.523   2.540 -30.002  1.00  0.00     0.190 A 
HETATM   11  C   UNL     1      -5.962   5.389 -32.171  1.00  0.00     0.097 C 
ENDROOT
BRANCH   4  12
HETATM   12  C   UNL     1      -4.510   1.440 -32.275  1.00  0.00    -0.047 A 
HETATM   13  C   UNL     1      -5.587   1.064 -33.096  1.00  0.00     0.027 A 
HETATM   14  C   UNL     1      -5.596  -0.178 -33.738  1.00  0.00     0.011 A 
HETATM   15 BR   UNL     1      -7.058  -0.648 -34.842  1.00  0.00    -0.051 Br
HETATM   16  C   UNL     1      -4.542  -1.070 -33.574  1.00  0.00     0.019 A 
HETATM   17  C   UNL     1      -3.467  -0.719 -32.764  1.00  0.00     0.002 A 
HETATM   18  C   UNL     1      -3.449   0.525 -32.126  1.00  0.00     0.008 A 
ENDBRANCH   4  12
BRANCH   3  19
HETATM   19  C   UNL     1      -2.801   4.710 -31.675  1.00  0.00     0.266 C 
HETATM   20  O   UNL     1      -3.117   5.562 -30.850  1.00  0.00    -0.265 OA
BRANCH  19  21
HETATM   21  O   UNL     1      -1.523   4.364 -31.977  1.00  0.00    -0.326 OA
HETATM   22  C   UNL     1      -0.527   5.157 -31.330  1.00  0.00     0.213 C 
ENDBRANCH  19  21
ENDBRANCH   3  19
BRANCH   2  23
HETATM   23  O   UNL     1      -4.177   6.045 -33.646  1.00  0.00    -0.389 OA
HETATM   24  H   UNL     1      -3.983   5.907 -34.591  1.00  0.00     0.210 HD
ENDBRANCH   2  23
BRANCH  10  25
HETATM   25  O   UNL     1      -6.339   1.420 -29.314  1.00  0.00    -0.343 OA
HETATM   26  H   UNL     1      -6.604   1.644 -28.407  1.00  0.00     0.219 HD
ENDBRANCH  10  25
TORSDOF 5
ENDMDL
MODEL 2
REMARK VINA RESULT:      -7.1      1.071      1.221
REMARK  5 active torsions:
REMARK  status: ('A' for Active; 'I' for Inactive)
REMARK    1  A    between atoms: C_2  and  O_3 
REMARK    2  A    between atoms: C_4  and  C_5 
REMARK    3  A    between atoms: C_5  and  O_6 
REMARK    4  A    between atoms: C_9  and  C_10 
REMARK    5  A    between atoms: C_22  and  O_23 
ROOT
HETATM    1  C   UNL     1      -5.079   4.689 -34.617  1.00  0.00     0.047 C 
HETATM    2  C   UNL     1      -4.064   5.197 -33.580  1.00  0.00     0.073 C 
HETATM    3  C   UNL     1      -3.167   4.033 -33.043  1.00  0.00     0.133 C 
HETATM    4  C   UNL     1      -3.781   3.093 -31.961  1.00  0.00     0.074 C 
HETATM    5  C   UNL     1      -4.841   3.772 -31.166  1.00  0.00     0.030 A 
HETATM    6  C   UNL     1      -5.289   5.052 -31.411  1.00  0.00     0.042 A 
HETATM    7  N   UNL     1      -6.221   5.338 -30.453  1.00  0.00    -0.279 N 
HETATM    8  H   UNL     1      -6.752   6.193 -30.320  1.00  0.00     0.189 HD
HETATM    9  N   UNL     1      -6.399   4.324 -29.579  1.00  0.00    -0.149 NA
HETATM   10  C   UNL     1      -5.544   3.408 -30.017  1.00  0.00     0.190 A 
HETATM   11  C   UNL     1      -4.806   5.980 -32.461  1.00  0.00     0.097 C 
ENDROOT
BRANCH   4  12
HETATM   12  C   UNL     1      -4.342   1.798 -32.545  1.00  0.00    -0.047 A 
HETATM   13  C   UNL     1      -5.572   1.691 -33.216  1.00  0.00     0.027 A 
HETATM   14  C   UNL     1      -5.995   0.467 -33.739  1.00  0.00     0.011 A 
HETATM   15 BR   UNL     1      -7.653   0.360 -34.643  1.00  0.00    -0.051 Br
HETATM   16  C   UNL     1      -5.211  -0.674 -33.604  1.00  0.00     0.019 A 
HETATM   17  C   UNL     1      -3.990  -0.590 -32.942  1.00  0.00     0.002 A 
HETATM   18  C   UNL     1      -3.558   0.633 -32.424  1.00  0.00     0.008 A 
ENDBRANCH   4  12
BRANCH   3  19
HETATM   19  C   UNL     1      -1.849   4.584 -32.530  1.00  0.00     0.266 C 
HETATM   20  O   UNL     1      -1.066   5.198 -33.249  1.00  0.00    -0.265 OA
BRANCH  19  21
HETATM   21  O   UNL     1      -1.652   4.334 -31.210  1.00  0.00    -0.326 OA
HETATM   22  C   UNL     1      -0.661   5.157 -30.593  1.00  0.00     0.213 C 
ENDBRANCH  19  21
ENDBRANCH   3  19
BRANCH   2  23
HETATM   23  O   UNL     1      -3.258   6.152 -34.295  1.00  0.00    -0.389 OA
HETATM   24  H   UNL     1      -2.413   6.267 -33.822  1.00  0.00     0.210 HD
ENDBRANCH   2  23
BRANCH  10  25
HETATM   25  O   UNL     1      -5.483   2.295 -29.295  1.00  0.00    -0.343 OA
HETATM   26  H   UNL     1      -5.684   2.581 -28.388  1.00  0.00     0.219 HD
ENDBRANCH  10  25
TORSDOF 5
ENDMDL
MODEL 3
REMARK VINA RESULT:      -7.0      2.417      3.480
REMARK  5 active torsions:
REMARK  status: ('A' for Active; 'I' for Inactive)
REMARK    1  A    between atoms: C_2  and  O_3 
REMARK    2  A    between atoms: C_4  and  C_5 
REMARK    3  A    between atoms: C_5  and  O_6 
REMARK    4  A    between atoms: C_9  and  C_10 
REMARK    5  A    between atoms: C_22  and  O_23 
ROOT
HETATM    1  C   UNL     1      -8.753   1.473 -33.040  1.00  0.00     0.047 C 
HETATM    2  C   UNL     1      -7.709   2.564 -32.749  1.00  0.00     0.073 C 
HETATM    3  C   UNL     1      -6.370   2.290 -33.512  1.00  0.00     0.133 C 
HETATM    4  C   UNL     1      -5.405   1.224 -32.910  1.00  0.00     0.074 C 
HETATM    5  C   UNL     1      -5.576   1.082 -31.438  1.00  0.00     0.030 A 
HETATM    6  C   UNL     1      -6.534   1.750 -30.704  1.00  0.00     0.042 A 
HETATM    7  N   UNL     1      -6.349   1.400 -29.396  1.00  0.00    -0.279 N 
HETATM    8  H   UNL     1      -6.866   1.707 -28.578  1.00  0.00     0.189 HD
HETATM    9  N   UNL     1      -5.310   0.553 -29.225  1.00  0.00    -0.149 NA
HETATM   10  C   UNL     1      -4.853   0.397 -30.460  1.00  0.00     0.190 A 
HETATM   11  C   UNL     1      -7.530   2.721 -31.213  1.00  0.00     0.097 C 
ENDROOT
BRANCH   4  12
HETATM   12  C   UNL     1      -5.545  -0.147 -33.567  1.00  0.00    -0.047 A 
HETATM   13  C   UNL     1      -4.675  -1.229 -33.351  1.00  0.00     0.027 A 
HETATM   14  C   UNL     1      -4.894  -2.458 -33.979  1.00  0.00     0.011 A 
HETATM   15 BR   UNL     1      -3.708  -3.896 -33.658  1.00  0.00    -0.051 Br
HETATM   16  C   UNL     1      -5.976  -2.636 -34.835  1.00  0.00     0.019 A 
HETATM   17  C   UNL     1      -6.848  -1.577 -35.065  1.00  0.00     0.002 A 
HETATM   18  C   UNL     1      -6.638  -0.348 -34.433  1.00  0.00     0.008 A 
ENDBRANCH   4  12
BRANCH   3  19
HETATM   19  C   UNL     1      -5.611   3.588 -33.717  1.00  0.00     0.266 C 
HETATM   20  O   UNL     1      -6.002   4.468 -34.477  1.00  0.00    -0.265 OA
BRANCH  19  21
HETATM   21  O   UNL     1      -4.483   3.661 -32.964  1.00  0.00    -0.326 OA
HETATM   22  C   UNL     1      -4.455   4.753 -32.044  1.00  0.00     0.213 C 
ENDBRANCH  19  21
ENDBRANCH   3  19
BRANCH   2  23
HETATM   23  O   UNL     1      -8.310   3.782 -33.228  1.00  0.00    -0.389 OA
HETATM   24  H   UNL     1      -7.661   4.505 -33.147  1.00  0.00     0.210 HD
ENDBRANCH   2  23
BRANCH  10  25
HETATM   25  O   UNL     1      -3.779  -0.374 -30.577  1.00  0.00    -0.343 OA
HETATM   26  H   UNL     1      -3.252  -0.181 -29.784  1.00  0.00     0.219 HD
ENDBRANCH  10  25
TORSDOF 5
ENDMDL
MODEL 4
REMARK VINA RESULT:      -6.8      3.140      5.438
REMARK  5 active torsions:
REMARK  status: ('A' for Active; 'I' for Inactive)
REMARK    1  A    between atoms: C_2  and  O_3 
REMARK    2  A    between atoms: C_4  and  C_5 
REMARK    3  A    between atoms: C_5  and  O_6 
REMARK    4  A    between atoms: C_9  and  C_10 
REMARK    5  A    between atoms: C_22  and  O_23 
ROOT
HETATM    1  C   UNL     1      -4.204   0.403 -32.437  1.00  0.00     0.047 C 
HETATM    2  C   UNL     1      -5.710   0.363 -32.748  1.00  0.00     0.073 C 
HETATM    3  C   UNL     1      -6.117   1.498 -33.746  1.00  0.00     0.133 C 
HETATM    4  C   UNL     1      -6.288   2.935 -33.167  1.00  0.00     0.074 C 
HETATM    5  C   UNL     1      -6.650   2.918 -31.723  1.00  0.00     0.030 A 
HETATM    6  C   UNL     1      -6.738   1.771 -30.963  1.00  0.00     0.042 A 
HETATM    7  N   UNL     1      -7.134   2.151 -29.712  1.00  0.00    -0.279 N 
HETATM    8  H   UNL     1      -7.310   1.570 -28.898  1.00  0.00     0.189 HD
HETATM    9  N   UNL     1      -7.331   3.483 -29.610  1.00  0.00    -0.149 NA
HETATM   10  C   UNL     1      -7.055   3.914 -30.834  1.00  0.00     0.190 A 
HETATM   11  C   UNL     1      -6.520   0.379 -31.422  1.00  0.00     0.097 C 
ENDROOT
BRANCH   4  12
HETATM   12  C   UNL     1      -5.054   3.811 -33.366  1.00  0.00    -0.047 A 
HETATM   13  C   UNL     1      -4.005   3.936 -32.439  1.00  0.00     0.027 A 
HETATM   14  C   UNL     1      -2.900   4.744 -32.716  1.00  0.00     0.011 A 
HETATM   15 BR   UNL     1      -1.503   4.883 -31.448  1.00  0.00    -0.051 Br
HETATM   16  C   UNL     1      -2.814   5.446 -33.914  1.00  0.00     0.019 A 
HETATM   17  C   UNL     1      -3.842   5.337 -34.845  1.00  0.00     0.002 A 
HETATM   18  C   UNL     1      -4.946   4.524 -34.576  1.00  0.00     0.008 A 
ENDBRANCH   4  12
BRANCH   3  19
HETATM   19  C   UNL     1      -7.379   1.109 -34.493  1.00  0.00     0.266 C 
HETATM   20  O   UNL     1      -7.380   0.288 -35.404  1.00  0.00    -0.265 OA
BRANCH  19  21
HETATM   21  O   UNL     1      -8.482   1.753 -34.031  1.00  0.00    -0.326 OA
HETATM   22  C   UNL     1      -9.538   0.890 -33.609  1.00  0.00     0.213 C 
ENDBRANCH  19  21
ENDBRANCH   3  19
BRANCH   2  23
HETATM   23  O   UNL     1      -5.923  -0.927 -33.354  1.00  0.00    -0.389 OA
HETATM   24  H   UNL     1      -5.130  -1.167 -33.868  1.00  0.00     0.210 HD
ENDBRANCH   2  23
BRANCH  10  25
HETATM   25  O   UNL     1      -7.213   5.218 -31.028  1.00  0.00    -0.343 OA
HETATM   26  H   UNL     1      -7.008   5.620 -30.168  1.00  0.00     0.219 HD
ENDBRANCH  10  25
TORSDOF 5
ENDMDL
MODEL 5
REMARK VINA RESULT:      -6.8      3.073      5.289
REMARK  5 active torsions:
REMARK  status: ('A' for Active; 'I' for Inactive)
REMARK    1  A    between atoms: C_2  and  O_3 
REMARK    2  A    between atoms: C_4  and  C_5 
REMARK    3  A    between atoms: C_5  and  O_6 
REMARK    4  A    between atoms: C_9  and  C_10 
REMARK    5  A    between atoms: C_22  and  O_23 
ROOT
HETATM    1  C   UNL     1      -3.366   1.189 -31.512  1.00  0.00     0.047 C 
HETATM    2  C   UNL     1      -4.870   1.426 -31.732  1.00  0.00     0.073 C 
HETATM    3  C   UNL     1      -5.121   2.477 -32.865  1.00  0.00     0.133 C 
HETATM    4  C   UNL     1      -4.950   3.982 -32.499  1.00  0.00     0.074 C 
HETATM    5  C   UNL     1      -5.185   4.237 -31.051  1.00  0.00     0.030 A 
HETATM    6  C   UNL     1      -5.438   3.249 -30.125  1.00  0.00     0.042 A 
HETATM    7  N   UNL     1      -5.643   3.870 -28.925  1.00  0.00    -0.279 N 
HETATM    8  H   UNL     1      -5.863   3.455 -28.025  1.00  0.00     0.189 HD
HETATM    9  N   UNL     1      -5.557   5.215 -29.013  1.00  0.00    -0.149 NA
HETATM   10  C   UNL     1      -5.304   5.408 -30.301  1.00  0.00     0.190 A 
HETATM   11  C   UNL     1      -5.545   1.793 -30.381  1.00  0.00     0.097 C 
ENDROOT
BRANCH   4  12
HETATM   12  C   UNL     1      -3.585   4.541 -32.893  1.00  0.00    -0.047 A 
HETATM   13  C   UNL     1      -2.502   4.700 -32.012  1.00  0.00     0.027 A 
HETATM   14  C   UNL     1      -1.278   5.199 -32.467  1.00  0.00     0.011 A 
HETATM   15 BR   UNL     1       0.161   5.393 -31.255  1.00  0.00    -0.051 Br
HETATM   16  C   UNL     1      -1.107   5.553 -33.802  1.00  0.00     0.019 A 
HETATM   17  C   UNL     1      -2.166   5.405 -34.690  1.00  0.00     0.002 A 
HETATM   18  C   UNL     1      -3.390   4.898 -34.242  1.00  0.00     0.008 A 
ENDBRANCH   4  12
BRANCH   3  19
HETATM   19  C   UNL     1      -6.495   2.267 -33.475  1.00  0.00     0.266 C 
HETATM   20  O   UNL     1      -7.478   2.910 -33.122  1.00  0.00    -0.265 OA
BRANCH  19  21
HETATM   21  O   UNL     1      -6.499   1.316 -34.445  1.00  0.00    -0.326 OA
HETATM   22  C   UNL     1      -7.784   0.754 -34.715  1.00  0.00     0.213 C 
ENDBRANCH  19  21
ENDBRANCH   3  19
BRANCH   2  23
HETATM   23  O   UNL     1      -5.389   0.142 -32.125  1.00  0.00    -0.389 OA
HETATM   24  H   UNL     1      -6.336   0.102 -31.895  1.00  0.00     0.210 HD
ENDBRANCH   2  23
BRANCH  10  25
HETATM   25  O   UNL     1      -5.211   6.677 -30.679  1.00  0.00    -0.343 OA
HETATM   26  H   UNL     1      -5.194   6.643 -31.650  1.00  0.00     0.219 HD
ENDBRANCH  10  25
TORSDOF 5
ENDMDL
MODEL 6
REMARK VINA RESULT:      -6.8      3.493      4.851
REMARK  5 active torsions:
REMARK  status: ('A' for Active; 'I' for Inactive)
REMARK    1  A    between atoms: C_2  and  O_3 
REMARK    2  A    between atoms: C_4  and  C_5 
REMARK    3  A    between atoms: C_5  and  O_6 
REMARK    4  A    between atoms: C_9  and  C_10 
REMARK    5  A    between atoms: C_22  and  O_23 
ROOT
HETATM    1  C   UNL     1      -6.389   1.702 -30.071  1.00  0.00     0.047 C 
HETATM    2  C   UNL     1      -5.238   2.069 -31.024  1.00  0.00     0.073 C 
HETATM    3  C   UNL     1      -5.778   2.605 -32.391  1.00  0.00     0.133 C 
HETATM    4  C   UNL     1      -6.283   1.555 -33.426  1.00  0.00     0.074 C 
HETATM    5  C   UNL     1      -5.627   0.230 -33.244  1.00  0.00     0.030 A 
HETATM    6  C   UNL     1      -4.744  -0.061 -32.227  1.00  0.00     0.042 A 
HETATM    7  N   UNL     1      -4.325  -1.347 -32.418  1.00  0.00    -0.279 N 
HETATM    8  H   UNL     1      -3.667  -1.889 -31.866  1.00  0.00     0.189 HD
HETATM    9  N   UNL     1      -4.870  -1.915 -33.516  1.00  0.00    -0.149 NA
HETATM   10  C   UNL     1      -5.628  -0.941 -34.003  1.00  0.00     0.190 A 
HETATM   11  C   UNL     1      -4.271   0.860 -31.166  1.00  0.00     0.097 C 
ENDROOT
BRANCH   4  12
HETATM   12  C   UNL     1      -7.798   1.373 -33.404  1.00  0.00    -0.047 A 
HETATM   13  C   UNL     1      -8.714   2.213 -34.061  1.00  0.00     0.027 A 
HETATM   14  C   UNL     1     -10.086   1.956 -34.005  1.00  0.00     0.011 A 
HETATM   15 BR   UNL     1     -11.289   3.102 -34.908  1.00  0.00    -0.051 Br
HETATM   16  C   UNL     1     -10.577   0.866 -33.293  1.00  0.00     0.019 A 
HETATM   17  C   UNL     1      -9.688   0.024 -32.633  1.00  0.00     0.002 A 
HETATM   18  C   UNL     1      -8.314   0.271 -32.693  1.00  0.00     0.008 A 
ENDBRANCH   4  12
BRANCH   3  19
HETATM   19  C   UNL     1      -4.739   3.493 -33.051  1.00  0.00     0.266 C 
HETATM   20  O   UNL     1      -3.537   3.372 -32.837  1.00  0.00    -0.265 OA
BRANCH  19  21
HETATM   21  O   UNL     1      -5.286   4.405 -33.895  1.00  0.00    -0.326 OA
HETATM   22  C   UNL     1      -4.349   5.047 -34.760  1.00  0.00     0.213 C 
ENDBRANCH  19  21
ENDBRANCH   3  19
BRANCH   2  23
HETATM   23  O   UNL     1      -4.513   3.107 -30.337  1.00  0.00    -0.389 OA
HETATM   24  H   UNL     1      -4.774   3.970 -30.709  1.00  0.00     0.210 HD
ENDBRANCH   2  23
BRANCH  10  25
HETATM   25  O   UNL     1      -6.261  -1.224 -35.135  1.00  0.00    -0.343 OA
HETATM   26  H   UNL     1      -7.186  -0.981 -34.966  1.00  0.00     0.219 HD
ENDBRANCH  10  25
TORSDOF 5
ENDMDL
MODEL 7
REMARK VINA RESULT:      -6.8      3.129      4.905
REMARK  5 active torsions:
REMARK  status: ('A' for Active; 'I' for Inactive)
REMARK    1  A    between atoms: C_2  and  O_3 
REMARK    2  A    between atoms: C_4  and  C_5 
REMARK    3  A    between atoms: C_5  and  O_6 
REMARK    4  A    between atoms: C_9  and  C_10 
REMARK    5  A    between atoms: C_22  and  O_23 
ROOT
HETATM    1  C   UNL     1      -9.342   0.355 -31.573  1.00  0.00     0.047 C 
HETATM    2  C   UNL     1      -9.248   1.832 -31.990  1.00  0.00     0.073 C 
HETATM    3  C   UNL     1      -8.427   2.001 -33.312  1.00  0.00     0.133 C 
HETATM    4  C   UNL     1      -6.872   1.946 -33.204  1.00  0.00     0.074 C 
HETATM    5  C   UNL     1      -6.390   2.359 -31.858  1.00  0.00     0.030 A 
HETATM    6  C   UNL     1      -7.220   2.670 -30.802  1.00  0.00     0.042 A 
HETATM    7  N   UNL     1      -6.417   3.042 -29.761  1.00  0.00    -0.279 N 
HETATM    8  H   UNL     1      -6.686   3.345 -28.829  1.00  0.00     0.189 HD
HETATM    9  N   UNL     1      -5.104   3.012 -30.077  1.00  0.00    -0.149 NA
HETATM   10  C   UNL     1      -5.118   2.621 -31.345  1.00  0.00     0.190 A 
HETATM   11  C   UNL     1      -8.701   2.677 -30.805  1.00  0.00     0.097 C 
ENDROOT
BRANCH   4  12
HETATM   12  C   UNL     1      -6.298   0.573 -33.545  1.00  0.00    -0.047 A 
HETATM   13  C   UNL     1      -5.274  -0.066 -32.826  1.00  0.00     0.027 A 
HETATM   14  C   UNL     1      -4.826  -1.337 -33.197  1.00  0.00     0.011 A 
HETATM   15 BR   UNL     1      -3.452  -2.170 -32.201  1.00  0.00    -0.051 Br
HETATM   16  C   UNL     1      -5.382  -1.995 -34.289  1.00  0.00     0.019 A 
HETATM   17  C   UNL     1      -6.395  -1.380 -35.016  1.00  0.00     0.002 A 
HETATM   18  C   UNL     1      -6.853  -0.112 -34.645  1.00  0.00     0.008 A 
ENDBRANCH   4  12
BRANCH   3  19
HETATM   19  C   UNL     1      -8.831   3.283 -34.017  1.00  0.00     0.266 C 
HETATM   20  O   UNL     1      -8.160   4.308 -33.956  1.00  0.00    -0.265 OA
BRANCH  19  21
HETATM   21  O   UNL     1      -9.987   3.155 -34.718  1.00  0.00    -0.326 OA
HETATM   22  C   UNL     1     -10.552   4.392 -35.156  1.00  0.00     0.213 C 
ENDBRANCH  19  21
ENDBRANCH   3  19
BRANCH   2  23
HETATM   23  O   UNL     1     -10.613   2.240 -32.201  1.00  0.00    -0.389 OA
HETATM   24  H   UNL     1     -11.093   2.176 -31.355  1.00  0.00     0.210 HD
ENDBRANCH   2  23
BRANCH  10  25
HETATM   25  O   UNL     1      -3.930   2.546 -31.931  1.00  0.00    -0.343 OA
HETATM   26  H   UNL     1      -4.078   1.995 -32.717  1.00  0.00     0.219 HD
ENDBRANCH  10  25
TORSDOF 5
ENDMDL
MODEL 8
REMARK VINA RESULT:      -6.6      3.788      5.810
REMARK  5 active torsions:
REMARK  status: ('A' for Active; 'I' for Inactive)
REMARK    1  A    between atoms: C_2  and  O_3 
REMARK    2  A    between atoms: C_4  and  C_5 
REMARK    3  A    between atoms: C_5  and  O_6 
REMARK    4  A    between atoms: C_9  and  C_10 
REMARK    5  A    between atoms: C_22  and  O_23 
ROOT
HETATM    1  C   UNL     1      -9.069   2.070 -31.068  1.00  0.00     0.047 C 
HETATM    2  C   UNL     1      -9.680   3.027 -32.105  1.00  0.00     0.073 C 
HETATM    3  C   UNL     1      -9.436   2.517 -33.565  1.00  0.00     0.133 C 
HETATM    4  C   UNL     1      -8.027   2.763 -34.186  1.00  0.00     0.074 C 
HETATM    5  C   UNL     1      -7.350   3.946 -33.585  1.00  0.00     0.030 A 
HETATM    6  C   UNL     1      -7.867   4.685 -32.543  1.00  0.00     0.042 A 
HETATM    7  N   UNL     1      -6.989   5.705 -32.304  1.00  0.00    -0.279 N 
HETATM    8  H   UNL     1      -7.053   6.448 -31.615  1.00  0.00     0.189 HD
HETATM    9  N   UNL     1      -5.932   5.690 -33.144  1.00  0.00    -0.149 NA
HETATM   10  C   UNL     1      -6.184   4.639 -33.914  1.00  0.00     0.190 A 
HETATM   11  C   UNL     1      -9.162   4.471 -31.855  1.00  0.00     0.097 C 
ENDROOT
BRANCH   4  12
HETATM   12  C   UNL     1      -7.108   1.549 -34.081  1.00  0.00    -0.047 A 
HETATM   13  C   UNL     1      -6.062   1.417 -33.151  1.00  0.00     0.027 A 
HETATM   14  C   UNL     1      -5.284   0.257 -33.111  1.00  0.00     0.011 A 
HETATM   15 BR   UNL     1      -3.891   0.110 -31.841  1.00  0.00    -0.051 Br
HETATM   16  C   UNL     1      -5.525  -0.791 -33.994  1.00  0.00     0.019 A 
HETATM   17  C   UNL     1      -6.553  -0.680 -34.924  1.00  0.00     0.002 A 
HETATM   18  C   UNL     1      -7.340   0.475 -34.962  1.00  0.00     0.008 A 
ENDBRANCH   4  12
BRANCH   3  19
HETATM   19  C   UNL     1     -10.494   3.077 -34.497  1.00  0.00     0.266 C 
HETATM   20  O   UNL     1     -10.345   4.131 -35.107  1.00  0.00    -0.265 OA
BRANCH  19  21
HETATM   21  O   UNL     1     -11.592   2.282 -34.583  1.00  0.00    -0.326 OA
HETATM   22  C   UNL     1     -12.692   2.867 -35.282  1.00  0.00     0.213 C 
ENDBRANCH  19  21
ENDBRANCH   3  19
BRANCH   2  23
HETATM   23  O   UNL     1     -11.090   3.031 -31.813  1.00  0.00    -0.389 OA
HETATM   24  H   UNL     1     -11.214   3.244 -30.869  1.00  0.00     0.210 HD
ENDBRANCH   2  23
BRANCH  10  25
HETATM   25  O   UNL     1      -5.300   4.414 -34.878  1.00  0.00    -0.343 OA
HETATM   26  H   UNL     1      -5.732   3.767 -35.460  1.00  0.00     0.219 HD
ENDBRANCH  10  25
TORSDOF 5
ENDMDL
MODEL 9
REMARK VINA RESULT:      -6.6     16.841     18.317
REMARK  5 active torsions:
REMARK  status: ('A' for Active; 'I' for Inactive)
REMARK    1  A    between atoms: C_2  and  O_3 
REMARK    2  A    between atoms: C_4  and  C_5 
REMARK    3  A    between atoms: C_5  and  O_6 
REMARK    4  A    between atoms: C_9  and  C_10 
REMARK    5  A    between atoms: C_22  and  O_23 
ROOT
HETATM    1  C   UNL     1      -4.815 -16.484 -37.815  1.00  0.00     0.047 C 
HETATM    2  C   UNL     1      -4.574 -15.644 -36.549  1.00  0.00     0.073 C 
HETATM    3  C   UNL     1      -5.399 -14.315 -36.581  1.00  0.00     0.133 C 
HETATM    4  C   UNL     1      -4.843 -13.145 -37.448  1.00  0.00     0.074 C 
HETATM    5  C   UNL     1      -3.364 -13.218 -37.606  1.00  0.00     0.030 A 
HETATM    6  C   UNL     1      -2.586 -14.247 -37.118  1.00  0.00     0.042 A 
HETATM    7  N   UNL     1      -1.288 -13.940 -37.417  1.00  0.00    -0.279 N 
HETATM    8  H   UNL     1      -0.447 -14.466 -37.201  1.00  0.00     0.189 HD
HETATM    9  N   UNL     1      -1.166 -12.758 -38.058  1.00  0.00    -0.149 NA
HETATM   10  C   UNL     1      -2.422 -12.338 -38.138  1.00  0.00     0.190 A 
HETATM   11  C   UNL     1      -3.048 -15.426 -36.348  1.00  0.00     0.097 C 
ENDROOT
BRANCH   4  12
HETATM   12  C   UNL     1      -5.493 -13.062 -38.827  1.00  0.00    -0.047 A 
HETATM   13  C   UNL     1      -4.952 -13.617 -39.999  1.00  0.00     0.027 A 
HETATM   14  C   UNL     1      -5.630 -13.513 -41.217  1.00  0.00     0.011 A 
HETATM   15 BR   UNL     1      -4.877 -14.279 -42.773  1.00  0.00    -0.051 Br
HETATM   16  C   UNL     1      -6.852 -12.854 -41.296  1.00  0.00     0.019 A 
HETATM   17  C   UNL     1      -7.404 -12.295 -40.148  1.00  0.00     0.002 A 
HETATM   18  C   UNL     1      -6.734 -12.404 -38.926  1.00  0.00     0.008 A 
ENDBRANCH   4  12
BRANCH   3  19
HETATM   19  C   UNL     1      -5.639 -13.816 -35.168  1.00  0.00     0.266 C 
HETATM   20  O   UNL     1      -4.918 -12.980 -34.632  1.00  0.00    -0.265 OA
BRANCH  19  21
HETATM   21  O   UNL     1      -6.729 -14.381 -34.589  1.00  0.00    -0.326 OA
HETATM   22  C   UNL     1      -6.692 -14.411 -33.161  1.00  0.00     0.213 C 
ENDBRANCH  19  21
ENDBRANCH   3  19
BRANCH   2  23
HETATM   23  O   UNL     1      -5.023 -16.479 -35.465  1.00  0.00    -0.389 OA
HETATM   24  H   UNL     1      -5.714 -16.004 -34.969  1.00  0.00     0.210 HD
ENDBRANCH   2  23
BRANCH  10  25
HETATM   25  O   UNL     1      -2.589 -11.148 -38.702  1.00  0.00    -0.343 OA
HETATM   26  H   UNL     1      -3.482 -10.874 -38.435  1.00  0.00     0.219 HD
ENDBRANCH  10  25
TORSDOF 5
ENDMDL
MODEL 10
REMARK VINA RESULT:      -6.6      2.972      3.828
REMARK  5 active torsions:
REMARK  status: ('A' for Active; 'I' for Inactive)
REMARK    1  A    between atoms: C_2  and  O_3 
REMARK    2  A    between atoms: C_4  and  C_5 
REMARK    3  A    between atoms: C_5  and  O_6 
REMARK    4  A    between atoms: C_9  and  C_10 
REMARK    5  A    between atoms: C_22  and  O_23 
ROOT
HETATM    1  C   UNL     1      -6.043   3.501 -34.252  1.00  0.00     0.047 C 
HETATM    2  C   UNL     1      -6.768   3.800 -32.929  1.00  0.00     0.073 C 
HETATM    3  C   UNL     1      -6.539   2.659 -31.882  1.00  0.00     0.133 C 
HETATM    4  C   UNL     1      -7.386   1.360 -32.038  1.00  0.00     0.074 C 
HETATM    5  C   UNL     1      -8.678   1.614 -32.733  1.00  0.00     0.030 A 
HETATM    6  C   UNL     1      -9.047   2.835 -33.255  1.00  0.00     0.042 A 
HETATM    7  N   UNL     1     -10.305   2.686 -33.766  1.00  0.00    -0.279 N 
HETATM    8  H   UNL     1     -10.892   3.381 -34.219  1.00  0.00     0.189 HD
HETATM    9  N   UNL     1     -10.794   1.439 -33.593  1.00  0.00    -0.149 NA
HETATM   10  C   UNL     1      -9.808   0.825 -32.953  1.00  0.00     0.190 A 
HETATM   11  C   UNL     1      -8.269   4.095 -33.210  1.00  0.00     0.097 C 
ENDROOT
BRANCH   4  12
HETATM   12  C   UNL     1      -6.638   0.242 -32.760  1.00  0.00    -0.047 A 
HETATM   13  C   UNL     1      -5.536  -0.453 -32.233  1.00  0.00     0.027 A 
HETATM   14  C   UNL     1      -4.926  -1.480 -32.958  1.00  0.00     0.011 A 
HETATM   15 BR   UNL     1      -3.450  -2.399 -32.214  1.00  0.00    -0.051 Br
HETATM   16  C   UNL     1      -5.394  -1.835 -34.219  1.00  0.00     0.019 A 
HETATM   17  C   UNL     1      -6.483  -1.159 -34.760  1.00  0.00     0.002 A 
HETATM   18  C   UNL     1      -7.102  -0.136 -34.036  1.00  0.00     0.008 A 
ENDBRANCH   4  12
BRANCH   3  19
HETATM   19  C   UNL     1      -6.713   3.200 -30.475  1.00  0.00     0.266 C 
HETATM   20  O   UNL     1      -7.756   3.069 -29.843  1.00  0.00    -0.265 OA
BRANCH  19  21
HETATM   21  O   UNL     1      -5.598   3.817 -30.007  1.00  0.00    -0.326 OA
HETATM   22  C   UNL     1      -5.848   4.835 -29.037  1.00  0.00     0.213 C 
ENDBRANCH  19  21
ENDBRANCH   3  19
BRANCH   2  23
HETATM   23  O   UNL     1      -6.180   5.028 -32.459  1.00  0.00    -0.389 OA
HETATM   24  H   UNL     1      -5.306   5.137 -32.877  1.00  0.00     0.210 HD
ENDBRANCH   2  23
BRANCH  10  25
HETATM   25  O   UNL     1     -10.048  -0.436 -32.614  1.00  0.00    -0.343 OA
HETATM   26  H   UNL     1     -10.034  -0.435 -31.642  1.00  0.00     0.219 HD
ENDBRANCH  10  25
TORSDOF 5
ENDMDL
