MODEL 1
REMARK VINA RESULT:      -8.6      0.000      0.000
REMARK  7 active torsions:
REMARK  status: ('A' for Active; 'I' for Inactive)
REMARK    1  A    between atoms: C_2  and  O_3 
REMARK    2  A    between atoms: O_3  and  C_4 
REMARK    3  A    between atoms: C_4  and  C_5 
REMARK    4  A    between atoms: C_6  and  C_7 
REMARK    5  A    between atoms: C_18  and  S_19 
REMARK    6  A    between atoms: S_19  and  C_20 
REMARK    7  A    between atoms: C_20  and  C_21 
ROOT
HETATM    1  C   UNL     1      -5.342   5.042 -31.049  1.00  0.00     0.070 C 
HETATM    2  C   UNL     1      -4.096   4.187 -31.293  1.00  0.00     0.204 C 
HETATM    3  N   UNL     1      -4.452   2.772 -31.466  1.00  0.00    -0.082 N 
HETATM    4  C   UNL     1      -5.725   2.328 -31.685  1.00  0.00     0.726 A 
HETATM    5  N   UNL     1      -6.741   3.210 -31.658  1.00  0.00    -0.192 N 
HETATM    6  N   UNL     1      -3.568   1.755 -31.459  1.00  0.00    -0.128 NA
HETATM    7  C   UNL     1      -4.374   0.722 -31.737  1.00  0.00     0.226 A 
HETATM    8  N   UNL     1      -5.705   1.036 -31.881  1.00  0.00    -0.035 NA
HETATM    9  C   UNL     1      -6.587   4.536 -31.259  1.00  0.00     0.037 C 
HETATM   10  C   UNL     1      -7.868   5.317 -31.099  1.00  0.00     0.070 C 
HETATM   11  H   UNL     1      -7.690   2.850 -31.731  1.00  0.00     0.184 HD
ENDROOT
BRANCH   7  12
HETATM   12  S   UNL     1      -3.786  -0.901 -31.961  1.00  0.00    -0.083 SA
BRANCH  12  13
HETATM   13  C   UNL     1      -3.964  -1.085 -33.757  1.00  0.00     0.123 C 
BRANCH  13  14
HETATM   14  C   UNL     1      -4.764  -2.316 -34.112  1.00  0.00    -0.027 A 
HETATM   15  C   UNL     1      -6.100  -2.264 -34.544  1.00  0.00     0.041 A 
HETATM   16 CL   UNL     1      -6.958  -0.771 -34.686  1.00  0.00    -0.084 Cl
HETATM   17  C   UNL     1      -6.785  -3.437 -34.876  1.00  0.00     0.024 A 
HETATM   18  C   UNL     1      -6.150  -4.675 -34.784  1.00  0.00     0.002 A 
HETATM   19  C   UNL     1      -4.826  -4.744 -34.363  1.00  0.00     0.001 A 
HETATM   20  C   UNL     1      -4.137  -3.575 -34.033  1.00  0.00     0.009 A 
ENDBRANCH  13  14
ENDBRANCH  12  13
ENDBRANCH   7  12
BRANCH   2  21
HETATM   21  C   UNL     1      -3.279   4.628 -32.510  1.00  0.00    -0.006 A 
HETATM   22  C   UNL     1      -1.898   4.885 -32.435  1.00  0.00     0.042 A 
HETATM   23 CL   UNL     1      -1.008   4.751 -30.959  1.00  0.00    -0.084 Cl
HETATM   24  C   UNL     1      -1.181   5.273 -33.572  1.00  0.00     0.024 A 
HETATM   25  C   UNL     1      -1.822   5.403 -34.803  1.00  0.00     0.002 A 
HETATM   26  C   UNL     1      -3.184   5.144 -34.901  1.00  0.00     0.001 A 
HETATM   27  C   UNL     1      -3.906   4.759 -33.770  1.00  0.00     0.011 A 
ENDBRANCH   2  21
BRANCH   1  28
HETATM   28  C   UNL     1      -5.138   6.392 -30.461  1.00  0.00     0.293 C 
HETATM   29  O   UNL     1      -5.040   6.623 -29.267  1.00  0.00    -0.259 OA
BRANCH  28  30
HETATM   30  O   UNL     1      -5.031   7.318 -31.443  1.00  0.00    -0.318 OA
BRANCH  30  31
HETATM   31  C   UNL     1      -4.229   8.473 -31.148  1.00  0.00     0.174 C 
HETATM   32  C   UNL     1      -2.810   8.260 -31.640  1.00  0.00     0.034 C 
ENDBRANCH  30  31
ENDBRANCH  28  30
ENDBRANCH   1  28
TORSDOF 7
ENDMDL
MODEL 2
REMARK VINA RESULT:      -8.4      4.513      7.056
REMARK  7 active torsions:
REMARK  status: ('A' for Active; 'I' for Inactive)
REMARK    1  A    between atoms: C_2  and  O_3 
REMARK    2  A    between atoms: O_3  and  C_4 
REMARK    3  A    between atoms: C_4  and  C_5 
REMARK    4  A    between atoms: C_6  and  C_7 
REMARK    5  A    between atoms: C_18  and  S_19 
REMARK    6  A    between atoms: S_19  and  C_20 
REMARK    7  A    between atoms: C_20  and  C_21 
ROOT
HETATM    1  C   UNL     1      -5.240   3.221 -32.752  1.00  0.00     0.070 C 
HETATM    2  C   UNL     1      -6.624   2.588 -32.580  1.00  0.00     0.204 C 
HETATM    3  N   UNL     1      -7.679   3.486 -33.068  1.00  0.00    -0.082 N 
HETATM    4  C   UNL     1      -7.445   4.587 -33.841  1.00  0.00     0.726 A 
HETATM    5  N   UNL     1      -6.176   4.940 -34.113  1.00  0.00    -0.192 N 
HETATM    6  N   UNL     1      -8.995   3.315 -32.836  1.00  0.00    -0.128 NA
HETATM    7  C   UNL     1      -9.508   4.325 -33.551  1.00  0.00     0.226 A 
HETATM    8  N   UNL     1      -8.586   5.128 -34.180  1.00  0.00    -0.035 NA
HETATM    9  C   UNL     1      -5.073   4.334 -33.515  1.00  0.00     0.037 C 
HETATM   10  C   UNL     1      -3.744   4.995 -33.788  1.00  0.00     0.070 C 
HETATM   11  H   UNL     1      -6.018   5.813 -34.612  1.00  0.00     0.184 HD
ENDROOT
BRANCH   7  12
HETATM   12  S   UNL     1     -11.221   4.583 -33.729  1.00  0.00    -0.083 SA
BRANCH  12  13
HETATM   13  C   UNL     1     -11.869   3.472 -32.450  1.00  0.00     0.123 C 
BRANCH  13  14
HETATM   14  C   UNL     1     -12.853   2.480 -33.024  1.00  0.00    -0.027 A 
HETATM   15  C   UNL     1     -12.462   1.361 -33.777  1.00  0.00     0.041 A 
HETATM   16 CL   UNL     1     -10.804   1.031 -34.134  1.00  0.00    -0.084 Cl
HETATM   17  C   UNL     1     -13.418   0.466 -34.268  1.00  0.00     0.024 A 
HETATM   18  C   UNL     1     -14.774   0.673 -34.014  1.00  0.00     0.002 A 
HETATM   19  C   UNL     1     -15.177   1.774 -33.267  1.00  0.00     0.001 A 
HETATM   20  C   UNL     1     -14.226   2.668 -32.771  1.00  0.00     0.009 A 
ENDBRANCH  13  14
ENDBRANCH  12  13
ENDBRANCH   7  12
BRANCH   2  21
HETATM   21  C   UNL     1      -6.774   1.241 -33.291  1.00  0.00    -0.006 A 
HETATM   22  C   UNL     1      -6.862   0.026 -32.586  1.00  0.00     0.042 A 
HETATM   23 CL   UNL     1      -6.780  -0.055 -30.862  1.00  0.00    -0.084 Cl
HETATM   24  C   UNL     1      -7.014  -1.186 -33.269  1.00  0.00     0.024 A 
HETATM   25  C   UNL     1      -7.090  -1.209 -34.661  1.00  0.00     0.002 A 
HETATM   26  C   UNL     1      -7.016  -0.019 -35.376  1.00  0.00     0.001 A 
HETATM   27  C   UNL     1      -6.861   1.193 -34.700  1.00  0.00     0.011 A 
ENDBRANCH   2  21
BRANCH   1  28
HETATM   28  C   UNL     1      -4.123   2.642 -31.960  1.00  0.00     0.293 C 
HETATM   29  O   UNL     1      -3.804   3.007 -30.840  1.00  0.00    -0.259 OA
BRANCH  28  30
HETATM   30  O   UNL     1      -3.543   1.626 -32.642  1.00  0.00    -0.318 OA
BRANCH  30  31
HETATM   31  C   UNL     1      -3.318   0.412 -31.909  1.00  0.00     0.174 C 
HETATM   32  C   UNL     1      -3.316  -0.774 -32.855  1.00  0.00     0.034 C 
ENDBRANCH  30  31
ENDBRANCH  28  30
ENDBRANCH   1  28
TORSDOF 7
ENDMDL
MODEL 3
REMARK VINA RESULT:      -7.9      3.580      7.728
REMARK  7 active torsions:
REMARK  status: ('A' for Active; 'I' for Inactive)
REMARK    1  A    between atoms: C_2  and  O_3 
REMARK    2  A    between atoms: O_3  and  C_4 
REMARK    3  A    between atoms: C_4  and  C_5 
REMARK    4  A    between atoms: C_6  and  C_7 
REMARK    5  A    between atoms: C_18  and  S_19 
REMARK    6  A    between atoms: S_19  and  C_20 
REMARK    7  A    between atoms: C_20  and  C_21 
ROOT
HETATM    1  C   UNL     1      -8.865   3.868 -33.573  1.00  0.00     0.070 C 
HETATM    2  C   UNL     1      -7.519   3.272 -33.996  1.00  0.00     0.204 C 
HETATM    3  N   UNL     1      -6.452   4.279 -33.931  1.00  0.00    -0.082 N 
HETATM    4  C   UNL     1      -6.577   5.482 -33.296  1.00  0.00     0.726 A 
HETATM    5  N   UNL     1      -7.765   5.823 -32.766  1.00  0.00    -0.192 N 
HETATM    6  N   UNL     1      -5.223   4.125 -34.460  1.00  0.00    -0.128 NA
HETATM    7  C   UNL     1      -4.634   5.258 -34.057  1.00  0.00     0.226 A 
HETATM    8  N   UNL     1      -5.435   6.116 -33.341  1.00  0.00    -0.035 NA
HETATM    9  C   UNL     1      -8.929   5.084 -32.967  1.00  0.00     0.037 C 
HETATM   10  C   UNL     1     -10.199   5.727 -32.468  1.00  0.00     0.070 C 
HETATM   11  H   UNL     1      -7.866   6.759 -32.378  1.00  0.00     0.184 HD
ENDROOT
BRANCH   7  12
HETATM   12  S   UNL     1      -2.956   5.610 -34.360  1.00  0.00    -0.083 SA
BRANCH  12  13
HETATM   13  C   UNL     1      -2.160   4.639 -33.051  1.00  0.00     0.123 C 
BRANCH  13  14
HETATM   14  C   UNL     1      -1.550   5.529 -31.993  1.00  0.00    -0.027 A 
HETATM   15  C   UNL     1      -2.242   5.933 -30.839  1.00  0.00     0.041 A 
HETATM   16 CL   UNL     1      -3.877   5.459 -30.539  1.00  0.00    -0.084 Cl
HETATM   17  C   UNL     1      -1.619   6.743 -29.885  1.00  0.00     0.024 A 
HETATM   18  C   UNL     1      -0.301   7.160 -30.066  1.00  0.00     0.002 A 
HETATM   19  C   UNL     1       0.400   6.765 -31.200  1.00  0.00     0.001 A 
HETATM   20  C   UNL     1      -0.217   5.953 -32.154  1.00  0.00     0.009 A 
ENDBRANCH  13  14
ENDBRANCH  12  13
ENDBRANCH   7  12
BRANCH   2  21
HETATM   21  C   UNL     1      -7.093   2.066 -33.154  1.00  0.00    -0.006 A 
HETATM   22  C   UNL     1      -6.852   0.801 -33.722  1.00  0.00     0.042 A 
HETATM   23 CL   UNL     1      -7.043   0.491 -35.411  1.00  0.00    -0.084 Cl
HETATM   24  C   UNL     1      -6.449  -0.275 -32.924  1.00  0.00     0.024 A 
HETATM   25  C   UNL     1      -6.270  -0.109 -31.551  1.00  0.00     0.002 A 
HETATM   26  C   UNL     1      -6.492   1.134 -30.972  1.00  0.00     0.001 A 
HETATM   27  C   UNL     1      -6.897   2.211 -31.762  1.00  0.00     0.011 A 
ENDBRANCH   2  21
BRANCH   1  28
HETATM   28  C   UNL     1     -10.092   3.123 -33.961  1.00  0.00     0.293 C 
HETATM   29  O   UNL     1     -10.708   3.293 -35.000  1.00  0.00    -0.259 OA
BRANCH  28  30
HETATM   30  O   UNL     1     -10.398   2.202 -33.017  1.00  0.00    -0.318 OA
BRANCH  30  31
HETATM   31  C   UNL     1     -10.848   0.924 -33.493  1.00  0.00     0.174 C 
HETATM   32  C   UNL     1     -10.179  -0.189 -32.709  1.00  0.00     0.034 C 
ENDBRANCH  30  31
ENDBRANCH  28  30
ENDBRANCH   1  28
TORSDOF 7
ENDMDL
MODEL 4
REMARK VINA RESULT:      -7.9      2.040      2.683
REMARK  7 active torsions:
REMARK  status: ('A' for Active; 'I' for Inactive)
REMARK    1  A    between atoms: C_2  and  O_3 
REMARK    2  A    between atoms: O_3  and  C_4 
REMARK    3  A    between atoms: C_4  and  C_5 
REMARK    4  A    between atoms: C_6  and  C_7 
REMARK    5  A    between atoms: C_18  and  S_19 
REMARK    6  A    between atoms: S_19  and  C_20 
REMARK    7  A    between atoms: C_20  and  C_21 
ROOT
HETATM    1  C   UNL     1      -6.724   5.189 -32.085  1.00  0.00     0.070 C 
HETATM    2  C   UNL     1      -5.774   4.018 -32.351  1.00  0.00     0.204 C 
HETATM    3  N   UNL     1      -6.472   2.915 -33.025  1.00  0.00    -0.082 N 
HETATM    4  C   UNL     1      -7.704   3.033 -33.604  1.00  0.00     0.726 A 
HETATM    5  N   UNL     1      -8.374   4.194 -33.488  1.00  0.00    -0.192 N 
HETATM    6  N   UNL     1      -5.972   1.674 -33.176  1.00  0.00    -0.128 NA
HETATM    7  C   UNL     1      -6.937   1.103 -33.910  1.00  0.00     0.226 A 
HETATM    8  N   UNL     1      -8.016   1.907 -34.190  1.00  0.00    -0.035 NA
HETATM    9  C   UNL     1      -7.950   5.239 -32.670  1.00  0.00     0.037 C 
HETATM   10  C   UNL     1      -8.931   6.375 -32.512  1.00  0.00     0.070 C 
HETATM   11  H   UNL     1      -9.326   4.234 -33.845  1.00  0.00     0.184 HD
ENDROOT
BRANCH   7  12
HETATM   12  S   UNL     1      -6.822  -0.523 -34.522  1.00  0.00    -0.083 SA
BRANCH  12  13
HETATM   13  C   UNL     1      -5.229  -1.040 -33.824  1.00  0.00     0.123 C 
BRANCH  13  14
HETATM   14  C   UNL     1      -4.991  -2.519 -34.022  1.00  0.00    -0.027 A 
HETATM   15  C   UNL     1      -4.040  -3.247 -33.288  1.00  0.00     0.041 A 
HETATM   16 CL   UNL     1      -3.033  -2.500 -32.099  1.00  0.00    -0.084 Cl
HETATM   17  C   UNL     1      -3.877  -4.619 -33.503  1.00  0.00     0.024 A 
HETATM   18  C   UNL     1      -4.658  -5.283 -34.448  1.00  0.00     0.002 A 
HETATM   19  C   UNL     1      -5.607  -4.578 -35.179  1.00  0.00     0.001 A 
HETATM   20  C   UNL     1      -5.777  -3.208 -34.966  1.00  0.00     0.009 A 
ENDBRANCH  13  14
ENDBRANCH  12  13
ENDBRANCH   7  12
BRANCH   2  21
HETATM   21  C   UNL     1      -4.554   4.400 -33.194  1.00  0.00    -0.006 A 
HETATM   22  C   UNL     1      -3.240   4.097 -32.793  1.00  0.00     0.042 A 
HETATM   23 CL   UNL     1      -2.886   3.293 -31.305  1.00  0.00    -0.084 Cl
HETATM   24  C   UNL     1      -2.149   4.447 -33.597  1.00  0.00     0.024 A 
HETATM   25  C   UNL     1      -2.348   5.096 -34.815  1.00  0.00     0.002 A 
HETATM   26  C   UNL     1      -3.638   5.396 -35.234  1.00  0.00     0.001 A 
HETATM   27  C   UNL     1      -4.731   5.051 -34.436  1.00  0.00     0.011 A 
ENDBRANCH   2  21
BRANCH   1  28
HETATM   28  C   UNL     1      -6.300   6.194 -31.074  1.00  0.00     0.293 C 
HETATM   29  O   UNL     1      -5.831   7.289 -31.338  1.00  0.00    -0.259 OA
BRANCH  28  30
HETATM   30  O   UNL     1      -6.550   5.736 -29.825  1.00  0.00    -0.318 OA
BRANCH  30  31
HETATM   31  C   UNL     1      -6.905   6.722 -28.843  1.00  0.00     0.174 C 
HETATM   32  C   UNL     1      -8.411   6.899 -28.803  1.00  0.00     0.034 C 
ENDBRANCH  30  31
ENDBRANCH  28  30
ENDBRANCH   1  28
TORSDOF 7
ENDMDL
MODEL 5
REMARK VINA RESULT:      -7.8      1.622      2.187
REMARK  7 active torsions:
REMARK  status: ('A' for Active; 'I' for Inactive)
REMARK    1  A    between atoms: C_2  and  O_3 
REMARK    2  A    between atoms: O_3  and  C_4 
REMARK    3  A    between atoms: C_4  and  C_5 
REMARK    4  A    between atoms: C_6  and  C_7 
REMARK    5  A    between atoms: C_18  and  S_19 
REMARK    6  A    between atoms: S_19  and  C_20 
REMARK    7  A    between atoms: C_20  and  C_21 
ROOT
HETATM    1  C   UNL     1      -5.247   6.369 -30.861  1.00  0.00     0.070 C 
HETATM    2  C   UNL     1      -4.697   5.001 -31.273  1.00  0.00     0.204 C 
HETATM    3  N   UNL     1      -5.782   4.024 -31.438  1.00  0.00    -0.082 N 
HETATM    4  C   UNL     1      -7.104   4.358 -31.514  1.00  0.00     0.726 A 
HETATM    5  N   UNL     1      -7.466   5.643 -31.345  1.00  0.00    -0.192 N 
HETATM    6  N   UNL     1      -5.601   2.695 -31.561  1.00  0.00    -0.128 NA
HETATM    7  C   UNL     1      -6.861   2.289 -31.766  1.00  0.00     0.226 A 
HETATM    8  N   UNL     1      -7.811   3.283 -31.742  1.00  0.00    -0.035 NA
HETATM    9  C   UNL     1      -6.579   6.636 -30.934  1.00  0.00     0.037 C 
HETATM   10  C   UNL     1      -7.206   7.968 -30.604  1.00  0.00     0.070 C 
HETATM   11  H   UNL     1      -8.460   5.860 -31.313  1.00  0.00     0.184 HD
ENDROOT
BRANCH   7  12
HETATM   12  S   UNL     1      -7.277   0.631 -32.099  1.00  0.00    -0.083 SA
BRANCH  12  13
HETATM   13  C   UNL     1      -5.640  -0.149 -32.051  1.00  0.00     0.123 C 
BRANCH  13  14
HETATM   14  C   UNL     1      -5.531  -1.270 -33.060  1.00  0.00    -0.027 A 
HETATM   15  C   UNL     1      -4.408  -2.108 -33.154  1.00  0.00     0.041 A 
HETATM   16 CL   UNL     1      -3.031  -1.914 -32.129  1.00  0.00    -0.084 Cl
HETATM   17  C   UNL     1      -4.372  -3.141 -34.096  1.00  0.00     0.024 A 
HETATM   18  C   UNL     1      -5.451  -3.354 -34.953  1.00  0.00     0.002 A 
HETATM   19  C   UNL     1      -6.572  -2.535 -34.869  1.00  0.00     0.001 A 
HETATM   20  C   UNL     1      -6.615  -1.504 -33.928  1.00  0.00     0.009 A 
ENDBRANCH  13  14
ENDBRANCH  12  13
ENDBRANCH   7  12
BRANCH   2  21
HETATM   21  C   UNL     1      -3.881   5.034 -32.568  1.00  0.00    -0.006 A 
HETATM   22  C   UNL     1      -2.487   4.842 -32.582  1.00  0.00     0.042 A 
HETATM   23 CL   UNL     1      -1.572   4.580 -31.140  1.00  0.00    -0.084 Cl
HETATM   24  C   UNL     1      -1.776   4.864 -33.787  1.00  0.00     0.024 A 
HETATM   25  C   UNL     1      -2.439   5.067 -34.996  1.00  0.00     0.002 A 
HETATM   26  C   UNL     1      -3.816   5.248 -35.006  1.00  0.00     0.001 A 
HETATM   27  C   UNL     1      -4.532   5.230 -33.807  1.00  0.00     0.011 A 
ENDBRANCH   2  21
BRANCH   1  28
HETATM   28  C   UNL     1      -4.288   7.339 -30.270  1.00  0.00     0.293 C 
HETATM   29  O   UNL     1      -4.008   7.403 -29.084  1.00  0.00    -0.259 OA
BRANCH  28  30
HETATM   30  O   UNL     1      -3.740   8.107 -31.241  1.00  0.00    -0.318 OA
BRANCH  30  31
HETATM   31  C   UNL     1      -2.336   8.384 -31.120  1.00  0.00     0.174 C 
HETATM   32  C   UNL     1      -1.660   8.248 -32.471  1.00  0.00     0.034 C 
ENDBRANCH  30  31
ENDBRANCH  28  30
ENDBRANCH   1  28
TORSDOF 7
ENDMDL
MODEL 6
REMARK VINA RESULT:      -7.7      2.518      4.427
REMARK  7 active torsions:
REMARK  status: ('A' for Active; 'I' for Inactive)
REMARK    1  A    between atoms: C_2  and  O_3 
REMARK    2  A    between atoms: O_3  and  C_4 
REMARK    3  A    between atoms: C_4  and  C_5 
REMARK    4  A    between atoms: C_6  and  C_7 
REMARK    5  A    between atoms: C_18  and  S_19 
REMARK    6  A    between atoms: S_19  and  C_20 
REMARK    7  A    between atoms: C_20  and  C_21 
ROOT
HETATM    1  C   UNL     1      -2.527   6.447 -31.595  1.00  0.00     0.070 C 
HETATM    2  C   UNL     1      -4.043   6.236 -31.610  1.00  0.00     0.204 C 
HETATM    3  N   UNL     1      -4.376   4.808 -31.684  1.00  0.00    -0.082 N 
HETATM    4  C   UNL     1      -3.478   3.803 -31.462  1.00  0.00     0.726 A 
HETATM    5  N   UNL     1      -2.188   4.113 -31.246  1.00  0.00    -0.192 N 
HETATM    6  N   UNL     1      -5.605   4.323 -31.950  1.00  0.00    -0.128 NA
HETATM    7  C   UNL     1      -5.388   3.008 -31.816  1.00  0.00     0.226 A 
HETATM    8  N   UNL     1      -4.094   2.651 -31.519  1.00  0.00    -0.035 NA
HETATM    9  C   UNL     1      -1.680   5.402 -31.395  1.00  0.00     0.037 C 
HETATM   10  C   UNL     1      -0.178   5.521 -31.310  1.00  0.00     0.070 C 
HETATM   11  H   UNL     1      -1.517   3.351 -31.174  1.00  0.00     0.184 HD
ENDROOT
BRANCH   7  12
HETATM   12  S   UNL     1      -6.657   1.822 -31.949  1.00  0.00    -0.083 SA
BRANCH  12  13
HETATM   13  C   UNL     1      -5.771   0.316 -31.462  1.00  0.00     0.123 C 
BRANCH  13  14
HETATM   14  C   UNL     1      -5.686  -0.670 -32.604  1.00  0.00    -0.027 A 
HETATM   15  C   UNL     1      -4.523  -1.398 -32.903  1.00  0.00     0.041 A 
HETATM   16 CL   UNL     1      -3.066  -1.210 -31.993  1.00  0.00    -0.084 Cl
HETATM   17  C   UNL     1      -4.510  -2.312 -33.962  1.00  0.00     0.024 A 
HETATM   18  C   UNL     1      -5.653  -2.512 -34.735  1.00  0.00     0.002 A 
HETATM   19  C   UNL     1      -6.814  -1.802 -34.450  1.00  0.00     0.001 A 
HETATM   20  C   UNL     1      -6.833  -0.892 -33.391  1.00  0.00     0.009 A 
ENDBRANCH  13  14
ENDBRANCH  12  13
ENDBRANCH   7  12
BRANCH   2  21
HETATM   21  C   UNL     1      -4.756   6.833 -30.393  1.00  0.00    -0.006 A 
HETATM   22  C   UNL     1      -5.954   7.562 -30.508  1.00  0.00     0.042 A 
HETATM   23 CL   UNL     1      -6.709   7.873 -32.031  1.00  0.00    -0.084 Cl
HETATM   24  C   UNL     1      -6.586   8.080 -29.372  1.00  0.00     0.024 A 
HETATM   25  C   UNL     1      -6.043   7.874 -28.105  1.00  0.00     0.002 A 
HETATM   26  C   UNL     1      -4.867   7.146 -27.968  1.00  0.00     0.001 A 
HETATM   27  C   UNL     1      -4.229   6.629 -29.098  1.00  0.00     0.011 A 
ENDBRANCH   2  21
BRANCH   1  28
HETATM   28  C   UNL     1      -2.025   7.807 -31.927  1.00  0.00     0.293 C 
HETATM   29  O   UNL     1      -1.859   8.228 -33.061  1.00  0.00    -0.259 OA
BRANCH  28  30
HETATM   30  O   UNL     1      -1.822   8.521 -30.795  1.00  0.00    -0.318 OA
BRANCH  30  31
HETATM   31  C   UNL     1      -2.534   9.763 -30.688  1.00  0.00     0.174 C 
HETATM   32  C   UNL     1      -2.782  10.096 -29.228  1.00  0.00     0.034 C 
ENDBRANCH  30  31
ENDBRANCH  28  30
ENDBRANCH   1  28
TORSDOF 7
ENDMDL
MODEL 7
REMARK VINA RESULT:      -7.6      4.185      6.331
REMARK  7 active torsions:
REMARK  status: ('A' for Active; 'I' for Inactive)
REMARK    1  A    between atoms: C_2  and  O_3 
REMARK    2  A    between atoms: O_3  and  C_4 
REMARK    3  A    between atoms: C_4  and  C_5 
REMARK    4  A    between atoms: C_6  and  C_7 
REMARK    5  A    between atoms: C_18  and  S_19 
REMARK    6  A    between atoms: S_19  and  C_20 
REMARK    7  A    between atoms: C_20  and  C_21 
ROOT
HETATM    1  C   UNL     1      -4.492   3.857 -32.584  1.00  0.00     0.070 C 
HETATM    2  C   UNL     1      -5.835   3.285 -32.121  1.00  0.00     0.204 C 
HETATM    3  N   UNL     1      -6.956   3.991 -32.756  1.00  0.00    -0.082 N 
HETATM    4  C   UNL     1      -6.822   4.823 -33.830  1.00  0.00     0.726 A 
HETATM    5  N   UNL     1      -5.591   5.097 -34.298  1.00  0.00    -0.192 N 
HETATM    6  N   UNL     1      -8.243   3.878 -32.375  1.00  0.00    -0.128 NA
HETATM    7  C   UNL     1      -8.845   4.631 -33.305  1.00  0.00     0.226 A 
HETATM    8  N   UNL     1      -8.004   5.229 -34.214  1.00  0.00    -0.035 NA
HETATM    9  C   UNL     1      -4.425   4.704 -33.646  1.00  0.00     0.037 C 
HETATM   10  C   UNL     1      -3.145   5.273 -34.208  1.00  0.00     0.070 C 
HETATM   11  H   UNL     1      -5.503   5.790 -35.039  1.00  0.00     0.184 HD
ENDROOT
BRANCH   7  12
HETATM   12  S   UNL     1     -10.575   4.806 -33.405  1.00  0.00    -0.083 SA
BRANCH  12  13
HETATM   13  C   UNL     1     -11.117   3.511 -32.256  1.00  0.00     0.123 C 
BRANCH  13  14
HETATM   14  C   UNL     1     -12.130   2.590 -32.896  1.00  0.00    -0.027 A 
HETATM   15  C   UNL     1     -11.769   1.481 -33.680  1.00  0.00     0.041 A 
HETATM   16 CL   UNL     1     -10.119   1.084 -34.001  1.00  0.00    -0.084 Cl
HETATM   17  C   UNL     1     -12.752   0.653 -34.232  1.00  0.00     0.024 A 
HETATM   18  C   UNL     1     -14.103   0.917 -34.010  1.00  0.00     0.002 A 
HETATM   19  C   UNL     1     -14.476   2.008 -33.233  1.00  0.00     0.001 A 
HETATM   20  C   UNL     1     -13.499   2.836 -32.676  1.00  0.00     0.009 A 
ENDBRANCH  13  14
ENDBRANCH  12  13
ENDBRANCH   7  12
BRANCH   2  21
HETATM   21  C   UNL     1      -5.991   1.788 -32.399  1.00  0.00    -0.006 A 
HETATM   22  C   UNL     1      -6.014   0.831 -31.367  1.00  0.00     0.042 A 
HETATM   23 CL   UNL     1      -5.842   1.258 -29.702  1.00  0.00    -0.084 Cl
HETATM   24  C   UNL     1      -6.174  -0.528 -31.658  1.00  0.00     0.024 A 
HETATM   25  C   UNL     1      -6.321  -0.957 -32.976  1.00  0.00     0.002 A 
HETATM   26  C   UNL     1      -6.312  -0.028 -34.009  1.00  0.00     0.001 A 
HETATM   27  C   UNL     1      -6.150   1.330 -33.726  1.00  0.00     0.011 A 
ENDBRANCH   2  21
BRANCH   1  28
HETATM   28  C   UNL     1      -3.297   3.546 -31.756  1.00  0.00     0.293 C 
HETATM   29  O   UNL     1      -2.780   2.444 -31.669  1.00  0.00    -0.259 OA
BRANCH  28  30
HETATM   30  O   UNL     1      -2.843   4.668 -31.150  1.00  0.00    -0.318 OA
BRANCH  30  31
HETATM   31  C   UNL     1      -1.417   4.832 -31.095  1.00  0.00     0.174 C 
HETATM   32  C   UNL     1      -1.071   6.212 -30.568  1.00  0.00     0.034 C 
ENDBRANCH  30  31
ENDBRANCH  28  30
ENDBRANCH   1  28
TORSDOF 7
ENDMDL
MODEL 8
REMARK VINA RESULT:      -7.5      2.027      4.029
REMARK  7 active torsions:
REMARK  status: ('A' for Active; 'I' for Inactive)
REMARK    1  A    between atoms: C_2  and  O_3 
REMARK    2  A    between atoms: O_3  and  C_4 
REMARK    3  A    between atoms: C_4  and  C_5 
REMARK    4  A    between atoms: C_6  and  C_7 
REMARK    5  A    between atoms: C_18  and  S_19 
REMARK    6  A    between atoms: S_19  and  C_20 
REMARK    7  A    between atoms: C_20  and  C_21 
ROOT
HETATM    1  C   UNL     1      -3.468   5.276 -31.825  1.00  0.00     0.070 C 
HETATM    2  C   UNL     1      -4.785   4.570 -32.157  1.00  0.00     0.204 C 
HETATM    3  N   UNL     1      -4.634   3.110 -32.086  1.00  0.00    -0.082 N 
HETATM    4  C   UNL     1      -3.567   2.482 -31.511  1.00  0.00     0.726 A 
HETATM    5  N   UNL     1      -2.540   3.220 -31.053  1.00  0.00    -0.192 N 
HETATM    6  N   UNL     1      -5.538   2.225 -32.550  1.00  0.00    -0.128 NA
HETATM    7  C   UNL     1      -4.975   1.071 -32.169  1.00  0.00     0.226 A 
HETATM    8  N   UNL     1      -3.763   1.189 -31.530  1.00  0.00    -0.035 NA
HETATM    9  C   UNL     1      -2.429   4.590 -31.277  1.00  0.00     0.037 C 
HETATM   10  C   UNL     1      -1.115   5.209 -30.866  1.00  0.00     0.070 C 
HETATM   11  H   UNL     1      -1.714   2.732 -30.712  1.00  0.00     0.184 HD
ENDROOT
BRANCH   7  12
HETATM   12  S   UNL     1      -5.738  -0.476 -32.408  1.00  0.00    -0.083 SA
BRANCH  12  13
HETATM   13  C   UNL     1      -4.453  -1.351 -33.343  1.00  0.00     0.123 C 
BRANCH  13  14
HETATM   14  C   UNL     1      -4.996  -2.600 -33.998  1.00  0.00    -0.027 A 
HETATM   15  C   UNL     1      -4.438  -3.873 -33.800  1.00  0.00     0.041 A 
HETATM   16 CL   UNL     1      -3.053  -4.121 -32.798  1.00  0.00    -0.084 Cl
HETATM   17  C   UNL     1      -4.996  -4.996 -34.419  1.00  0.00     0.024 A 
HETATM   18  C   UNL     1      -6.117  -4.866 -35.240  1.00  0.00     0.002 A 
HETATM   19  C   UNL     1      -6.684  -3.613 -35.442  1.00  0.00     0.001 A 
HETATM   20  C   UNL     1      -6.132  -2.489 -34.823  1.00  0.00     0.009 A 
ENDBRANCH  13  14
ENDBRANCH  12  13
ENDBRANCH   7  12
BRANCH   2  21
HETATM   21  C   UNL     1      -5.945   4.977 -31.244  1.00  0.00    -0.006 A 
HETATM   22  C   UNL     1      -7.206   5.343 -31.750  1.00  0.00     0.042 A 
HETATM   23 CL   UNL     1      -7.548   5.390 -33.443  1.00  0.00    -0.084 Cl
HETATM   24  C   UNL     1      -8.247   5.695 -30.885  1.00  0.00     0.024 A 
HETATM   25  C   UNL     1      -8.055   5.681 -29.504  1.00  0.00     0.002 A 
HETATM   26  C   UNL     1      -6.821   5.313 -28.983  1.00  0.00     0.001 A 
HETATM   27  C   UNL     1      -5.776   4.963 -29.841  1.00  0.00     0.011 A 
ENDBRANCH   2  21
BRANCH   1  28
HETATM   28  C   UNL     1      -3.334   6.698 -32.237  1.00  0.00     0.293 C 
HETATM   29  O   UNL     1      -3.988   7.619 -31.776  1.00  0.00    -0.259 OA
BRANCH  28  30
HETATM   30  O   UNL     1      -2.355   6.827 -33.163  1.00  0.00    -0.318 OA
BRANCH  30  31
HETATM   31  C   UNL     1      -2.627   6.279 -34.462  1.00  0.00     0.174 C 
HETATM   32  C   UNL     1      -1.573   5.250 -34.825  1.00  0.00     0.034 C 
ENDBRANCH  30  31
ENDBRANCH  28  30
ENDBRANCH   1  28
TORSDOF 7
ENDMDL
MODEL 9
REMARK VINA RESULT:      -7.5      1.441      2.047
REMARK  7 active torsions:
REMARK  status: ('A' for Active; 'I' for Inactive)
REMARK    1  A    between atoms: C_2  and  O_3 
REMARK    2  A    between atoms: O_3  and  C_4 
REMARK    3  A    between atoms: C_4  and  C_5 
REMARK    4  A    between atoms: C_6  and  C_7 
REMARK    5  A    between atoms: C_18  and  S_19 
REMARK    6  A    between atoms: S_19  and  C_20 
REMARK    7  A    between atoms: C_20  and  C_21 
ROOT
HETATM    1  C   UNL     1      -4.925   6.442 -30.912  1.00  0.00     0.070 C 
HETATM    2  C   UNL     1      -4.033   5.215 -31.123  1.00  0.00     0.204 C 
HETATM    3  N   UNL     1      -4.817   3.975 -31.047  1.00  0.00    -0.082 N 
HETATM    4  C   UNL     1      -6.181   3.932 -31.091  1.00  0.00     0.726 A 
HETATM    5  N   UNL     1      -6.873   5.084 -31.117  1.00  0.00    -0.192 N 
HETATM    6  N   UNL     1      -4.286   2.740 -30.956  1.00  0.00    -0.128 NA
HETATM    7  C   UNL     1      -5.393   1.988 -31.006  1.00  0.00     0.226 A 
HETATM    8  N   UNL     1      -6.575   2.685 -31.087  1.00  0.00    -0.035 NA
HETATM    9  C   UNL     1      -6.280   6.332 -30.940  1.00  0.00     0.037 C 
HETATM   10  C   UNL     1      -7.237   7.491 -30.798  1.00  0.00     0.070 C 
HETATM   11  H   UNL     1      -7.888   5.036 -31.056  1.00  0.00     0.184 HD
ENDROOT
BRANCH   7  12
HETATM   12  S   UNL     1      -5.352   0.247 -31.025  1.00  0.00    -0.083 SA
BRANCH  12  13
HETATM   13  C   UNL     1      -4.643  -0.061 -32.666  1.00  0.00     0.123 C 
BRANCH  13  14
HETATM   14  C   UNL     1      -4.268  -1.514 -32.844  1.00  0.00    -0.027 A 
HETATM   15  C   UNL     1      -4.778  -2.315 -33.879  1.00  0.00     0.041 A 
HETATM   16 CL   UNL     1      -5.907  -1.707 -35.037  1.00  0.00    -0.084 Cl
HETATM   17  C   UNL     1      -4.380  -3.650 -34.005  1.00  0.00     0.024 A 
HETATM   18  C   UNL     1      -3.470  -4.203 -33.104  1.00  0.00     0.002 A 
HETATM   19  C   UNL     1      -2.953  -3.421 -32.076  1.00  0.00     0.001 A 
HETATM   20  C   UNL     1      -3.344  -2.087 -31.949  1.00  0.00     0.009 A 
ENDBRANCH  13  14
ENDBRANCH  12  13
ENDBRANCH   7  12
BRANCH   2  21
HETATM   21  C   UNL     1      -3.281   5.227 -32.456  1.00  0.00    -0.006 A 
HETATM   22  C   UNL     1      -1.878   5.155 -32.527  1.00  0.00     0.042 A 
HETATM   23 CL   UNL     1      -0.880   5.076 -31.118  1.00  0.00    -0.084 Cl
HETATM   24  C   UNL     1      -1.224   5.153 -33.764  1.00  0.00     0.024 A 
HETATM   25  C   UNL     1      -1.955   5.213 -34.950  1.00  0.00     0.002 A 
HETATM   26  C   UNL     1      -3.343   5.273 -34.903  1.00  0.00     0.001 A 
HETATM   27  C   UNL     1      -4.001   5.279 -33.671  1.00  0.00     0.011 A 
ENDBRANCH   2  21
BRANCH   1  28
HETATM   28  C   UNL     1      -4.252   7.720 -30.558  1.00  0.00     0.293 C 
HETATM   29  O   UNL     1      -3.977   8.604 -31.354  1.00  0.00    -0.259 OA
BRANCH  28  30
HETATM   30  O   UNL     1      -4.031   7.779 -29.224  1.00  0.00    -0.318 OA
BRANCH  30  31
HETATM   31  C   UNL     1      -4.656   8.863 -28.520  1.00  0.00     0.174 C 
HETATM   32  C   UNL     1      -5.577   8.322 -27.443  1.00  0.00     0.034 C 
ENDBRANCH  30  31
ENDBRANCH  28  30
ENDBRANCH   1  28
TORSDOF 7
ENDMDL
MODEL 10
REMARK VINA RESULT:      -7.4      3.141      7.999
REMARK  7 active torsions:
REMARK  status: ('A' for Active; 'I' for Inactive)
REMARK    1  A    between atoms: C_2  and  O_3 
REMARK    2  A    between atoms: O_3  and  C_4 
REMARK    3  A    between atoms: C_4  and  C_5 
REMARK    4  A    between atoms: C_6  and  C_7 
REMARK    5  A    between atoms: C_18  and  S_19 
REMARK    6  A    between atoms: S_19  and  C_20 
REMARK    7  A    between atoms: C_20  and  C_21 
ROOT
HETATM    1  C   UNL     1      -7.339   3.165 -32.085  1.00  0.00     0.070 C 
HETATM    2  C   UNL     1      -6.110   2.842 -32.938  1.00  0.00     0.204 C 
HETATM    3  N   UNL     1      -4.983   3.719 -32.595  1.00  0.00    -0.082 N 
HETATM    4  C   UNL     1      -4.938   4.499 -31.475  1.00  0.00     0.726 A 
HETATM    5  N   UNL     1      -6.013   4.548 -30.667  1.00  0.00    -0.192 N 
HETATM    6  N   UNL     1      -3.857   3.837 -33.324  1.00  0.00    -0.128 NA
HETATM    7  C   UNL     1      -3.144   4.667 -32.551  1.00  0.00     0.226 A 
HETATM    8  N   UNL     1      -3.777   5.096 -31.408  1.00  0.00    -0.035 NA
HETATM    9  C   UNL     1      -7.238   3.970 -30.994  1.00  0.00     0.037 C 
HETATM   10  C   UNL     1      -8.379   4.302 -30.063  1.00  0.00     0.070 C 
HETATM   11  H   UNL     1      -5.997   5.203 -29.888  1.00  0.00     0.184 HD
ENDROOT
BRANCH   7  12
HETATM   12  S   UNL     1      -1.509   5.136 -32.924  1.00  0.00    -0.083 SA
BRANCH  12  13
HETATM   13  C   UNL     1      -1.617   6.936 -32.730  1.00  0.00     0.123 C 
BRANCH  13  14
HETATM   14  C   UNL     1      -1.163   7.374 -31.357  1.00  0.00    -0.027 A 
HETATM   15  C   UNL     1      -1.912   8.239 -30.542  1.00  0.00     0.041 A 
HETATM   16 CL   UNL     1      -3.424   8.900 -31.055  1.00  0.00    -0.084 Cl
HETATM   17  C   UNL     1      -1.449   8.595 -29.271  1.00  0.00     0.024 A 
HETATM   18  C   UNL     1      -0.237   8.095 -28.796  1.00  0.00     0.002 A 
HETATM   19  C   UNL     1       0.515   7.234 -29.589  1.00  0.00     0.001 A 
HETATM   20  C   UNL     1       0.055   6.873 -30.857  1.00  0.00     0.009 A 
ENDBRANCH  13  14
ENDBRANCH  12  13
ENDBRANCH   7  12
BRANCH   2  21
HETATM   21  C   UNL     1      -5.642   1.389 -32.812  1.00  0.00    -0.006 A 
HETATM   22  C   UNL     1      -5.952   0.414 -33.778  1.00  0.00     0.042 A 
HETATM   23 CL   UNL     1      -6.907   0.762 -35.175  1.00  0.00    -0.084 Cl
HETATM   24  C   UNL     1      -5.495  -0.901 -33.637  1.00  0.00     0.024 A 
HETATM   25  C   UNL     1      -4.716  -1.265 -32.539  1.00  0.00     0.002 A 
HETATM   26  C   UNL     1      -4.390  -0.315 -31.578  1.00  0.00     0.001 A 
HETATM   27  C   UNL     1      -4.846   0.998 -31.712  1.00  0.00     0.011 A 
ENDBRANCH   2  21
BRANCH   1  28
HETATM   28  C   UNL     1      -8.654   2.667 -32.568  1.00  0.00     0.293 C 
HETATM   29  O   UNL     1      -9.198   3.028 -33.599  1.00  0.00    -0.259 OA
BRANCH  28  30
HETATM   30  O   UNL     1      -9.137   1.726 -31.723  1.00  0.00    -0.318 OA
BRANCH  30  31
HETATM   31  C   UNL     1      -9.151   0.375 -32.212  1.00  0.00     0.174 C 
HETATM   32  C   UNL     1     -10.458   0.095 -32.928  1.00  0.00     0.034 C 
ENDBRANCH  30  31
ENDBRANCH  28  30
ENDBRANCH   1  28
TORSDOF 7
ENDMDL
