MODEL 1
REMARK VINA RESULT:      -8.4      0.000      0.000
REMARK  9 active torsions:
REMARK  status: ('A' for Active; 'I' for Inactive)
REMARK    1  A    between atoms: C_2  and  O_3 
REMARK    2  A    between atoms: O_3  and  C_4 
REMARK    3  A    between atoms: C_4  and  C_5 
REMARK    4  A    between atoms: C_7  and  C_8 
REMARK       I    between atoms: C_8  and  N_9 
REMARK    5  A    between atoms: N_9  and  N_10 
REMARK    6  A    between atoms: N_10  and  C_11 
REMARK    7  A    between atoms: C_11  and  N_12 
REMARK    8  A    between atoms: N_12  and  C_13 
REMARK    9  A    between atoms: C_13  and  C_14 
ROOT
HETATM    1  C   UNL     1      -4.924   1.030 -31.028  1.00  0.00     0.078 A 
HETATM    2  O   UNL     1      -4.571   2.322 -30.775  1.00  0.00    -0.307 OA
HETATM    3  C   UNL     1      -5.644   2.946 -30.193  1.00  0.00     0.145 A 
HETATM    4  C   UNL     1      -6.693   2.047 -30.109  1.00  0.00     0.045 A 
HETATM    5  C   UNL     1      -6.228   0.817 -30.640  1.00  0.00     0.038 A 
ENDROOT
BRANCH   3   6
HETATM    6  C   UNL     1      -5.478   4.327 -29.786  1.00  0.00     0.293 C 
HETATM    7  N   UNL     1      -4.237   4.879 -30.058  1.00  0.00    -0.262 N 
HETATM    8  H   UNL     1      -3.467   4.375 -30.485  1.00  0.00     0.190 HD
HETATM    9  O   UNL     1      -6.355   5.007 -29.248  1.00  0.00    -0.264 OA
BRANCH   7  10
HETATM   10  N   UNL     1      -4.042   6.244 -29.791  1.00  0.00    -0.274 N 
HETATM   11  H   UNL     1      -4.633   6.597 -29.040  1.00  0.00     0.189 HD
BRANCH  10  12
HETATM   12  C   UNL     1      -2.839   6.852 -30.038  1.00  0.00     0.186 C 
HETATM   13  S   UNL     1      -2.638   8.471 -30.408  1.00  0.00    -0.040 SA
BRANCH  12  14
HETATM   14  N   UNL     1      -1.732   6.063 -29.911  1.00  0.00    -0.364 N 
HETATM   15  H   UNL     1      -1.923   5.161 -29.480  1.00  0.00     0.162 HD
BRANCH  14  16
HETATM   16  C   UNL     1      -0.553   6.081 -30.771  1.00  0.00     0.154 C 
BRANCH  16  17
HETATM   17  C   UNL     1      -0.751   5.219 -32.017  1.00  0.00     0.139 C 
HETATM   18  O   UNL     1      -1.765   4.220 -31.786  1.00  0.00    -0.384 OA
HETATM   19  C   UNL     1      -2.464   4.000 -33.021  1.00  0.00     0.168 C 
HETATM   20  C   UNL     1      -1.864   4.928 -34.059  1.00  0.00     0.029 C 
HETATM   21  C   UNL     1      -1.236   6.011 -33.216  1.00  0.00     0.035 C 
ENDBRANCH  16  17
ENDBRANCH  14  16
ENDBRANCH  12  14
ENDBRANCH  10  12
ENDBRANCH   7  10
ENDBRANCH   3   6
BRANCH   1  22
HETATM   22  C   UNL     1      -3.879   0.161 -31.628  1.00  0.00     0.240 C 
BRANCH  22  23
HETATM   23  O   UNL     1      -4.066   0.227 -33.038  1.00  0.00    -0.345 OA
BRANCH  23  24
HETATM   24  C   UNL     1      -4.838  -0.751 -33.607  1.00  0.00     0.069 A 
HETATM   25  C   UNL     1      -6.119  -0.570 -34.152  1.00  0.00     0.037 A 
HETATM   26  C   UNL     1      -6.830  -1.652 -34.685  1.00  0.00     0.010 A 
HETATM   27  C   UNL     1      -6.237  -2.903 -34.675  1.00  0.00    -0.052 A 
HETATM   28  C   UNL     1      -4.962  -3.087 -34.136  1.00  0.00    -0.049 A 
HETATM   29  C   UNL     1      -6.811  -4.203 -35.140  1.00  0.00     0.039 C 
HETATM   30  C   UNL     1      -4.259  -2.025 -33.590  1.00  0.00     0.044 A 
HETATM   31  C   UNL     1      -4.557  -4.526 -34.198  1.00  0.00     0.039 C 
HETATM   32  C   UNL     1      -5.546  -5.068 -35.241  1.00  0.00     0.009 C 
ENDBRANCH  23  24
ENDBRANCH  22  23
ENDBRANCH   1  22
TORSDOF 9
ENDMDL
MODEL 2
REMARK VINA RESULT:      -8.3      2.306      4.549
REMARK  9 active torsions:
REMARK  status: ('A' for Active; 'I' for Inactive)
REMARK    1  A    between atoms: C_2  and  O_3 
REMARK    2  A    between atoms: O_3  and  C_4 
REMARK    3  A    between atoms: C_4  and  C_5 
REMARK    4  A    between atoms: C_7  and  C_8 
REMARK       I    between atoms: C_8  and  N_9 
REMARK    5  A    between atoms: N_9  and  N_10 
REMARK    6  A    between atoms: N_10  and  C_11 
REMARK    7  A    between atoms: C_11  and  N_12 
REMARK    8  A    between atoms: N_12  and  C_13 
REMARK    9  A    between atoms: C_13  and  C_14 
ROOT
HETATM    1  C   UNL     1      -2.729   3.721 -32.309  1.00  0.00     0.078 A 
HETATM    2  O   UNL     1      -1.943   4.101 -31.262  1.00  0.00    -0.307 OA
HETATM    3  C   UNL     1      -1.047   5.031 -31.723  1.00  0.00     0.145 A 
HETATM    4  C   UNL     1      -1.249   5.212 -33.081  1.00  0.00     0.045 A 
HETATM    5  C   UNL     1      -2.332   4.376 -33.453  1.00  0.00     0.038 A 
ENDROOT
BRANCH   3   6
HETATM    6  C   UNL     1      -0.137   5.620 -30.762  1.00  0.00     0.293 C 
HETATM    7  N   UNL     1      -0.180   5.069 -29.491  1.00  0.00    -0.262 N 
HETATM    8  H   UNL     1      -0.810   4.325 -29.211  1.00  0.00     0.190 HD
HETATM    9  O   UNL     1       0.650   6.535 -31.015  1.00  0.00    -0.264 OA
BRANCH   7  10
HETATM   10  N   UNL     1       0.751   5.516 -28.540  1.00  0.00    -0.274 N 
HETATM   11  H   UNL     1       1.688   5.641 -28.919  1.00  0.00     0.189 HD
BRANCH  10  12
HETATM   12  C   UNL     1       0.360   6.267 -27.461  1.00  0.00     0.186 C 
HETATM   13  S   UNL     1       1.267   7.483 -26.757  1.00  0.00    -0.040 SA
BRANCH  12  14
HETATM   14  N   UNL     1      -0.893   6.017 -26.981  1.00  0.00    -0.364 N 
HETATM   15  H   UNL     1      -1.017   5.065 -26.644  1.00  0.00     0.162 HD
BRANCH  14  16
HETATM   16  C   UNL     1      -1.800   6.991 -26.382  1.00  0.00     0.154 C 
BRANCH  16  17
HETATM   17  C   UNL     1      -2.870   7.448 -27.373  1.00  0.00     0.139 C 
HETATM   18  O   UNL     1      -2.499   7.089 -28.720  1.00  0.00    -0.384 OA
HETATM   19  C   UNL     1      -3.699   6.787 -29.448  1.00  0.00     0.168 C 
HETATM   20  C   UNL     1      -4.866   6.946 -28.493  1.00  0.00     0.029 C 
HETATM   21  C   UNL     1      -4.216   6.789 -27.141  1.00  0.00     0.035 C 
ENDBRANCH  16  17
ENDBRANCH  14  16
ENDBRANCH  12  14
ENDBRANCH  10  12
ENDBRANCH   7  10
ENDBRANCH   3   6
BRANCH   1  22
HETATM   22  C   UNL     1      -3.803   2.739 -32.011  1.00  0.00     0.240 C 
BRANCH  22  23
HETATM   23  O   UNL     1      -3.147   1.518 -31.680  1.00  0.00    -0.345 OA
BRANCH  23  24
HETATM   24  C   UNL     1      -3.636   0.376 -32.257  1.00  0.00     0.069 A 
HETATM   25  C   UNL     1      -3.087  -0.909 -32.123  1.00  0.00     0.037 A 
HETATM   26  C   UNL     1      -3.657  -2.004 -32.784  1.00  0.00     0.010 A 
HETATM   27  C   UNL     1      -4.783  -1.794 -33.562  1.00  0.00    -0.052 A 
HETATM   28  C   UNL     1      -5.334  -0.518 -33.697  1.00  0.00    -0.049 A 
HETATM   29  C   UNL     1      -5.533  -2.788 -34.390  1.00  0.00     0.039 C 
HETATM   30  C   UNL     1      -4.765   0.574 -33.061  1.00  0.00     0.044 A 
HETATM   31  C   UNL     1      -6.511  -0.538 -34.619  1.00  0.00     0.039 C 
HETATM   32  C   UNL     1      -6.850  -2.036 -34.638  1.00  0.00     0.009 C 
ENDBRANCH  23  24
ENDBRANCH  22  23
ENDBRANCH   1  22
TORSDOF 9
ENDMDL
MODEL 3
REMARK VINA RESULT:      -8.1      5.081      7.277
REMARK  9 active torsions:
REMARK  status: ('A' for Active; 'I' for Inactive)
REMARK    1  A    between atoms: C_2  and  O_3 
REMARK    2  A    between atoms: O_3  and  C_4 
REMARK    3  A    between atoms: C_4  and  C_5 
REMARK    4  A    between atoms: C_7  and  C_8 
REMARK       I    between atoms: C_8  and  N_9 
REMARK    5  A    between atoms: N_9  and  N_10 
REMARK    6  A    between atoms: N_10  and  C_11 
REMARK    7  A    between atoms: C_11  and  N_12 
REMARK    8  A    between atoms: N_12  and  C_13 
REMARK    9  A    between atoms: C_13  and  C_14 
ROOT
HETATM    1  C   UNL     1      -4.099   1.418 -31.581  1.00  0.00     0.078 A 
HETATM    2  O   UNL     1      -5.300   1.572 -32.208  1.00  0.00    -0.307 OA
HETATM    3  C   UNL     1      -5.318   2.816 -32.785  1.00  0.00     0.145 A 
HETATM    4  C   UNL     1      -4.129   3.462 -32.492  1.00  0.00     0.045 A 
HETATM    5  C   UNL     1      -3.347   2.563 -31.724  1.00  0.00     0.038 A 
ENDROOT
BRANCH   3   6
HETATM    6  C   UNL     1      -6.488   3.180 -33.558  1.00  0.00     0.293 C 
HETATM    7  N   UNL     1      -7.552   2.296 -33.474  1.00  0.00    -0.262 N 
HETATM    8  H   UNL     1      -7.537   1.433 -32.942  1.00  0.00     0.190 HD
HETATM    9  O   UNL     1      -6.583   4.201 -34.242  1.00  0.00    -0.264 OA
BRANCH   7  10
HETATM   10  N   UNL     1      -8.756   2.641 -34.108  1.00  0.00    -0.274 N 
HETATM   11  H   UNL     1      -8.633   3.292 -34.883  1.00  0.00     0.189 HD
BRANCH  10  12
HETATM   12  C   UNL     1      -9.826   1.784 -34.118  1.00  0.00     0.186 C 
HETATM   13  S   UNL     1     -10.026   0.486 -33.082  1.00  0.00    -0.040 SA
BRANCH  12  14
HETATM   14  N   UNL     1     -10.813   2.070 -35.015  1.00  0.00    -0.364 N 
HETATM   15  H   UNL     1     -11.176   1.249 -35.496  1.00  0.00     0.162 HD
BRANCH  14  16
HETATM   16  C   UNL     1     -11.749   3.188 -34.946  1.00  0.00     0.154 C 
BRANCH  16  17
HETATM   17  C   UNL     1     -13.167   2.718 -34.630  1.00  0.00     0.139 C 
HETATM   18  O   UNL     1     -13.387   1.389 -35.147  1.00  0.00    -0.384 OA
HETATM   19  C   UNL     1     -14.277   0.704 -34.252  1.00  0.00     0.168 C 
HETATM   20  C   UNL     1     -14.601   1.652 -33.114  1.00  0.00     0.029 C 
HETATM   21  C   UNL     1     -13.443   2.618 -33.142  1.00  0.00     0.035 C 
ENDBRANCH  16  17
ENDBRANCH  14  16
ENDBRANCH  12  14
ENDBRANCH  10  12
ENDBRANCH   7  10
ENDBRANCH   3   6
BRANCH   1  22
HETATM   22  C   UNL     1      -3.859   0.110 -30.919  1.00  0.00     0.240 C 
BRANCH  22  23
HETATM   23  O   UNL     1      -2.907  -0.577 -31.725  1.00  0.00    -0.345 OA
BRANCH  23  24
HETATM   24  C   UNL     1      -3.305  -1.767 -32.276  1.00  0.00     0.069 A 
HETATM   25  C   UNL     1      -2.873  -3.040 -31.872  1.00  0.00     0.037 A 
HETATM   26  C   UNL     1      -3.328  -4.191 -32.528  1.00  0.00     0.010 A 
HETATM   27  C   UNL     1      -4.223  -4.047 -33.574  1.00  0.00    -0.052 A 
HETATM   28  C   UNL     1      -4.657  -2.782 -33.977  1.00  0.00    -0.049 A 
HETATM   29  C   UNL     1      -4.807  -5.112 -34.446  1.00  0.00     0.039 C 
HETATM   30  C   UNL     1      -4.197  -1.637 -33.345  1.00  0.00     0.044 A 
HETATM   31  C   UNL     1      -5.580  -2.881 -35.150  1.00  0.00     0.039 C 
HETATM   32  C   UNL     1      -5.984  -4.361 -35.086  1.00  0.00     0.009 C 
ENDBRANCH  23  24
ENDBRANCH  22  23
ENDBRANCH   1  22
TORSDOF 9
ENDMDL
MODEL 4
REMARK VINA RESULT:      -8.0      2.543      3.964
REMARK  9 active torsions:
REMARK  status: ('A' for Active; 'I' for Inactive)
REMARK    1  A    between atoms: C_2  and  O_3 
REMARK    2  A    between atoms: O_3  and  C_4 
REMARK    3  A    between atoms: C_4  and  C_5 
REMARK    4  A    between atoms: C_7  and  C_8 
REMARK       I    between atoms: C_8  and  N_9 
REMARK    5  A    between atoms: N_9  and  N_10 
REMARK    6  A    between atoms: N_10  and  C_11 
REMARK    7  A    between atoms: C_11  and  N_12 
REMARK    8  A    between atoms: N_12  and  C_13 
REMARK    9  A    between atoms: C_13  and  C_14 
ROOT
HETATM    1  C   UNL     1      -5.920   2.802 -33.049  1.00  0.00     0.078 A 
HETATM    2  O   UNL     1      -4.665   2.905 -32.527  1.00  0.00    -0.307 OA
HETATM    3  C   UNL     1      -4.077   4.023 -33.060  1.00  0.00     0.145 A 
HETATM    4  C   UNL     1      -4.958   4.610 -33.952  1.00  0.00     0.045 A 
HETATM    5  C   UNL     1      -6.141   3.829 -33.939  1.00  0.00     0.038 A 
ENDROOT
BRANCH   3   6
HETATM    6  C   UNL     1      -2.744   4.363 -32.603  1.00  0.00     0.293 C 
HETATM    7  N   UNL     1      -2.604   4.491 -31.230  1.00  0.00    -0.262 N 
HETATM    8  H   UNL     1      -3.364   4.388 -30.566  1.00  0.00     0.190 HD
HETATM    9  O   UNL     1      -1.771   4.520 -33.343  1.00  0.00    -0.264 OA
BRANCH   7  10
HETATM   10  N   UNL     1      -1.319   4.711 -30.710  1.00  0.00    -0.274 N 
HETATM   11  H   UNL     1      -0.656   3.974 -30.946  1.00  0.00     0.189 HD
BRANCH  10  12
HETATM   12  C   UNL     1      -0.855   5.979 -30.474  1.00  0.00     0.186 C 
HETATM   13  S   UNL     1       0.286   6.774 -31.403  1.00  0.00    -0.040 SA
BRANCH  12  14
HETATM   14  N   UNL     1      -1.427   6.639 -29.426  1.00  0.00    -0.364 N 
HETATM   15  H   UNL     1      -1.576   6.053 -28.607  1.00  0.00     0.162 HD
BRANCH  14  16
HETATM   16  C   UNL     1      -1.308   8.064 -29.131  1.00  0.00     0.154 C 
BRANCH  16  17
HETATM   17  C   UNL     1      -0.481   8.311 -27.870  1.00  0.00     0.139 C 
HETATM   18  O   UNL     1      -0.640   7.222 -26.938  1.00  0.00    -0.384 OA
HETATM   19  C   UNL     1       0.601   7.048 -26.237  1.00  0.00     0.168 C 
HETATM   20  C   UNL     1       1.581   8.068 -26.784  1.00  0.00     0.029 C 
HETATM   21  C   UNL     1       1.009   8.388 -28.142  1.00  0.00     0.035 C 
ENDBRANCH  16  17
ENDBRANCH  14  16
ENDBRANCH  12  14
ENDBRANCH  10  12
ENDBRANCH   7  10
ENDBRANCH   3   6
BRANCH   1  22
HETATM   22  C   UNL     1      -6.750   1.669 -32.565  1.00  0.00     0.240 C 
BRANCH  22  23
HETATM   23  O   UNL     1      -6.974   0.828 -33.693  1.00  0.00    -0.345 OA
BRANCH  23  24
HETATM   24  C   UNL     1      -6.214  -0.309 -33.778  1.00  0.00     0.069 A 
HETATM   25  C   UNL     1      -4.886  -0.441 -33.342  1.00  0.00     0.037 A 
HETATM   26  C   UNL     1      -4.196  -1.648 -33.506  1.00  0.00     0.010 A 
HETATM   27  C   UNL     1      -4.855  -2.714 -34.094  1.00  0.00    -0.052 A 
HETATM   28  C   UNL     1      -6.177  -2.588 -34.527  1.00  0.00    -0.049 A 
HETATM   29  C   UNL     1      -4.319  -4.072 -34.413  1.00  0.00     0.039 C 
HETATM   30  C   UNL     1      -6.862  -1.391 -34.386  1.00  0.00     0.044 A 
HETATM   31  C   UNL     1      -6.654  -3.852 -35.167  1.00  0.00     0.039 C 
HETATM   32  C   UNL     1      -5.617  -4.859 -34.645  1.00  0.00     0.009 C 
ENDBRANCH  23  24
ENDBRANCH  22  23
ENDBRANCH   1  22
TORSDOF 9
ENDMDL
MODEL 5
REMARK VINA RESULT:      -7.9      1.657      2.116
REMARK  9 active torsions:
REMARK  status: ('A' for Active; 'I' for Inactive)
REMARK    1  A    between atoms: C_2  and  O_3 
REMARK    2  A    between atoms: O_3  and  C_4 
REMARK    3  A    between atoms: C_4  and  C_5 
REMARK    4  A    between atoms: C_7  and  C_8 
REMARK       I    between atoms: C_8  and  N_9 
REMARK    5  A    between atoms: N_9  and  N_10 
REMARK    6  A    between atoms: N_10  and  C_11 
REMARK    7  A    between atoms: C_11  and  N_12 
REMARK    8  A    between atoms: N_12  and  C_13 
REMARK    9  A    between atoms: C_13  and  C_14 
ROOT
HETATM    1  C   UNL     1      -6.705   2.474 -33.204  1.00  0.00     0.078 A 
HETATM    2  O   UNL     1      -6.011   3.643 -33.302  1.00  0.00    -0.307 OA
HETATM    3  C   UNL     1      -6.134   4.307 -32.108  1.00  0.00     0.145 A 
HETATM    4  C   UNL     1      -6.940   3.563 -31.263  1.00  0.00     0.045 A 
HETATM    5  C   UNL     1      -7.301   2.386 -31.966  1.00  0.00     0.038 A 
ENDROOT
BRANCH   3   6
HETATM    6  C   UNL     1      -5.426   5.563 -31.963  1.00  0.00     0.293 C 
HETATM    7  N   UNL     1      -4.476   5.594 -30.955  1.00  0.00    -0.262 N 
HETATM    8  H   UNL     1      -4.283   4.822 -30.327  1.00  0.00     0.190 HD
HETATM    9  O   UNL     1      -5.610   6.554 -32.673  1.00  0.00    -0.264 OA
BRANCH   7  10
HETATM   10  N   UNL     1      -3.676   6.741 -30.829  1.00  0.00    -0.274 N 
HETATM   11  H   UNL     1      -4.156   7.600 -31.096  1.00  0.00     0.189 HD
BRANCH  10  12
HETATM   12  C   UNL     1      -2.658   6.801 -29.914  1.00  0.00     0.186 C 
HETATM   13  S   UNL     1      -2.617   7.816 -28.585  1.00  0.00    -0.040 SA
BRANCH  12  14
HETATM   14  N   UNL     1      -1.638   5.913 -30.096  1.00  0.00    -0.364 N 
HETATM   15  H   UNL     1      -1.917   4.942 -29.976  1.00  0.00     0.162 HD
BRANCH  14  16
HETATM   16  C   UNL     1      -0.468   6.101 -30.949  1.00  0.00     0.154 C 
BRANCH  16  17
HETATM   17  C   UNL     1      -0.662   5.459 -32.321  1.00  0.00     0.139 C 
HETATM   18  O   UNL     1      -1.698   4.456 -32.270  1.00  0.00    -0.384 OA
HETATM   19  C   UNL     1      -2.382   4.455 -33.532  1.00  0.00     0.168 C 
HETATM   20  C   UNL     1      -1.750   5.529 -34.396  1.00  0.00     0.029 C 
HETATM   21  C   UNL     1      -1.116   6.446 -33.380  1.00  0.00     0.035 C 
ENDBRANCH  16  17
ENDBRANCH  14  16
ENDBRANCH  12  14
ENDBRANCH  10  12
ENDBRANCH   7  10
ENDBRANCH   3   6
BRANCH   1  22
HETATM   22  C   UNL     1      -6.667   1.578 -34.389  1.00  0.00     0.240 C 
BRANCH  22  23
HETATM   23  O   UNL     1      -7.178   0.321 -33.955  1.00  0.00    -0.345 OA
BRANCH  23  24
HETATM   24  C   UNL     1      -6.296  -0.727 -33.918  1.00  0.00     0.069 A 
HETATM   25  C   UNL     1      -5.028  -0.709 -33.316  1.00  0.00     0.037 A 
HETATM   26  C   UNL     1      -4.197  -1.835 -33.363  1.00  0.00     0.010 A 
HETATM   27  C   UNL     1      -4.658  -2.972 -34.004  1.00  0.00    -0.052 A 
HETATM   28  C   UNL     1      -5.920  -2.995 -34.602  1.00  0.00    -0.049 A 
HETATM   29  C   UNL     1      -3.943  -4.267 -34.221  1.00  0.00     0.039 C 
HETATM   30  C   UNL     1      -6.741  -1.879 -34.576  1.00  0.00     0.044 A 
HETATM   31  C   UNL     1      -6.173  -4.311 -35.267  1.00  0.00     0.039 C 
HETATM   32  C   UNL     1      -5.109  -5.193 -34.596  1.00  0.00     0.009 C 
ENDBRANCH  23  24
ENDBRANCH  22  23
ENDBRANCH   1  22
TORSDOF 9
ENDMDL
MODEL 6
REMARK VINA RESULT:      -7.8      3.086      9.061
REMARK  9 active torsions:
REMARK  status: ('A' for Active; 'I' for Inactive)
REMARK    1  A    between atoms: C_2  and  O_3 
REMARK    2  A    between atoms: O_3  and  C_4 
REMARK    3  A    between atoms: C_4  and  C_5 
REMARK    4  A    between atoms: C_7  and  C_8 
REMARK       I    between atoms: C_8  and  N_9 
REMARK    5  A    between atoms: N_9  and  N_10 
REMARK    6  A    between atoms: N_10  and  C_11 
REMARK    7  A    between atoms: C_11  and  N_12 
REMARK    8  A    between atoms: N_12  and  C_13 
REMARK    9  A    between atoms: C_13  and  C_14 
ROOT
HETATM    1  C   UNL     1      -2.587   5.201 -34.396  1.00  0.00     0.078 A 
HETATM    2  O   UNL     1      -2.928   4.336 -33.399  1.00  0.00    -0.307 OA
HETATM    3  C   UNL     1      -4.276   4.099 -33.489  1.00  0.00     0.145 A 
HETATM    4  C   UNL     1      -4.793   4.849 -34.531  1.00  0.00     0.045 A 
HETATM    5  C   UNL     1      -3.709   5.550 -35.115  1.00  0.00     0.038 A 
ENDROOT
BRANCH   3   6
HETATM    6  C   UNL     1      -4.856   3.157 -32.552  1.00  0.00     0.293 C 
HETATM    7  N   UNL     1      -4.467   1.838 -32.723  1.00  0.00    -0.262 N 
HETATM    8  H   UNL     1      -3.845   1.515 -33.456  1.00  0.00     0.190 HD
HETATM    9  O   UNL     1      -5.630   3.463 -31.643  1.00  0.00    -0.264 OA
BRANCH   7  10
HETATM   10  N   UNL     1      -4.903   0.889 -31.784  1.00  0.00    -0.274 N 
HETATM   11  H   UNL     1      -4.795   1.196 -30.818  1.00  0.00     0.189 HD
BRANCH  10  12
HETATM   12  C   UNL     1      -5.885  -0.016 -32.092  1.00  0.00     0.186 C 
HETATM   13  S   UNL     1      -7.523   0.318 -32.129  1.00  0.00    -0.040 SA
BRANCH  12  14
HETATM   14  N   UNL     1      -5.459  -1.263 -32.447  1.00  0.00    -0.364 N 
HETATM   15  H   UNL     1      -6.161  -1.987 -32.309  1.00  0.00     0.162 HD
BRANCH  14  16
HETATM   16  C   UNL     1      -4.458  -1.581 -33.461  1.00  0.00     0.154 C 
BRANCH  16  17
HETATM   17  C   UNL     1      -4.998  -2.565 -34.496  1.00  0.00     0.139 C 
HETATM   18  O   UNL     1      -4.443  -3.879 -34.284  1.00  0.00    -0.384 OA
HETATM   19  C   UNL     1      -5.440  -4.848 -34.646  1.00  0.00     0.168 C 
HETATM   20  C   UNL     1      -6.678  -4.090 -35.082  1.00  0.00     0.029 C 
HETATM   21  C   UNL     1      -6.501  -2.748 -34.415  1.00  0.00     0.035 C 
ENDBRANCH  16  17
ENDBRANCH  14  16
ENDBRANCH  12  14
ENDBRANCH  10  12
ENDBRANCH   7  10
ENDBRANCH   3   6
BRANCH   1  22
HETATM   22  C   UNL     1      -1.150   5.560 -34.501  1.00  0.00     0.240 C 
BRANCH  22  23
HETATM   23  O   UNL     1      -1.058   6.941 -34.164  1.00  0.00    -0.345 OA
BRANCH  23  24
HETATM   24  C   UNL     1      -1.165   7.264 -32.837  1.00  0.00     0.069 A 
HETATM   25  C   UNL     1      -2.018   8.240 -32.298  1.00  0.00     0.037 A 
HETATM   26  C   UNL     1      -2.023   8.505 -30.923  1.00  0.00     0.010 A 
HETATM   27  C   UNL     1      -1.179   7.774 -30.104  1.00  0.00    -0.052 A 
HETATM   28  C   UNL     1      -0.331   6.800 -30.636  1.00  0.00    -0.049 A 
HETATM   29  C   UNL     1      -0.977   7.907 -28.628  1.00  0.00     0.039 C 
HETATM   30  C   UNL     1      -0.306   6.545 -31.998  1.00  0.00     0.044 A 
HETATM   31  C   UNL     1       0.511   6.182 -29.566  1.00  0.00     0.039 C 
HETATM   32  C   UNL     1      -0.267   6.584 -28.304  1.00  0.00     0.009 C 
ENDBRANCH  23  24
ENDBRANCH  22  23
ENDBRANCH   1  22
TORSDOF 9
ENDMDL
MODEL 7
REMARK VINA RESULT:      -7.8      3.356      5.333
REMARK  9 active torsions:
REMARK  status: ('A' for Active; 'I' for Inactive)
REMARK    1  A    between atoms: C_2  and  O_3 
REMARK    2  A    between atoms: O_3  and  C_4 
REMARK    3  A    between atoms: C_4  and  C_5 
REMARK    4  A    between atoms: C_7  and  C_8 
REMARK       I    between atoms: C_8  and  N_9 
REMARK    5  A    between atoms: N_9  and  N_10 
REMARK    6  A    between atoms: N_10  and  C_11 
REMARK    7  A    between atoms: C_11  and  N_12 
REMARK    8  A    between atoms: N_12  and  C_13 
REMARK    9  A    between atoms: C_13  and  C_14 
ROOT
HETATM    1  C   UNL     1      -4.122   1.842 -31.560  1.00  0.00     0.078 A 
HETATM    2  O   UNL     1      -5.146   2.432 -32.241  1.00  0.00    -0.307 OA
HETATM    3  C   UNL     1      -4.732   3.681 -32.626  1.00  0.00     0.145 A 
HETATM    4  C   UNL     1      -3.447   3.892 -32.155  1.00  0.00     0.045 A 
HETATM    5  C   UNL     1      -3.056   2.710 -31.477  1.00  0.00     0.038 A 
ENDROOT
BRANCH   3   6
HETATM    6  C   UNL     1      -5.649   4.477 -33.417  1.00  0.00     0.293 C 
HETATM    7  N   UNL     1      -6.763   4.946 -32.739  1.00  0.00    -0.262 N 
HETATM    8  H   UNL     1      -6.968   4.743 -31.767  1.00  0.00     0.190 HD
HETATM    9  O   UNL     1      -5.483   4.757 -34.606  1.00  0.00    -0.264 OA
BRANCH   7  10
HETATM   10  N   UNL     1      -7.636   5.814 -33.413  1.00  0.00    -0.274 N 
HETATM   11  H   UNL     1      -7.168   6.407 -34.097  1.00  0.00     0.189 HD
BRANCH  10  12
HETATM   12  C   UNL     1      -8.956   5.493 -33.596  1.00  0.00     0.186 C 
HETATM   13  S   UNL     1     -10.243   6.256 -32.849  1.00  0.00    -0.040 SA
BRANCH  12  14
HETATM   14  N   UNL     1      -9.212   4.509 -34.507  1.00  0.00    -0.364 N 
HETATM   15  H   UNL     1      -8.591   4.529 -35.313  1.00  0.00     0.162 HD
BRANCH  14  16
HETATM   16  C   UNL     1      -9.791   3.199 -34.226  1.00  0.00     0.154 C 
BRANCH  16  17
HETATM   17  C   UNL     1      -8.712   2.152 -33.955  1.00  0.00     0.139 C 
HETATM   18  O   UNL     1      -8.383   2.116 -32.551  1.00  0.00    -0.384 OA
HETATM   19  C   UNL     1      -8.054   0.761 -32.204  1.00  0.00     0.168 C 
HETATM   20  C   UNL     1      -8.212  -0.082 -33.455  1.00  0.00     0.029 C 
HETATM   21  C   UNL     1      -9.153   0.742 -34.298  1.00  0.00     0.035 C 
ENDBRANCH  16  17
ENDBRANCH  14  16
ENDBRANCH  12  14
ENDBRANCH  10  12
ENDBRANCH   7  10
ENDBRANCH   3   6
BRANCH   1  22
HETATM   22  C   UNL     1      -4.353   0.454 -31.085  1.00  0.00     0.240 C 
BRANCH  22  23
HETATM   23  O   UNL     1      -3.258  -0.320 -31.567  1.00  0.00    -0.345 OA
BRANCH  23  24
HETATM   24  C   UNL     1      -3.561  -1.504 -32.185  1.00  0.00     0.069 A 
HETATM   25  C   UNL     1      -2.983  -2.751 -31.894  1.00  0.00     0.037 A 
HETATM   26  C   UNL     1      -3.352  -3.895 -32.612  1.00  0.00     0.010 A 
HETATM   27  C   UNL     1      -4.308  -3.774 -33.605  1.00  0.00    -0.052 A 
HETATM   28  C   UNL     1      -4.887  -2.537 -33.896  1.00  0.00    -0.049 A 
HETATM   29  C   UNL     1      -4.825  -4.833 -34.527  1.00  0.00     0.039 C 
HETATM   30  C   UNL     1      -4.515  -1.396 -33.203  1.00  0.00     0.044 A 
HETATM   31  C   UNL     1      -5.853  -2.652 -35.032  1.00  0.00     0.039 C 
HETATM   32  C   UNL     1      -6.103  -4.167 -35.059  1.00  0.00     0.009 C 
ENDBRANCH  23  24
ENDBRANCH  22  23
ENDBRANCH   1  22
TORSDOF 9
ENDMDL
MODEL 8
REMARK VINA RESULT:      -7.7      5.751      7.096
REMARK  9 active torsions:
REMARK  status: ('A' for Active; 'I' for Inactive)
REMARK    1  A    between atoms: C_2  and  O_3 
REMARK    2  A    between atoms: O_3  and  C_4 
REMARK    3  A    between atoms: C_4  and  C_5 
REMARK    4  A    between atoms: C_7  and  C_8 
REMARK       I    between atoms: C_8  and  N_9 
REMARK    5  A    between atoms: N_9  and  N_10 
REMARK    6  A    between atoms: N_10  and  C_11 
REMARK    7  A    between atoms: C_11  and  N_12 
REMARK    8  A    between atoms: N_12  and  C_13 
REMARK    9  A    between atoms: C_13  and  C_14 
ROOT
HETATM    1  C   UNL     1      -8.975   0.977 -33.356  1.00  0.00     0.078 A 
HETATM    2  O   UNL     1      -9.720   1.797 -34.151  1.00  0.00    -0.307 OA
HETATM    3  C   UNL     1     -11.024   1.378 -34.083  1.00  0.00     0.145 A 
HETATM    4  C   UNL     1     -11.095   0.264 -33.265  1.00  0.00     0.045 A 
HETATM    5  C   UNL     1      -9.781   0.011 -32.795  1.00  0.00     0.038 A 
ENDROOT
BRANCH   3   6
HETATM    6  C   UNL     1     -12.014   2.144 -34.815  1.00  0.00     0.293 C 
HETATM    7  N   UNL     1     -12.325   3.381 -34.272  1.00  0.00    -0.262 N 
HETATM    8  H   UNL     1     -11.929   3.744 -33.411  1.00  0.00     0.190 HD
HETATM    9  O   UNL     1     -12.554   1.771 -35.858  1.00  0.00    -0.264 OA
BRANCH   7  10
HETATM   10  N   UNL     1     -13.193   4.222 -34.986  1.00  0.00    -0.274 N 
HETATM   11  H   UNL     1     -14.168   4.127 -34.708  1.00  0.00     0.189 HD
BRANCH  10  12
HETATM   12  C   UNL     1     -12.759   5.412 -35.509  1.00  0.00     0.186 C 
HETATM   13  S   UNL     1     -13.742   6.571 -36.208  1.00  0.00    -0.040 SA
BRANCH  12  14
HETATM   14  N   UNL     1     -11.424   5.669 -35.384  1.00  0.00    -0.364 N 
HETATM   15  H   UNL     1     -10.866   5.299 -36.150  1.00  0.00     0.162 HD
BRANCH  14  16
HETATM   16  C   UNL     1     -10.822   6.807 -34.695  1.00  0.00     0.154 C 
BRANCH  16  17
HETATM   17  C   UNL     1      -9.993   6.361 -33.492  1.00  0.00     0.139 C 
HETATM   18  O   UNL     1     -10.796   5.583 -32.582  1.00  0.00    -0.384 OA
HETATM   19  C   UNL     1      -9.953   4.588 -31.980  1.00  0.00     0.168 C 
HETATM   20  C   UNL     1      -8.564   4.749 -32.568  1.00  0.00     0.029 C 
HETATM   21  C   UNL     1      -8.833   5.460 -33.871  1.00  0.00     0.035 C 
ENDBRANCH  16  17
ENDBRANCH  14  16
ENDBRANCH  12  14
ENDBRANCH  10  12
ENDBRANCH   7  10
ENDBRANCH   3   6
BRANCH   1  22
HETATM   22  C   UNL     1      -7.526   1.286 -33.257  1.00  0.00     0.240 C 
BRANCH  22  23
HETATM   23  O   UNL     1      -6.920   0.736 -34.423  1.00  0.00    -0.345 OA
BRANCH  23  24
HETATM   24  C   UNL     1      -6.132  -0.371 -34.249  1.00  0.00     0.069 A 
HETATM   25  C   UNL     1      -4.893  -0.398 -33.588  1.00  0.00     0.037 A 
HETATM   26  C   UNL     1      -4.159  -1.587 -33.493  1.00  0.00     0.010 A 
HETATM   27  C   UNL     1      -4.687  -2.738 -34.053  1.00  0.00    -0.052 A 
HETATM   28  C   UNL     1      -5.920  -2.716 -34.709  1.00  0.00    -0.049 A 
HETATM   29  C   UNL     1      -4.074  -4.100 -34.117  1.00  0.00     0.039 C 
HETATM   30  C   UNL     1      -6.644  -1.539 -34.823  1.00  0.00     0.044 A 
HETATM   31  C   UNL     1      -6.254  -4.063 -35.266  1.00  0.00     0.039 C 
HETATM   32  C   UNL     1      -5.298  -4.961 -34.467  1.00  0.00     0.009 C 
ENDBRANCH  23  24
ENDBRANCH  22  23
ENDBRANCH   1  22
TORSDOF 9
ENDMDL
MODEL 9
REMARK VINA RESULT:      -7.7      2.040      2.957
REMARK  9 active torsions:
REMARK  status: ('A' for Active; 'I' for Inactive)
REMARK    1  A    between atoms: C_2  and  O_3 
REMARK    2  A    between atoms: O_3  and  C_4 
REMARK    3  A    between atoms: C_4  and  C_5 
REMARK    4  A    between atoms: C_7  and  C_8 
REMARK       I    between atoms: C_8  and  N_9 
REMARK    5  A    between atoms: N_9  and  N_10 
REMARK    6  A    between atoms: N_10  and  C_11 
REMARK    7  A    between atoms: C_11  and  N_12 
REMARK    8  A    between atoms: N_12  and  C_13 
REMARK    9  A    between atoms: C_13  and  C_14 
ROOT
HETATM    1  C   UNL     1      -6.964   1.505 -31.780  1.00  0.00     0.078 A 
HETATM    2  O   UNL     1      -6.354   2.647 -32.206  1.00  0.00    -0.307 OA
HETATM    3  C   UNL     1      -5.563   3.108 -31.186  1.00  0.00     0.145 A 
HETATM    4  C   UNL     1      -5.702   2.266 -30.096  1.00  0.00     0.045 A 
HETATM    5  C   UNL     1      -6.596   1.236 -30.480  1.00  0.00     0.038 A 
ENDROOT
BRANCH   3   6
HETATM    6  C   UNL     1      -4.771   4.296 -31.436  1.00  0.00     0.293 C 
HETATM    7  N   UNL     1      -4.466   4.535 -32.766  1.00  0.00    -0.262 N 
HETATM    8  H   UNL     1      -4.737   3.929 -33.533  1.00  0.00     0.190 HD
HETATM    9  O   UNL     1      -4.387   5.076 -30.562  1.00  0.00    -0.264 OA
BRANCH   7  10
HETATM   10  N   UNL     1      -3.795   5.725 -33.092  1.00  0.00    -0.274 N 
HETATM   11  H   UNL     1      -4.293   6.563 -32.796  1.00  0.00     0.189 HD
BRANCH  10  12
HETATM   12  C   UNL     1      -2.430   5.763 -33.208  1.00  0.00     0.186 C 
HETATM   13  S   UNL     1      -1.574   5.424 -34.605  1.00  0.00    -0.040 SA
BRANCH  12  14
HETATM   14  N   UNL     1      -1.746   6.164 -32.097  1.00  0.00    -0.364 N 
HETATM   15  H   UNL     1      -2.063   5.716 -31.240  1.00  0.00     0.162 HD
BRANCH  14  16
HETATM   16  C   UNL     1      -0.366   6.637 -32.054  1.00  0.00     0.154 C 
BRANCH  16  17
HETATM   17  C   UNL     1       0.121   6.823 -30.619  1.00  0.00     0.139 C 
HETATM   18  O   UNL     1      -0.921   7.390 -29.799  1.00  0.00    -0.384 OA
HETATM   19  C   UNL     1      -0.790   6.853 -28.474  1.00  0.00     0.168 C 
HETATM   20  C   UNL     1       0.380   5.888 -28.485  1.00  0.00     0.029 C 
HETATM   21  C   UNL     1       0.494   5.517 -29.943  1.00  0.00     0.035 C 
ENDBRANCH  16  17
ENDBRANCH  14  16
ENDBRANCH  12  14
ENDBRANCH  10  12
ENDBRANCH   7  10
ENDBRANCH   3   6
BRANCH   1  22
HETATM   22  C   UNL     1      -7.844   0.816 -32.759  1.00  0.00     0.240 C 
BRANCH  22  23
HETATM   23  O   UNL     1      -7.060   0.623 -33.933  1.00  0.00    -0.345 OA
BRANCH  23  24
HETATM   24  C   UNL     1      -6.222  -0.460 -33.947  1.00  0.00     0.069 A 
HETATM   25  C   UNL     1      -4.890  -0.471 -33.503  1.00  0.00     0.037 A 
HETATM   26  C   UNL     1      -4.116  -1.635 -33.591  1.00  0.00     0.010 A 
HETATM   27  C   UNL     1      -4.696  -2.778 -34.112  1.00  0.00    -0.052 A 
HETATM   28  C   UNL     1      -6.021  -2.773 -34.552  1.00  0.00    -0.049 A 
HETATM   29  C   UNL     1      -4.063  -4.113 -34.345  1.00  0.00     0.039 C 
HETATM   30  C   UNL     1      -6.789  -1.621 -34.486  1.00  0.00     0.044 A 
HETATM   31  C   UNL     1      -6.405  -4.106 -35.112  1.00  0.00     0.039 C 
HETATM   32  C   UNL     1      -5.302  -5.002 -34.528  1.00  0.00     0.009 C 
ENDBRANCH  23  24
ENDBRANCH  22  23
ENDBRANCH   1  22
TORSDOF 9
ENDMDL
MODEL 10
REMARK VINA RESULT:      -7.7      4.831      6.377
REMARK  9 active torsions:
REMARK  status: ('A' for Active; 'I' for Inactive)
REMARK    1  A    between atoms: C_2  and  O_3 
REMARK    2  A    between atoms: O_3  and  C_4 
REMARK    3  A    between atoms: C_4  and  C_5 
REMARK    4  A    between atoms: C_7  and  C_8 
REMARK       I    between atoms: C_8  and  N_9 
REMARK    5  A    between atoms: N_9  and  N_10 
REMARK    6  A    between atoms: N_10  and  C_11 
REMARK    7  A    between atoms: C_11  and  N_12 
REMARK    8  A    between atoms: N_12  and  C_13 
REMARK    9  A    between atoms: C_13  and  C_14 
ROOT
HETATM    1  C   UNL     1      -4.986   1.089 -31.502  1.00  0.00     0.078 A 
HETATM    2  O   UNL     1      -6.303   0.913 -31.197  1.00  0.00    -0.307 OA
HETATM    3  C   UNL     1      -7.030   1.813 -31.932  1.00  0.00     0.145 A 
HETATM    4  C   UNL     1      -6.159   2.586 -32.682  1.00  0.00     0.045 A 
HETATM    5  C   UNL     1      -4.850   2.116 -32.409  1.00  0.00     0.038 A 
ENDROOT
BRANCH   3   6
HETATM    6  C   UNL     1      -8.473   1.772 -31.807  1.00  0.00     0.293 C 
HETATM    7  N   UNL     1      -9.127   1.001 -32.755  1.00  0.00    -0.262 N 
HETATM    8  H   UNL     1      -8.664   0.510 -33.512  1.00  0.00     0.190 HD
HETATM    9  O   UNL     1      -9.115   2.350 -30.928  1.00  0.00    -0.264 OA
BRANCH   7  10
HETATM   10  N   UNL     1     -10.515   0.826 -32.629  1.00  0.00    -0.274 N 
HETATM   11  H   UNL     1     -10.858   0.986 -31.683  1.00  0.00     0.189 HD
BRANCH  10  12
HETATM   12  C   UNL     1     -11.356   1.034 -33.690  1.00  0.00     0.186 C 
HETATM   13  S   UNL     1     -12.939   0.501 -33.781  1.00  0.00    -0.040 SA
BRANCH  12  14
HETATM   14  N   UNL     1     -10.854   1.785 -34.713  1.00  0.00    -0.364 N 
HETATM   15  H   UNL     1     -10.529   1.231 -35.503  1.00  0.00     0.162 HD
BRANCH  14  16
HETATM   16  C   UNL     1     -11.239   3.151 -35.055  1.00  0.00     0.154 C 
BRANCH  16  17
HETATM   17  C   UNL     1     -10.588   4.170 -34.121  1.00  0.00     0.139 C 
HETATM   18  O   UNL     1      -9.162   3.963 -34.061  1.00  0.00    -0.384 OA
HETATM   19  C   UNL     1      -8.532   5.244 -33.897  1.00  0.00     0.168 C 
HETATM   20  C   UNL     1      -9.626   6.293 -33.879  1.00  0.00     0.029 C 
HETATM   21  C   UNL     1     -10.765   5.602 -34.587  1.00  0.00     0.035 C 
ENDBRANCH  16  17
ENDBRANCH  14  16
ENDBRANCH  12  14
ENDBRANCH  10  12
ENDBRANCH   7  10
ENDBRANCH   3   6
BRANCH   1  22
HETATM   22  C   UNL     1      -4.022   0.175 -30.836  1.00  0.00     0.240 C 
BRANCH  22  23
HETATM   23  O   UNL     1      -3.171  -0.325 -31.863  1.00  0.00    -0.345 OA
BRANCH  23  24
HETATM   24  C   UNL     1      -3.462  -1.569 -32.358  1.00  0.00     0.069 A 
HETATM   25  C   UNL     1      -2.936  -2.782 -31.885  1.00  0.00     0.037 A 
HETATM   26  C   UNL     1      -3.285  -3.997 -32.488  1.00  0.00     0.010 A 
HETATM   27  C   UNL     1      -4.171  -3.978 -33.552  1.00  0.00    -0.052 A 
HETATM   28  C   UNL     1      -4.698  -2.773 -34.024  1.00  0.00    -0.049 A 
HETATM   29  C   UNL     1      -4.652  -5.129 -34.376  1.00  0.00     0.039 C 
HETATM   30  C   UNL     1      -4.344  -1.565 -33.445  1.00  0.00     0.044 A 
HETATM   31  C   UNL     1      -5.590  -3.005 -35.202  1.00  0.00     0.039 C 
HETATM   32  C   UNL     1      -5.875  -4.509 -35.069  1.00  0.00     0.009 C 
ENDBRANCH  23  24
ENDBRANCH  22  23
ENDBRANCH   1  22
TORSDOF 9
ENDMDL
