MODEL 1
REMARK VINA RESULT:      -8.6      0.000      0.000
REMARK  7 active torsions:
REMARK  status: ('A' for Active; 'I' for Inactive)
REMARK    1  A    between atoms: C_2  and  O_3 
REMARK    2  A    between atoms: O_3  and  C_4 
REMARK    3  A    between atoms: C_4  and  C_5 
REMARK    4  A    between atoms: C_6  and  C_7 
REMARK    5  A    between atoms: C_18  and  S_19 
REMARK    6  A    between atoms: S_19  and  C_20 
REMARK    7  A    between atoms: C_20  and  C_21 
ROOT
HETATM    1  C   UNL     1      -3.651   5.223 -31.977  1.00  0.00     0.070 C 
HETATM    2  C   UNL     1      -5.094   4.736 -32.130  1.00  0.00     0.203 C 
HETATM    3  N   UNL     1      -5.163   3.275 -32.064  1.00  0.00    -0.082 N 
HETATM    4  C   UNL     1      -4.165   2.489 -31.560  1.00  0.00     0.726 A 
HETATM    5  N   UNL     1      -3.017   3.071 -31.161  1.00  0.00    -0.192 N 
HETATM    6  N   UNL     1      -6.181   2.535 -32.542  1.00  0.00    -0.128 NA
HETATM    7  C   UNL     1      -5.758   1.305 -32.232  1.00  0.00     0.226 A 
HETATM    8  N   UNL     1      -4.535   1.234 -31.607  1.00  0.00    -0.035 NA
HETATM    9  C   UNL     1      -2.700   4.399 -31.458  1.00  0.00     0.037 C 
HETATM   10  C   UNL     1      -1.279   4.804 -31.153  1.00  0.00     0.070 C 
HETATM   11  H   UNL     1      -2.246   2.464 -30.891  1.00  0.00     0.184 HD
ENDROOT
BRANCH   7  12
HETATM   12  S   UNL     1      -6.700  -0.094 -32.645  1.00  0.00    -0.083 SA
BRANCH  12  13
HETATM   13  C   UNL     1      -5.870  -0.547 -34.189  1.00  0.00     0.121 C 
BRANCH  13  14
HETATM   14  C   UNL     1      -5.780  -2.046 -34.339  1.00  0.00    -0.047 A 
HETATM   15  C   UNL     1      -4.590  -2.725 -34.032  1.00  0.00     0.031 A 
HETATM   16  C   UNL     1      -4.508  -4.107 -34.203  1.00  0.00     0.034 A 
HETATM   17 CL   UNL     1      -3.045  -4.929 -33.820  1.00  0.00    -0.084 Cl
HETATM   18  C   UNL     1      -5.599  -4.829 -34.683  1.00  0.00     0.024 A 
HETATM   19  C   UNL     1      -6.783  -4.162 -34.997  1.00  0.00     0.002 A 
HETATM   20  C   UNL     1      -6.873  -2.780 -34.827  1.00  0.00     0.008 A 
ENDBRANCH  13  14
ENDBRANCH  12  13
ENDBRANCH   7  12
BRANCH   2  21
HETATM   21  C   UNL     1      -6.032   5.332 -31.076  1.00  0.00    -0.028 A 
HETATM   22  C   UNL     1      -5.872   4.985 -29.724  1.00  0.00     0.011 A 
HETATM   23  C   UNL     1      -6.721   5.511 -28.747  1.00  0.00     0.024 A 
HETATM   24  C   UNL     1      -7.738   6.389 -29.110  1.00  0.00     0.034 A 
HETATM   25 CL   UNL     1      -8.786   7.032 -27.907  1.00  0.00    -0.084 Cl
HETATM   26  C   UNL     1      -7.913   6.748 -30.443  1.00  0.00     0.024 A 
HETATM   27  C   UNL     1      -7.066   6.224 -31.422  1.00  0.00     0.011 A 
ENDBRANCH   2  21
BRANCH   1  28
HETATM   28  C   UNL     1      -3.463   6.599 -32.508  1.00  0.00     0.293 C 
HETATM   29  O   UNL     1      -3.638   7.599 -31.827  1.00  0.00    -0.259 OA
BRANCH  28  30
HETATM   30  O   UNL     1      -3.189   6.604 -33.833  1.00  0.00    -0.318 OA
BRANCH  30  31
HETATM   31  C   UNL     1      -1.801   6.715 -34.188  1.00  0.00     0.174 C 
HETATM   32  C   UNL     1      -1.306   5.428 -34.819  1.00  0.00     0.034 C 
ENDBRANCH  30  31
ENDBRANCH  28  30
ENDBRANCH   1  28
TORSDOF 7
ENDMDL
MODEL 2
REMARK VINA RESULT:      -8.6      4.047      8.494
REMARK  7 active torsions:
REMARK  status: ('A' for Active; 'I' for Inactive)
REMARK    1  A    between atoms: C_2  and  O_3 
REMARK    2  A    between atoms: O_3  and  C_4 
REMARK    3  A    between atoms: C_4  and  C_5 
REMARK    4  A    between atoms: C_6  and  C_7 
REMARK    5  A    between atoms: C_18  and  S_19 
REMARK    6  A    between atoms: S_19  and  C_20 
REMARK    7  A    between atoms: C_20  and  C_21 
ROOT
HETATM    1  C   UNL     1      -8.534   2.239 -32.847  1.00  0.00     0.070 C 
HETATM    2  C   UNL     1      -7.442   2.172 -33.918  1.00  0.00     0.203 C 
HETATM    3  N   UNL     1      -6.425   3.202 -33.693  1.00  0.00    -0.082 N 
HETATM    4  C   UNL     1      -6.263   3.863 -32.509  1.00  0.00     0.726 A 
HETATM    5  N   UNL     1      -7.123   3.616 -31.501  1.00  0.00    -0.192 N 
HETATM    6  N   UNL     1      -5.578   3.657 -34.634  1.00  0.00    -0.128 NA
HETATM    7  C   UNL     1      -4.883   4.553 -33.926  1.00  0.00     0.226 A 
HETATM    8  N   UNL     1      -5.256   4.694 -32.610  1.00  0.00    -0.035 NA
HETATM    9  C   UNL     1      -8.312   2.904 -31.681  1.00  0.00     0.037 C 
HETATM   10  C   UNL     1      -9.265   2.939 -30.511  1.00  0.00     0.070 C 
HETATM   11  H   UNL     1      -7.055   4.194 -30.666  1.00  0.00     0.184 HD
ENDROOT
BRANCH   7  12
HETATM   12  S   UNL     1      -3.623   5.492 -34.665  1.00  0.00    -0.083 SA
BRANCH  12  13
HETATM   13  C   UNL     1      -2.189   4.662 -33.936  1.00  0.00     0.121 C 
BRANCH  13  14
HETATM   14  C   UNL     1      -1.538   5.525 -32.882  1.00  0.00    -0.047 A 
HETATM   15  C   UNL     1      -0.797   4.945 -31.841  1.00  0.00     0.031 A 
HETATM   16  C   UNL     1      -0.226   5.750 -30.854  1.00  0.00     0.034 A 
HETATM   17 CL   UNL     1       0.684   5.027 -29.584  1.00  0.00    -0.084 Cl
HETATM   18  C   UNL     1      -0.387   7.134 -30.887  1.00  0.00     0.024 A 
HETATM   19  C   UNL     1      -1.127   7.719 -31.913  1.00  0.00     0.002 A 
HETATM   20  C   UNL     1      -1.700   6.920 -32.904  1.00  0.00     0.008 A 
ENDBRANCH  13  14
ENDBRANCH  12  13
ENDBRANCH   7  12
BRANCH   2  21
HETATM   21  C   UNL     1      -6.763   0.800 -33.982  1.00  0.00    -0.028 A 
HETATM   22  C   UNL     1      -7.131  -0.114 -34.983  1.00  0.00     0.011 A 
HETATM   23  C   UNL     1      -6.531  -1.373 -35.056  1.00  0.00     0.024 A 
HETATM   24  C   UNL     1      -5.556  -1.732 -34.129  1.00  0.00     0.034 A 
HETATM   25 CL   UNL     1      -4.821  -3.285 -34.216  1.00  0.00    -0.084 Cl
HETATM   26  C   UNL     1      -5.174  -0.841 -33.130  1.00  0.00     0.024 A 
HETATM   27  C   UNL     1      -5.773   0.418 -33.055  1.00  0.00     0.011 A 
ENDBRANCH   2  21
BRANCH   1  28
HETATM   28  C   UNL     1      -9.791   1.576 -33.284  1.00  0.00     0.293 C 
HETATM   29  O   UNL     1     -10.136   0.478 -32.873  1.00  0.00    -0.259 OA
BRANCH  28  30
HETATM   30  O   UNL     1     -10.430   2.275 -34.251  1.00  0.00    -0.318 OA
BRANCH  30  31
HETATM   31  C   UNL     1     -11.848   2.430 -34.083  1.00  0.00     0.174 C 
HETATM   32  C   UNL     1     -12.602   1.568 -35.079  1.00  0.00     0.034 C 
ENDBRANCH  30  31
ENDBRANCH  28  30
ENDBRANCH   1  28
TORSDOF 7
ENDMDL
MODEL 3
REMARK VINA RESULT:      -8.4      3.620      8.653
REMARK  7 active torsions:
REMARK  status: ('A' for Active; 'I' for Inactive)
REMARK    1  A    between atoms: C_2  and  O_3 
REMARK    2  A    between atoms: O_3  and  C_4 
REMARK    3  A    between atoms: C_4  and  C_5 
REMARK    4  A    between atoms: C_6  and  C_7 
REMARK    5  A    between atoms: C_18  and  S_19 
REMARK    6  A    between atoms: S_19  and  C_20 
REMARK    7  A    between atoms: C_20  and  C_21 
ROOT
HETATM    1  C   UNL     1      -8.276   3.076 -32.557  1.00  0.00     0.070 C 
HETATM    2  C   UNL     1      -7.056   2.763 -33.429  1.00  0.00     0.203 C 
HETATM    3  N   UNL     1      -5.829   3.267 -32.811  1.00  0.00    -0.082 N 
HETATM    4  C   UNL     1      -5.728   3.614 -31.493  1.00  0.00     0.726 A 
HETATM    5  N   UNL     1      -6.831   3.561 -30.720  1.00  0.00    -0.192 N 
HETATM    6  N   UNL     1      -4.681   3.503 -33.472  1.00  0.00    -0.128 NA
HETATM    7  C   UNL     1      -3.904   3.933 -32.472  1.00  0.00     0.226 A 
HETATM    8  N   UNL     1      -4.502   3.994 -31.236  1.00  0.00    -0.035 NA
HETATM    9  C   UNL     1      -8.116   3.406 -31.246  1.00  0.00     0.037 C 
HETATM   10  C   UNL     1      -9.243   3.619 -30.266  1.00  0.00     0.070 C 
HETATM   11  H   UNL     1      -6.764   3.926 -29.772  1.00  0.00     0.184 HD
ENDROOT
BRANCH   7  12
HETATM   12  S   UNL     1      -2.261   4.415 -32.762  1.00  0.00    -0.083 SA
BRANCH  12  13
HETATM   13  C   UNL     1      -2.402   6.168 -32.332  1.00  0.00     0.121 C 
BRANCH  13  14
HETATM   14  C   UNL     1      -1.471   6.527 -31.200  1.00  0.00    -0.047 A 
HETATM   15  C   UNL     1      -1.966   6.718 -29.900  1.00  0.00     0.031 A 
HETATM   16  C   UNL     1      -1.102   7.079 -28.867  1.00  0.00     0.034 A 
HETATM   17 CL   UNL     1      -1.720   7.308 -27.277  1.00  0.00    -0.084 Cl
HETATM   18  C   UNL     1       0.259   7.260 -29.110  1.00  0.00     0.024 A 
HETATM   19  C   UNL     1       0.759   7.080 -30.399  1.00  0.00     0.002 A 
HETATM   20  C   UNL     1      -0.100   6.716 -31.438  1.00  0.00     0.008 A 
ENDBRANCH  13  14
ENDBRANCH  12  13
ENDBRANCH   7  12
BRANCH   2  21
HETATM   21  C   UNL     1      -6.901   1.265 -33.708  1.00  0.00    -0.028 A 
HETATM   22  C   UNL     1      -7.242   0.752 -34.971  1.00  0.00     0.011 A 
HETATM   23  C   UNL     1      -7.116  -0.612 -35.246  1.00  0.00     0.024 A 
HETATM   24  C   UNL     1      -6.645  -1.477 -34.262  1.00  0.00     0.034 A 
HETATM   25 CL   UNL     1      -6.494  -3.157 -34.599  1.00  0.00    -0.084 Cl
HETATM   26  C   UNL     1      -6.299  -0.990 -33.005  1.00  0.00     0.024 A 
HETATM   27  C   UNL     1      -6.425   0.373 -32.728  1.00  0.00     0.011 A 
ENDBRANCH   2  21
BRANCH   1  28
HETATM   28  C   UNL     1      -9.545   3.032 -33.330  1.00  0.00     0.293 C 
HETATM   29  O   UNL     1      -9.752   3.745 -34.301  1.00  0.00    -0.259 OA
BRANCH  28  30
HETATM   30  O   UNL     1     -10.458   2.204 -32.770  1.00  0.00    -0.318 OA
BRANCH  30  31
HETATM   31  C   UNL     1     -10.708   0.976 -33.473  1.00  0.00     0.174 C 
HETATM   32  C   UNL     1     -10.116  -0.201 -32.721  1.00  0.00     0.034 C 
ENDBRANCH  30  31
ENDBRANCH  28  30
ENDBRANCH   1  28
TORSDOF 7
ENDMDL
MODEL 4
REMARK VINA RESULT:      -8.3      1.717      2.258
REMARK  7 active torsions:
REMARK  status: ('A' for Active; 'I' for Inactive)
REMARK    1  A    between atoms: C_2  and  O_3 
REMARK    2  A    between atoms: O_3  and  C_4 
REMARK    3  A    between atoms: C_4  and  C_5 
REMARK    4  A    between atoms: C_6  and  C_7 
REMARK    5  A    between atoms: C_18  and  S_19 
REMARK    6  A    between atoms: S_19  and  C_20 
REMARK    7  A    between atoms: C_20  and  C_21 
ROOT
HETATM    1  C   UNL     1      -2.373   6.384 -32.156  1.00  0.00     0.070 C 
HETATM    2  C   UNL     1      -3.834   5.952 -32.307  1.00  0.00     0.203 C 
HETATM    3  N   UNL     1      -3.971   4.503 -32.142  1.00  0.00    -0.082 N 
HETATM    4  C   UNL     1      -3.020   3.712 -31.562  1.00  0.00     0.726 A 
HETATM    5  N   UNL     1      -1.854   4.270 -31.177  1.00  0.00    -0.192 N 
HETATM    6  N   UNL     1      -5.012   3.778 -32.589  1.00  0.00    -0.128 NA
HETATM    7  C   UNL     1      -4.651   2.555 -32.185  1.00  0.00     0.226 A 
HETATM    8  N   UNL     1      -3.445   2.475 -31.529  1.00  0.00    -0.035 NA
HETATM    9  C   UNL     1      -1.472   5.558 -31.559  1.00  0.00     0.037 C 
HETATM   10  C   UNL     1      -0.040   5.921 -31.251  1.00  0.00     0.070 C 
HETATM   11  H   UNL     1      -1.117   3.650 -30.849  1.00  0.00     0.184 HD
ENDROOT
BRANCH   7  12
HETATM   12  S   UNL     1      -5.648   1.174 -32.521  1.00  0.00    -0.083 SA
BRANCH  12  13
HETATM   13  C   UNL     1      -4.346  -0.060 -32.765  1.00  0.00     0.121 C 
BRANCH  13  14
HETATM   14  C   UNL     1      -4.885  -1.293 -33.449  1.00  0.00    -0.047 A 
HETATM   15  C   UNL     1      -4.142  -2.484 -33.468  1.00  0.00     0.031 A 
HETATM   16  C   UNL     1      -4.637  -3.608 -34.129  1.00  0.00     0.034 A 
HETATM   17 CL   UNL     1      -3.718  -5.064 -34.142  1.00  0.00    -0.084 Cl
HETATM   18  C   UNL     1      -5.867  -3.563 -34.782  1.00  0.00     0.024 A 
HETATM   19  C   UNL     1      -6.609  -2.383 -34.775  1.00  0.00     0.002 A 
HETATM   20  C   UNL     1      -6.122  -1.255 -34.114  1.00  0.00     0.008 A 
ENDBRANCH  13  14
ENDBRANCH  12  13
ENDBRANCH   7  12
BRANCH   2  21
HETATM   21  C   UNL     1      -4.765   6.661 -31.319  1.00  0.00    -0.028 A 
HETATM   22  C   UNL     1      -4.586   6.477 -29.937  1.00  0.00     0.011 A 
HETATM   23  C   UNL     1      -5.428   7.108 -29.018  1.00  0.00     0.024 A 
HETATM   24  C   UNL     1      -6.455   7.931 -29.470  1.00  0.00     0.034 A 
HETATM   25 CL   UNL     1      -7.494   8.704 -28.337  1.00  0.00    -0.084 Cl
HETATM   26  C   UNL     1      -6.649   8.130 -30.833  1.00  0.00     0.024 A 
HETATM   27  C   UNL     1      -5.809   7.500 -31.754  1.00  0.00     0.011 A 
ENDBRANCH   2  21
BRANCH   1  28
HETATM   28  C   UNL     1      -2.113   7.710 -32.776  1.00  0.00     0.293 C 
HETATM   29  O   UNL     1      -1.445   7.845 -33.791  1.00  0.00    -0.259 OA
BRANCH  28  30
HETATM   30  O   UNL     1      -2.604   8.730 -32.033  1.00  0.00    -0.318 OA
BRANCH  30  31
HETATM   31  C   UNL     1      -1.992   8.921 -30.747  1.00  0.00     0.174 C 
HETATM   32  C   UNL     1      -2.875   9.775 -29.857  1.00  0.00     0.034 C 
ENDBRANCH  30  31
ENDBRANCH  28  30
ENDBRANCH   1  28
TORSDOF 7
ENDMDL
MODEL 5
REMARK VINA RESULT:      -8.3      2.500      4.044
REMARK  7 active torsions:
REMARK  status: ('A' for Active; 'I' for Inactive)
REMARK    1  A    between atoms: C_2  and  O_3 
REMARK    2  A    between atoms: O_3  and  C_4 
REMARK    3  A    between atoms: C_4  and  C_5 
REMARK    4  A    between atoms: C_6  and  C_7 
REMARK    5  A    between atoms: C_18  and  S_19 
REMARK    6  A    between atoms: S_19  and  C_20 
REMARK    7  A    between atoms: C_20  and  C_21 
ROOT
HETATM    1  C   UNL     1      -5.852   5.456 -30.153  1.00  0.00     0.070 C 
HETATM    2  C   UNL     1      -5.147   4.217 -30.710  1.00  0.00     0.203 C 
HETATM    3  N   UNL     1      -6.116   3.263 -31.252  1.00  0.00    -0.082 N 
HETATM    4  C   UNL     1      -7.406   3.586 -31.567  1.00  0.00     0.726 A 
HETATM    5  N   UNL     1      -7.847   4.833 -31.305  1.00  0.00    -0.192 N 
HETATM    6  N   UNL     1      -5.873   1.954 -31.446  1.00  0.00    -0.128 NA
HETATM    7  C   UNL     1      -7.049   1.557 -31.946  1.00  0.00     0.226 A 
HETATM    8  N   UNL     1      -8.010   2.534 -32.058  1.00  0.00    -0.035 NA
HETATM    9  C   UNL     1      -7.135   5.735 -30.510  1.00  0.00     0.037 C 
HETATM   10  C   UNL     1      -7.890   6.981 -30.120  1.00  0.00     0.070 C 
HETATM   11  H   UNL     1      -8.838   5.024 -31.444  1.00  0.00     0.184 HD
ENDROOT
BRANCH   7  12
HETATM   12  S   UNL     1      -7.322  -0.103 -32.376  1.00  0.00    -0.083 SA
BRANCH  12  13
HETATM   13  C   UNL     1      -5.879  -0.359 -33.439  1.00  0.00     0.121 C 
BRANCH  13  14
HETATM   14  C   UNL     1      -5.793  -1.793 -33.904  1.00  0.00    -0.047 A 
HETATM   15  C   UNL     1      -4.628  -2.545 -33.688  1.00  0.00     0.031 A 
HETATM   16  C   UNL     1      -4.547  -3.860 -34.149  1.00  0.00     0.034 A 
HETATM   17 CL   UNL     1      -3.114  -4.774 -33.876  1.00  0.00    -0.084 Cl
HETATM   18  C   UNL     1      -5.616  -4.440 -34.830  1.00  0.00     0.024 A 
HETATM   19  C   UNL     1      -6.775  -3.698 -35.055  1.00  0.00     0.002 A 
HETATM   20  C   UNL     1      -6.863  -2.383 -34.595  1.00  0.00     0.008 A 
ENDBRANCH  13  14
ENDBRANCH  12  13
ENDBRANCH   7  12
BRANCH   2  21
HETATM   21  C   UNL     1      -4.119   4.560 -31.793  1.00  0.00    -0.028 A 
HETATM   22  C   UNL     1      -2.791   4.123 -31.658  1.00  0.00     0.011 A 
HETATM   23  C   UNL     1      -1.835   4.432 -32.629  1.00  0.00     0.024 A 
HETATM   24  C   UNL     1      -2.198   5.178 -33.746  1.00  0.00     0.034 A 
HETATM   25 CL   UNL     1      -1.020   5.562 -34.940  1.00  0.00    -0.084 Cl
HETATM   26  C   UNL     1      -3.509   5.620 -33.902  1.00  0.00     0.024 A 
HETATM   27  C   UNL     1      -4.466   5.313 -32.932  1.00  0.00     0.011 A 
ENDBRANCH   2  21
BRANCH   1  28
HETATM   28  C   UNL     1      -5.001   6.201 -29.187  1.00  0.00     0.293 C 
HETATM   29  O   UNL     1      -4.990   5.955 -27.990  1.00  0.00    -0.259 OA
BRANCH  28  30
HETATM   30  O   UNL     1      -4.341   7.228 -29.771  1.00  0.00    -0.318 OA
BRANCH  30  31
HETATM   31  C   UNL     1      -2.956   7.369 -29.416  1.00  0.00     0.174 C 
HETATM   32  C   UNL     1      -2.111   7.629 -30.648  1.00  0.00     0.034 C 
ENDBRANCH  30  31
ENDBRANCH  28  30
ENDBRANCH   1  28
TORSDOF 7
ENDMDL
MODEL 6
REMARK VINA RESULT:      -8.2      4.781      6.517
REMARK  7 active torsions:
REMARK  status: ('A' for Active; 'I' for Inactive)
REMARK    1  A    between atoms: C_2  and  O_3 
REMARK    2  A    between atoms: O_3  and  C_4 
REMARK    3  A    between atoms: C_4  and  C_5 
REMARK    4  A    between atoms: C_6  and  C_7 
REMARK    5  A    between atoms: C_18  and  S_19 
REMARK    6  A    between atoms: S_19  and  C_20 
REMARK    7  A    between atoms: C_20  and  C_21 
ROOT
HETATM    1  C   UNL     1     -11.736   3.167 -33.405  1.00  0.00     0.070 C 
HETATM    2  C   UNL     1     -10.665   3.110 -32.312  1.00  0.00     0.203 C 
HETATM    3  N   UNL     1      -9.568   2.222 -32.701  1.00  0.00    -0.082 N 
HETATM    4  C   UNL     1      -9.340   1.813 -33.985  1.00  0.00     0.726 A 
HETATM    5  N   UNL     1     -10.205   2.183 -34.950  1.00  0.00    -0.192 N 
HETATM    6  N   UNL     1      -8.698   1.661 -31.842  1.00  0.00    -0.128 NA
HETATM    7  C   UNL     1      -7.926   0.971 -32.688  1.00  0.00     0.226 A 
HETATM    8  N   UNL     1      -8.272   1.057 -34.016  1.00  0.00    -0.035 NA
HETATM    9  C   UNL     1     -11.448   2.756 -34.670  1.00  0.00     0.037 C 
HETATM   10  C   UNL     1     -12.382   2.873 -35.850  1.00  0.00     0.070 C 
HETATM   11  H   UNL     1     -10.082   1.782 -35.877  1.00  0.00     0.184 HD
ENDROOT
BRANCH   7  12
HETATM   12  S   UNL     1      -6.604   0.006 -32.107  1.00  0.00    -0.083 SA
BRANCH  12  13
HETATM   13  C   UNL     1      -5.750  -0.276 -33.679  1.00  0.00     0.121 C 
BRANCH  13  14
HETATM   14  C   UNL     1      -5.737  -1.742 -34.036  1.00  0.00    -0.047 A 
HETATM   15  C   UNL     1      -4.582  -2.515 -33.841  1.00  0.00     0.031 A 
HETATM   16  C   UNL     1      -4.571  -3.863 -34.202  1.00  0.00     0.034 A 
HETATM   17 CL   UNL     1      -3.149  -4.801 -33.955  1.00  0.00    -0.084 Cl
HETATM   18  C   UNL     1      -5.700  -4.456 -34.764  1.00  0.00     0.024 A 
HETATM   19  C   UNL     1      -6.850  -3.695 -34.968  1.00  0.00     0.002 A 
HETATM   20  C   UNL     1      -6.869  -2.346 -34.607  1.00  0.00     0.008 A 
ENDBRANCH  13  14
ENDBRANCH  12  13
ENDBRANCH   7  12
BRANCH   2  21
HETATM   21  C   UNL     1     -10.097   4.492 -31.972  1.00  0.00    -0.028 A 
HETATM   22  C   UNL     1     -10.305   5.035 -30.693  1.00  0.00     0.011 A 
HETATM   23  C   UNL     1      -9.803   6.297 -30.363  1.00  0.00     0.024 A 
HETATM   24  C   UNL     1      -9.087   7.027 -31.307  1.00  0.00     0.034 A 
HETATM   25 CL   UNL     1      -8.474   8.583 -30.901  1.00  0.00    -0.084 Cl
HETATM   26  C   UNL     1      -8.867   6.508 -32.579  1.00  0.00     0.024 A 
HETATM   27  C   UNL     1      -9.368   5.247 -32.911  1.00  0.00     0.011 A 
ENDBRANCH   2  21
BRANCH   1  28
HETATM   28  C   UNL     1     -13.046   3.638 -32.883  1.00  0.00     0.293 C 
HETATM   29  O   UNL     1     -13.482   4.758 -33.105  1.00  0.00    -0.259 OA
BRANCH  28  30
HETATM   30  O   UNL     1     -13.627   2.731 -32.062  1.00  0.00    -0.318 OA
BRANCH  30  31
HETATM   31  C   UNL     1     -14.958   2.325 -32.416  1.00  0.00     0.174 C 
HETATM   32  C   UNL     1     -14.927   1.320 -33.551  1.00  0.00     0.034 C 
ENDBRANCH  30  31
ENDBRANCH  28  30
ENDBRANCH   1  28
TORSDOF 7
ENDMDL
MODEL 7
REMARK VINA RESULT:      -8.1      2.642      4.403
REMARK  7 active torsions:
REMARK  status: ('A' for Active; 'I' for Inactive)
REMARK    1  A    between atoms: C_2  and  O_3 
REMARK    2  A    between atoms: O_3  and  C_4 
REMARK    3  A    between atoms: C_4  and  C_5 
REMARK    4  A    between atoms: C_6  and  C_7 
REMARK    5  A    between atoms: C_18  and  S_19 
REMARK    6  A    between atoms: S_19  and  C_20 
REMARK    7  A    between atoms: C_20  and  C_21 
ROOT
HETATM    1  C   UNL     1      -6.447   6.307 -31.005  1.00  0.00     0.070 C 
HETATM    2  C   UNL     1      -5.751   4.950 -31.144  1.00  0.00     0.203 C 
HETATM    3  N   UNL     1      -6.699   3.917 -31.568  1.00  0.00    -0.082 N 
HETATM    4  C   UNL     1      -7.916   4.187 -32.126  1.00  0.00     0.726 A 
HETATM    5  N   UNL     1      -8.313   5.471 -32.236  1.00  0.00    -0.192 N 
HETATM    6  N   UNL     1      -6.511   2.595 -31.406  1.00  0.00    -0.128 NA
HETATM    7  C   UNL     1      -7.635   2.118 -31.952  1.00  0.00     0.226 A 
HETATM    8  N   UNL     1      -8.514   3.062 -32.428  1.00  0.00    -0.035 NA
HETATM    9  C   UNL     1      -7.655   6.522 -31.592  1.00  0.00     0.037 C 
HETATM   10  C   UNL     1      -8.378   7.846 -31.621  1.00  0.00     0.070 C 
HETATM   11  H   UNL     1      -9.264   5.648 -32.552  1.00  0.00     0.184 HD
ENDROOT
BRANCH   7  12
HETATM   12  S   UNL     1      -7.949   0.411 -32.003  1.00  0.00    -0.083 SA
BRANCH  12  13
HETATM   13  C   UNL     1      -7.679   0.128 -33.771  1.00  0.00     0.121 C 
BRANCH  13  14
HETATM   14  C   UNL     1      -6.621  -0.924 -33.998  1.00  0.00    -0.047 A 
HETATM   15  C   UNL     1      -6.950  -2.152 -34.593  1.00  0.00     0.031 A 
HETATM   16  C   UNL     1      -5.971  -3.130 -34.771  1.00  0.00     0.034 A 
HETATM   17 CL   UNL     1      -6.386  -4.630 -35.505  1.00  0.00    -0.084 Cl
HETATM   18  C   UNL     1      -4.659  -2.904 -34.356  1.00  0.00     0.024 A 
HETATM   19  C   UNL     1      -4.324  -1.690 -33.758  1.00  0.00     0.002 A 
HETATM   20  C   UNL     1      -5.299  -0.707 -33.579  1.00  0.00     0.008 A 
ENDBRANCH  13  14
ENDBRANCH  12  13
ENDBRANCH   7  12
BRANCH   2  21
HETATM   21  C   UNL     1      -4.575   4.988 -32.125  1.00  0.00    -0.028 A 
HETATM   22  C   UNL     1      -4.759   5.521 -33.412  1.00  0.00     0.011 A 
HETATM   23  C   UNL     1      -3.703   5.558 -34.327  1.00  0.00     0.024 A 
HETATM   24  C   UNL     1      -2.453   5.066 -33.963  1.00  0.00     0.034 A 
HETATM   25 CL   UNL     1      -1.154   5.109 -35.091  1.00  0.00    -0.084 Cl
HETATM   26  C   UNL     1      -2.248   4.537 -32.692  1.00  0.00     0.024 A 
HETATM   27  C   UNL     1      -3.302   4.497 -31.777  1.00  0.00     0.011 A 
ENDBRANCH   2  21
BRANCH   1  28
HETATM   28  C   UNL     1      -5.682   7.244 -30.139  1.00  0.00     0.293 C 
HETATM   29  O   UNL     1      -5.817   7.280 -28.925  1.00  0.00    -0.259 OA
BRANCH  28  30
HETATM   30  O   UNL     1      -4.922   8.101 -30.858  1.00  0.00    -0.318 OA
BRANCH  30  31
HETATM   31  C   UNL     1      -3.539   8.187 -30.477  1.00  0.00     0.174 C 
HETATM   32  C   UNL     1      -2.646   8.210 -31.702  1.00  0.00     0.034 C 
ENDBRANCH  30  31
ENDBRANCH  28  30
ENDBRANCH   1  28
TORSDOF 7
ENDMDL
MODEL 8
REMARK VINA RESULT:      -8.1      3.741      8.810
REMARK  7 active torsions:
REMARK  status: ('A' for Active; 'I' for Inactive)
REMARK    1  A    between atoms: C_2  and  O_3 
REMARK    2  A    between atoms: O_3  and  C_4 
REMARK    3  A    between atoms: C_4  and  C_5 
REMARK    4  A    between atoms: C_6  and  C_7 
REMARK    5  A    between atoms: C_18  and  S_19 
REMARK    6  A    between atoms: S_19  and  C_20 
REMARK    7  A    between atoms: C_20  and  C_21 
ROOT
HETATM    1  C   UNL     1      -6.554   2.625 -32.047  1.00  0.00     0.070 C 
HETATM    2  C   UNL     1      -5.220   2.394 -32.763  1.00  0.00     0.203 C 
HETATM    3  N   UNL     1      -4.217   3.367 -32.326  1.00  0.00    -0.082 N 
HETATM    4  C   UNL     1      -4.327   4.112 -31.186  1.00  0.00     0.726 A 
HETATM    5  N   UNL     1      -5.449   4.008 -30.446  1.00  0.00    -0.192 N 
HETATM    6  N   UNL     1      -3.107   3.683 -33.018  1.00  0.00    -0.128 NA
HETATM    7  C   UNL     1      -2.556   4.585 -32.199  1.00  0.00     0.226 A 
HETATM    8  N   UNL     1      -3.261   4.860 -31.052  1.00  0.00    -0.035 NA
HETATM    9  C   UNL     1      -6.601   3.367 -30.907  1.00  0.00     0.037 C 
HETATM   10  C   UNL     1      -7.831   3.565 -30.056  1.00  0.00     0.070 C 
HETATM   11  H   UNL     1      -5.561   4.648 -29.662  1.00  0.00     0.184 HD
ENDROOT
BRANCH   7  12
HETATM   12  S   UNL     1      -1.063   5.371 -32.612  1.00  0.00    -0.083 SA
BRANCH  12  13
HETATM   13  C   UNL     1      -1.636   7.088 -32.599  1.00  0.00     0.121 C 
BRANCH  13  14
HETATM   14  C   UNL     1      -1.425   7.722 -31.245  1.00  0.00    -0.047 A 
HETATM   15  C   UNL     1      -0.444   7.229 -30.370  1.00  0.00     0.031 A 
HETATM   16  C   UNL     1      -0.277   7.802 -29.109  1.00  0.00     0.034 A 
HETATM   17 CL   UNL     1       0.930   7.191 -28.046  1.00  0.00    -0.084 Cl
HETATM   18  C   UNL     1      -1.082   8.864 -28.701  1.00  0.00     0.024 A 
HETATM   19  C   UNL     1      -2.063   9.357 -29.561  1.00  0.00     0.002 A 
HETATM   20  C   UNL     1      -2.235   8.789 -30.825  1.00  0.00     0.008 A 
ENDBRANCH  13  14
ENDBRANCH  12  13
ENDBRANCH   7  12
BRANCH   2  21
HETATM   21  C   UNL     1      -4.674   0.978 -32.551  1.00  0.00    -0.028 A 
HETATM   22  C   UNL     1      -3.877   0.699 -31.428  1.00  0.00     0.011 A 
HETATM   23  C   UNL     1      -3.362  -0.583 -31.219  1.00  0.00     0.024 A 
HETATM   24  C   UNL     1      -3.641  -1.599 -32.129  1.00  0.00     0.034 A 
HETATM   25 CL   UNL     1      -3.003  -3.176 -31.873  1.00  0.00    -0.084 Cl
HETATM   26  C   UNL     1      -4.431  -1.346 -33.246  1.00  0.00     0.024 A 
HETATM   27  C   UNL     1      -4.946  -0.065 -33.458  1.00  0.00     0.011 A 
ENDBRANCH   2  21
BRANCH   1  28
HETATM   28  C   UNL     1      -7.696   2.015 -32.777  1.00  0.00     0.293 C 
HETATM   29  O   UNL     1      -8.261   2.575 -33.706  1.00  0.00    -0.259 OA
BRANCH  28  30
HETATM   30  O   UNL     1      -8.090   0.843 -32.227  1.00  0.00    -0.318 OA
BRANCH  30  31
HETATM   31  C   UNL     1      -8.741  -0.081 -33.114  1.00  0.00     0.174 C 
HETATM   32  C   UNL     1     -10.216  -0.195 -32.780  1.00  0.00     0.034 C 
ENDBRANCH  30  31
ENDBRANCH  28  30
ENDBRANCH   1  28
TORSDOF 7
ENDMDL
MODEL 9
REMARK VINA RESULT:      -7.9      6.131      8.087
REMARK  7 active torsions:
REMARK  status: ('A' for Active; 'I' for Inactive)
REMARK    1  A    between atoms: C_2  and  O_3 
REMARK    2  A    between atoms: O_3  and  C_4 
REMARK    3  A    between atoms: C_4  and  C_5 
REMARK    4  A    between atoms: C_6  and  C_7 
REMARK    5  A    between atoms: C_18  and  S_19 
REMARK    6  A    between atoms: S_19  and  C_20 
REMARK    7  A    between atoms: C_20  and  C_21 
ROOT
HETATM    1  C   UNL     1     -13.404   3.654 -32.196  1.00  0.00     0.070 C 
HETATM    2  C   UNL     1     -12.053   4.156 -32.713  1.00  0.00     0.203 C 
HETATM    3  N   UNL     1     -11.250   3.049 -33.237  1.00  0.00    -0.082 N 
HETATM    4  C   UNL     1     -11.764   1.828 -33.571  1.00  0.00     0.726 A 
HETATM    5  N   UNL     1     -13.072   1.589 -33.347  1.00  0.00    -0.192 N 
HETATM    6  N   UNL     1      -9.914   3.082 -33.393  1.00  0.00    -0.128 NA
HETATM    7  C   UNL     1      -9.694   1.861 -33.891  1.00  0.00     0.226 A 
HETATM    8  N   UNL     1     -10.807   1.067 -34.038  1.00  0.00    -0.035 NA
HETATM    9  C   UNL     1     -13.872   2.433 -32.572  1.00  0.00     0.037 C 
HETATM   10  C   UNL     1     -15.233   1.884 -32.222  1.00  0.00     0.070 C 
HETATM   11  H   UNL     1     -13.414   0.643 -33.499  1.00  0.00     0.184 HD
ENDROOT
BRANCH   7  12
HETATM   12  S   UNL     1      -8.087   1.330 -34.278  1.00  0.00    -0.083 SA
BRANCH  12  13
HETATM   13  C   UNL     1      -8.016  -0.142 -33.225  1.00  0.00     0.121 C 
BRANCH  13  14
HETATM   14  C   UNL     1      -6.886  -1.053 -33.639  1.00  0.00    -0.047 A 
HETATM   15  C   UNL     1      -7.149  -2.257 -34.311  1.00  0.00     0.031 A 
HETATM   16  C   UNL     1      -6.100  -3.107 -34.663  1.00  0.00     0.034 A 
HETATM   17 CL   UNL     1      -6.435  -4.579 -35.490  1.00  0.00    -0.084 Cl
HETATM   18  C   UNL     1      -4.783  -2.776 -34.348  1.00  0.00     0.024 A 
HETATM   19  C   UNL     1      -4.513  -1.586 -33.674  1.00  0.00     0.002 A 
HETATM   20  C   UNL     1      -5.557  -0.730 -33.321  1.00  0.00     0.008 A 
ENDBRANCH  13  14
ENDBRANCH  12  13
ENDBRANCH   7  12
BRANCH   2  21
HETATM   21  C   UNL     1     -12.199   5.229 -33.797  1.00  0.00    -0.028 A 
HETATM   22  C   UNL     1     -11.595   6.485 -33.620  1.00  0.00     0.011 A 
HETATM   23  C   UNL     1     -11.722   7.482 -34.591  1.00  0.00     0.024 A 
HETATM   24  C   UNL     1     -12.450   7.231 -35.750  1.00  0.00     0.034 A 
HETATM   25 CL   UNL     1     -12.610   8.460 -36.944  1.00  0.00    -0.084 Cl
HETATM   26  C   UNL     1     -13.054   5.993 -35.948  1.00  0.00     0.024 A 
HETATM   27  C   UNL     1     -12.930   4.996 -34.978  1.00  0.00     0.011 A 
ENDBRANCH   2  21
BRANCH   1  28
HETATM   28  C   UNL     1     -14.031   4.609 -31.244  1.00  0.00     0.293 C 
HETATM   29  O   UNL     1     -13.659   4.727 -30.086  1.00  0.00    -0.259 OA
BRANCH  28  30
HETATM   30  O   UNL     1     -15.107   5.233 -31.779  1.00  0.00    -0.318 OA
BRANCH  30  31
HETATM   31  C   UNL     1     -14.996   6.658 -31.930  1.00  0.00     0.174 C 
HETATM   32  C   UNL     1     -15.479   7.089 -33.302  1.00  0.00     0.034 C 
ENDBRANCH  30  31
ENDBRANCH  28  30
ENDBRANCH   1  28
TORSDOF 7
ENDMDL
MODEL 10
REMARK VINA RESULT:      -7.9      4.127      8.035
REMARK  7 active torsions:
REMARK  status: ('A' for Active; 'I' for Inactive)
REMARK    1  A    between atoms: C_2  and  O_3 
REMARK    2  A    between atoms: O_3  and  C_4 
REMARK    3  A    between atoms: C_4  and  C_5 
REMARK    4  A    between atoms: C_6  and  C_7 
REMARK    5  A    between atoms: C_18  and  S_19 
REMARK    6  A    between atoms: S_19  and  C_20 
REMARK    7  A    between atoms: C_20  and  C_21 
ROOT
HETATM    1  C   UNL     1      -6.245   2.948 -31.568  1.00  0.00     0.070 C 
HETATM    2  C   UNL     1      -5.952   4.423 -31.856  1.00  0.00     0.203 C 
HETATM    3  N   UNL     1      -5.792   5.177 -30.611  1.00  0.00    -0.082 N 
HETATM    4  C   UNL     1      -5.556   4.597 -29.397  1.00  0.00     0.726 A 
HETATM    5  N   UNL     1      -5.533   3.252 -29.310  1.00  0.00    -0.192 N 
HETATM    6  N   UNL     1      -5.918   6.512 -30.505  1.00  0.00    -0.128 NA
HETATM    7  C   UNL     1      -5.678   6.679 -29.200  1.00  0.00     0.226 A 
HETATM    8  N   UNL     1      -5.428   5.531 -28.488  1.00  0.00    -0.035 NA
HETATM    9  C   UNL     1      -5.978   2.422 -30.342  1.00  0.00     0.037 C 
HETATM   10  C   UNL     1      -6.115   0.964 -29.979  1.00  0.00     0.070 C 
HETATM   11  H   UNL     1      -5.465   2.837 -28.383  1.00  0.00     0.184 HD
ENDROOT
BRANCH   7  12
HETATM   12  S   UNL     1      -5.730   8.258 -28.478  1.00  0.00    -0.083 SA
BRANCH  12  13
HETATM   13  C   UNL     1      -3.974   8.438 -28.072  1.00  0.00     0.121 C 
BRANCH  13  14
HETATM   14  C   UNL     1      -3.106   8.144 -29.271  1.00  0.00    -0.047 A 
HETATM   15  C   UNL     1      -2.173   7.096 -29.238  1.00  0.00     0.031 A 
HETATM   16  C   UNL     1      -1.353   6.852 -30.340  1.00  0.00     0.034 A 
HETATM   17 CL   UNL     1      -0.215   5.561 -30.289  1.00  0.00    -0.084 Cl
HETATM   18  C   UNL     1      -1.446   7.645 -31.482  1.00  0.00     0.024 A 
HETATM   19  C   UNL     1      -2.365   8.693 -31.522  1.00  0.00     0.002 A 
HETATM   20  C   UNL     1      -3.189   8.942 -30.424  1.00  0.00     0.008 A 
ENDBRANCH  13  14
ENDBRANCH  12  13
ENDBRANCH   7  12
BRANCH   2  21
HETATM   21  C   UNL     1      -4.706   4.617 -32.725  1.00  0.00    -0.028 A 
HETATM   22  C   UNL     1      -3.450   4.209 -32.246  1.00  0.00     0.011 A 
HETATM   23  C   UNL     1      -2.299   4.384 -33.018  1.00  0.00     0.024 A 
HETATM   24  C   UNL     1      -2.392   4.967 -34.279  1.00  0.00     0.034 A 
HETATM   25 CL   UNL     1      -0.973   5.186 -35.227  1.00  0.00    -0.084 Cl
HETATM   26  C   UNL     1      -3.625   5.376 -34.775  1.00  0.00     0.024 A 
HETATM   27  C   UNL     1      -4.777   5.203 -34.005  1.00  0.00     0.011 A 
ENDBRANCH   2  21
BRANCH   1  28
HETATM   28  C   UNL     1      -6.879   2.265 -32.727  1.00  0.00     0.293 C 
HETATM   29  O   UNL     1      -8.085   2.283 -32.926  1.00  0.00    -0.259 OA
BRANCH  28  30
HETATM   30  O   UNL     1      -5.987   1.549 -33.451  1.00  0.00    -0.318 OA
BRANCH  30  31
HETATM   31  C   UNL     1      -6.331   0.175 -33.693  1.00  0.00     0.174 C 
HETATM   32  C   UNL     1      -6.862  -0.002 -35.103  1.00  0.00     0.034 C 
ENDBRANCH  30  31
ENDBRANCH  28  30
ENDBRANCH   1  28
TORSDOF 7
ENDMDL
