MODEL 1
REMARK VINA RESULT:      -8.8      0.000      0.000
REMARK  5 active torsions:
REMARK  status: ('A' for Active; 'I' for Inactive)
REMARK    1  A    between atoms: C_6  and  N_7 
REMARK       I    between atoms: N_7  and  C_8 
REMARK       I    between atoms: C_8  and  N_9 
REMARK    2  A    between atoms: N_9  and  N_10 
REMARK       I    between atoms: N_10  and  C_11 
REMARK    3  A    between atoms: C_11  and  C_12 
REMARK    4  A    between atoms: C_12  and  N_13 
REMARK       I    between atoms: N_13  and  C_14 
REMARK       I    between atoms: C_14  and  N_15 
REMARK    5  A    between atoms: N_15  and  C_16 
ROOT
HETATM    1  N   UNL     1      -4.685   2.507 -32.498  1.00  0.00    -0.265 N 
HETATM    2  C   UNL     1      -3.401   2.769 -32.044  1.00  0.00     0.253 C 
HETATM    3  O   UNL     1      -2.888   2.146 -31.112  1.00  0.00    -0.270 OA
HETATM    4  H   UNL     1      -5.182   3.304 -32.913  1.00  0.00     0.190 HD
ENDROOT
BRANCH   2   5
HETATM    5  C   UNL     1      -2.721   4.021 -32.619  1.00  0.00     0.228 C 
BRANCH   5   6
HETATM    6  N   UNL     1      -1.566   4.592 -31.937  1.00  0.00    -0.334 N 
HETATM    7  C   UNL     1      -1.732   5.543 -30.959  1.00  0.00     0.321 C 
HETATM    8  N   UNL     1      -0.645   5.627 -30.123  1.00  0.00    -0.309 N 
HETATM    9  O   UNL     1      -2.752   6.221 -30.908  1.00  0.00    -0.247 OA
HETATM   10  H   UNL     1      -0.010   4.843 -30.133  1.00  0.00     0.170 HD
HETATM   11  H   UNL     1      -0.767   3.983 -31.854  1.00  0.00     0.164 HD
BRANCH   8  12
HETATM   12  C   UNL     1      -0.456   6.563 -29.083  1.00  0.00     0.038 A 
HETATM   13  C   UNL     1      -1.353   6.737 -28.026  1.00  0.00     0.055 A 
HETATM   14  C   UNL     1      -1.108   7.696 -27.033  1.00  0.00     0.058 A 
HETATM   15 CL   UNL     1      -2.277   7.863 -25.772  1.00  0.00    -0.082 Cl
HETATM   16  C   UNL     1       0.044   8.486 -27.091  1.00  0.00     0.055 A 
HETATM   17 CL   UNL     1       0.416   9.680 -25.901  1.00  0.00    -0.083 Cl
HETATM   18  C   UNL     1       0.940   8.320 -28.149  1.00  0.00     0.028 A 
HETATM   19  C   UNL     1       0.687   7.371 -29.144  1.00  0.00     0.031 A 
ENDBRANCH   8  12
ENDBRANCH   5   6
ENDBRANCH   2   5
BRANCH   1  20
HETATM   20  N   UNL     1      -5.480   1.697 -31.659  1.00  0.00    -0.249 N 
HETATM   21  C   UNL     1      -5.708   0.359 -31.891  1.00  0.00     0.339 C 
HETATM   22  N   UNL     1      -5.250  -0.077 -33.109  1.00  0.00    -0.308 N 
HETATM   23  O   UNL     1      -6.278  -0.311 -31.036  1.00  0.00    -0.245 OA
HETATM   24  H   UNL     1      -4.701   0.616 -33.597  1.00  0.00     0.170 HD
HETATM   25  H   UNL     1      -5.604   2.002 -30.696  1.00  0.00     0.192 HD
BRANCH  22  26
HETATM   26  C   UNL     1      -5.353  -1.367 -33.662  1.00  0.00     0.038 A 
HETATM   27  C   UNL     1      -4.338  -2.325 -33.587  1.00  0.00     0.053 A 
HETATM   28  C   UNL     1      -4.521  -3.584 -34.163  1.00  0.00     0.036 A 
HETATM   29  C   UNL     1      -5.708  -3.902 -34.819  1.00  0.00     0.024 A 
HETATM   30 CL   UNL     1      -3.269  -4.763 -34.063  1.00  0.00    -0.084 Cl
HETATM   31  C   UNL     1      -6.726  -2.954 -34.895  1.00  0.00     0.004 A 
HETATM   32  C   UNL     1      -6.549  -1.694 -34.314  1.00  0.00     0.029 A 
ENDBRANCH  22  26
ENDBRANCH   1  20
TORSDOF 5
ENDMDL
MODEL 2
REMARK VINA RESULT:      -8.8      5.297      7.827
REMARK  5 active torsions:
REMARK  status: ('A' for Active; 'I' for Inactive)
REMARK    1  A    between atoms: C_6  and  N_7 
REMARK       I    between atoms: N_7  and  C_8 
REMARK       I    between atoms: C_8  and  N_9 
REMARK    2  A    between atoms: N_9  and  N_10 
REMARK       I    between atoms: N_10  and  C_11 
REMARK    3  A    between atoms: C_11  and  C_12 
REMARK    4  A    between atoms: C_12  and  N_13 
REMARK       I    between atoms: N_13  and  C_14 
REMARK       I    between atoms: C_14  and  N_15 
REMARK    5  A    between atoms: N_15  and  C_16 
ROOT
HETATM    1  N   UNL     1      -3.332   3.068 -32.451  1.00  0.00    -0.265 N 
HETATM    2  C   UNL     1      -3.898   4.287 -32.110  1.00  0.00     0.253 C 
HETATM    3  O   UNL     1      -4.230   4.563 -30.955  1.00  0.00    -0.270 OA
HETATM    4  H   UNL     1      -3.507   2.748 -33.411  1.00  0.00     0.190 HD
ENDROOT
BRANCH   2   5
HETATM    5  C   UNL     1      -4.291   5.203 -33.279  1.00  0.00     0.228 C 
BRANCH   5   6
HETATM    6  N   UNL     1      -5.700   5.410 -33.591  1.00  0.00    -0.334 N 
HETATM    7  C   UNL     1      -6.525   4.341 -33.845  1.00  0.00     0.321 C 
HETATM    8  N   UNL     1      -7.851   4.647 -33.658  1.00  0.00    -0.309 N 
HETATM    9  O   UNL     1      -6.064   3.267 -34.215  1.00  0.00    -0.247 OA
HETATM   10  H   UNL     1      -8.046   5.474 -33.113  1.00  0.00     0.170 HD
HETATM   11  H   UNL     1      -6.121   6.225 -33.171  1.00  0.00     0.164 HD
BRANCH   8  12
HETATM   12  C   UNL     1      -8.952   3.807 -33.926  1.00  0.00     0.038 A 
HETATM   13  C   UNL     1      -9.088   2.518 -33.404  1.00  0.00     0.055 A 
HETATM   14  C   UNL     1     -10.204   1.732 -33.724  1.00  0.00     0.058 A 
HETATM   15 CL   UNL     1     -10.285   0.141 -33.055  1.00  0.00    -0.082 Cl
HETATM   16  C   UNL     1     -11.198   2.238 -34.567  1.00  0.00     0.055 A 
HETATM   17 CL   UNL     1     -12.603   1.333 -34.998  1.00  0.00    -0.083 Cl
HETATM   18  C   UNL     1     -11.065   3.523 -35.096  1.00  0.00     0.028 A 
HETATM   19  C   UNL     1      -9.943   4.299 -34.785  1.00  0.00     0.031 A 
ENDBRANCH   8  12
ENDBRANCH   5   6
ENDBRANCH   2   5
BRANCH   1  20
HETATM   20  N   UNL     1      -3.420   2.054 -31.474  1.00  0.00    -0.249 N 
HETATM   21  C   UNL     1      -3.910   0.793 -31.731  1.00  0.00     0.339 C 
HETATM   22  N   UNL     1      -4.482   0.664 -32.972  1.00  0.00    -0.308 N 
HETATM   23  O   UNL     1      -3.809  -0.078 -30.873  1.00  0.00    -0.245 OA
HETATM   24  H   UNL     1      -4.341   1.474 -33.559  1.00  0.00     0.170 HD
HETATM   25  H   UNL     1      -2.803   2.128 -30.667  1.00  0.00     0.192 HD
BRANCH  22  26
HETATM   26  C   UNL     1      -5.100  -0.471 -33.527  1.00  0.00     0.038 A 
HETATM   27  C   UNL     1      -4.477  -1.718 -33.634  1.00  0.00     0.053 A 
HETATM   28  C   UNL     1      -5.162  -2.796 -34.200  1.00  0.00     0.036 A 
HETATM   29  C   UNL     1      -6.466  -2.646 -34.665  1.00  0.00     0.024 A 
HETATM   30 CL   UNL     1      -4.390  -4.331 -34.324  1.00  0.00    -0.084 Cl
HETATM   31  C   UNL     1      -7.095  -1.408 -34.559  1.00  0.00     0.004 A 
HETATM   32  C   UNL     1      -6.415  -0.328 -33.988  1.00  0.00     0.029 A 
ENDBRANCH  22  26
ENDBRANCH   1  20
TORSDOF 5
ENDMDL
MODEL 3
REMARK VINA RESULT:      -8.8      1.619     11.326
REMARK  5 active torsions:
REMARK  status: ('A' for Active; 'I' for Inactive)
REMARK    1  A    between atoms: C_6  and  N_7 
REMARK       I    between atoms: N_7  and  C_8 
REMARK       I    between atoms: C_8  and  N_9 
REMARK    2  A    between atoms: N_9  and  N_10 
REMARK       I    between atoms: N_10  and  C_11 
REMARK    3  A    between atoms: C_11  and  C_12 
REMARK    4  A    between atoms: C_12  and  N_13 
REMARK       I    between atoms: N_13  and  C_14 
REMARK       I    between atoms: C_14  and  N_15 
REMARK    5  A    between atoms: N_15  and  C_16 
ROOT
HETATM    1  N   UNL     1      -1.936   4.403 -31.049  1.00  0.00    -0.265 N 
HETATM    2  C   UNL     1      -2.812   3.823 -31.953  1.00  0.00     0.253 C 
HETATM    3  O   UNL     1      -2.605   3.821 -33.168  1.00  0.00    -0.270 OA
HETATM    4  H   UNL     1      -2.359   4.761 -30.184  1.00  0.00     0.190 HD
ENDROOT
BRANCH   2   5
HETATM    5  C   UNL     1      -4.166   3.367 -31.388  1.00  0.00     0.228 C 
BRANCH   5   6
HETATM    6  N   UNL     1      -4.426   1.945 -31.197  1.00  0.00    -0.334 N 
HETATM    7  C   UNL     1      -4.797   1.154 -32.258  1.00  0.00     0.321 C 
HETATM    8  N   UNL     1      -4.551  -0.178 -32.027  1.00  0.00    -0.309 N 
HETATM    9  O   UNL     1      -5.304   1.644 -33.260  1.00  0.00    -0.247 OA
HETATM   10  H   UNL     1      -3.906  -0.391 -31.281  1.00  0.00     0.170 HD
HETATM   11  H   UNL     1      -3.902   1.504 -30.457  1.00  0.00     0.164 HD
BRANCH   8  12
HETATM   12  C   UNL     1      -4.903  -1.255 -32.869  1.00  0.00     0.038 A 
HETATM   13  C   UNL     1      -4.073  -2.353 -33.109  1.00  0.00     0.055 A 
HETATM   14  C   UNL     1      -4.481  -3.382 -33.969  1.00  0.00     0.058 A 
HETATM   15 CL   UNL     1      -3.387  -4.693 -34.230  1.00  0.00    -0.082 Cl
HETATM   16  C   UNL     1      -5.731  -3.320 -34.591  1.00  0.00     0.055 A 
HETATM   17 CL   UNL     1      -6.306  -4.552 -35.654  1.00  0.00    -0.083 Cl
HETATM   18  C   UNL     1      -6.563  -2.222 -34.359  1.00  0.00     0.028 A 
HETATM   19  C   UNL     1      -6.146  -1.191 -33.511  1.00  0.00     0.031 A 
ENDBRANCH   8  12
ENDBRANCH   5   6
ENDBRANCH   2   5
BRANCH   1  20
HETATM   20  N   UNL     1      -0.945   5.241 -31.604  1.00  0.00    -0.249 N 
HETATM   21  C   UNL     1      -0.223   6.154 -30.866  1.00  0.00     0.339 C 
HETATM   22  N   UNL     1      -0.681   6.313 -29.582  1.00  0.00    -0.308 N 
HETATM   23  O   UNL     1       0.725   6.732 -31.387  1.00  0.00    -0.245 OA
HETATM   24  H   UNL     1      -1.394   5.643 -29.330  1.00  0.00     0.170 HD
HETATM   25  H   UNL     1      -0.510   4.938 -32.472  1.00  0.00     0.192 HD
BRANCH  22  26
HETATM   26  C   UNL     1      -0.192   7.183 -28.591  1.00  0.00     0.038 A 
HETATM   27  C   UNL     1      -0.670   8.482 -28.396  1.00  0.00     0.053 A 
HETATM   28  C   UNL     1      -0.130   9.283 -27.388  1.00  0.00     0.036 A 
HETATM   29  C   UNL     1       0.888   8.804 -26.567  1.00  0.00     0.024 A 
HETATM   30 CL   UNL     1      -0.727  10.881 -27.150  1.00  0.00    -0.084 Cl
HETATM   31  C   UNL     1       1.367   7.509 -26.751  1.00  0.00     0.004 A 
HETATM   32  C   UNL     1       0.825   6.702 -27.756  1.00  0.00     0.029 A 
ENDBRANCH  22  26
ENDBRANCH   1  20
TORSDOF 5
ENDMDL
MODEL 4
REMARK VINA RESULT:      -8.7      5.355      8.870
REMARK  5 active torsions:
REMARK  status: ('A' for Active; 'I' for Inactive)
REMARK    1  A    between atoms: C_6  and  N_7 
REMARK       I    between atoms: N_7  and  C_8 
REMARK       I    between atoms: C_8  and  N_9 
REMARK    2  A    between atoms: N_9  and  N_10 
REMARK       I    between atoms: N_10  and  C_11 
REMARK    3  A    between atoms: C_11  and  C_12 
REMARK    4  A    between atoms: C_12  and  N_13 
REMARK       I    between atoms: N_13  and  C_14 
REMARK       I    between atoms: C_14  and  N_15 
REMARK    5  A    between atoms: N_15  and  C_16 
ROOT
HETATM    1  N   UNL     1      -5.683   3.286 -29.620  1.00  0.00    -0.265 N 
HETATM    2  C   UNL     1      -4.805   3.995 -30.425  1.00  0.00     0.253 C 
HETATM    3  O   UNL     1      -5.000   5.169 -30.745  1.00  0.00    -0.270 OA
HETATM    4  H   UNL     1      -5.708   2.271 -29.772  1.00  0.00     0.190 HD
ENDROOT
BRANCH   2   5
HETATM    5  C   UNL     1      -3.678   3.180 -31.079  1.00  0.00     0.228 C 
BRANCH   5   6
HETATM    6  N   UNL     1      -3.929   2.479 -32.333  1.00  0.00    -0.334 N 
HETATM    7  C   UNL     1      -4.253   1.143 -32.333  1.00  0.00     0.321 C 
HETATM    8  N   UNL     1      -4.895   0.762 -33.487  1.00  0.00    -0.309 N 
HETATM    9  O   UNL     1      -3.955   0.424 -31.387  1.00  0.00    -0.247 OA
HETATM   10  H   UNL     1      -5.292   1.505 -34.045  1.00  0.00     0.170 HD
HETATM   11  H   UNL     1      -4.308   3.044 -33.077  1.00  0.00     0.164 HD
BRANCH   8  12
HETATM   12  C   UNL     1      -5.273  -0.550 -33.843  1.00  0.00     0.038 A 
HETATM   13  C   UNL     1      -4.413  -1.649 -33.771  1.00  0.00     0.055 A 
HETATM   14  C   UNL     1      -4.851  -2.924 -34.154  1.00  0.00     0.058 A 
HETATM   15 CL   UNL     1      -3.720  -4.226 -34.056  1.00  0.00    -0.082 Cl
HETATM   16  C   UNL     1      -6.161  -3.108 -34.608  1.00  0.00     0.055 A 
HETATM   17 CL   UNL     1      -6.774  -4.648 -35.088  1.00  0.00    -0.083 Cl
HETATM   18  C   UNL     1      -7.022  -2.011 -34.687  1.00  0.00     0.028 A 
HETATM   19  C   UNL     1      -6.577  -0.738 -34.316  1.00  0.00     0.031 A 
ENDBRANCH   8  12
ENDBRANCH   5   6
ENDBRANCH   2   5
BRANCH   1  20
HETATM   20  N   UNL     1      -6.949   3.878 -29.422  1.00  0.00    -0.249 N 
HETATM   21  C   UNL     1      -8.089   3.466 -30.077  1.00  0.00     0.339 C 
HETATM   22  N   UNL     1      -7.854   2.557 -31.078  1.00  0.00    -0.308 N 
HETATM   23  O   UNL     1      -9.175   3.923 -29.737  1.00  0.00    -0.245 OA
HETATM   24  H   UNL     1      -6.899   2.228 -31.098  1.00  0.00     0.170 HD
HETATM   25  H   UNL     1      -7.102   4.373 -28.546  1.00  0.00     0.192 HD
BRANCH  22  26
HETATM   26  C   UNL     1      -8.788   1.969 -31.951  1.00  0.00     0.038 A 
HETATM   27  C   UNL     1      -9.501   2.684 -32.918  1.00  0.00     0.053 A 
HETATM   28  C   UNL     1     -10.412   2.024 -33.746  1.00  0.00     0.036 A 
HETATM   29  C   UNL     1     -10.624   0.653 -33.620  1.00  0.00     0.024 A 
HETATM   30 CL   UNL     1     -11.283   2.909 -34.939  1.00  0.00    -0.084 Cl
HETATM   31  C   UNL     1      -9.915  -0.067 -32.662  1.00  0.00     0.004 A 
HETATM   32  C   UNL     1      -8.998   0.589 -31.835  1.00  0.00     0.029 A 
ENDBRANCH  22  26
ENDBRANCH   1  20
TORSDOF 5
ENDMDL
MODEL 5
REMARK VINA RESULT:      -8.6      4.455      5.980
REMARK  5 active torsions:
REMARK  status: ('A' for Active; 'I' for Inactive)
REMARK    1  A    between atoms: C_6  and  N_7 
REMARK       I    between atoms: N_7  and  C_8 
REMARK       I    between atoms: C_8  and  N_9 
REMARK    2  A    between atoms: N_9  and  N_10 
REMARK       I    between atoms: N_10  and  C_11 
REMARK    3  A    between atoms: C_11  and  C_12 
REMARK    4  A    between atoms: C_12  and  N_13 
REMARK       I    between atoms: N_13  and  C_14 
REMARK       I    between atoms: C_14  and  N_15 
REMARK    5  A    between atoms: N_15  and  C_16 
ROOT
HETATM    1  N   UNL     1     -10.208   3.069 -33.016  1.00  0.00    -0.265 N 
HETATM    2  C   UNL     1     -10.624   3.619 -34.218  1.00  0.00     0.253 C 
HETATM    3  O   UNL     1     -11.487   3.093 -34.924  1.00  0.00    -0.270 OA
HETATM    4  H   UNL     1      -9.241   3.277 -32.740  1.00  0.00     0.190 HD
ENDROOT
BRANCH   2   5
HETATM    5  C   UNL     1      -9.805   4.810 -34.738  1.00  0.00     0.228 C 
BRANCH   5   6
HETATM    6  N   UNL     1      -8.812   5.436 -33.872  1.00  0.00    -0.334 N 
HETATM    7  C   UNL     1      -7.531   4.942 -33.807  1.00  0.00     0.321 C 
HETATM    8  N   UNL     1      -6.635   5.875 -33.344  1.00  0.00    -0.309 N 
HETATM    9  O   UNL     1      -7.289   3.783 -34.120  1.00  0.00    -0.247 OA
HETATM   10  H   UNL     1      -6.935   6.838 -33.377  1.00  0.00     0.170 HD
HETATM   11  H   UNL     1      -8.931   6.426 -33.723  1.00  0.00     0.164 HD
BRANCH   8  12
HETATM   12  C   UNL     1      -5.268   5.660 -33.068  1.00  0.00     0.038 A 
HETATM   13  C   UNL     1      -4.300   5.463 -34.057  1.00  0.00     0.055 A 
HETATM   14  C   UNL     1      -2.960   5.242 -33.710  1.00  0.00     0.058 A 
HETATM   15 CL   UNL     1      -1.830   4.985 -34.992  1.00  0.00    -0.082 Cl
HETATM   16  C   UNL     1      -2.579   5.223 -32.366  1.00  0.00     0.055 A 
HETATM   17 CL   UNL     1      -0.948   4.965 -31.863  1.00  0.00    -0.083 Cl
HETATM   18  C   UNL     1      -3.543   5.413 -31.373  1.00  0.00     0.028 A 
HETATM   19  C   UNL     1      -4.881   5.621 -31.723  1.00  0.00     0.031 A 
ENDBRANCH   8  12
ENDBRANCH   5   6
ENDBRANCH   2   5
BRANCH   1  20
HETATM   20  N   UNL     1     -10.606   1.735 -32.779  1.00  0.00    -0.249 N 
HETATM   21  C   UNL     1      -9.734   0.668 -32.798  1.00  0.00     0.339 C 
HETATM   22  N   UNL     1      -8.479   0.988 -33.252  1.00  0.00    -0.308 N 
HETATM   23  O   UNL     1     -10.125  -0.434 -32.430  1.00  0.00    -0.245 OA
HETATM   24  H   UNL     1      -8.345   1.981 -33.380  1.00  0.00     0.170 HD
HETATM   25  H   UNL     1     -11.463   1.590 -32.251  1.00  0.00     0.192 HD
BRANCH  22  26
HETATM   26  C   UNL     1      -7.376   0.131 -33.424  1.00  0.00     0.038 A 
HETATM   27  C   UNL     1      -6.313   0.045 -32.520  1.00  0.00     0.053 A 
HETATM   28  C   UNL     1      -5.255  -0.833 -32.766  1.00  0.00     0.036 A 
HETATM   29  C   UNL     1      -5.241  -1.629 -33.909  1.00  0.00     0.024 A 
HETATM   30 CL   UNL     1      -3.951  -0.937 -31.645  1.00  0.00    -0.084 Cl
HETATM   31  C   UNL     1      -6.298  -1.552 -34.812  1.00  0.00     0.004 A 
HETATM   32  C   UNL     1      -7.362  -0.679 -34.567  1.00  0.00     0.029 A 
ENDBRANCH  22  26
ENDBRANCH   1  20
TORSDOF 5
ENDMDL
MODEL 6
REMARK VINA RESULT:      -8.5      5.854      7.567
REMARK  5 active torsions:
REMARK  status: ('A' for Active; 'I' for Inactive)
REMARK    1  A    between atoms: C_6  and  N_7 
REMARK       I    between atoms: N_7  and  C_8 
REMARK       I    between atoms: C_8  and  N_9 
REMARK    2  A    between atoms: N_9  and  N_10 
REMARK       I    between atoms: N_10  and  C_11 
REMARK    3  A    between atoms: C_11  and  C_12 
REMARK    4  A    between atoms: C_12  and  N_13 
REMARK       I    between atoms: N_13  and  C_14 
REMARK       I    between atoms: C_14  and  N_15 
REMARK    5  A    between atoms: N_15  and  C_16 
ROOT
HETATM    1  N   UNL     1     -12.626   2.206 -33.212  1.00  0.00    -0.265 N 
HETATM    2  C   UNL     1     -12.681   2.890 -34.416  1.00  0.00     0.253 C 
HETATM    3  O   UNL     1     -12.921   2.328 -35.487  1.00  0.00    -0.270 OA
HETATM    4  H   UNL     1     -12.006   2.607 -32.498  1.00  0.00     0.190 HD
ENDROOT
BRANCH   2   5
HETATM    5  C   UNL     1     -12.216   4.354 -34.386  1.00  0.00     0.228 C 
BRANCH   5   6
HETATM    6  N   UNL     1     -10.797   4.663 -34.513  1.00  0.00    -0.334 N 
HETATM    7  C   UNL     1      -9.897   4.218 -33.574  1.00  0.00     0.321 C 
HETATM    8  N   UNL     1      -8.612   4.180 -34.058  1.00  0.00    -0.309 N 
HETATM    9  O   UNL     1     -10.265   3.924 -32.442  1.00  0.00    -0.247 OA
HETATM   10  H   UNL     1      -8.511   4.202 -35.062  1.00  0.00     0.170 HD
HETATM   11  H   UNL     1     -10.459   4.769 -35.457  1.00  0.00     0.164 HD
BRANCH   8  12
HETATM   12  C   UNL     1      -7.448   3.866 -33.324  1.00  0.00     0.038 A 
HETATM   13  C   UNL     1      -7.206   4.319 -32.025  1.00  0.00     0.055 A 
HETATM   14  C   UNL     1      -6.020   3.979 -31.359  1.00  0.00     0.058 A 
HETATM   15 CL   UNL     1      -5.788   4.597 -29.762  1.00  0.00    -0.082 Cl
HETATM   16  C   UNL     1      -5.068   3.175 -31.993  1.00  0.00     0.055 A 
HETATM   17 CL   UNL     1      -3.590   2.708 -31.234  1.00  0.00    -0.083 Cl
HETATM   18  C   UNL     1      -5.302   2.725 -33.294  1.00  0.00     0.028 A 
HETATM   19  C   UNL     1      -6.481   3.077 -33.959  1.00  0.00     0.031 A 
ENDBRANCH   8  12
ENDBRANCH   5   6
ENDBRANCH   2   5
BRANCH   1  20
HETATM   20  N   UNL     1     -12.570   0.798 -33.306  1.00  0.00    -0.249 N 
HETATM   21  C   UNL     1     -11.430   0.066 -33.062  1.00  0.00     0.339 C 
HETATM   22  N   UNL     1     -10.303   0.833 -32.904  1.00  0.00    -0.308 N 
HETATM   23  O   UNL     1     -11.500  -1.158 -33.012  1.00  0.00    -0.245 OA
HETATM   24  H   UNL     1     -10.500   1.823 -32.860  1.00  0.00     0.170 HD
HETATM   25  H   UNL     1     -13.446   0.289 -33.211  1.00  0.00     0.192 HD
BRANCH  22  26
HETATM   26  C   UNL     1      -8.984   0.399 -32.679  1.00  0.00     0.038 A 
HETATM   27  C   UNL     1      -8.218  -0.281 -33.631  1.00  0.00     0.053 A 
HETATM   28  C   UNL     1      -6.915  -0.678 -33.326  1.00  0.00     0.036 A 
HETATM   29  C   UNL     1      -6.361  -0.408 -32.077  1.00  0.00     0.024 A 
HETATM   30 CL   UNL     1      -5.975  -1.510 -34.506  1.00  0.00    -0.084 Cl
HETATM   31  C   UNL     1      -7.116   0.272 -31.124  1.00  0.00     0.004 A 
HETATM   32  C   UNL     1      -8.419   0.677 -31.427  1.00  0.00     0.029 A 
ENDBRANCH  22  26
ENDBRANCH   1  20
TORSDOF 5
ENDMDL
MODEL 7
REMARK VINA RESULT:      -8.5      7.614     10.690
REMARK  5 active torsions:
REMARK  status: ('A' for Active; 'I' for Inactive)
REMARK    1  A    between atoms: C_6  and  N_7 
REMARK       I    between atoms: N_7  and  C_8 
REMARK       I    between atoms: C_8  and  N_9 
REMARK    2  A    between atoms: N_9  and  N_10 
REMARK       I    between atoms: N_10  and  C_11 
REMARK    3  A    between atoms: C_11  and  C_12 
REMARK    4  A    between atoms: C_12  and  N_13 
REMARK       I    between atoms: N_13  and  C_14 
REMARK       I    between atoms: C_14  and  N_15 
REMARK    5  A    between atoms: N_15  and  C_16 
ROOT
HETATM    1  N   UNL     1     -14.300   2.980 -33.468  1.00  0.00    -0.265 N 
HETATM    2  C   UNL     1     -14.858   1.838 -32.916  1.00  0.00     0.253 C 
HETATM    3  O   UNL     1     -15.431   1.841 -31.825  1.00  0.00    -0.270 OA
HETATM    4  H   UNL     1     -13.496   2.829 -34.089  1.00  0.00     0.190 HD
ENDROOT
BRANCH   2   5
HETATM    5  C   UNL     1     -14.544   0.516 -33.633  1.00  0.00     0.228 C 
BRANCH   5   6
HETATM    6  N   UNL     1     -13.299  -0.186 -33.339  1.00  0.00    -0.334 N 
HETATM    7  C   UNL     1     -12.086   0.426 -33.545  1.00  0.00     0.321 C 
HETATM    8  N   UNL     1     -11.078  -0.150 -32.811  1.00  0.00    -0.309 N 
HETATM    9  O   UNL     1     -11.981   1.363 -34.328  1.00  0.00    -0.247 OA
HETATM   10  H   UNL     1     -11.365  -0.729 -32.035  1.00  0.00     0.170 HD
HETATM   11  H   UNL     1     -13.350  -0.865 -32.595  1.00  0.00     0.164 HD
BRANCH   8  12
HETATM   12  C   UNL     1      -9.707   0.175 -32.868  1.00  0.00     0.038 A 
HETATM   13  C   UNL     1      -8.994   0.319 -34.061  1.00  0.00     0.055 A 
HETATM   14  C   UNL     1      -7.628   0.631 -34.044  1.00  0.00     0.058 A 
HETATM   15 CL   UNL     1      -6.815   0.770 -35.562  1.00  0.00    -0.082 Cl
HETATM   16  C   UNL     1      -6.965   0.807 -32.825  1.00  0.00     0.055 A 
HETATM   17 CL   UNL     1      -5.287   1.200 -32.725  1.00  0.00    -0.083 Cl
HETATM   18  C   UNL     1      -7.671   0.659 -31.630  1.00  0.00     0.028 A 
HETATM   19  C   UNL     1      -9.031   0.335 -31.651  1.00  0.00     0.031 A 
ENDBRANCH   8  12
ENDBRANCH   5   6
ENDBRANCH   2   5
BRANCH   1  20
HETATM   20  N   UNL     1     -14.163   4.081 -32.595  1.00  0.00    -0.249 N 
HETATM   21  C   UNL     1     -12.948   4.536 -32.133  1.00  0.00     0.339 C 
HETATM   22  N   UNL     1     -11.895   3.713 -32.443  1.00  0.00    -0.308 N 
HETATM   23  O   UNL     1     -12.899   5.589 -31.506  1.00  0.00    -0.245 OA
HETATM   24  H   UNL     1     -12.148   2.966 -33.074  1.00  0.00     0.170 HD
HETATM   25  H   UNL     1     -14.920   4.761 -32.578  1.00  0.00     0.192 HD
BRANCH  22  26
HETATM   26  C   UNL     1     -10.541   3.870 -32.094  1.00  0.00     0.038 A 
HETATM   27  C   UNL     1      -9.519   4.070 -33.026  1.00  0.00     0.053 A 
HETATM   28  C   UNL     1      -8.198   4.216 -32.596  1.00  0.00     0.036 A 
HETATM   29  C   UNL     1      -7.881   4.164 -31.240  1.00  0.00     0.024 A 
HETATM   30 CL   UNL     1      -6.944   4.468 -33.750  1.00  0.00    -0.084 Cl
HETATM   31  C   UNL     1      -8.894   3.969 -30.305  1.00  0.00     0.004 A 
HETATM   32  C   UNL     1     -10.218   3.827 -30.732  1.00  0.00     0.029 A 
ENDBRANCH  22  26
ENDBRANCH   1  20
TORSDOF 5
ENDMDL
MODEL 8
REMARK VINA RESULT:      -8.4      2.279      2.665
REMARK  5 active torsions:
REMARK  status: ('A' for Active; 'I' for Inactive)
REMARK    1  A    between atoms: C_6  and  N_7 
REMARK       I    between atoms: N_7  and  C_8 
REMARK       I    between atoms: C_8  and  N_9 
REMARK    2  A    between atoms: N_9  and  N_10 
REMARK       I    between atoms: N_10  and  C_11 
REMARK    3  A    between atoms: C_11  and  C_12 
REMARK    4  A    between atoms: C_12  and  N_13 
REMARK       I    between atoms: N_13  and  C_14 
REMARK       I    between atoms: C_14  and  N_15 
REMARK    5  A    between atoms: N_15  and  C_16 
ROOT
HETATM    1  N   UNL     1      -5.939   2.859 -33.363  1.00  0.00    -0.265 N 
HETATM    2  C   UNL     1      -6.109   4.106 -33.945  1.00  0.00     0.253 C 
HETATM    3  O   UNL     1      -7.222   4.565 -34.213  1.00  0.00    -0.270 OA
HETATM    4  H   UNL     1      -5.059   2.379 -33.587  1.00  0.00     0.190 HD
ENDROOT
BRANCH   2   5
HETATM    5  C   UNL     1      -4.833   4.804 -34.439  1.00  0.00     0.228 C 
BRANCH   5   6
HETATM    6  N   UNL     1      -4.276   5.914 -33.674  1.00  0.00    -0.334 N 
HETATM    7  C   UNL     1      -3.490   5.678 -32.572  1.00  0.00     0.321 C 
HETATM    8  N   UNL     1      -2.690   6.752 -32.261  1.00  0.00    -0.309 N 
HETATM    9  O   UNL     1      -3.559   4.615 -31.967  1.00  0.00    -0.247 OA
HETATM   10  H   UNL     1      -2.560   7.438 -32.990  1.00  0.00     0.170 HD
HETATM   11  H   UNL     1      -4.087   6.752 -34.202  1.00  0.00     0.164 HD
BRANCH   8  12
HETATM   12  C   UNL     1      -1.844   6.870 -31.139  1.00  0.00     0.038 A 
HETATM   13  C   UNL     1      -2.310   6.982 -29.826  1.00  0.00     0.055 A 
HETATM   14  C   UNL     1      -1.411   7.110 -28.758  1.00  0.00     0.058 A 
HETATM   15 CL   UNL     1      -2.068   7.264 -27.168  1.00  0.00    -0.082 Cl
HETATM   16  C   UNL     1      -0.034   7.122 -28.999  1.00  0.00     0.055 A 
HETATM   17 CL   UNL     1       1.133   7.268 -27.735  1.00  0.00    -0.083 Cl
HETATM   18  C   UNL     1       0.437   7.017 -30.310  1.00  0.00     0.028 A 
HETATM   19  C   UNL     1      -0.463   6.902 -31.374  1.00  0.00     0.031 A 
ENDBRANCH   8  12
ENDBRANCH   5   6
ENDBRANCH   2   5
BRANCH   1  20
HETATM   20  N   UNL     1      -7.075   2.022 -33.359  1.00  0.00    -0.249 N 
HETATM   21  C   UNL     1      -7.005   0.647 -33.415  1.00  0.00     0.339 C 
HETATM   22  N   UNL     1      -5.744   0.168 -33.666  1.00  0.00    -0.308 N 
HETATM   23  O   UNL     1      -8.025  -0.014 -33.249  1.00  0.00    -0.245 OA
HETATM   24  H   UNL     1      -5.035   0.886 -33.643  1.00  0.00     0.170 HD
HETATM   25  H   UNL     1      -7.933   2.401 -32.963  1.00  0.00     0.192 HD
BRANCH  22  26
HETATM   26  C   UNL     1      -5.341  -1.172 -33.818  1.00  0.00     0.038 A 
HETATM   27  C   UNL     1      -6.016  -2.098 -34.618  1.00  0.00     0.053 A 
HETATM   28  C   UNL     1      -5.550  -3.411 -34.714  1.00  0.00     0.036 A 
HETATM   29  C   UNL     1      -4.414  -3.816 -34.016  1.00  0.00     0.024 A 
HETATM   30 CL   UNL     1      -6.383  -4.546 -35.706  1.00  0.00    -0.084 Cl
HETATM   31  C   UNL     1      -3.734  -2.898 -33.219  1.00  0.00     0.004 A 
HETATM   32  C   UNL     1      -4.194  -1.582 -33.125  1.00  0.00     0.029 A 
ENDBRANCH  22  26
ENDBRANCH   1  20
TORSDOF 5
ENDMDL
MODEL 9
REMARK VINA RESULT:      -8.4      5.178      7.288
REMARK  5 active torsions:
REMARK  status: ('A' for Active; 'I' for Inactive)
REMARK    1  A    between atoms: C_6  and  N_7 
REMARK       I    between atoms: N_7  and  C_8 
REMARK       I    between atoms: C_8  and  N_9 
REMARK    2  A    between atoms: N_9  and  N_10 
REMARK       I    between atoms: N_10  and  C_11 
REMARK    3  A    between atoms: C_11  and  C_12 
REMARK    4  A    between atoms: C_12  and  N_13 
REMARK       I    between atoms: N_13  and  C_14 
REMARK       I    between atoms: C_14  and  N_15 
REMARK    5  A    between atoms: N_15  and  C_16 
ROOT
HETATM    1  N   UNL     1      -3.522   2.900 -32.566  1.00  0.00    -0.265 N 
HETATM    2  C   UNL     1      -2.793   4.057 -32.338  1.00  0.00     0.253 C 
HETATM    3  O   UNL     1      -1.889   4.116 -31.502  1.00  0.00    -0.270 OA
HETATM    4  H   UNL     1      -4.484   3.037 -32.897  1.00  0.00     0.190 HD
ENDROOT
BRANCH   2   5
HETATM    5  C   UNL     1      -3.305   5.329 -33.030  1.00  0.00     0.228 C 
BRANCH   5   6
HETATM    6  N   UNL     1      -4.710   5.701 -32.907  1.00  0.00    -0.334 N 
HETATM    7  C   UNL     1      -5.668   5.082 -33.674  1.00  0.00     0.321 C 
HETATM    8  N   UNL     1      -6.925   5.194 -33.131  1.00  0.00    -0.309 N 
HETATM    9  O   UNL     1      -5.368   4.530 -34.726  1.00  0.00    -0.247 OA
HETATM   10  H   UNL     1      -6.970   5.445 -32.155  1.00  0.00     0.170 HD
HETATM   11  H   UNL     1      -4.993   6.028 -31.996  1.00  0.00     0.164 HD
BRANCH   8  12
HETATM   12  C   UNL     1      -8.133   4.757 -33.715  1.00  0.00     0.038 A 
HETATM   13  C   UNL     1      -9.083   5.621 -34.266  1.00  0.00     0.055 A 
HETATM   14  C   UNL     1     -10.269   5.119 -34.818  1.00  0.00     0.058 A 
HETATM   15 CL   UNL     1     -11.402   6.255 -35.459  1.00  0.00    -0.082 Cl
HETATM   16  C   UNL     1     -10.509   3.741 -34.828  1.00  0.00     0.055 A 
HETATM   17 CL   UNL     1     -11.941   3.049 -35.497  1.00  0.00    -0.083 Cl
HETATM   18  C   UNL     1      -9.565   2.874 -34.273  1.00  0.00     0.028 A 
HETATM   19  C   UNL     1      -8.389   3.380 -33.711  1.00  0.00     0.031 A 
ENDBRANCH   8  12
ENDBRANCH   5   6
ENDBRANCH   2   5
BRANCH   1  20
HETATM   20  N   UNL     1      -3.379   1.883 -31.598  1.00  0.00    -0.249 N 
HETATM   21  C   UNL     1      -3.687   0.561 -31.835  1.00  0.00     0.339 C 
HETATM   22  N   UNL     1      -4.324   0.348 -33.032  1.00  0.00    -0.308 N 
HETATM   23  O   UNL     1      -3.390  -0.285 -30.998  1.00  0.00    -0.245 OA
HETATM   24  H   UNL     1      -4.353   1.171 -33.617  1.00  0.00     0.170 HD
HETATM   25  H   UNL     1      -2.723   2.050 -30.838  1.00  0.00     0.192 HD
BRANCH  22  26
HETATM   26  C   UNL     1      -4.799  -0.868 -33.555  1.00  0.00     0.038 A 
HETATM   27  C   UNL     1      -4.054  -2.051 -33.566  1.00  0.00     0.053 A 
HETATM   28  C   UNL     1      -4.600  -3.218 -34.106  1.00  0.00     0.036 A 
HETATM   29  C   UNL     1      -5.886  -3.220 -34.641  1.00  0.00     0.024 A 
HETATM   30 CL   UNL     1      -3.679  -4.673 -34.110  1.00  0.00    -0.084 Cl
HETATM   31  C   UNL     1      -6.636  -2.047 -34.630  1.00  0.00     0.004 A 
HETATM   32  C   UNL     1      -6.095  -0.879 -34.086  1.00  0.00     0.029 A 
ENDBRANCH  22  26
ENDBRANCH   1  20
TORSDOF 5
ENDMDL
MODEL 10
REMARK VINA RESULT:      -8.4      5.086      9.076
REMARK  5 active torsions:
REMARK  status: ('A' for Active; 'I' for Inactive)
REMARK    1  A    between atoms: C_6  and  N_7 
REMARK       I    between atoms: N_7  and  C_8 
REMARK       I    between atoms: C_8  and  N_9 
REMARK    2  A    between atoms: N_9  and  N_10 
REMARK       I    between atoms: N_10  and  C_11 
REMARK    3  A    between atoms: C_11  and  C_12 
REMARK    4  A    between atoms: C_12  and  N_13 
REMARK       I    between atoms: N_13  and  C_14 
REMARK       I    between atoms: C_14  and  N_15 
REMARK    5  A    between atoms: N_15  and  C_16 
ROOT
HETATM    1  N   UNL     1      -9.196   5.112 -34.411  1.00  0.00    -0.265 N 
HETATM    2  C   UNL     1     -10.217   4.281 -33.978  1.00  0.00     0.253 C 
HETATM    3  O   UNL     1     -10.764   4.419 -32.882  1.00  0.00    -0.270 OA
HETATM    4  H   UNL     1      -8.521   4.690 -35.060  1.00  0.00     0.190 HD
ENDROOT
BRANCH   2   5
HETATM    5  C   UNL     1     -10.493   3.041 -34.841  1.00  0.00     0.228 C 
BRANCH   5   6
HETATM    6  N   UNL     1     -10.015   1.735 -34.403  1.00  0.00    -0.334 N 
HETATM    7  C   UNL     1      -8.672   1.509 -34.214  1.00  0.00     0.321 C 
HETATM    8  N   UNL     1      -8.434   0.440 -33.385  1.00  0.00    -0.309 N 
HETATM    9  O   UNL     1      -7.834   2.209 -34.770  1.00  0.00    -0.247 OA
HETATM   10  H   UNL     1      -9.207   0.136 -32.812  1.00  0.00     0.170 HD
HETATM   11  H   UNL     1     -10.654   1.211 -33.825  1.00  0.00     0.164 HD
BRANCH   8  12
HETATM   12  C   UNL     1      -7.174  -0.111 -33.068  1.00  0.00     0.038 A 
HETATM   13  C   UNL     1      -6.507  -1.034 -33.879  1.00  0.00     0.055 A 
HETATM   14  C   UNL     1      -5.262  -1.551 -33.495  1.00  0.00     0.058 A 
HETATM   15 CL   UNL     1      -4.513  -2.704 -34.543  1.00  0.00    -0.082 Cl
HETATM   16  C   UNL     1      -4.672  -1.142 -32.295  1.00  0.00     0.055 A 
HETATM   17 CL   UNL     1      -3.139  -1.729 -31.762  1.00  0.00    -0.083 Cl
HETATM   18  C   UNL     1      -5.338  -0.225 -31.479  1.00  0.00     0.028 A 
HETATM   19  C   UNL     1      -6.586   0.279 -31.858  1.00  0.00     0.031 A 
ENDBRANCH   8  12
ENDBRANCH   5   6
ENDBRANCH   2   5
BRANCH   1  20
HETATM   20  N   UNL     1      -8.616   5.939 -33.425  1.00  0.00    -0.249 N 
HETATM   21  C   UNL     1      -7.281   5.898 -33.089  1.00  0.00     0.339 C 
HETATM   22  N   UNL     1      -6.599   4.854 -33.661  1.00  0.00    -0.308 N 
HETATM   23  O   UNL     1      -6.823   6.752 -32.337  1.00  0.00    -0.245 OA
HETATM   24  H   UNL     1      -7.146   4.350 -34.345  1.00  0.00     0.170 HD
HETATM   25  H   UNL     1      -9.097   6.808 -33.202  1.00  0.00     0.192 HD
BRANCH  22  26
HETATM   26  C   UNL     1      -5.244   4.512 -33.498  1.00  0.00     0.038 A 
HETATM   27  C   UNL     1      -4.202   5.112 -34.210  1.00  0.00     0.053 A 
HETATM   28  C   UNL     1      -2.882   4.713 -33.989  1.00  0.00     0.036 A 
HETATM   29  C   UNL     1      -2.585   3.716 -33.062  1.00  0.00     0.024 A 
HETATM   30 CL   UNL     1      -1.601   5.461 -34.866  1.00  0.00    -0.084 Cl
HETATM   31  C   UNL     1      -3.618   3.115 -32.346  1.00  0.00     0.004 A 
HETATM   32  C   UNL     1      -4.940   3.516 -32.561  1.00  0.00     0.029 A 
ENDBRANCH  22  26
ENDBRANCH   1  20
TORSDOF 5
ENDMDL
