MODEL 1
REMARK VINA RESULT:      -8.8      0.000      0.000
REMARK  4 active torsions:
REMARK  status: ('A' for Active; 'I' for Inactive)
REMARK    1  A    between atoms: C_2  and  C_3 
REMARK       I    between atoms: C_3  and  N_4 
REMARK    2  A    between atoms: N_4  and  C_5 
REMARK    3  A    between atoms: C_12  and  C_13 
REMARK       I    between atoms: C_13  and  N_14 
REMARK    4  A    between atoms: C_19  and  C_20 
ROOT
HETATM    1  C   UNL     1      -4.328   3.728 -32.915  1.00  0.00     0.036 A 
HETATM    2  C   UNL     1      -3.124   4.221 -32.380  1.00  0.00     0.046 A 
HETATM    3  C   UNL     1      -2.434   5.259 -33.039  1.00  0.00     0.030 A 
HETATM    4  C   UNL     1      -2.965   5.774 -34.212  1.00  0.00     0.063 A 
HETATM    5  N   UNL     1      -2.089   6.745 -34.611  1.00  0.00    -0.277 N 
HETATM    6  H   UNL     1      -2.159   7.333 -35.434  1.00  0.00     0.189 HD
HETATM    7  N   UNL     1      -1.031   6.907 -33.798  1.00  0.00    -0.168 NA
HETATM    8  C   UNL     1      -1.232   5.994 -32.820  1.00  0.00     0.156 A 
HETATM    9  C   UNL     1      -4.158   5.311 -34.772  1.00  0.00     0.034 A 
HETATM   10  C   UNL     1      -4.827   4.278 -34.098  1.00  0.00     0.032 A 
ENDROOT
BRANCH   1  11
HETATM   11  N   UNL     1      -4.947   2.673 -32.203  1.00  0.00    -0.323 N 
HETATM   12  C   UNL     1      -4.469   1.391 -32.001  1.00  0.00     0.251 C 
HETATM   13  O   UNL     1      -3.431   0.954 -32.484  1.00  0.00    -0.268 OA
HETATM   14  H   UNL     1      -5.844   2.913 -31.811  1.00  0.00     0.169 HD
BRANCH  12  15
HETATM   15  C   UNL     1      -5.338   0.531 -31.103  1.00  0.00     0.007 C 
HETATM   16  C   UNL     1      -5.663   1.021 -29.715  1.00  0.00     0.054 C 
HETATM   17  C   UNL     1      -5.837  -0.667 -31.483  1.00  0.00     0.025 C 
BRANCH  17  18
HETATM   18  C   UNL     1      -5.691  -1.395 -32.755  1.00  0.00    -0.014 A 
HETATM   19  C   UNL     1      -4.546  -2.158 -33.045  1.00  0.00     0.044 A 
HETATM   20 CL   UNL     1      -3.262  -2.349 -31.897  1.00  0.00    -0.083 Cl
HETATM   21  C   UNL     1      -4.402  -2.783 -34.289  1.00  0.00     0.024 A 
HETATM   22  C   UNL     1      -5.396  -2.651 -35.257  1.00  0.00     0.002 A 
HETATM   23  C   UNL     1      -6.532  -1.892 -34.984  1.00  0.00     0.001 A 
HETATM   24  C   UNL     1      -6.674  -1.260 -33.746  1.00  0.00     0.013 A 
ENDBRANCH  17  18
ENDBRANCH  12  15
ENDBRANCH   1  11
BRANCH   8  25
HETATM   25  C   UNL     1      -0.286   5.836 -31.708  1.00  0.00     0.270 C 
HETATM   26  N   UNL     1       0.011   7.002 -31.056  1.00  0.00    -0.365 N 
HETATM   27  H   UNL     1      -0.427   7.859 -31.372  1.00  0.00     0.159 HD
HETATM   28  H   UNL     1       0.648   6.993 -30.277  1.00  0.00     0.159 HD
HETATM   29  O   UNL     1       0.212   4.768 -31.367  1.00  0.00    -0.266 OA
ENDBRANCH   8  25
TORSDOF 4
ENDMDL
MODEL 2
REMARK VINA RESULT:      -8.6      5.062      7.816
REMARK  4 active torsions:
REMARK  status: ('A' for Active; 'I' for Inactive)
REMARK    1  A    between atoms: C_2  and  C_3 
REMARK       I    between atoms: C_3  and  N_4 
REMARK    2  A    between atoms: N_4  and  C_5 
REMARK    3  A    between atoms: C_12  and  C_13 
REMARK       I    between atoms: C_13  and  N_14 
REMARK    4  A    between atoms: C_19  and  C_20 
ROOT
HETATM    1  C   UNL     1      -9.280   1.943 -33.182  1.00  0.00     0.036 A 
HETATM    2  C   UNL     1     -10.471   1.201 -33.283  1.00  0.00     0.046 A 
HETATM    3  C   UNL     1     -11.536   1.684 -34.070  1.00  0.00     0.030 A 
HETATM    4  C   UNL     1     -11.382   2.892 -34.735  1.00  0.00     0.063 A 
HETATM    5  N   UNL     1     -12.559   3.093 -35.400  1.00  0.00    -0.277 N 
HETATM    6  H   UNL     1     -12.803   3.881 -35.991  1.00  0.00     0.189 HD
HETATM    7  N   UNL     1     -13.469   2.119 -35.226  1.00  0.00    -0.168 NA
HETATM    8  C   UNL     1     -12.849   1.240 -34.405  1.00  0.00     0.156 A 
HETATM    9  C   UNL     1     -10.214   3.654 -34.660  1.00  0.00     0.034 A 
HETATM   10  C   UNL     1      -9.168   3.153 -33.869  1.00  0.00     0.032 A 
ENDROOT
BRANCH   1  11
HETATM   11  N   UNL     1      -8.269   1.398 -32.356  1.00  0.00    -0.323 N 
HETATM   12  C   UNL     1      -6.900   1.552 -32.477  1.00  0.00     0.251 C 
HETATM   13  O   UNL     1      -6.348   2.155 -33.390  1.00  0.00    -0.268 OA
HETATM   14  H   UNL     1      -8.618   0.830 -31.600  1.00  0.00     0.169 HD
BRANCH  12  15
HETATM   15  C   UNL     1      -6.094   0.912 -31.361  1.00  0.00     0.007 C 
HETATM   16  C   UNL     1      -5.953   1.643 -30.051  1.00  0.00     0.054 C 
HETATM   17  C   UNL     1      -5.487  -0.290 -31.484  1.00  0.00     0.025 C 
BRANCH  17  18
HETATM   18  C   UNL     1      -5.446  -1.221 -32.624  1.00  0.00    -0.014 A 
HETATM   19  C   UNL     1      -4.282  -1.939 -32.953  1.00  0.00     0.044 A 
HETATM   20 CL   UNL     1      -2.841  -1.828 -31.997  1.00  0.00    -0.083 Cl
HETATM   21  C   UNL     1      -4.249  -2.763 -34.083  1.00  0.00     0.024 A 
HETATM   22  C   UNL     1      -5.374  -2.879 -34.897  1.00  0.00     0.002 A 
HETATM   23  C   UNL     1      -6.531  -2.168 -34.586  1.00  0.00     0.001 A 
HETATM   24  C   UNL     1      -6.563  -1.337 -33.463  1.00  0.00     0.013 A 
ENDBRANCH  17  18
ENDBRANCH  12  15
ENDBRANCH   1  11
BRANCH   8  25
HETATM   25  C   UNL     1     -13.510   0.008 -33.958  1.00  0.00     0.270 C 
HETATM   26  N   UNL     1     -14.842  -0.058 -34.265  1.00  0.00    -0.365 N 
HETATM   27  H   UNL     1     -15.262   0.718 -34.763  1.00  0.00     0.159 HD
HETATM   28  H   UNL     1     -15.380  -0.867 -34.001  1.00  0.00     0.159 HD
HETATM   29  O   UNL     1     -12.947  -0.903 -33.359  1.00  0.00    -0.266 OA
ENDBRANCH   8  25
TORSDOF 4
ENDMDL
MODEL 3
REMARK VINA RESULT:      -8.4      3.304      8.445
REMARK  4 active torsions:
REMARK  status: ('A' for Active; 'I' for Inactive)
REMARK    1  A    between atoms: C_2  and  C_3 
REMARK       I    between atoms: C_3  and  N_4 
REMARK    2  A    between atoms: N_4  and  C_5 
REMARK    3  A    between atoms: C_12  and  C_13 
REMARK       I    between atoms: C_13  and  N_14 
REMARK    4  A    between atoms: C_19  and  C_20 
ROOT
HETATM    1  C   UNL     1      -4.874   3.734 -32.215  1.00  0.00     0.036 A 
HETATM    2  C   UNL     1      -5.409   2.712 -33.021  1.00  0.00     0.046 A 
HETATM    3  C   UNL     1      -6.409   1.862 -32.508  1.00  0.00     0.030 A 
HETATM    4  C   UNL     1      -6.847   2.054 -31.206  1.00  0.00     0.063 A 
HETATM    5  N   UNL     1      -7.798   1.096 -30.997  1.00  0.00    -0.277 N 
HETATM    6  H   UNL     1      -8.334   0.937 -30.151  1.00  0.00     0.189 HD
HETATM    7  N   UNL     1      -8.019   0.292 -32.053  1.00  0.00    -0.168 NA
HETATM    8  C   UNL     1      -7.166   0.755 -32.995  1.00  0.00     0.156 A 
HETATM    9  C   UNL     1      -6.341   3.058 -30.377  1.00  0.00     0.034 A 
HETATM   10  C   UNL     1      -5.346   3.892 -30.910  1.00  0.00     0.032 A 
ENDROOT
BRANCH   1  11
HETATM   11  N   UNL     1      -3.861   4.529 -32.799  1.00  0.00    -0.323 N 
HETATM   12  C   UNL     1      -2.508   4.529 -32.509  1.00  0.00     0.251 C 
HETATM   13  O   UNL     1      -1.989   3.856 -31.626  1.00  0.00    -0.268 OA
HETATM   14  H   UNL     1      -4.195   5.167 -33.505  1.00  0.00     0.169 HD
BRANCH  12  15
HETATM   15  C   UNL     1      -1.676   5.440 -33.393  1.00  0.00     0.007 C 
HETATM   16  C   UNL     1      -1.637   5.180 -34.877  1.00  0.00     0.054 C 
HETATM   17  C   UNL     1      -0.957   6.480 -32.913  1.00  0.00     0.025 C 
BRANCH  17  18
HETATM   18  C   UNL     1      -0.801   6.970 -31.533  1.00  0.00    -0.014 A 
HETATM   19  C   UNL     1      -1.783   7.763 -30.914  1.00  0.00     0.044 A 
HETATM   20 CL   UNL     1      -3.272   8.156 -31.706  1.00  0.00    -0.083 Cl
HETATM   21  C   UNL     1      -1.577   8.274 -29.627  1.00  0.00     0.024 A 
HETATM   22  C   UNL     1      -0.391   8.003 -28.948  1.00  0.00     0.002 A 
HETATM   23  C   UNL     1       0.592   7.225 -29.554  1.00  0.00     0.001 A 
HETATM   24  C   UNL     1       0.393   6.720 -30.842  1.00  0.00     0.013 A 
ENDBRANCH  17  18
ENDBRANCH  12  15
ENDBRANCH   1  11
BRANCH   8  25
HETATM   25  C   UNL     1      -7.085   0.143 -34.327  1.00  0.00     0.270 C 
HETATM   26  N   UNL     1      -8.008   0.617 -35.219  1.00  0.00    -0.365 N 
HETATM   27  H   UNL     1      -8.657   1.331 -34.910  1.00  0.00     0.159 HD
HETATM   28  H   UNL     1      -8.028   0.259 -36.160  1.00  0.00     0.159 HD
HETATM   29  O   UNL     1      -6.272  -0.719 -34.646  1.00  0.00    -0.266 OA
ENDBRANCH   8  25
TORSDOF 4
ENDMDL
MODEL 4
REMARK VINA RESULT:      -8.3      2.371      2.689
REMARK  4 active torsions:
REMARK  status: ('A' for Active; 'I' for Inactive)
REMARK    1  A    between atoms: C_2  and  C_3 
REMARK       I    between atoms: C_3  and  N_4 
REMARK    2  A    between atoms: N_4  and  C_5 
REMARK    3  A    between atoms: C_12  and  C_13 
REMARK       I    between atoms: C_13  and  N_14 
REMARK    4  A    between atoms: C_19  and  C_20 
ROOT
HETATM    1  C   UNL     1      -3.589   4.123 -32.044  1.00  0.00     0.036 A 
HETATM    2  C   UNL     1      -3.665   5.452 -31.586  1.00  0.00     0.046 A 
HETATM    3  C   UNL     1      -2.866   6.448 -32.183  1.00  0.00     0.030 A 
HETATM    4  C   UNL     1      -2.015   6.092 -33.219  1.00  0.00     0.063 A 
HETATM    5  N   UNL     1      -1.383   7.247 -33.584  1.00  0.00    -0.277 N 
HETATM    6  H   UNL     1      -0.688   7.362 -34.313  1.00  0.00     0.189 HD
HETATM    7  N   UNL     1      -1.749   8.329 -32.873  1.00  0.00    -0.168 NA
HETATM    8  C   UNL     1      -2.666   7.848 -32.003  1.00  0.00     0.156 A 
HETATM    9  C   UNL     1      -1.914   4.784 -33.701  1.00  0.00     0.034 A 
HETATM   10  C   UNL     1      -2.720   3.810 -33.091  1.00  0.00     0.032 A 
ENDROOT
BRANCH   1  11
HETATM   11  N   UNL     1      -4.408   3.182 -31.378  1.00  0.00    -0.323 N 
HETATM   12  C   UNL     1      -5.381   2.366 -31.927  1.00  0.00     0.251 C 
HETATM   13  O   UNL     1      -5.724   2.391 -33.103  1.00  0.00    -0.268 OA
HETATM   14  H   UNL     1      -4.245   3.124 -30.385  1.00  0.00     0.169 HD
BRANCH  12  15
HETATM   15  C   UNL     1      -6.013   1.395 -30.947  1.00  0.00     0.007 C 
HETATM   16  C   UNL     1      -6.373   1.882 -29.566  1.00  0.00     0.054 C 
HETATM   17  C   UNL     1      -6.266   0.101 -31.247  1.00  0.00     0.025 C 
BRANCH  17  18
HETATM   18  C   UNL     1      -6.026  -0.649 -32.492  1.00  0.00    -0.014 A 
HETATM   19  C   UNL     1      -7.044  -0.856 -33.440  1.00  0.00     0.044 A 
HETATM   20 CL   UNL     1      -8.627  -0.183 -33.240  1.00  0.00    -0.083 Cl
HETATM   21  C   UNL     1      -6.808  -1.633 -34.580  1.00  0.00     0.024 A 
HETATM   22  C   UNL     1      -5.557  -2.212 -34.784  1.00  0.00     0.002 A 
HETATM   23  C   UNL     1      -4.543  -2.020 -33.849  1.00  0.00     0.001 A 
HETATM   24  C   UNL     1      -4.779  -1.253 -32.706  1.00  0.00     0.013 A 
ENDBRANCH  17  18
ENDBRANCH  12  15
ENDBRANCH   1  11
BRANCH   8  25
HETATM   25  C   UNL     1      -3.328   8.720 -31.024  1.00  0.00     0.270 C 
HETATM   26  N   UNL     1      -3.029   8.429 -29.721  1.00  0.00    -0.365 N 
HETATM   27  H   UNL     1      -2.394   7.663 -29.530  1.00  0.00     0.159 HD
HETATM   28  H   UNL     1      -3.433   8.975 -28.978  1.00  0.00     0.159 HD
HETATM   29  O   UNL     1      -4.088   9.638 -31.316  1.00  0.00    -0.266 OA
ENDBRANCH   8  25
TORSDOF 4
ENDMDL
MODEL 5
REMARK VINA RESULT:      -8.3      4.541      6.139
REMARK  4 active torsions:
REMARK  status: ('A' for Active; 'I' for Inactive)
REMARK    1  A    between atoms: C_2  and  C_3 
REMARK       I    between atoms: C_3  and  N_4 
REMARK    2  A    between atoms: N_4  and  C_5 
REMARK    3  A    between atoms: C_12  and  C_13 
REMARK       I    between atoms: C_13  and  N_14 
REMARK    4  A    between atoms: C_19  and  C_20 
ROOT
HETATM    1  C   UNL     1      -7.930   1.263 -33.033  1.00  0.00     0.036 A 
HETATM    2  C   UNL     1      -8.216   2.335 -32.167  1.00  0.00     0.046 A 
HETATM    3  C   UNL     1      -9.542   2.794 -32.029  1.00  0.00     0.030 A 
HETATM    4  C   UNL     1     -10.544   2.170 -32.758  1.00  0.00     0.063 A 
HETATM    5  N   UNL     1     -11.697   2.823 -32.423  1.00  0.00    -0.277 N 
HETATM    6  H   UNL     1     -12.632   2.634 -32.767  1.00  0.00     0.189 HD
HETATM    7  N   UNL     1     -11.533   3.822 -31.537  1.00  0.00    -0.168 NA
HETATM    8  C   UNL     1     -10.204   3.814 -31.285  1.00  0.00     0.156 A 
HETATM    9  C   UNL     1     -10.299   1.103 -33.625  1.00  0.00     0.034 A 
HETATM   10  C   UNL     1      -8.971   0.664 -33.745  1.00  0.00     0.032 A 
ENDROOT
BRANCH   1  11
HETATM   11  N   UNL     1      -6.572   0.878 -33.128  1.00  0.00    -0.323 N 
HETATM   12  C   UNL     1      -5.893  -0.038 -32.345  1.00  0.00     0.251 C 
HETATM   13  O   UNL     1      -6.378  -0.622 -31.383  1.00  0.00    -0.268 OA
HETATM   14  H   UNL     1      -6.062   1.349 -33.859  1.00  0.00     0.169 HD
BRANCH  12  15
HETATM   15  C   UNL     1      -4.461  -0.293 -32.776  1.00  0.00     0.007 C 
HETATM   16  C   UNL     1      -3.392   0.692 -32.377  1.00  0.00     0.054 C 
HETATM   17  C   UNL     1      -4.090  -1.366 -33.511  1.00  0.00     0.025 C 
BRANCH  17  18
HETATM   18  C   UNL     1      -4.896  -2.478 -34.043  1.00  0.00    -0.014 A 
HETATM   19  C   UNL     1      -4.509  -3.819 -33.877  1.00  0.00     0.044 A 
HETATM   20 CL   UNL     1      -3.094  -4.255 -32.977  1.00  0.00    -0.083 Cl
HETATM   21  C   UNL     1      -5.256  -4.853 -34.452  1.00  0.00     0.024 A 
HETATM   22  C   UNL     1      -6.395  -4.560 -35.200  1.00  0.00     0.002 A 
HETATM   23  C   UNL     1      -6.785  -3.235 -35.378  1.00  0.00     0.001 A 
HETATM   24  C   UNL     1      -6.036  -2.200 -34.811  1.00  0.00     0.013 A 
ENDBRANCH  17  18
ENDBRANCH  12  15
ENDBRANCH   1  11
BRANCH   8  25
HETATM   25  C   UNL     1      -9.592   4.769 -30.352  1.00  0.00     0.270 C 
HETATM   26  N   UNL     1     -10.409   5.808 -29.998  1.00  0.00    -0.365 N 
HETATM   27  H   UNL     1     -11.344   5.844 -30.388  1.00  0.00     0.159 HD
HETATM   28  H   UNL     1     -10.079   6.513 -29.359  1.00  0.00     0.159 HD
HETATM   29  O   UNL     1      -8.452   4.673 -29.908  1.00  0.00    -0.266 OA
ENDBRANCH   8  25
TORSDOF 4
ENDMDL
MODEL 6
REMARK VINA RESULT:      -8.1      3.037      8.292
REMARK  4 active torsions:
REMARK  status: ('A' for Active; 'I' for Inactive)
REMARK    1  A    between atoms: C_2  and  C_3 
REMARK       I    between atoms: C_3  and  N_4 
REMARK    2  A    between atoms: N_4  and  C_5 
REMARK    3  A    between atoms: C_12  and  C_13 
REMARK       I    between atoms: C_13  and  N_14 
REMARK    4  A    between atoms: C_19  and  C_20 
ROOT
HETATM    1  C   UNL     1      -4.487   3.652 -31.796  1.00  0.00     0.036 A 
HETATM    2  C   UNL     1      -4.520   2.322 -32.255  1.00  0.00     0.046 A 
HETATM    3  C   UNL     1      -5.346   1.377 -31.614  1.00  0.00     0.030 A 
HETATM    4  C   UNL     1      -6.116   1.784 -30.535  1.00  0.00     0.063 A 
HETATM    5  N   UNL     1      -6.795   0.669 -30.131  1.00  0.00    -0.277 N 
HETATM    6  H   UNL     1      -7.453   0.596 -29.363  1.00  0.00     0.189 HD
HETATM    7  N   UNL     1      -6.533  -0.434 -30.855  1.00  0.00    -0.168 NA
HETATM    8  C   UNL     1      -5.638  -0.010 -31.776  1.00  0.00     0.156 A 
HETATM    9  C   UNL     1      -6.111   3.095 -30.053  1.00  0.00     0.034 A 
HETATM   10  C   UNL     1      -5.281   4.018 -30.707  1.00  0.00     0.032 A 
ENDROOT
BRANCH   1  11
HETATM   11  N   UNL     1      -3.617   4.532 -32.482  1.00  0.00    -0.323 N 
HETATM   12  C   UNL     1      -2.250   4.668 -32.322  1.00  0.00     0.251 C 
HETATM   13  O   UNL     1      -1.586   4.066 -31.487  1.00  0.00    -0.268 OA
HETATM   14  H   UNL     1      -4.078   5.120 -33.158  1.00  0.00     0.169 HD
BRANCH  12  15
HETATM   15  C   UNL     1      -1.599   5.640 -33.290  1.00  0.00     0.007 C 
HETATM   16  C   UNL     1      -1.462   5.245 -34.738  1.00  0.00     0.054 C 
HETATM   17  C   UNL     1      -1.126   6.849 -32.916  1.00  0.00     0.025 C 
BRANCH  17  18
HETATM   18  C   UNL     1      -1.116   7.498 -31.593  1.00  0.00    -0.014 A 
HETATM   19  C   UNL     1      -0.199   7.129 -30.594  1.00  0.00     0.044 A 
HETATM   20 CL   UNL     1       1.026   5.937 -30.875  1.00  0.00    -0.083 Cl
HETATM   21  C   UNL     1      -0.257   7.712 -29.323  1.00  0.00     0.024 A 
HETATM   22  C   UNL     1      -1.232   8.666 -29.036  1.00  0.00     0.002 A 
HETATM   23  C   UNL     1      -2.151   9.035 -30.015  1.00  0.00     0.001 A 
HETATM   24  C   UNL     1      -2.100   8.448 -31.282  1.00  0.00     0.013 A 
ENDBRANCH  17  18
ENDBRANCH  12  15
ENDBRANCH   1  11
BRANCH   8  25
HETATM   25  C   UNL     1      -5.080  -0.921 -32.784  1.00  0.00     0.270 C 
HETATM   26  N   UNL     1      -3.782  -1.286 -32.552  1.00  0.00    -0.365 N 
HETATM   27  H   UNL     1      -3.314  -0.918 -31.732  1.00  0.00     0.159 HD
HETATM   28  H   UNL     1      -3.315  -1.912 -33.187  1.00  0.00     0.159 HD
HETATM   29  O   UNL     1      -5.697  -1.339 -33.758  1.00  0.00    -0.266 OA
ENDBRANCH   8  25
TORSDOF 4
ENDMDL
MODEL 7
REMARK VINA RESULT:      -8.1      3.661      8.574
REMARK  4 active torsions:
REMARK  status: ('A' for Active; 'I' for Inactive)
REMARK    1  A    between atoms: C_2  and  C_3 
REMARK       I    between atoms: C_3  and  N_4 
REMARK    2  A    between atoms: N_4  and  C_5 
REMARK    3  A    between atoms: C_12  and  C_13 
REMARK       I    between atoms: C_13  and  N_14 
REMARK    4  A    between atoms: C_19  and  C_20 
ROOT
HETATM    1  C   UNL     1      -4.493   3.245 -32.162  1.00  0.00     0.036 A 
HETATM    2  C   UNL     1      -5.690   3.007 -32.863  1.00  0.00     0.046 A 
HETATM    3  C   UNL     1      -6.628   2.082 -32.361  1.00  0.00     0.030 A 
HETATM    4  C   UNL     1      -6.346   1.423 -31.174  1.00  0.00     0.063 A 
HETATM    5  N   UNL     1      -7.419   0.607 -30.949  1.00  0.00    -0.277 N 
HETATM    6  H   UNL     1      -7.556  -0.026 -30.168  1.00  0.00     0.189 HD
HETATM    7  N   UNL     1      -8.378   0.677 -31.889  1.00  0.00    -0.168 NA
HETATM    8  C   UNL     1      -7.901   1.587 -32.769  1.00  0.00     0.156 A 
HETATM    9  C   UNL     1      -5.171   1.635 -30.449  1.00  0.00     0.034 A 
HETATM   10  C   UNL     1      -4.253   2.560 -30.969  1.00  0.00     0.032 A 
ENDROOT
BRANCH   1  11
HETATM   11  N   UNL     1      -3.598   4.172 -32.744  1.00  0.00    -0.323 N 
HETATM   12  C   UNL     1      -2.293   4.441 -32.371  1.00  0.00     0.251 C 
HETATM   13  O   UNL     1      -1.731   3.937 -31.406  1.00  0.00    -0.268 OA
HETATM   14  H   UNL     1      -3.986   4.688 -33.518  1.00  0.00     0.169 HD
BRANCH  12  15
HETATM   15  C   UNL     1      -1.573   5.428 -33.271  1.00  0.00     0.007 C 
HETATM   16  C   UNL     1      -1.549   5.177 -34.758  1.00  0.00     0.054 C 
HETATM   17  C   UNL     1      -0.941   6.529 -32.806  1.00  0.00     0.025 C 
BRANCH  17  18
HETATM   18  C   UNL     1      -0.795   7.028 -31.428  1.00  0.00    -0.014 A 
HETATM   19  C   UNL     1      -1.772   7.841 -30.827  1.00  0.00     0.044 A 
HETATM   20 CL   UNL     1      -3.245   8.250 -31.641  1.00  0.00    -0.083 Cl
HETATM   21  C   UNL     1      -1.575   8.360 -29.542  1.00  0.00     0.024 A 
HETATM   22  C   UNL     1      -0.402   8.076 -28.846  1.00  0.00     0.002 A 
HETATM   23  C   UNL     1       0.577   7.278 -29.433  1.00  0.00     0.001 A 
HETATM   24  C   UNL     1       0.387   6.766 -30.719  1.00  0.00     0.013 A 
ENDBRANCH  17  18
ENDBRANCH  12  15
ENDBRANCH   1  11
BRANCH   8  25
HETATM   25  C   UNL     1      -8.656   1.964 -33.971  1.00  0.00     0.270 C 
HETATM   26  N   UNL     1      -8.827   0.945 -34.868  1.00  0.00    -0.365 N 
HETATM   27  H   UNL     1      -8.438   0.036 -34.648  1.00  0.00     0.159 HD
HETATM   28  H   UNL     1      -9.336   1.107 -35.722  1.00  0.00     0.159 HD
HETATM   29  O   UNL     1      -9.108   3.085 -34.183  1.00  0.00    -0.266 OA
ENDBRANCH   8  25
TORSDOF 4
ENDMDL
MODEL 8
REMARK VINA RESULT:      -7.9      6.538      9.060
REMARK  4 active torsions:
REMARK  status: ('A' for Active; 'I' for Inactive)
REMARK    1  A    between atoms: C_2  and  C_3 
REMARK       I    between atoms: C_3  and  N_4 
REMARK    2  A    between atoms: N_4  and  C_5 
REMARK    3  A    between atoms: C_12  and  C_13 
REMARK       I    between atoms: C_13  and  N_14 
REMARK    4  A    between atoms: C_19  and  C_20 
ROOT
HETATM    1  C   UNL     1     -11.157   2.236 -33.671  1.00  0.00     0.036 A 
HETATM    2  C   UNL     1     -12.113   3.128 -33.150  1.00  0.00     0.046 A 
HETATM    3  C   UNL     1     -13.428   2.683 -32.901  1.00  0.00     0.030 A 
HETATM    4  C   UNL     1     -13.750   1.363 -33.177  1.00  0.00     0.063 A 
HETATM    5  N   UNL     1     -15.069   1.233 -32.841  1.00  0.00    -0.277 N 
HETATM    6  H   UNL     1     -15.641   0.399 -32.913  1.00  0.00     0.189 HD
HETATM    7  N   UNL     1     -15.635   2.358 -32.369  1.00  0.00    -0.168 NA
HETATM    8  C   UNL     1     -14.630   3.263 -32.401  1.00  0.00     0.156 A 
HETATM    9  C   UNL     1     -12.828   0.449 -33.692  1.00  0.00     0.034 A 
HETATM   10  C   UNL     1     -11.526   0.915 -33.932  1.00  0.00     0.032 A 
ENDROOT
BRANCH   1  11
HETATM   11  N   UNL     1      -9.868   2.768 -33.911  1.00  0.00    -0.323 N 
HETATM   12  C   UNL     1      -8.816   2.875 -33.019  1.00  0.00     0.251 C 
HETATM   13  O   UNL     1      -8.877   2.570 -31.834  1.00  0.00    -0.268 OA
HETATM   14  H   UNL     1      -9.731   3.105 -34.850  1.00  0.00     0.169 HD
BRANCH  12  15
HETATM   15  C   UNL     1      -7.530   3.405 -33.627  1.00  0.00     0.007 C 
HETATM   16  C   UNL     1      -7.344   4.896 -33.757  1.00  0.00     0.054 C 
HETATM   17  C   UNL     1      -6.535   2.603 -34.067  1.00  0.00     0.025 C 
BRANCH  17  18
HETATM   18  C   UNL     1      -6.433   1.134 -34.075  1.00  0.00    -0.014 A 
HETATM   19  C   UNL     1      -5.559   0.448 -33.213  1.00  0.00     0.044 A 
HETATM   20 CL   UNL     1      -4.597   1.281 -32.037  1.00  0.00    -0.083 Cl
HETATM   21  C   UNL     1      -5.430  -0.943 -33.289  1.00  0.00     0.024 A 
HETATM   22  C   UNL     1      -6.167  -1.664 -34.227  1.00  0.00     0.002 A 
HETATM   23  C   UNL     1      -7.031  -0.995 -35.091  1.00  0.00     0.001 A 
HETATM   24  C   UNL     1      -7.156   0.395 -35.022  1.00  0.00     0.013 A 
ENDBRANCH  17  18
ENDBRANCH  12  15
ENDBRANCH   1  11
BRANCH   8  25
HETATM   25  C   UNL     1     -14.830   4.650 -31.961  1.00  0.00     0.270 C 
HETATM   26  N   UNL     1     -15.677   5.374 -32.755  1.00  0.00    -0.365 N 
HETATM   27  H   UNL     1     -16.092   4.919 -33.560  1.00  0.00     0.159 HD
HETATM   28  H   UNL     1     -15.878   6.334 -32.532  1.00  0.00     0.159 HD
HETATM   29  O   UNL     1     -14.301   5.147 -30.972  1.00  0.00    -0.266 OA
ENDBRANCH   8  25
TORSDOF 4
ENDMDL
MODEL 9
REMARK VINA RESULT:      -7.9      2.422      2.617
REMARK  4 active torsions:
REMARK  status: ('A' for Active; 'I' for Inactive)
REMARK    1  A    between atoms: C_2  and  C_3 
REMARK       I    between atoms: C_3  and  N_4 
REMARK    2  A    between atoms: N_4  and  C_5 
REMARK    3  A    between atoms: C_12  and  C_13 
REMARK       I    between atoms: C_13  and  N_14 
REMARK    4  A    between atoms: C_19  and  C_20 
ROOT
HETATM    1  C   UNL     1      -5.240   4.306 -32.991  1.00  0.00     0.036 A 
HETATM    2  C   UNL     1      -4.214   4.879 -32.217  1.00  0.00     0.046 A 
HETATM    3  C   UNL     1      -3.160   5.571 -32.847  1.00  0.00     0.030 A 
HETATM    4  C   UNL     1      -3.160   5.672 -34.231  1.00  0.00     0.063 A 
HETATM    5  N   UNL     1      -2.034   6.382 -34.542  1.00  0.00    -0.277 N 
HETATM    6  H   UNL     1      -1.712   6.645 -35.467  1.00  0.00     0.189 HD
HETATM    7  N   UNL     1      -1.298   6.752 -33.479  1.00  0.00    -0.168 NA
HETATM    8  C   UNL     1      -1.984   6.257 -32.424  1.00  0.00     0.156 A 
HETATM    9  C   UNL     1      -4.162   5.119 -35.031  1.00  0.00     0.034 A 
HETATM   10  C   UNL     1      -5.201   4.435 -34.381  1.00  0.00     0.032 A 
ENDROOT
BRANCH   1  11
HETATM   11  N   UNL     1      -6.249   3.613 -32.282  1.00  0.00    -0.323 N 
HETATM   12  C   UNL     1      -7.614   3.640 -32.505  1.00  0.00     0.251 C 
HETATM   13  O   UNL     1      -8.166   4.344 -33.342  1.00  0.00    -0.268 OA
HETATM   14  H   UNL     1      -5.903   3.043 -31.527  1.00  0.00     0.169 HD
BRANCH  12  15
HETATM   15  C   UNL     1      -8.413   2.698 -31.623  1.00  0.00     0.007 C 
HETATM   16  C   UNL     1      -9.158   3.263 -30.440  1.00  0.00     0.054 C 
HETATM   17  C   UNL     1      -8.489   1.366 -31.841  1.00  0.00     0.025 C 
BRANCH  17  18
HETATM   18  C   UNL     1      -7.878   0.541 -32.897  1.00  0.00    -0.014 A 
HETATM   19  C   UNL     1      -6.735  -0.241 -32.657  1.00  0.00     0.044 A 
HETATM   20 CL   UNL     1      -6.010  -0.340 -31.087  1.00  0.00    -0.083 Cl
HETATM   21  C   UNL     1      -6.134  -0.961 -33.696  1.00  0.00     0.024 A 
HETATM   22  C   UNL     1      -6.664  -0.906 -34.983  1.00  0.00     0.002 A 
HETATM   23  C   UNL     1      -7.793  -0.129 -35.235  1.00  0.00     0.001 A 
HETATM   24  C   UNL     1      -8.390   0.597 -34.201  1.00  0.00     0.013 A 
ENDBRANCH  17  18
ENDBRANCH  12  15
ENDBRANCH   1  11
BRANCH   8  25
HETATM   25  C   UNL     1      -1.512   6.441 -31.045  1.00  0.00     0.270 C 
HETATM   26  N   UNL     1      -1.126   5.284 -30.426  1.00  0.00    -0.365 N 
HETATM   27  H   UNL     1      -1.188   4.414 -30.942  1.00  0.00     0.159 HD
HETATM   28  H   UNL     1      -0.784   5.310 -29.479  1.00  0.00     0.159 HD
HETATM   29  O   UNL     1      -1.457   7.524 -30.471  1.00  0.00    -0.266 OA
ENDBRANCH   8  25
TORSDOF 4
ENDMDL
MODEL 10
REMARK VINA RESULT:      -7.9      3.966      8.406
REMARK  4 active torsions:
REMARK  status: ('A' for Active; 'I' for Inactive)
REMARK    1  A    between atoms: C_2  and  C_3 
REMARK       I    between atoms: C_3  and  N_4 
REMARK    2  A    between atoms: N_4  and  C_5 
REMARK    3  A    between atoms: C_12  and  C_13 
REMARK       I    between atoms: C_13  and  N_14 
REMARK    4  A    between atoms: C_19  and  C_20 
ROOT
HETATM    1  C   UNL     1      -5.061   4.102 -31.943  1.00  0.00     0.036 A 
HETATM    2  C   UNL     1      -6.179   3.743 -32.719  1.00  0.00     0.046 A 
HETATM    3  C   UNL     1      -7.242   3.028 -32.131  1.00  0.00     0.030 A 
HETATM    4  C   UNL     1      -7.160   2.692 -30.788  1.00  0.00     0.063 A 
HETATM    5  N   UNL     1      -8.314   2.015 -30.511  1.00  0.00    -0.277 N 
HETATM    6  H   UNL     1      -8.595   1.618 -29.621  1.00  0.00     0.189 HD
HETATM    7  N   UNL     1      -9.144   1.879 -31.561  1.00  0.00    -0.168 NA
HETATM    8  C   UNL     1      -8.492   2.502 -32.570  1.00  0.00     0.156 A 
HETATM    9  C   UNL     1      -6.068   3.034 -29.986  1.00  0.00     0.034 A 
HETATM   10  C   UNL     1      -5.022   3.745 -30.594  1.00  0.00     0.032 A 
ENDROOT
BRANCH   1  11
HETATM   11  N   UNL     1      -4.030   4.801 -32.614  1.00  0.00    -0.323 N 
HETATM   12  C   UNL     1      -2.665   4.601 -32.513  1.00  0.00     0.251 C 
HETATM   13  O   UNL     1      -2.136   3.801 -31.751  1.00  0.00    -0.268 OA
HETATM   14  H   UNL     1      -4.359   5.529 -33.229  1.00  0.00     0.169 HD
BRANCH  12  15
HETATM   15  C   UNL     1      -1.833   5.461 -33.449  1.00  0.00     0.007 C 
HETATM   16  C   UNL     1      -1.717   5.060 -34.897  1.00  0.00     0.054 C 
HETATM   17  C   UNL     1      -1.181   6.574 -33.046  1.00  0.00     0.025 C 
BRANCH  17  18
HETATM   18  C   UNL     1      -1.107   7.202 -31.716  1.00  0.00    -0.014 A 
HETATM   19  C   UNL     1      -0.246   6.720 -30.715  1.00  0.00     0.044 A 
HETATM   20 CL   UNL     1       0.838   5.400 -31.003  1.00  0.00    -0.083 Cl
HETATM   21  C   UNL     1      -0.247   7.292 -29.438  1.00  0.00     0.024 A 
HETATM   22  C   UNL     1      -1.108   8.347 -29.145  1.00  0.00     0.002 A 
HETATM   23  C   UNL     1      -1.972   8.829 -30.126  1.00  0.00     0.001 A 
HETATM   24  C   UNL     1      -1.979   8.254 -31.399  1.00  0.00     0.013 A 
ENDBRANCH  17  18
ENDBRANCH  12  15
ENDBRANCH   1  11
BRANCH   8  25
HETATM   25  C   UNL     1      -9.064   2.583 -33.920  1.00  0.00     0.270 C 
HETATM   26  N   UNL     1      -9.112   1.386 -34.581  1.00  0.00    -0.365 N 
HETATM   27  H   UNL     1      -8.766   0.558 -34.110  1.00  0.00     0.159 HD
HETATM   28  H   UNL     1      -9.491   1.341 -35.513  1.00  0.00     0.159 HD
HETATM   29  O   UNL     1      -9.472   3.617 -34.440  1.00  0.00    -0.266 OA
ENDBRANCH   8  25
TORSDOF 4
ENDMDL
