MODEL 1
REMARK VINA RESULT:      -9.5      0.000      0.000
REMARK  3 active torsions:
REMARK  status: ('A' for Active; 'I' for Inactive)
REMARK    1  A    between atoms: N_8  and  C_9 
REMARK    2  A    between atoms: C_18  and  C_19 
REMARK    3  A    between atoms: C_19  and  C_20 
ROOT
HETATM    1  C   UNL     1      -6.323   4.904 -33.306  1.00  0.00     0.069 C 
HETATM    2  C   UNL     1      -5.646   3.594 -32.993  1.00  0.00     0.017 A 
HETATM    3  N   UNL     1      -6.178   2.476 -33.617  1.00  0.00    -0.348 N 
HETATM    4  C   UNL     1      -5.624   1.235 -33.501  1.00  0.00     0.119 A 
HETATM    5  C   UNL     1      -4.563   1.028 -32.709  1.00  0.00     0.124 A 
HETATM    6  C   UNL     1      -4.275  -0.415 -32.746  1.00  0.00     0.280 A 
HETATM    7  O   UNL     1      -3.388  -0.969 -32.123  1.00  0.00    -0.265 OA
HETATM    8  N   UNL     1      -5.232  -0.958 -33.619  1.00  0.00    -0.236 N 
HETATM    9  N   UNL     1      -6.055   0.074 -34.114  1.00  0.00    -0.179 NA
HETATM   10  C   UNL     1      -3.951   2.134 -31.975  1.00  0.00     0.199 A 
HETATM   11  O   UNL     1      -2.976   1.975 -31.250  1.00  0.00    -0.287 OA
HETATM   12  C   UNL     1      -4.578   3.501 -32.160  1.00  0.00     0.020 A 
HETATM   13  H   UNL     1      -6.882   2.608 -34.336  1.00  0.00     0.167 HD
HETATM   14  H   UNL     1      -7.042  -0.090 -33.912  1.00  0.00     0.155 HD
ENDROOT
BRANCH  12  15
HETATM   15  C   UNL     1      -3.901   4.642 -31.432  1.00  0.00     0.085 C 
BRANCH  15  16
HETATM   16  C   UNL     1      -2.949   5.451 -32.296  1.00  0.00    -0.032 A 
HETATM   17  C   UNL     1      -2.800   6.844 -32.191  1.00  0.00     0.040 A 
HETATM   18 CL   UNL     1      -3.704   7.797 -31.067  1.00  0.00    -0.084 Cl
HETATM   19  C   UNL     1      -1.910   7.534 -33.024  1.00  0.00     0.024 A 
HETATM   20  C   UNL     1      -1.162   6.849 -33.981  1.00  0.00     0.002 A 
HETATM   21  C   UNL     1      -1.308   5.473 -34.111  1.00  0.00     0.001 A 
HETATM   22  C   UNL     1      -2.195   4.782 -33.281  1.00  0.00     0.009 A 
ENDBRANCH  15  16
ENDBRANCH  12  15
BRANCH   8  23
HETATM   23  C   UNL     1      -5.403  -2.290 -34.056  1.00  0.00     0.055 A 
HETATM   24  C   UNL     1      -6.628  -2.736 -34.568  1.00  0.00     0.031 A 
HETATM   25  C   UNL     1      -6.787  -4.055 -35.006  1.00  0.00     0.002 A 
HETATM   26  C   UNL     1      -5.725  -4.951 -34.933  1.00  0.00     0.000 A 
HETATM   27  C   UNL     1      -4.501  -4.528 -34.422  1.00  0.00     0.002 A 
HETATM   28  C   UNL     1      -4.342  -3.208 -33.987  1.00  0.00     0.031 A 
ENDBRANCH   8  23
TORSDOF 3
ENDMDL
MODEL 2
REMARK VINA RESULT:      -8.5      4.697      8.177
REMARK  3 active torsions:
REMARK  status: ('A' for Active; 'I' for Inactive)
REMARK    1  A    between atoms: N_8  and  C_9 
REMARK    2  A    between atoms: C_18  and  C_19 
REMARK    3  A    between atoms: C_19  and  C_20 
ROOT
HETATM    1  C   UNL     1      -5.500  -0.277 -30.384  1.00  0.00     0.069 C 
HETATM    2  C   UNL     1      -6.449   0.405 -31.335  1.00  0.00     0.017 A 
HETATM    3  N   UNL     1      -7.615   0.900 -30.772  1.00  0.00    -0.348 N 
HETATM    4  C   UNL     1      -8.532   1.615 -31.487  1.00  0.00     0.119 A 
HETATM    5  C   UNL     1      -8.373   1.816 -32.802  1.00  0.00     0.124 A 
HETATM    6  C   UNL     1      -9.564   2.540 -33.272  1.00  0.00     0.280 A 
HETATM    7  O   UNL     1      -9.772   2.871 -34.426  1.00  0.00    -0.265 OA
HETATM    8  N   UNL     1     -10.354   2.731 -32.128  1.00  0.00    -0.236 N 
HETATM    9  N   UNL     1      -9.698   2.181 -31.007  1.00  0.00    -0.179 NA
HETATM   10  C   UNL     1      -7.195   1.300 -33.500  1.00  0.00     0.199 A 
HETATM   11  O   UNL     1      -7.021   1.475 -34.700  1.00  0.00    -0.287 OA
HETATM   12  C   UNL     1      -6.188   0.541 -32.661  1.00  0.00     0.020 A 
HETATM   13  H   UNL     1      -7.707   0.902 -29.761  1.00  0.00     0.167 HD
HETATM   14  H   UNL     1     -10.267   1.478 -30.535  1.00  0.00     0.155 HD
ENDROOT
BRANCH  12  15
HETATM   15  C   UNL     1      -4.953   0.059 -33.389  1.00  0.00     0.085 C 
BRANCH  15  16
HETATM   16  C   UNL     1      -4.973  -1.420 -33.736  1.00  0.00    -0.032 A 
HETATM   17  C   UNL     1      -4.076  -2.356 -33.195  1.00  0.00     0.040 A 
HETATM   18 CL   UNL     1      -2.832  -1.919 -32.077  1.00  0.00    -0.084 Cl
HETATM   19  C   UNL     1      -4.142  -3.706 -33.563  1.00  0.00     0.024 A 
HETATM   20  C   UNL     1      -5.095  -4.143 -34.481  1.00  0.00     0.002 A 
HETATM   21  C   UNL     1      -5.980  -3.228 -35.040  1.00  0.00     0.001 A 
HETATM   22  C   UNL     1      -5.917  -1.882 -34.675  1.00  0.00     0.009 A 
ENDBRANCH  15  16
ENDBRANCH  12  15
BRANCH   8  23
HETATM   23  C   UNL     1     -11.589   3.402 -31.983  1.00  0.00     0.055 A 
HETATM   24  C   UNL     1     -12.621   3.234 -32.914  1.00  0.00     0.031 A 
HETATM   25  C   UNL     1     -13.843   3.897 -32.760  1.00  0.00     0.002 A 
HETATM   26  C   UNL     1     -14.050   4.743 -31.676  1.00  0.00     0.000 A 
HETATM   27  C   UNL     1     -13.033   4.927 -30.743  1.00  0.00     0.002 A 
HETATM   28  C   UNL     1     -11.813   4.262 -30.896  1.00  0.00     0.031 A 
ENDBRANCH   8  23
TORSDOF 3
ENDMDL
MODEL 3
REMARK VINA RESULT:      -8.5     16.164     17.728
REMARK  3 active torsions:
REMARK  status: ('A' for Active; 'I' for Inactive)
REMARK    1  A    between atoms: N_8  and  C_9 
REMARK    2  A    between atoms: C_18  and  C_19 
REMARK    3  A    between atoms: C_19  and  C_20 
ROOT
HETATM    1  C   UNL     1      -6.489 -11.768 -40.959  1.00  0.00     0.069 C 
HETATM    2  C   UNL     1      -5.714 -12.418 -39.843  1.00  0.00     0.017 A 
HETATM    3  N   UNL     1      -4.409 -12.776 -40.143  1.00  0.00    -0.348 N 
HETATM    4  C   UNL     1      -3.556 -13.296 -39.214  1.00  0.00     0.119 A 
HETATM    5  C   UNL     1      -3.972 -13.551 -37.966  1.00  0.00     0.124 A 
HETATM    6  C   UNL     1      -2.843 -14.176 -37.257  1.00  0.00     0.280 A 
HETATM    7  O   UNL     1      -2.870 -14.564 -36.103  1.00  0.00    -0.265 OA
HETATM    8  N   UNL     1      -1.799 -14.219 -38.194  1.00  0.00    -0.236 N 
HETATM    9  N   UNL     1      -2.232 -13.643 -39.406  1.00  0.00    -0.179 NA
HETATM   10  C   UNL     1      -5.343 -13.248 -37.558  1.00  0.00     0.199 A 
HETATM   11  O   UNL     1      -5.748 -13.463 -36.422  1.00  0.00    -0.287 OA
HETATM   12  C   UNL     1      -6.245 -12.641 -38.613  1.00  0.00     0.020 A 
HETATM   13  H   UNL     1      -4.008 -12.467 -41.023  1.00  0.00     0.167 HD
HETATM   14  H   UNL     1      -2.143 -14.288 -40.192  1.00  0.00     0.155 HD
ENDROOT
BRANCH  12  15
HETATM   15  C   UNL     1      -7.645 -12.287 -38.159  1.00  0.00     0.085 C 
BRANCH  15  16
HETATM   16  C   UNL     1      -8.746 -12.947 -38.970  1.00  0.00    -0.032 A 
HETATM   17  C   UNL     1      -8.967 -14.335 -38.994  1.00  0.00     0.040 A 
HETATM   18 CL   UNL     1      -7.990 -15.451 -38.106  1.00  0.00    -0.084 Cl
HETATM   19  C   UNL     1      -9.996 -14.883 -39.771  1.00  0.00     0.024 A 
HETATM   20  C   UNL     1     -10.814 -14.060 -40.543  1.00  0.00     0.002 A 
HETATM   21  C   UNL     1     -10.601 -12.686 -40.545  1.00  0.00     0.001 A 
HETATM   22  C   UNL     1      -9.575 -12.137 -39.772  1.00  0.00     0.009 A 
ENDBRANCH  15  16
ENDBRANCH  12  15
BRANCH   8  23
HETATM   23  C   UNL     1      -0.472 -14.679 -38.047  1.00  0.00     0.055 A 
HETATM   24  C   UNL     1      -0.135 -15.632 -37.078  1.00  0.00     0.031 A 
HETATM   25  C   UNL     1       1.181 -16.088 -36.944  1.00  0.00     0.002 A 
HETATM   26  C   UNL     1       2.182 -15.592 -37.772  1.00  0.00     0.000 A 
HETATM   27  C   UNL     1       1.868 -14.639 -38.737  1.00  0.00     0.002 A 
HETATM   28  C   UNL     1       0.552 -14.187 -38.873  1.00  0.00     0.031 A 
ENDBRANCH   8  23
TORSDOF 3
ENDMDL
MODEL 4
REMARK VINA RESULT:      -8.5     16.100     17.562
REMARK  3 active torsions:
REMARK  status: ('A' for Active; 'I' for Inactive)
REMARK    1  A    between atoms: N_8  and  C_9 
REMARK    2  A    between atoms: C_18  and  C_19 
REMARK    3  A    between atoms: C_19  and  C_20 
ROOT
HETATM    1  C   UNL     1      -1.343 -14.440 -41.015  1.00  0.00     0.069 C 
HETATM    2  C   UNL     1      -2.540 -13.863 -40.304  1.00  0.00     0.017 A 
HETATM    3  N   UNL     1      -3.769 -14.107 -40.897  1.00  0.00    -0.348 N 
HETATM    4  C   UNL     1      -4.949 -13.723 -40.330  1.00  0.00     0.119 A 
HETATM    5  C   UNL     1      -4.967 -13.023 -39.188  1.00  0.00     0.124 A 
HETATM    6  C   UNL     1      -6.375 -12.704 -38.902  1.00  0.00     0.280 A 
HETATM    7  O   UNL     1      -6.767 -12.054 -37.950  1.00  0.00    -0.265 OA
HETATM    8  N   UNL     1      -7.105 -13.294 -39.946  1.00  0.00    -0.236 N 
HETATM    9  N   UNL     1      -6.220 -13.957 -40.822  1.00  0.00    -0.179 NA
HETATM   10  C   UNL     1      -3.722 -12.678 -38.503  1.00  0.00     0.199 A 
HETATM   11  O   UNL     1      -3.709 -12.045 -37.454  1.00  0.00    -0.287 OA
HETATM   12  C   UNL     1      -2.437 -13.153 -39.151  1.00  0.00     0.020 A 
HETATM   13  H   UNL     1      -3.815 -14.756 -41.676  1.00  0.00     0.167 HD
HETATM   14  H   UNL     1      -6.299 -13.615 -41.780  1.00  0.00     0.155 HD
ENDROOT
BRANCH  12  15
HETATM   15  C   UNL     1      -1.163 -12.831 -38.402  1.00  0.00     0.085 C 
BRANCH  15  16
HETATM   16  C   UNL     1      -0.342 -14.051 -38.020  1.00  0.00    -0.032 A 
HETATM   17  C   UNL     1      -0.705 -14.940 -36.994  1.00  0.00     0.040 A 
HETATM   18 CL   UNL     1      -2.129 -14.730 -36.037  1.00  0.00    -0.084 Cl
HETATM   19  C   UNL     1       0.101 -16.044 -36.685  1.00  0.00     0.024 A 
HETATM   20  C   UNL     1       1.283 -16.274 -37.386  1.00  0.00     0.002 A 
HETATM   21  C   UNL     1       1.667 -15.396 -38.393  1.00  0.00     0.001 A 
HETATM   22  C   UNL     1       0.866 -14.295 -38.704  1.00  0.00     0.009 A 
ENDBRANCH  15  16
ENDBRANCH  12  15
BRANCH   8  23
HETATM   23  C   UNL     1      -8.500 -13.341 -40.160  1.00  0.00     0.055 A 
HETATM   24  C   UNL     1      -9.287 -12.185 -40.085  1.00  0.00     0.031 A 
HETATM   25  C   UNL     1     -10.667 -12.238 -40.305  1.00  0.00     0.002 A 
HETATM   26  C   UNL     1     -11.284 -13.450 -40.596  1.00  0.00     0.000 A 
HETATM   27  C   UNL     1     -10.520 -14.612 -40.668  1.00  0.00     0.002 A 
HETATM   28  C   UNL     1      -9.140 -14.557 -40.452  1.00  0.00     0.031 A 
ENDBRANCH   8  23
TORSDOF 3
ENDMDL
MODEL 5
REMARK VINA RESULT:      -8.4      5.173      6.985
REMARK  3 active torsions:
REMARK  status: ('A' for Active; 'I' for Inactive)
REMARK    1  A    between atoms: N_8  and  C_9 
REMARK    2  A    between atoms: C_18  and  C_19 
REMARK    3  A    between atoms: C_19  and  C_20 
ROOT
HETATM    1  C   UNL     1      -9.524   3.351 -30.092  1.00  0.00     0.069 C 
HETATM    2  C   UNL     1      -9.205   2.615 -31.368  1.00  0.00     0.017 A 
HETATM    3  N   UNL     1      -8.317   1.557 -31.249  1.00  0.00    -0.348 N 
HETATM    4  C   UNL     1      -7.995   0.745 -32.296  1.00  0.00     0.119 A 
HETATM    5  C   UNL     1      -8.481   0.980 -33.522  1.00  0.00     0.124 A 
HETATM    6  C   UNL     1      -7.878  -0.018 -34.421  1.00  0.00     0.280 A 
HETATM    7  O   UNL     1      -8.075  -0.090 -35.621  1.00  0.00    -0.265 OA
HETATM    8  N   UNL     1      -7.062  -0.810 -33.597  1.00  0.00    -0.236 N 
HETATM    9  N   UNL     1      -7.157  -0.354 -32.265  1.00  0.00    -0.179 NA
HETATM   10  C   UNL     1      -9.394   2.096 -33.764  1.00  0.00     0.199 A 
HETATM   11  O   UNL     1      -9.859   2.330 -34.873  1.00  0.00    -0.287 OA
HETATM   12  C   UNL     1      -9.750   2.952 -32.566  1.00  0.00     0.020 A 
HETATM   13  H   UNL     1      -8.043   1.252 -30.320  1.00  0.00     0.167 HD
HETATM   14  H   UNL     1      -6.247  -0.098 -31.881  1.00  0.00     0.155 HD
ENDROOT
BRANCH  12  15
HETATM   15  C   UNL     1     -10.735   4.071 -32.823  1.00  0.00     0.085 C 
BRANCH  15  16
HETATM   16  C   UNL     1     -12.171   3.728 -32.467  1.00  0.00    -0.032 A 
HETATM   17  C   UNL     1     -12.912   4.410 -31.487  1.00  0.00     0.040 A 
HETATM   18 CL   UNL     1     -12.256   5.715 -30.562  1.00  0.00    -0.084 Cl
HETATM   19  C   UNL     1     -14.232   4.038 -31.199  1.00  0.00     0.024 A 
HETATM   20  C   UNL     1     -14.831   2.977 -31.876  1.00  0.00     0.002 A 
HETATM   21  C   UNL     1     -14.109   2.280 -32.837  1.00  0.00     0.001 A 
HETATM   22  C   UNL     1     -12.792   2.648 -33.126  1.00  0.00     0.009 A 
ENDBRANCH  15  16
ENDBRANCH  12  15
BRANCH   8  23
HETATM   23  C   UNL     1      -6.278  -1.940 -33.919  1.00  0.00     0.055 A 
HETATM   24  C   UNL     1      -4.915  -1.993 -33.604  1.00  0.00     0.031 A 
HETATM   25  C   UNL     1      -4.147  -3.119 -33.920  1.00  0.00     0.002 A 
HETATM   26  C   UNL     1      -4.730  -4.207 -34.561  1.00  0.00     0.000 A 
HETATM   27  C   UNL     1      -6.083  -4.171 -34.887  1.00  0.00     0.002 A 
HETATM   28  C   UNL     1      -6.850  -3.046 -34.568  1.00  0.00     0.031 A 
ENDBRANCH   8  23
TORSDOF 3
ENDMDL
MODEL 6
REMARK VINA RESULT:      -8.4      2.346      8.070
REMARK  3 active torsions:
REMARK  status: ('A' for Active; 'I' for Inactive)
REMARK    1  A    between atoms: N_8  and  C_9 
REMARK    2  A    between atoms: C_18  and  C_19 
REMARK    3  A    between atoms: C_19  and  C_20 
ROOT
HETATM    1  C   UNL     1      -7.910   0.837 -34.713  1.00  0.00     0.069 C 
HETATM    2  C   UNL     1      -6.730   1.311 -33.904  1.00  0.00     0.017 A 
HETATM    3  N   UNL     1      -6.279   2.591 -34.188  1.00  0.00    -0.348 N 
HETATM    4  C   UNL     1      -5.276   3.191 -33.485  1.00  0.00     0.119 A 
HETATM    5  C   UNL     1      -4.627   2.532 -32.515  1.00  0.00     0.124 A 
HETATM    6  C   UNL     1      -3.566   3.426 -32.025  1.00  0.00     0.280 A 
HETATM    7  O   UNL     1      -2.760   3.146 -31.155  1.00  0.00    -0.265 OA
HETATM    8  N   UNL     1      -3.702   4.605 -32.775  1.00  0.00    -0.236 N 
HETATM    9  N   UNL     1      -4.788   4.471 -33.665  1.00  0.00    -0.179 NA
HETATM   10  C   UNL     1      -4.999   1.162 -32.165  1.00  0.00     0.199 A 
HETATM   11  O   UNL     1      -4.428   0.538 -31.278  1.00  0.00    -0.287 OA
HETATM   12  C   UNL     1      -6.139   0.546 -32.950  1.00  0.00     0.020 A 
HETATM   13  H   UNL     1      -6.831   3.177 -34.806  1.00  0.00     0.167 HD
HETATM   14  H   UNL     1      -4.509   4.612 -34.636  1.00  0.00     0.155 HD
ENDROOT
BRANCH  12  15
HETATM   15  C   UNL     1      -6.543  -0.853 -32.539  1.00  0.00     0.085 C 
BRANCH  15  16
HETATM   16  C   UNL     1      -6.098  -1.936 -33.506  1.00  0.00    -0.032 A 
HETATM   17  C   UNL     1      -4.772  -2.393 -33.603  1.00  0.00     0.040 A 
HETATM   18 CL   UNL     1      -3.492  -1.752 -32.634  1.00  0.00    -0.084 Cl
HETATM   19  C   UNL     1      -4.425  -3.391 -34.522  1.00  0.00     0.024 A 
HETATM   20  C   UNL     1      -5.387  -3.942 -35.365  1.00  0.00     0.002 A 
HETATM   21  C   UNL     1      -6.701  -3.493 -35.295  1.00  0.00     0.001 A 
HETATM   22  C   UNL     1      -7.051  -2.498 -34.379  1.00  0.00     0.009 A 
ENDBRANCH  15  16
ENDBRANCH  12  15
BRANCH   8  23
HETATM   23  C   UNL     1      -2.976   5.813 -32.699  1.00  0.00     0.055 A 
HETATM   24  C   UNL     1      -1.789   5.996 -33.418  1.00  0.00     0.031 A 
HETATM   25  C   UNL     1      -1.079   7.199 -33.343  1.00  0.00     0.002 A 
HETATM   26  C   UNL     1      -1.542   8.236 -32.541  1.00  0.00     0.000 A 
HETATM   27  C   UNL     1      -2.718   8.072 -31.813  1.00  0.00     0.002 A 
HETATM   28  C   UNL     1      -3.428   6.870 -31.892  1.00  0.00     0.031 A 
ENDBRANCH   8  23
TORSDOF 3
ENDMDL
MODEL 7
REMARK VINA RESULT:      -8.2     16.721     18.356
REMARK  3 active torsions:
REMARK  status: ('A' for Active; 'I' for Inactive)
REMARK    1  A    between atoms: N_8  and  C_9 
REMARK    2  A    between atoms: C_18  and  C_19 
REMARK    3  A    between atoms: C_19  and  C_20 
ROOT
HETATM    1  C   UNL     1      -1.465 -12.981 -37.706  1.00  0.00     0.069 C 
HETATM    2  C   UNL     1      -2.475 -13.285 -38.782  1.00  0.00     0.017 A 
HETATM    3  N   UNL     1      -3.805 -13.138 -38.420  1.00  0.00    -0.348 N 
HETATM    4  C   UNL     1      -4.831 -13.294 -39.306  1.00  0.00     0.119 A 
HETATM    5  C   UNL     1      -4.596 -13.669 -40.570  1.00  0.00     0.124 A 
HETATM    6  C   UNL     1      -5.906 -13.823 -41.223  1.00  0.00     0.280 A 
HETATM    7  O   UNL     1      -6.077 -14.179 -42.375  1.00  0.00    -0.265 OA
HETATM    8  N   UNL     1      -6.849 -13.488 -40.238  1.00  0.00    -0.236 N 
HETATM    9  N   UNL     1      -6.179 -13.128 -39.050  1.00  0.00    -0.179 NA
HETATM   10  C   UNL     1      -3.229 -13.889 -41.043  1.00  0.00     0.199 A 
HETATM   11  O   UNL     1      -2.985 -14.226 -42.195  1.00  0.00    -0.287 OA
HETATM   12  C   UNL     1      -2.120 -13.673 -40.034  1.00  0.00     0.020 A 
HETATM   13  H   UNL     1      -4.023 -12.714 -37.524  1.00  0.00     0.167 HD
HETATM   14  H   UNL     1      -6.465 -13.704 -38.258  1.00  0.00     0.155 HD
ENDROOT
BRANCH  12  15
HETATM   15  C   UNL     1      -0.711 -13.856 -40.554  1.00  0.00     0.085 C 
BRANCH  15  16
HETATM   16  C   UNL     1       0.098 -14.899 -39.802  1.00  0.00    -0.032 A 
HETATM   17  C   UNL     1      -0.138 -16.281 -39.897  1.00  0.00     0.040 A 
HETATM   18 CL   UNL     1      -1.397 -16.947 -40.878  1.00  0.00    -0.084 Cl
HETATM   19  C   UNL     1       0.639 -17.192 -39.170  1.00  0.00     0.024 A 
HETATM   20  C   UNL     1       1.656 -16.741 -38.330  1.00  0.00     0.002 A 
HETATM   21  C   UNL     1       1.894 -15.377 -38.211  1.00  0.00     0.001 A 
HETATM   22  C   UNL     1       1.120 -14.466 -38.934  1.00  0.00     0.009 A 
ENDBRANCH  15  16
ENDBRANCH  12  15
BRANCH   8  23
HETATM   23  C   UNL     1      -8.257 -13.423 -40.320  1.00  0.00     0.055 A 
HETATM   24  C   UNL     1      -9.026 -14.568 -40.564  1.00  0.00     0.031 A 
HETATM   25  C   UNL     1     -10.421 -14.495 -40.637  1.00  0.00     0.002 A 
HETATM   26  C   UNL     1     -11.069 -13.276 -40.474  1.00  0.00     0.000 A 
HETATM   27  C   UNL     1     -10.322 -12.125 -40.237  1.00  0.00     0.002 A 
HETATM   28  C   UNL     1      -8.927 -12.199 -40.161  1.00  0.00     0.031 A 
ENDBRANCH   8  23
TORSDOF 3
ENDMDL
MODEL 8
REMARK VINA RESULT:      -8.2      4.562      8.336
REMARK  3 active torsions:
REMARK  status: ('A' for Active; 'I' for Inactive)
REMARK    1  A    between atoms: N_8  and  C_9 
REMARK    2  A    between atoms: C_18  and  C_19 
REMARK    3  A    between atoms: C_19  and  C_20 
ROOT
HETATM    1  C   UNL     1      -4.854   2.503 -32.676  1.00  0.00     0.069 C 
HETATM    2  C   UNL     1      -6.349   2.547 -32.864  1.00  0.00     0.017 A 
HETATM    3  N   UNL     1      -6.846   3.684 -33.483  1.00  0.00    -0.348 N 
HETATM    4  C   UNL     1      -8.165   3.832 -33.799  1.00  0.00     0.119 A 
HETATM    5  C   UNL     1      -9.063   2.899 -33.457  1.00  0.00     0.124 A 
HETATM    6  C   UNL     1     -10.384   3.403 -33.866  1.00  0.00     0.280 A 
HETATM    7  O   UNL     1     -11.440   2.824 -33.690  1.00  0.00    -0.265 OA
HETATM    8  N   UNL     1     -10.133   4.649 -34.463  1.00  0.00    -0.236 N 
HETATM    9  N   UNL     1      -8.745   4.905 -34.449  1.00  0.00    -0.179 NA
HETATM   10  C   UNL     1      -8.647   1.680 -32.765  1.00  0.00     0.199 A 
HETATM   11  O   UNL     1      -9.445   0.806 -32.447  1.00  0.00    -0.287 OA
HETATM   12  C   UNL     1      -7.169   1.541 -32.464  1.00  0.00     0.020 A 
HETATM   13  H   UNL     1      -6.191   4.344 -33.890  1.00  0.00     0.167 HD
HETATM   14  H   UNL     1      -8.520   5.777 -33.970  1.00  0.00     0.155 HD
ENDROOT
BRANCH  12  15
HETATM   15  C   UNL     1      -6.750   0.251 -31.793  1.00  0.00     0.085 C 
BRANCH  15  16
HETATM   16  C   UNL     1      -6.160  -0.779 -32.741  1.00  0.00    -0.032 A 
HETATM   17  C   UNL     1      -4.836  -1.242 -32.658  1.00  0.00     0.040 A 
HETATM   18 CL   UNL     1      -3.721  -0.671 -31.466  1.00  0.00    -0.084 Cl
HETATM   19  C   UNL     1      -4.350  -2.188 -33.569  1.00  0.00     0.024 A 
HETATM   20  C   UNL     1      -5.170  -2.680 -34.582  1.00  0.00     0.002 A 
HETATM   21  C   UNL     1      -6.478  -2.222 -34.691  1.00  0.00     0.001 A 
HETATM   22  C   UNL     1      -6.966  -1.279 -33.784  1.00  0.00     0.009 A 
ENDBRANCH  15  16
ENDBRANCH  12  15
BRANCH   8  23
HETATM   23  C   UNL     1     -11.028   5.557 -35.070  1.00  0.00     0.055 A 
HETATM   24  C   UNL     1     -12.372   5.225 -35.278  1.00  0.00     0.031 A 
HETATM   25  C   UNL     1     -13.254   6.132 -35.873  1.00  0.00     0.002 A 
HETATM   26  C   UNL     1     -12.804   7.385 -36.277  1.00  0.00     0.000 A 
HETATM   27  C   UNL     1     -11.469   7.732 -36.084  1.00  0.00     0.002 A 
HETATM   28  C   UNL     1     -10.589   6.825 -35.486  1.00  0.00     0.031 A 
ENDBRANCH   8  23
TORSDOF 3
ENDMDL
MODEL 9
REMARK VINA RESULT:      -8.2      3.739      8.326
REMARK  3 active torsions:
REMARK  status: ('A' for Active; 'I' for Inactive)
REMARK    1  A    between atoms: N_8  and  C_9 
REMARK    2  A    between atoms: C_18  and  C_19 
REMARK    3  A    between atoms: C_19  and  C_20 
ROOT
HETATM    1  C   UNL     1      -5.362  -0.250 -32.565  1.00  0.00     0.069 C 
HETATM    2  C   UNL     1      -5.031   1.212 -32.717  1.00  0.00     0.017 A 
HETATM    3  N   UNL     1      -4.034   1.694 -31.883  1.00  0.00    -0.348 N 
HETATM    4  C   UNL     1      -3.565   2.973 -31.960  1.00  0.00     0.119 A 
HETATM    5  C   UNL     1      -4.104   3.852 -32.814  1.00  0.00     0.124 A 
HETATM    6  C   UNL     1      -3.432   5.141 -32.585  1.00  0.00     0.280 A 
HETATM    7  O   UNL     1      -3.686   6.178 -33.171  1.00  0.00    -0.265 OA
HETATM    8  N   UNL     1      -2.490   4.890 -31.574  1.00  0.00    -0.236 N 
HETATM    9  N   UNL     1      -2.551   3.530 -31.203  1.00  0.00    -0.179 NA
HETATM   10  C   UNL     1      -5.189   3.455 -33.711  1.00  0.00     0.199 A 
HETATM   11  O   UNL     1      -5.695   4.236 -34.507  1.00  0.00    -0.287 OA
HETATM   12  C   UNL     1      -5.656   2.017 -33.614  1.00  0.00     0.020 A 
HETATM   13  H   UNL     1      -3.499   1.033 -31.329  1.00  0.00     0.167 HD
HETATM   14  H   UNL     1      -2.742   3.411 -30.208  1.00  0.00     0.155 HD
ENDROOT
BRANCH  12  15
HETATM   15  C   UNL     1      -6.744   1.610 -34.584  1.00  0.00     0.085 C 
BRANCH  15  16
HETATM   16  C   UNL     1      -8.142   1.629 -33.992  1.00  0.00    -0.032 A 
HETATM   17  C   UNL     1      -8.847   0.469 -33.630  1.00  0.00     0.040 A 
HETATM   18 CL   UNL     1      -8.198  -1.120 -33.836  1.00  0.00    -0.084 Cl
HETATM   19  C   UNL     1     -10.140   0.554 -33.096  1.00  0.00     0.024 A 
HETATM   20  C   UNL     1     -10.753   1.793 -32.923  1.00  0.00     0.002 A 
HETATM   21  C   UNL     1     -10.078   2.951 -33.290  1.00  0.00     0.001 A 
HETATM   22  C   UNL     1      -8.789   2.870 -33.823  1.00  0.00     0.009 A 
ENDBRANCH  15  16
ENDBRANCH  12  15
BRANCH   8  23
HETATM   23  C   UNL     1      -1.541   5.756 -30.987  1.00  0.00     0.055 A 
HETATM   24  C   UNL     1      -0.208   5.771 -31.415  1.00  0.00     0.031 A 
HETATM   25  C   UNL     1       0.724   6.636 -30.833  1.00  0.00     0.002 A 
HETATM   26  C   UNL     1       0.339   7.496 -29.810  1.00  0.00     0.000 A 
HETATM   27  C   UNL     1      -0.980   7.492 -29.367  1.00  0.00     0.002 A 
HETATM   28  C   UNL     1      -1.913   6.629 -29.951  1.00  0.00     0.031 A 
ENDBRANCH   8  23
TORSDOF 3
ENDMDL
MODEL 10
REMARK VINA RESULT:      -8.1     16.377     18.235
REMARK  3 active torsions:
REMARK  status: ('A' for Active; 'I' for Inactive)
REMARK    1  A    between atoms: N_8  and  C_9 
REMARK    2  A    between atoms: C_18  and  C_19 
REMARK    3  A    between atoms: C_19  and  C_20 
ROOT
HETATM    1  C   UNL     1      -7.552 -12.807 -37.566  1.00  0.00     0.069 C 
HETATM    2  C   UNL     1      -6.299 -13.051 -38.366  1.00  0.00     0.017 A 
HETATM    3  N   UNL     1      -5.183 -13.434 -37.639  1.00  0.00    -0.348 N 
HETATM    4  C   UNL     1      -4.000 -13.772 -38.228  1.00  0.00     0.119 A 
HETATM    5  C   UNL     1      -3.843 -13.682 -39.556  1.00  0.00     0.124 A 
HETATM    6  C   UNL     1      -2.445 -14.034 -39.848  1.00  0.00     0.280 A 
HETATM    7  O   UNL     1      -1.940 -14.037 -40.956  1.00  0.00    -0.265 OA
HETATM    8  N   UNL     1      -1.874 -14.337 -38.601  1.00  0.00    -0.236 N 
HETATM    9  N   UNL     1      -2.851 -14.203 -37.593  1.00  0.00    -0.179 NA
HETATM   10  C   UNL     1      -4.948 -13.249 -40.411  1.00  0.00     0.199 A 
HETATM   11  O   UNL     1      -4.835 -13.164 -41.628  1.00  0.00    -0.287 OA
HETATM   12  C   UNL     1      -6.253 -12.915 -39.717  1.00  0.00     0.020 A 
HETATM   13  H   UNL     1      -5.295 -13.659 -36.655  1.00  0.00     0.167 HD
HETATM   14  H   UNL     1      -2.571 -13.538 -36.872  1.00  0.00     0.155 HD
ENDROOT
BRANCH  12  15
HETATM   15  C   UNL     1      -7.398 -12.518 -40.622  1.00  0.00     0.085 C 
BRANCH  15  16
HETATM   16  C   UNL     1      -8.522 -13.538 -40.684  1.00  0.00    -0.032 A 
HETATM   17  C   UNL     1      -9.882 -13.202 -40.572  1.00  0.00     0.040 A 
HETATM   18 CL   UNL     1     -10.425 -11.578 -40.334  1.00  0.00    -0.084 Cl
HETATM   19  C   UNL     1     -10.871 -14.192 -40.629  1.00  0.00     0.024 A 
HETATM   20  C   UNL     1     -10.522 -15.531 -40.789  1.00  0.00     0.002 A 
HETATM   21  C   UNL     1      -9.182 -15.886 -40.885  1.00  0.00     0.001 A 
HETATM   22  C   UNL     1      -8.193 -14.901 -40.829  1.00  0.00     0.009 A 
ENDBRANCH  15  16
ENDBRANCH  12  15
BRANCH   8  23
HETATM   23  C   UNL     1      -0.569 -14.776 -38.288  1.00  0.00     0.055 A 
HETATM   24  C   UNL     1       0.549 -14.286 -38.975  1.00  0.00     0.031 A 
HETATM   25  C   UNL     1       1.839 -14.720 -38.653  1.00  0.00     0.002 A 
HETATM   26  C   UNL     1       2.031 -15.657 -37.644  1.00  0.00     0.000 A 
HETATM   27  C   UNL     1       0.933 -16.162 -36.954  1.00  0.00     0.002 A 
HETATM   28  C   UNL     1      -0.357 -15.724 -37.273  1.00  0.00     0.031 A 
ENDBRANCH   8  23
TORSDOF 3
ENDMDL
