MODEL 1
REMARK VINA RESULT:      -9.3      0.000      0.000
REMARK  8 active torsions:
REMARK  status: ('A' for Active; 'I' for Inactive)
REMARK    1  A    between atoms: C_2  and  N_3 
REMARK    2  A    between atoms: C_2  and  C_23 
REMARK       I    between atoms: N_3  and  C_4 
REMARK    3  A    between atoms: N_3  and  C_16 
REMARK    4  A    between atoms: C_4  and  C_5 
REMARK    5  A    between atoms: C_5  and  N_6 
REMARK    6  A    between atoms: C_16  and  C_17 
REMARK       I    between atoms: C_23  and  N_24 
REMARK    7  A    between atoms: N_24  and  C_25 
REMARK    8  A    between atoms: C_28  and  O_29 
ROOT
HETATM    1  N   UNL     1      -6.861   0.224 -32.894  1.00  0.00    -0.333 N 
HETATM    2  C   UNL     1      -8.201   0.325 -32.518  1.00  0.00     0.240 C 
HETATM    3  O   UNL     1      -8.509   0.780 -31.411  1.00  0.00    -0.271 OA
ENDROOT
BRANCH   1   4
HETATM    4  C   UNL     1      -5.826   0.602 -31.896  1.00  0.00     0.176 C 
HETATM    5  C   UNL     1      -5.310  -0.593 -31.090  1.00  0.00     0.042 C 
BRANCH   4   6
HETATM    6  C   UNL     1      -4.649   1.483 -32.407  1.00  0.00     0.244 C 
HETATM    7  N   UNL     1      -4.958   2.827 -32.558  1.00  0.00    -0.325 N 
HETATM    8  H   UNL     1      -5.938   3.080 -32.490  1.00  0.00     0.169 HD
HETATM    9  O   UNL     1      -3.519   1.001 -32.497  1.00  0.00    -0.271 OA
BRANCH   7  10
HETATM   10  C   UNL     1      -4.076   3.863 -32.943  1.00  0.00     0.035 A 
HETATM   11  C   UNL     1      -2.912   4.198 -32.249  1.00  0.00     0.032 A 
HETATM   12  C   UNL     1      -2.084   5.232 -32.700  1.00  0.00     0.039 A 
HETATM   13  C   UNL     1      -2.394   5.940 -33.858  1.00  0.00     0.068 A 
HETATM   14  C   UNL     1      -3.563   5.627 -34.550  1.00  0.00     0.039 A 
HETATM   15  C   UNL     1      -4.398   4.596 -34.093  1.00  0.00     0.032 A 
BRANCH  13  16
HETATM   16  O   UNL     1      -1.500   6.918 -34.195  1.00  0.00    -0.356 OA
HETATM   17  C   UNL     1      -0.647   7.373 -33.151  1.00  0.00     0.210 C 
ENDBRANCH  13  16
ENDBRANCH   7  10
ENDBRANCH   4   6
ENDBRANCH   1   4
BRANCH   1  18
HETATM   18  C   UNL     1      -6.383  -0.208 -34.218  1.00  0.00     0.165 C 
BRANCH  18  19
HETATM   19  C   UNL     1      -6.054  -1.678 -34.348  1.00  0.00    -0.040 A 
HETATM   20  C   UNL     1      -7.032  -2.646 -34.617  1.00  0.00     0.009 A 
HETATM   21  C   UNL     1      -6.688  -3.995 -34.740  1.00  0.00     0.001 A 
HETATM   22  C   UNL     1      -5.360  -4.393 -34.610  1.00  0.00     0.000 A 
HETATM   23  C   UNL     1      -4.373  -3.443 -34.370  1.00  0.00     0.001 A 
HETATM   24  C   UNL     1      -4.716  -2.094 -34.252  1.00  0.00     0.009 A 
ENDBRANCH  18  19
ENDBRANCH   1  18
BRANCH   2  25
HETATM   25  C   UNL     1      -9.315  -0.091 -33.458  1.00  0.00     0.250 C 
BRANCH  25  26
HETATM   26  N   UNL     1     -10.219   0.975 -33.828  1.00  0.00    -0.263 N 
HETATM   27  N   UNL     1      -9.756   2.193 -34.179  1.00  0.00     0.006 NA
HETATM   28  N   UNL     1     -10.806   2.986 -34.353  1.00  0.00    -0.158 NA
HETATM   29  C   UNL     1     -11.939   2.243 -34.149  1.00  0.00     0.102 A 
HETATM   30  C   UNL     1     -11.591   0.936 -33.830  1.00  0.00     0.079 A 
HETATM   31  C   UNL     1     -13.293   2.603 -34.201  1.00  0.00     0.035 A 
HETATM   32  C   UNL     1     -12.535  -0.063 -33.569  1.00  0.00     0.033 A 
HETATM   33  C   UNL     1     -13.882   0.313 -33.627  1.00  0.00     0.002 A 
HETATM   34  C   UNL     1     -14.258   1.622 -33.933  1.00  0.00     0.002 A 
ENDBRANCH  25  26
ENDBRANCH   2  25
TORSDOF 8
ENDMDL
MODEL 2
REMARK VINA RESULT:      -8.9      3.044      8.199
REMARK  8 active torsions:
REMARK  status: ('A' for Active; 'I' for Inactive)
REMARK    1  A    between atoms: C_2  and  N_3 
REMARK    2  A    between atoms: C_2  and  C_23 
REMARK       I    between atoms: N_3  and  C_4 
REMARK    3  A    between atoms: N_3  and  C_16 
REMARK    4  A    between atoms: C_4  and  C_5 
REMARK    5  A    between atoms: C_5  and  N_6 
REMARK    6  A    between atoms: C_16  and  C_17 
REMARK       I    between atoms: C_23  and  N_24 
REMARK    7  A    between atoms: N_24  and  C_25 
REMARK    8  A    between atoms: C_28  and  O_29 
ROOT
HETATM    1  N   UNL     1      -4.807   3.468 -32.096  1.00  0.00    -0.333 N 
HETATM    2  C   UNL     1      -3.579   3.874 -32.621  1.00  0.00     0.240 C 
HETATM    3  O   UNL     1      -2.522   3.449 -32.145  1.00  0.00    -0.271 OA
ENDROOT
BRANCH   1   4
HETATM    4  C   UNL     1      -4.796   2.581 -30.903  1.00  0.00     0.176 C 
HETATM    5  C   UNL     1      -5.727   3.067 -29.789  1.00  0.00     0.042 C 
BRANCH   4   6
HETATM    6  C   UNL     1      -4.979   1.056 -31.161  1.00  0.00     0.244 C 
HETATM    7  N   UNL     1      -4.145   0.533 -32.138  1.00  0.00    -0.325 N 
HETATM    8  H   UNL     1      -3.628   1.200 -32.701  1.00  0.00     0.169 HD
HETATM    9  O   UNL     1      -5.703   0.394 -30.418  1.00  0.00    -0.271 OA
BRANCH   7  10
HETATM   10  C   UNL     1      -4.048  -0.820 -32.536  1.00  0.00     0.035 A 
HETATM   11  C   UNL     1      -4.693  -1.354 -33.653  1.00  0.00     0.032 A 
HETATM   12  C   UNL     1      -4.539  -2.704 -33.990  1.00  0.00     0.039 A 
HETATM   13  C   UNL     1      -3.727  -3.540 -33.227  1.00  0.00     0.068 A 
HETATM   14  C   UNL     1      -3.093  -3.024 -32.099  1.00  0.00     0.039 A 
HETATM   15  C   UNL     1      -3.255  -1.672 -31.757  1.00  0.00     0.032 A 
BRANCH  13  16
HETATM   16  O   UNL     1      -3.655  -4.833 -33.667  1.00  0.00    -0.356 OA
HETATM   17  C   UNL     1      -4.746  -5.288 -34.456  1.00  0.00     0.210 C 
ENDBRANCH  13  16
ENDBRANCH   7  10
ENDBRANCH   4   6
ENDBRANCH   1   4
BRANCH   1  18
HETATM   18  C   UNL     1      -6.125   3.831 -32.643  1.00  0.00     0.165 C 
BRANCH  18  19
HETATM   19  C   UNL     1      -6.919   2.695 -33.246  1.00  0.00    -0.040 A 
HETATM   20  C   UNL     1      -8.161   2.292 -32.737  1.00  0.00     0.009 A 
HETATM   21  C   UNL     1      -8.871   1.243 -33.328  1.00  0.00     0.001 A 
HETATM   22  C   UNL     1      -8.355   0.591 -34.445  1.00  0.00     0.000 A 
HETATM   23  C   UNL     1      -7.136   0.996 -34.980  1.00  0.00     0.001 A 
HETATM   24  C   UNL     1      -6.429   2.047 -34.393  1.00  0.00     0.009 A 
ENDBRANCH  18  19
ENDBRANCH   1  18
BRANCH   2  25
HETATM   25  C   UNL     1      -3.505   4.820 -33.803  1.00  0.00     0.250 C 
BRANCH  25  26
HETATM   26  N   UNL     1      -2.862   6.084 -33.521  1.00  0.00    -0.263 N 
HETATM   27  N   UNL     1      -1.890   6.568 -34.324  1.00  0.00     0.006 NA
HETATM   28  N   UNL     1      -1.418   7.673 -33.759  1.00  0.00    -0.158 NA
HETATM   29  C   UNL     1      -2.131   7.904 -32.612  1.00  0.00     0.102 A 
HETATM   30  C   UNL     1      -3.085   6.906 -32.445  1.00  0.00     0.079 A 
HETATM   31  C   UNL     1      -2.024   8.923 -31.655  1.00  0.00     0.035 A 
HETATM   32  C   UNL     1      -3.971   6.872 -31.363  1.00  0.00     0.033 A 
HETATM   33  C   UNL     1      -3.852   7.897 -30.418  1.00  0.00     0.002 A 
HETATM   34  C   UNL     1      -2.895   8.904 -30.557  1.00  0.00     0.002 A 
ENDBRANCH  25  26
ENDBRANCH   2  25
TORSDOF 8
ENDMDL
MODEL 3
REMARK VINA RESULT:      -8.9      2.211      7.901
REMARK  8 active torsions:
REMARK  status: ('A' for Active; 'I' for Inactive)
REMARK    1  A    between atoms: C_2  and  N_3 
REMARK    2  A    between atoms: C_2  and  C_23 
REMARK       I    between atoms: N_3  and  C_4 
REMARK    3  A    between atoms: N_3  and  C_16 
REMARK    4  A    between atoms: C_4  and  C_5 
REMARK    5  A    between atoms: C_5  and  N_6 
REMARK    6  A    between atoms: C_16  and  C_17 
REMARK       I    between atoms: C_23  and  N_24 
REMARK    7  A    between atoms: N_24  and  C_25 
REMARK    8  A    between atoms: C_28  and  O_29 
ROOT
HETATM    1  N   UNL     1      -4.923   2.735 -31.596  1.00  0.00    -0.333 N 
HETATM    2  C   UNL     1      -4.460   1.464 -31.256  1.00  0.00     0.240 C 
HETATM    3  O   UNL     1      -4.907   0.878 -30.265  1.00  0.00    -0.271 OA
ENDROOT
BRANCH   1   4
HETATM    4  C   UNL     1      -5.903   3.386 -30.688  1.00  0.00     0.176 C 
HETATM    5  C   UNL     1      -5.723   4.904 -30.605  1.00  0.00     0.042 C 
BRANCH   4   6
HETATM    6  C   UNL     1      -7.402   3.009 -30.887  1.00  0.00     0.244 C 
HETATM    7  N   UNL     1      -7.687   2.403 -32.101  1.00  0.00    -0.325 N 
HETATM    8  H   UNL     1      -6.952   2.415 -32.800  1.00  0.00     0.169 HD
HETATM    9  O   UNL     1      -8.189   3.117 -29.946  1.00  0.00    -0.271 OA
BRANCH   7  10
HETATM   10  C   UNL     1      -8.939   1.902 -32.526  1.00  0.00     0.035 A 
HETATM   11  C   UNL     1      -9.968   2.698 -33.033  1.00  0.00     0.032 A 
HETATM   12  C   UNL     1     -11.177   2.125 -33.445  1.00  0.00     0.039 A 
HETATM   13  C   UNL     1     -11.374   0.748 -33.373  1.00  0.00     0.068 A 
HETATM   14  C   UNL     1     -10.362  -0.054 -32.852  1.00  0.00     0.039 A 
HETATM   15  C   UNL     1      -9.153   0.521 -32.431  1.00  0.00     0.032 A 
BRANCH  13  16
HETATM   16  O   UNL     1     -12.594   0.316 -33.814  1.00  0.00    -0.356 OA
HETATM   17  C   UNL     1     -13.376   1.267 -34.525  1.00  0.00     0.210 C 
ENDBRANCH  13  16
ENDBRANCH   7  10
ENDBRANCH   4   6
ENDBRANCH   1   4
BRANCH   1  18
HETATM   18  C   UNL     1      -4.537   3.484 -32.804  1.00  0.00     0.165 C 
BRANCH  18  19
HETATM   19  C   UNL     1      -3.214   4.212 -32.728  1.00  0.00    -0.040 A 
HETATM   20  C   UNL     1      -2.457   4.274 -31.550  1.00  0.00     0.009 A 
HETATM   21  C   UNL     1      -1.233   4.948 -31.521  1.00  0.00     0.001 A 
HETATM   22  C   UNL     1      -0.743   5.558 -32.673  1.00  0.00     0.000 A 
HETATM   23  C   UNL     1      -1.469   5.483 -33.857  1.00  0.00     0.001 A 
HETATM   24  C   UNL     1      -2.689   4.805 -33.888  1.00  0.00     0.009 A 
ENDBRANCH  18  19
ENDBRANCH   1  18
BRANCH   2  25
HETATM   25  C   UNL     1      -3.420   0.754 -32.101  1.00  0.00     0.250 C 
BRANCH  25  26
HETATM   26  N   UNL     1      -3.799  -0.573 -32.531  1.00  0.00    -0.263 N 
HETATM   27  N   UNL     1      -3.102  -1.660 -32.136  1.00  0.00     0.006 NA
HETATM   28  N   UNL     1      -3.607  -2.711 -32.770  1.00  0.00    -0.158 NA
HETATM   29  C   UNL     1      -4.658  -2.282 -33.537  1.00  0.00     0.102 A 
HETATM   30  C   UNL     1      -4.819  -0.909 -33.385  1.00  0.00     0.079 A 
HETATM   31  C   UNL     1      -5.514  -2.985 -34.397  1.00  0.00     0.035 A 
HETATM   32  C   UNL     1      -5.816  -0.181 -34.041  1.00  0.00     0.033 A 
HETATM   33  C   UNL     1      -6.663  -0.898 -34.894  1.00  0.00     0.002 A 
HETATM   34  C   UNL     1      -6.515  -2.275 -35.073  1.00  0.00     0.002 A 
ENDBRANCH  25  26
ENDBRANCH   2  25
TORSDOF 8
ENDMDL
MODEL 4
REMARK VINA RESULT:      -8.8      2.820      6.105
REMARK  8 active torsions:
REMARK  status: ('A' for Active; 'I' for Inactive)
REMARK    1  A    between atoms: C_2  and  N_3 
REMARK    2  A    between atoms: C_2  and  C_23 
REMARK       I    between atoms: N_3  and  C_4 
REMARK    3  A    between atoms: N_3  and  C_16 
REMARK    4  A    between atoms: C_4  and  C_5 
REMARK    5  A    between atoms: C_5  and  N_6 
REMARK    6  A    between atoms: C_16  and  C_17 
REMARK       I    between atoms: C_23  and  N_24 
REMARK    7  A    between atoms: N_24  and  C_25 
REMARK    8  A    between atoms: C_28  and  O_29 
ROOT
HETATM    1  N   UNL     1      -5.178   2.969 -32.374  1.00  0.00    -0.333 N 
HETATM    2  C   UNL     1      -4.369   1.848 -32.183  1.00  0.00     0.240 C 
HETATM    3  O   UNL     1      -3.208   1.834 -32.604  1.00  0.00    -0.271 OA
ENDROOT
BRANCH   1   4
HETATM    4  C   UNL     1      -4.626   4.101 -33.165  1.00  0.00     0.176 C 
HETATM    5  C   UNL     1      -5.645   4.702 -34.136  1.00  0.00     0.042 C 
BRANCH   4   6
HETATM    6  C   UNL     1      -3.884   5.215 -32.369  1.00  0.00     0.244 C 
HETATM    7  N   UNL     1      -2.679   4.819 -31.810  1.00  0.00    -0.325 N 
HETATM    8  H   UNL     1      -2.476   3.825 -31.820  1.00  0.00     0.169 HD
HETATM    9  O   UNL     1      -4.302   6.373 -32.406  1.00  0.00    -0.271 OA
BRANCH   7  10
HETATM   10  C   UNL     1      -1.768   5.629 -31.093  1.00  0.00     0.035 A 
HETATM   11  C   UNL     1      -2.124   6.435 -30.010  1.00  0.00     0.032 A 
HETATM   12  C   UNL     1      -1.161   7.201 -29.343  1.00  0.00     0.039 A 
HETATM   13  C   UNL     1       0.175   7.165 -29.736  1.00  0.00     0.068 A 
HETATM   14  C   UNL     1       0.539   6.379 -30.827  1.00  0.00     0.039 A 
HETATM   15  C   UNL     1      -0.428   5.617 -31.501  1.00  0.00     0.032 A 
BRANCH  13  16
HETATM   16  O   UNL     1       1.015   7.952 -28.997  1.00  0.00    -0.356 OA
HETATM   17  C   UNL     1       0.578   8.274 -27.683  1.00  0.00     0.210 C 
ENDBRANCH  13  16
ENDBRANCH   7  10
ENDBRANCH   4   6
ENDBRANCH   1   4
BRANCH   1  18
HETATM   18  C   UNL     1      -6.538   3.136 -31.833  1.00  0.00     0.165 C 
BRANCH  18  19
HETATM   19  C   UNL     1      -7.589   2.215 -32.408  1.00  0.00    -0.040 A 
HETATM   20  C   UNL     1      -7.849   2.137 -33.784  1.00  0.00     0.009 A 
HETATM   21  C   UNL     1      -8.823   1.266 -34.280  1.00  0.00     0.001 A 
HETATM   22  C   UNL     1      -9.541   0.451 -33.409  1.00  0.00     0.000 A 
HETATM   23  C   UNL     1      -9.277   0.496 -32.044  1.00  0.00     0.001 A 
HETATM   24  C   UNL     1      -8.301   1.362 -31.549  1.00  0.00     0.009 A 
ENDBRANCH  18  19
ENDBRANCH   1  18
BRANCH   2  25
HETATM   25  C   UNL     1      -4.877   0.631 -31.434  1.00  0.00     0.250 C 
BRANCH  25  26
HETATM   26  N   UNL     1      -4.441  -0.635 -31.980  1.00  0.00    -0.263 N 
HETATM   27  N   UNL     1      -3.309  -1.230 -31.545  1.00  0.00     0.006 NA
HETATM   28  N   UNL     1      -3.109  -2.305 -32.297  1.00  0.00    -0.158 NA
HETATM   29  C   UNL     1      -4.149  -2.406 -33.183  1.00  0.00     0.102 A 
HETATM   30  C   UNL     1      -5.035  -1.353 -32.986  1.00  0.00     0.079 A 
HETATM   31  C   UNL     1      -4.408  -3.347 -34.190  1.00  0.00     0.035 A 
HETATM   32  C   UNL     1      -6.202  -1.187 -33.741  1.00  0.00     0.033 A 
HETATM   33  C   UNL     1      -6.446  -2.135 -34.740  1.00  0.00     0.002 A 
HETATM   34  C   UNL     1      -5.566  -3.195 -34.966  1.00  0.00     0.002 A 
ENDBRANCH  25  26
ENDBRANCH   2  25
TORSDOF 8
ENDMDL
MODEL 5
REMARK VINA RESULT:      -8.8      2.285      8.323
REMARK  8 active torsions:
REMARK  status: ('A' for Active; 'I' for Inactive)
REMARK    1  A    between atoms: C_2  and  N_3 
REMARK    2  A    between atoms: C_2  and  C_23 
REMARK       I    between atoms: N_3  and  C_4 
REMARK    3  A    between atoms: N_3  and  C_16 
REMARK    4  A    between atoms: C_4  and  C_5 
REMARK    5  A    between atoms: C_5  and  N_6 
REMARK    6  A    between atoms: C_16  and  C_17 
REMARK       I    between atoms: C_23  and  N_24 
REMARK    7  A    between atoms: N_24  and  C_25 
REMARK    8  A    between atoms: C_28  and  O_29 
ROOT
HETATM    1  N   UNL     1      -5.964   1.542 -32.189  1.00  0.00    -0.333 N 
HETATM    2  C   UNL     1      -5.392   0.278 -32.034  1.00  0.00     0.240 C 
HETATM    3  O   UNL     1      -5.779  -0.479 -31.138  1.00  0.00    -0.271 OA
ENDROOT
BRANCH   1   4
HETATM    4  C   UNL     1      -6.986   1.971 -31.198  1.00  0.00     0.176 C 
HETATM    5  C   UNL     1      -6.507   3.120 -30.307  1.00  0.00     0.042 C 
BRANCH   4   6
HETATM    6  C   UNL     1      -8.419   2.245 -31.744  1.00  0.00     0.244 C 
HETATM    7  N   UNL     1      -8.862   1.328 -32.685  1.00  0.00    -0.325 N 
HETATM    8  H   UNL     1      -8.172   0.682 -33.053  1.00  0.00     0.169 HD
HETATM    9  O   UNL     1      -9.113   3.120 -31.225  1.00  0.00    -0.271 OA
BRANCH   7  10
HETATM   10  C   UNL     1     -10.134   1.291 -33.301  1.00  0.00     0.035 A 
HETATM   11  C   UNL     1     -11.088   0.298 -33.065  1.00  0.00     0.032 A 
HETATM   12  C   UNL     1     -12.331   0.336 -33.706  1.00  0.00     0.039 A 
HETATM   13  C   UNL     1     -12.650   1.370 -34.582  1.00  0.00     0.068 A 
HETATM   14  C   UNL     1     -11.700   2.356 -34.840  1.00  0.00     0.039 A 
HETATM   15  C   UNL     1     -10.450   2.314 -34.204  1.00  0.00     0.032 A 
BRANCH  13  16
HETATM   16  O   UNL     1     -13.899   1.294 -35.135  1.00  0.00    -0.356 OA
HETATM   17  C   UNL     1     -14.924   0.775 -34.298  1.00  0.00     0.210 C 
ENDBRANCH  13  16
ENDBRANCH   7  10
ENDBRANCH   4   6
ENDBRANCH   1   4
BRANCH   1  18
HETATM   18  C   UNL     1      -5.653   2.485 -33.276  1.00  0.00     0.165 C 
BRANCH  18  19
HETATM   19  C   UNL     1      -4.649   3.564 -32.941  1.00  0.00    -0.040 A 
HETATM   20  C   UNL     1      -4.935   4.929 -33.083  1.00  0.00     0.009 A 
HETATM   21  C   UNL     1      -3.985   5.898 -32.753  1.00  0.00     0.001 A 
HETATM   22  C   UNL     1      -2.738   5.517 -32.263  1.00  0.00     0.000 A 
HETATM   23  C   UNL     1      -2.446   4.167 -32.090  1.00  0.00     0.001 A 
HETATM   24  C   UNL     1      -3.398   3.199 -32.414  1.00  0.00     0.009 A 
ENDBRANCH  18  19
ENDBRANCH   1  18
BRANCH   2  25
HETATM   25  C   UNL     1      -4.305  -0.213 -32.970  1.00  0.00     0.250 C 
BRANCH  25  26
HETATM   26  N   UNL     1      -4.040  -1.632 -32.890  1.00  0.00    -0.263 N 
HETATM   27  N   UNL     1      -3.112  -2.122 -32.041  1.00  0.00     0.006 NA
HETATM   28  N   UNL     1      -3.011  -3.426 -32.268  1.00  0.00    -0.158 NA
HETATM   29  C   UNL     1      -3.915  -3.761 -33.241  1.00  0.00     0.102 A 
HETATM   30  C   UNL     1      -4.609  -2.626 -33.646  1.00  0.00     0.079 A 
HETATM   31  C   UNL     1      -4.200  -4.994 -33.844  1.00  0.00     0.035 A 
HETATM   32  C   UNL     1      -5.605  -2.651 -34.628  1.00  0.00     0.033 A 
HETATM   33  C   UNL     1      -5.878  -3.890 -35.218  1.00  0.00     0.002 A 
HETATM   34  C   UNL     1      -5.187  -5.042 -34.837  1.00  0.00     0.002 A 
ENDBRANCH  25  26
ENDBRANCH   2  25
TORSDOF 8
ENDMDL
MODEL 6
REMARK VINA RESULT:      -8.8      2.489      5.994
REMARK  8 active torsions:
REMARK  status: ('A' for Active; 'I' for Inactive)
REMARK    1  A    between atoms: C_2  and  N_3 
REMARK    2  A    between atoms: C_2  and  C_23 
REMARK       I    between atoms: N_3  and  C_4 
REMARK    3  A    between atoms: N_3  and  C_16 
REMARK    4  A    between atoms: C_4  and  C_5 
REMARK    5  A    between atoms: C_5  and  N_6 
REMARK    6  A    between atoms: C_16  and  C_17 
REMARK       I    between atoms: C_23  and  N_24 
REMARK    7  A    between atoms: N_24  and  C_25 
REMARK    8  A    between atoms: C_28  and  O_29 
ROOT
HETATM    1  N   UNL     1      -8.587   2.224 -33.088  1.00  0.00    -0.333 N 
HETATM    2  C   UNL     1      -8.086   1.095 -33.738  1.00  0.00     0.240 C 
HETATM    3  O   UNL     1      -7.808   1.136 -34.941  1.00  0.00    -0.271 OA
ENDROOT
BRANCH   1   4
HETATM    4  C   UNL     1      -8.848   3.439 -33.903  1.00  0.00     0.176 C 
HETATM    5  C   UNL     1     -10.233   4.039 -33.652  1.00  0.00     0.042 C 
BRANCH   4   6
HETATM    6  C   UNL     1      -7.748   4.542 -33.890  1.00  0.00     0.244 C 
HETATM    7  N   UNL     1      -6.449   4.060 -33.831  1.00  0.00    -0.325 N 
HETATM    8  H   UNL     1      -6.338   3.071 -33.634  1.00  0.00     0.169 HD
HETATM    9  O   UNL     1      -8.060   5.718 -34.081  1.00  0.00    -0.271 OA
BRANCH   7  10
HETATM   10  C   UNL     1      -5.258   4.821 -33.867  1.00  0.00     0.035 A 
HETATM   11  C   UNL     1      -4.830   5.653 -32.831  1.00  0.00     0.032 A 
HETATM   12  C   UNL     1      -3.631   6.367 -32.937  1.00  0.00     0.039 A 
HETATM   13  C   UNL     1      -2.832   6.253 -34.072  1.00  0.00     0.068 A 
HETATM   14  C   UNL     1      -3.257   5.441 -35.121  1.00  0.00     0.039 A 
HETATM   15  C   UNL     1      -4.464   4.731 -35.018  1.00  0.00     0.032 A 
BRANCH  13  16
HETATM   16  O   UNL     1      -1.684   6.996 -34.046  1.00  0.00    -0.356 OA
HETATM   17  C   UNL     1      -1.394   7.660 -32.823  1.00  0.00     0.210 C 
ENDBRANCH  13  16
ENDBRANCH   7  10
ENDBRANCH   4   6
ENDBRANCH   1   4
BRANCH   1  18
HETATM   18  C   UNL     1      -8.859   2.320 -31.644  1.00  0.00     0.165 C 
BRANCH  18  19
HETATM   19  C   UNL     1      -7.803   3.025 -30.824  1.00  0.00    -0.040 A 
HETATM   20  C   UNL     1      -6.492   2.541 -30.710  1.00  0.00     0.009 A 
HETATM   21  C   UNL     1      -5.540   3.226 -29.951  1.00  0.00     0.001 A 
HETATM   22  C   UNL     1      -5.881   4.412 -29.306  1.00  0.00     0.000 A 
HETATM   23  C   UNL     1      -7.170   4.921 -29.431  1.00  0.00     0.001 A 
HETATM   24  C   UNL     1      -8.120   4.240 -30.194  1.00  0.00     0.009 A 
ENDBRANCH  18  19
ENDBRANCH   1  18
BRANCH   2  25
HETATM   25  C   UNL     1      -7.844  -0.201 -32.989  1.00  0.00     0.250 C 
BRANCH  25  26
HETATM   26  N   UNL     1      -6.567  -0.822 -33.261  1.00  0.00    -0.263 N 
HETATM   27  N   UNL     1      -5.408  -0.200 -32.955  1.00  0.00     0.006 NA
HETATM   28  N   UNL     1      -4.417  -0.952 -33.417  1.00  0.00    -0.158 NA
HETATM   29  C   UNL     1      -4.960  -2.076 -33.981  1.00  0.00     0.102 A 
HETATM   30  C   UNL     1      -6.346  -2.029 -33.875  1.00  0.00     0.079 A 
HETATM   31  C   UNL     1      -4.354  -3.171 -34.613  1.00  0.00     0.035 A 
HETATM   32  C   UNL     1      -7.182  -3.041 -34.358  1.00  0.00     0.033 A 
HETATM   33  C   UNL     1      -6.560  -4.127 -34.984  1.00  0.00     0.002 A 
HETATM   34  C   UNL     1      -5.172  -4.192 -35.114  1.00  0.00     0.002 A 
ENDBRANCH  25  26
ENDBRANCH   2  25
TORSDOF 8
ENDMDL
MODEL 7
REMARK VINA RESULT:      -8.7      2.340      8.487
REMARK  8 active torsions:
REMARK  status: ('A' for Active; 'I' for Inactive)
REMARK    1  A    between atoms: C_2  and  N_3 
REMARK    2  A    between atoms: C_2  and  C_23 
REMARK       I    between atoms: N_3  and  C_4 
REMARK    3  A    between atoms: N_3  and  C_16 
REMARK    4  A    between atoms: C_4  and  C_5 
REMARK    5  A    between atoms: C_5  and  N_6 
REMARK    6  A    between atoms: C_16  and  C_17 
REMARK       I    between atoms: C_23  and  N_24 
REMARK    7  A    between atoms: N_24  and  C_25 
REMARK    8  A    between atoms: C_28  and  O_29 
ROOT
HETATM    1  N   UNL     1      -6.118   3.176 -32.217  1.00  0.00    -0.333 N 
HETATM    2  C   UNL     1      -5.058   3.074 -31.315  1.00  0.00     0.240 C 
HETATM    3  O   UNL     1      -5.216   3.372 -30.126  1.00  0.00    -0.271 OA
ENDROOT
BRANCH   1   4
HETATM    4  C   UNL     1      -7.406   3.727 -31.721  1.00  0.00     0.176 C 
HETATM    5  C   UNL     1      -7.635   5.180 -32.143  1.00  0.00     0.042 C 
BRANCH   4   6
HETATM    6  C   UNL     1      -8.679   2.864 -31.968  1.00  0.00     0.244 C 
HETATM    7  N   UNL     1      -9.573   3.403 -32.880  1.00  0.00    -0.325 N 
HETATM    8  H   UNL     1      -9.409   4.363 -33.167  1.00  0.00     0.169 HD
HETATM    9  O   UNL     1      -8.752   1.732 -31.489  1.00  0.00    -0.271 OA
BRANCH   7  10
HETATM   10  C   UNL     1     -10.774   2.817 -33.342  1.00  0.00     0.035 A 
HETATM   11  C   UNL     1     -12.015   2.988 -32.726  1.00  0.00     0.032 A 
HETATM   12  C   UNL     1     -13.162   2.382 -33.251  1.00  0.00     0.039 A 
HETATM   13  C   UNL     1     -13.094   1.607 -34.407  1.00  0.00     0.068 A 
HETATM   14  C   UNL     1     -11.858   1.414 -35.020  1.00  0.00     0.039 A 
HETATM   15  C   UNL     1     -10.706   2.014 -34.489  1.00  0.00     0.032 A 
BRANCH  13  16
HETATM   16  O   UNL     1     -14.286   1.079 -34.819  1.00  0.00    -0.356 OA
HETATM   17  C   UNL     1     -15.345   1.106 -33.871  1.00  0.00     0.210 C 
ENDBRANCH  13  16
ENDBRANCH   7  10
ENDBRANCH   4   6
ENDBRANCH   1   4
BRANCH   1  18
HETATM   18  C   UNL     1      -6.073   2.757 -33.628  1.00  0.00     0.165 C 
BRANCH  18  19
HETATM   19  C   UNL     1      -6.391   1.303 -33.891  1.00  0.00    -0.040 A 
HETATM   20  C   UNL     1      -5.863   0.265 -33.111  1.00  0.00     0.009 A 
HETATM   21  C   UNL     1      -6.188  -1.067 -33.377  1.00  0.00     0.001 A 
HETATM   22  C   UNL     1      -7.057  -1.380 -34.420  1.00  0.00     0.000 A 
HETATM   23  C   UNL     1      -7.612  -0.361 -35.187  1.00  0.00     0.001 A 
HETATM   24  C   UNL     1      -7.291   0.971 -34.917  1.00  0.00     0.009 A 
ENDBRANCH  18  19
ENDBRANCH   1  18
BRANCH   2  25
HETATM   25  C   UNL     1      -3.697   2.573 -31.755  1.00  0.00     0.250 C 
BRANCH  25  26
HETATM   26  N   UNL     1      -2.672   3.591 -31.814  1.00  0.00    -0.263 N 
HETATM   27  N   UNL     1      -1.747   3.709 -30.837  1.00  0.00     0.006 NA
HETATM   28  N   UNL     1      -1.019   4.786 -31.104  1.00  0.00    -0.158 NA
HETATM   29  C   UNL     1      -1.467   5.323 -32.282  1.00  0.00     0.102 A 
HETATM   30  C   UNL     1      -2.519   4.559 -32.774  1.00  0.00     0.079 A 
HETATM   31  C   UNL     1      -1.048   6.458 -32.991  1.00  0.00     0.035 A 
HETATM   32  C   UNL     1      -3.184   4.857 -33.969  1.00  0.00     0.033 A 
HETATM   33  C   UNL     1      -2.752   5.991 -34.665  1.00  0.00     0.002 A 
HETATM   34  C   UNL     1      -1.705   6.782 -34.186  1.00  0.00     0.002 A 
ENDBRANCH  25  26
ENDBRANCH   2  25
TORSDOF 8
ENDMDL
MODEL 8
REMARK VINA RESULT:      -8.7      1.856      5.722
REMARK  8 active torsions:
REMARK  status: ('A' for Active; 'I' for Inactive)
REMARK    1  A    between atoms: C_2  and  N_3 
REMARK    2  A    between atoms: C_2  and  C_23 
REMARK       I    between atoms: N_3  and  C_4 
REMARK    3  A    between atoms: N_3  and  C_16 
REMARK    4  A    between atoms: C_4  and  C_5 
REMARK    5  A    between atoms: C_5  and  N_6 
REMARK    6  A    between atoms: C_16  and  C_17 
REMARK       I    between atoms: C_23  and  N_24 
REMARK    7  A    between atoms: N_24  and  C_25 
REMARK    8  A    between atoms: C_28  and  O_29 
ROOT
HETATM    1  N   UNL     1      -8.903   2.491 -33.218  1.00  0.00    -0.333 N 
HETATM    2  C   UNL     1      -8.439   2.075 -31.970  1.00  0.00     0.240 C 
HETATM    3  O   UNL     1      -8.104   2.904 -31.118  1.00  0.00    -0.271 OA
ENDROOT
BRANCH   1   4
HETATM    4  C   UNL     1      -8.902   3.949 -33.513  1.00  0.00     0.176 C 
HETATM    5  C   UNL     1     -10.001   4.709 -32.767  1.00  0.00     0.042 C 
BRANCH   4   6
HETATM    6  C   UNL     1      -7.534   4.685 -33.399  1.00  0.00     0.244 C 
HETATM    7  N   UNL     1      -6.435   3.918 -33.753  1.00  0.00    -0.325 N 
HETATM    8  H   UNL     1      -6.595   2.924 -33.884  1.00  0.00     0.169 HD
HETATM    9  O   UNL     1      -7.510   5.894 -33.165  1.00  0.00    -0.271 OA
BRANCH   7  10
HETATM   10  C   UNL     1      -5.086   4.339 -33.805  1.00  0.00     0.035 A 
HETATM   11  C   UNL     1      -4.506   4.967 -34.909  1.00  0.00     0.032 A 
HETATM   12  C   UNL     1      -3.165   5.366 -34.882  1.00  0.00     0.039 A 
HETATM   13  C   UNL     1      -2.383   5.157 -33.748  1.00  0.00     0.068 A 
HETATM   14  C   UNL     1      -2.945   4.514 -32.647  1.00  0.00     0.039 A 
HETATM   15  C   UNL     1      -4.288   4.107 -32.678  1.00  0.00     0.032 A 
BRANCH  13  16
HETATM   16  O   UNL     1      -1.093   5.599 -33.847  1.00  0.00    -0.356 OA
HETATM   17  C   UNL     1      -0.832   6.893 -33.319  1.00  0.00     0.210 C 
ENDBRANCH  13  16
ENDBRANCH   7  10
ENDBRANCH   4   6
ENDBRANCH   1   4
BRANCH   1  18
HETATM   18  C   UNL     1      -9.421   1.601 -34.271  1.00  0.00     0.165 C 
BRANCH  18  19
HETATM   19  C   UNL     1     -10.921   1.420 -34.297  1.00  0.00    -0.040 A 
HETATM   20  C   UNL     1     -11.573   0.435 -33.542  1.00  0.00     0.009 A 
HETATM   21  C   UNL     1     -12.964   0.304 -33.584  1.00  0.00     0.001 A 
HETATM   22  C   UNL     1     -13.724   1.166 -34.371  1.00  0.00     0.000 A 
HETATM   23  C   UNL     1     -13.096   2.167 -35.106  1.00  0.00     0.001 A 
HETATM   24  C   UNL     1     -11.707   2.300 -35.059  1.00  0.00     0.009 A 
ENDBRANCH  18  19
ENDBRANCH   1  18
BRANCH   2  25
HETATM   25  C   UNL     1      -8.359   0.604 -31.612  1.00  0.00     0.250 C 
BRANCH  25  26
HETATM   26  N   UNL     1      -7.045   0.020 -31.763  1.00  0.00    -0.263 N 
HETATM   27  N   UNL     1      -6.052   0.299 -30.891  1.00  0.00     0.006 NA
HETATM   28  N   UNL     1      -4.948  -0.283 -31.343  1.00  0.00    -0.158 NA
HETATM   29  C   UNL     1      -5.264  -0.966 -32.488  1.00  0.00     0.102 A 
HETATM   30  C   UNL     1      -6.616  -0.806 -32.770  1.00  0.00     0.079 A 
HETATM   31  C   UNL     1      -4.465  -1.732 -33.349  1.00  0.00     0.035 A 
HETATM   32  C   UNL     1      -7.237  -1.392 -33.878  1.00  0.00     0.033 A 
HETATM   33  C   UNL     1      -6.426  -2.154 -34.727  1.00  0.00     0.002 A 
HETATM   34  C   UNL     1      -5.064  -2.320 -34.471  1.00  0.00     0.002 A 
ENDBRANCH  25  26
ENDBRANCH   2  25
TORSDOF 8
ENDMDL
MODEL 9
REMARK VINA RESULT:      -8.6      2.191      7.845
REMARK  8 active torsions:
REMARK  status: ('A' for Active; 'I' for Inactive)
REMARK    1  A    between atoms: C_2  and  N_3 
REMARK    2  A    between atoms: C_2  and  C_23 
REMARK       I    between atoms: N_3  and  C_4 
REMARK    3  A    between atoms: N_3  and  C_16 
REMARK    4  A    between atoms: C_4  and  C_5 
REMARK    5  A    between atoms: C_5  and  N_6 
REMARK    6  A    between atoms: C_16  and  C_17 
REMARK       I    between atoms: C_23  and  N_24 
REMARK    7  A    between atoms: N_24  and  C_25 
REMARK    8  A    between atoms: C_28  and  O_29 
ROOT
HETATM    1  N   UNL     1      -4.748   0.718 -32.192  1.00  0.00    -0.333 N 
HETATM    2  C   UNL     1      -4.547   1.890 -31.463  1.00  0.00     0.240 C 
HETATM    3  O   UNL     1      -5.417   2.304 -30.689  1.00  0.00    -0.271 OA
ENDROOT
BRANCH   1   4
HETATM    4  C   UNL     1      -6.063   0.036 -32.069  1.00  0.00     0.176 C 
HETATM    5  C   UNL     1      -6.443  -0.270 -30.618  1.00  0.00     0.042 C 
BRANCH   4   6
HETATM    6  C   UNL     1      -7.257   0.673 -32.839  1.00  0.00     0.244 C 
HETATM    7  N   UNL     1      -8.465   0.641 -32.159  1.00  0.00    -0.325 N 
HETATM    8  H   UNL     1      -8.502   0.070 -31.321  1.00  0.00     0.169 HD
HETATM    9  O   UNL     1      -7.051   1.283 -33.890  1.00  0.00    -0.271 OA
BRANCH   7  10
HETATM   10  C   UNL     1      -9.694   1.196 -32.584  1.00  0.00     0.035 A 
HETATM   11  C   UNL     1     -10.660   0.494 -33.307  1.00  0.00     0.032 A 
HETATM   12  C   UNL     1     -11.859   1.110 -33.682  1.00  0.00     0.039 A 
HETATM   13  C   UNL     1     -12.122   2.432 -33.330  1.00  0.00     0.068 A 
HETATM   14  C   UNL     1     -11.159   3.149 -32.624  1.00  0.00     0.039 A 
HETATM   15  C   UNL     1      -9.952   2.533 -32.256  1.00  0.00     0.032 A 
BRANCH  13  16
HETATM   16  O   UNL     1     -13.332   2.911 -33.750  1.00  0.00    -0.356 OA
HETATM   17  C   UNL     1     -14.252   3.271 -32.727  1.00  0.00     0.210 C 
ENDBRANCH  13  16
ENDBRANCH   7  10
ENDBRANCH   4   6
ENDBRANCH   1   4
BRANCH   1  18
HETATM   18  C   UNL     1      -3.747   0.080 -33.064  1.00  0.00     0.165 C 
BRANCH  18  19
HETATM   19  C   UNL     1      -3.695  -1.429 -33.007  1.00  0.00    -0.040 A 
HETATM   20  C   UNL     1      -4.214  -2.239 -34.028  1.00  0.00     0.009 A 
HETATM   21  C   UNL     1      -4.138  -3.631 -33.945  1.00  0.00     0.001 A 
HETATM   22  C   UNL     1      -3.531  -4.235 -32.847  1.00  0.00     0.000 A 
HETATM   23  C   UNL     1      -2.986  -3.447 -31.838  1.00  0.00     0.001 A 
HETATM   24  C   UNL     1      -3.057  -2.055 -31.923  1.00  0.00     0.009 A 
ENDBRANCH  18  19
ENDBRANCH   1  18
BRANCH   2  25
HETATM   25  C   UNL     1      -3.254   2.674 -31.574  1.00  0.00     0.250 C 
BRANCH  25  26
HETATM   26  N   UNL     1      -3.328   3.837 -32.430  1.00  0.00    -0.263 N 
HETATM   27  N   UNL     1      -4.329   3.983 -33.324  1.00  0.00     0.006 NA
HETATM   28  N   UNL     1      -4.074   5.075 -34.035  1.00  0.00    -0.158 NA
HETATM   29  C   UNL     1      -2.922   5.639 -33.552  1.00  0.00     0.102 A 
HETATM   30  C   UNL     1      -2.431   4.872 -32.501  1.00  0.00     0.079 A 
HETATM   31  C   UNL     1      -2.224   6.785 -33.956  1.00  0.00     0.035 A 
HETATM   32  C   UNL     1      -1.265   5.198 -31.801  1.00  0.00     0.033 A 
HETATM   33  C   UNL     1      -0.581   6.347 -32.215  1.00  0.00     0.002 A 
HETATM   34  C   UNL     1      -1.047   7.126 -33.275  1.00  0.00     0.002 A 
ENDBRANCH  25  26
ENDBRANCH   2  25
TORSDOF 8
ENDMDL
MODEL 10
REMARK VINA RESULT:      -8.5      3.671      7.209
REMARK  8 active torsions:
REMARK  status: ('A' for Active; 'I' for Inactive)
REMARK    1  A    between atoms: C_2  and  N_3 
REMARK    2  A    between atoms: C_2  and  C_23 
REMARK       I    between atoms: N_3  and  C_4 
REMARK    3  A    between atoms: N_3  and  C_16 
REMARK    4  A    between atoms: C_4  and  C_5 
REMARK    5  A    between atoms: C_5  and  N_6 
REMARK    6  A    between atoms: C_16  and  C_17 
REMARK       I    between atoms: C_23  and  N_24 
REMARK    7  A    between atoms: N_24  and  C_25 
REMARK    8  A    between atoms: C_28  and  O_29 
ROOT
HETATM    1  N   UNL     1      -3.435   4.283 -33.000  1.00  0.00    -0.333 N 
HETATM    2  C   UNL     1      -3.553   3.330 -31.987  1.00  0.00     0.240 C 
HETATM    3  O   UNL     1      -2.560   2.969 -31.347  1.00  0.00    -0.271 OA
ENDROOT
BRANCH   1   4
HETATM    4  C   UNL     1      -2.075   4.781 -33.333  1.00  0.00     0.176 C 
HETATM    5  C   UNL     1      -1.865   4.984 -34.836  1.00  0.00     0.042 C 
BRANCH   4   6
HETATM    6  C   UNL     1      -1.561   6.010 -32.525  1.00  0.00     0.244 C 
HETATM    7  N   UNL     1      -1.519   5.820 -31.153  1.00  0.00    -0.325 N 
HETATM    8  H   UNL     1      -1.975   4.988 -30.793  1.00  0.00     0.169 HD
HETATM    9  O   UNL     1      -1.093   6.981 -33.121  1.00  0.00    -0.271 OA
BRANCH   7  10
HETATM   10  C   UNL     1      -1.042   6.732 -30.183  1.00  0.00     0.035 A 
HETATM   11  C   UNL     1       0.276   6.767 -29.725  1.00  0.00     0.032 A 
HETATM   12  C   UNL     1       0.676   7.708 -28.770  1.00  0.00     0.039 A 
HETATM   13  C   UNL     1      -0.229   8.639 -28.264  1.00  0.00     0.068 A 
HETATM   14  C   UNL     1      -1.552   8.602 -28.699  1.00  0.00     0.039 A 
HETATM   15  C   UNL     1      -1.954   7.653 -29.651  1.00  0.00     0.032 A 
BRANCH  13  16
HETATM   16  O   UNL     1       0.289   9.508 -27.344  1.00  0.00    -0.356 OA
HETATM   17  C   UNL     1      -0.654  10.270 -26.602  1.00  0.00     0.210 C 
ENDBRANCH  13  16
ENDBRANCH   7  10
ENDBRANCH   4   6
ENDBRANCH   1   4
BRANCH   1  18
HETATM   18  C   UNL     1      -4.558   4.858 -33.758  1.00  0.00     0.165 C 
BRANCH  18  19
HETATM   19  C   UNL     1      -5.479   5.767 -32.977  1.00  0.00    -0.040 A 
HETATM   20  C   UNL     1      -4.999   6.771 -32.124  1.00  0.00     0.009 A 
HETATM   21  C   UNL     1      -5.881   7.599 -31.426  1.00  0.00     0.001 A 
HETATM   22  C   UNL     1      -7.256   7.444 -31.579  1.00  0.00     0.000 A 
HETATM   23  C   UNL     1      -7.750   6.470 -32.441  1.00  0.00     0.001 A 
HETATM   24  C   UNL     1      -6.869   5.646 -33.144  1.00  0.00     0.009 A 
ENDBRANCH  18  19
ENDBRANCH   1  18
BRANCH   2  25
HETATM   25  C   UNL     1      -4.898   2.732 -31.624  1.00  0.00     0.250 C 
BRANCH  25  26
HETATM   26  N   UNL     1      -5.076   1.358 -32.036  1.00  0.00    -0.263 N 
HETATM   27  N   UNL     1      -4.478   0.346 -31.371  1.00  0.00     0.006 NA
HETATM   28  N   UNL     1      -4.730  -0.774 -32.038  1.00  0.00    -0.158 NA
HETATM   29  C   UNL     1      -5.527  -0.464 -33.108  1.00  0.00     0.102 A 
HETATM   30  C   UNL     1      -5.784   0.902 -33.119  1.00  0.00     0.079 A 
HETATM   31  C   UNL     1      -6.061  -1.275 -34.119  1.00  0.00     0.035 A 
HETATM   32  C   UNL     1      -6.576   1.520 -34.093  1.00  0.00     0.033 A 
HETATM   33  C   UNL     1      -7.103   0.696 -35.094  1.00  0.00     0.002 A 
HETATM   34  C   UNL     1      -6.849  -0.677 -35.111  1.00  0.00     0.002 A 
ENDBRANCH  25  26
ENDBRANCH   2  25
TORSDOF 8
ENDMDL
