MODEL 1
REMARK VINA RESULT:      -8.7      0.000      0.000
REMARK  2 active torsions:
REMARK  status: ('A' for Active; 'I' for Inactive)
REMARK    1  A    between atoms: C_6  and  N_7 
REMARK    2  A    between atoms: N_7  and  C_8 
ROOT
HETATM    1  C   UNL     1      -5.112   5.232 -33.980  1.00  0.00     0.093 C 
HETATM    2  C   UNL     1      -6.309   4.344 -33.831  1.00  0.00     0.125 A 
HETATM    3  N   UNL     1      -7.498   4.857 -34.161  1.00  0.00    -0.226 NA
HETATM    4  C   UNL     1      -8.506   3.989 -33.987  1.00  0.00     0.114 A 
HETATM    5  C   UNL     1      -8.405   2.679 -33.516  1.00  0.00     0.053 A 
HETATM    6  C   UNL     1      -7.106   2.234 -33.189  1.00  0.00     0.143 A 
HETATM    7  N   UNL     1      -6.080   3.102 -33.367  1.00  0.00    -0.215 NA
HETATM    8  S   UNL     1     -10.122   4.459 -34.353  1.00  0.00    -0.073 SA
HETATM    9  C   UNL     1     -10.680   2.950 -33.908  1.00  0.00    -0.008 A 
HETATM   10  C   UNL     1      -9.702   2.090 -33.488  1.00  0.00    -0.028 A 
HETATM   11  C   UNL     1     -10.285   0.773 -33.126  1.00  0.00     0.041 C 
HETATM   12  C   UNL     1     -11.725   0.864 -33.723  1.00  0.00     0.010 C 
HETATM   13  C   UNL     1     -12.047   2.378 -33.893  1.00  0.00     0.047 C 
ENDROOT
BRANCH   6  14
HETATM   14  N   UNL     1      -6.884   0.955 -32.655  1.00  0.00    -0.340 N 
HETATM   15  H   UNL     1      -7.256   0.835 -31.726  1.00  0.00     0.167 HD
BRANCH  14  16
HETATM   16  C   UNL     1      -6.194  -0.162 -33.156  1.00  0.00     0.036 A 
HETATM   17  C   UNL     1      -6.938  -1.255 -33.631  1.00  0.00     0.069 A 
HETATM   18  C   UNL     1      -6.306  -2.405 -34.108  1.00  0.00     0.104 A 
HETATM   19  C   UNL     1      -4.913  -2.494 -34.093  1.00  0.00     0.102 A 
HETATM   20  O   UNL     1      -7.119  -3.413 -34.561  1.00  0.00    -0.346 OA
HETATM   21  O   UNL     1      -4.224  -3.604 -34.511  1.00  0.00    -0.346 OA
HETATM   22  C   UNL     1      -4.158  -1.419 -33.640  1.00  0.00     0.042 A 
HETATM   23  C   UNL     1      -5.085  -4.744 -34.594  1.00  0.00     0.202 C 
HETATM   24  C   UNL     1      -6.379  -4.387 -35.306  1.00  0.00     0.202 C 
HETATM   25  C   UNL     1      -4.797  -0.267 -33.168  1.00  0.00     0.032 A 
ENDBRANCH  14  16
ENDBRANCH   6  14
TORSDOF 2
ENDMDL
MODEL 2
REMARK VINA RESULT:      -8.6      3.537      6.469
REMARK  2 active torsions:
REMARK  status: ('A' for Active; 'I' for Inactive)
REMARK    1  A    between atoms: C_6  and  N_7 
REMARK    2  A    between atoms: N_7  and  C_8 
ROOT
HETATM    1  C   UNL     1      -3.390   2.489 -31.224  1.00  0.00     0.093 C 
HETATM    2  C   UNL     1      -4.044   1.397 -32.014  1.00  0.00     0.125 A 
HETATM    3  N   UNL     1      -3.475   0.189 -31.980  1.00  0.00    -0.226 NA
HETATM    4  C   UNL     1      -4.129  -0.716 -32.723  1.00  0.00     0.114 A 
HETATM    5  C   UNL     1      -5.282  -0.497 -33.478  1.00  0.00     0.053 A 
HETATM    6  C   UNL     1      -5.802   0.815 -33.453  1.00  0.00     0.143 A 
HETATM    7  N   UNL     1      -5.152   1.735 -32.701  1.00  0.00    -0.215 NA
HETATM    8  S   UNL     1      -3.553  -2.336 -32.814  1.00  0.00    -0.073 SA
HETATM    9  C   UNL     1      -4.815  -2.748 -33.826  1.00  0.00    -0.008 A 
HETATM   10  C   UNL     1      -5.667  -1.715 -34.110  1.00  0.00    -0.028 A 
HETATM   11  C   UNL     1      -6.763  -2.173 -35.003  1.00  0.00     0.041 C 
HETATM   12  C   UNL     1      -6.630  -3.726 -34.932  1.00  0.00     0.010 C 
HETATM   13  C   UNL     1      -5.177  -4.034 -34.465  1.00  0.00     0.047 C 
ENDROOT
BRANCH   6  14
HETATM   14  N   UNL     1      -6.927   1.170 -34.214  1.00  0.00    -0.340 N 
HETATM   15  H   UNL     1      -6.700   1.667 -35.063  1.00  0.00     0.167 HD
BRANCH  14  16
HETATM   16  C   UNL     1      -8.304   1.009 -33.983  1.00  0.00     0.036 A 
HETATM   17  C   UNL     1      -9.197   1.907 -34.591  1.00  0.00     0.069 A 
HETATM   18  C   UNL     1     -10.573   1.817 -34.369  1.00  0.00     0.104 A 
HETATM   19  C   UNL     1     -11.080   0.840 -33.511  1.00  0.00     0.102 A 
HETATM   20  O   UNL     1     -11.363   2.731 -35.018  1.00  0.00    -0.346 OA
HETATM   21  O   UNL     1     -12.413   0.712 -33.217  1.00  0.00    -0.346 OA
HETATM   22  C   UNL     1     -10.215  -0.067 -32.910  1.00  0.00     0.042 A 
HETATM   23  C   UNL     1     -13.136   1.894 -33.580  1.00  0.00     0.202 C 
HETATM   24  C   UNL     1     -12.744   2.353 -34.975  1.00  0.00     0.202 C 
HETATM   25  C   UNL     1      -8.837   0.026 -33.141  1.00  0.00     0.032 A 
ENDBRANCH  14  16
ENDBRANCH   6  14
TORSDOF 2
ENDMDL
MODEL 3
REMARK VINA RESULT:      -8.3      3.624      6.876
REMARK  2 active torsions:
REMARK  status: ('A' for Active; 'I' for Inactive)
REMARK    1  A    between atoms: C_6  and  N_7 
REMARK    2  A    between atoms: N_7  and  C_8 
ROOT
HETATM    1  C   UNL     1      -5.958   2.757 -30.074  1.00  0.00     0.093 C 
HETATM    2  C   UNL     1      -6.052   1.614 -31.037  1.00  0.00     0.125 A 
HETATM    3  N   UNL     1      -4.908   1.046 -31.429  1.00  0.00    -0.226 NA
HETATM    4  C   UNL     1      -5.096   0.039 -32.295  1.00  0.00     0.114 A 
HETATM    5  C   UNL     1      -6.319  -0.422 -32.783  1.00  0.00     0.053 A 
HETATM    6  C   UNL     1      -7.469   0.249 -32.313  1.00  0.00     0.143 A 
HETATM    7  N   UNL     1      -7.290   1.264 -31.433  1.00  0.00    -0.215 NA
HETATM    8  S   UNL     1      -3.744  -0.823 -32.922  1.00  0.00    -0.073 SA
HETATM    9  C   UNL     1      -4.759  -1.801 -33.816  1.00  0.00    -0.008 A 
HETATM   10  C   UNL     1      -6.088  -1.512 -33.671  1.00  0.00    -0.028 A 
HETATM   11  C   UNL     1      -6.916  -2.436 -34.489  1.00  0.00     0.041 C 
HETATM   12  C   UNL     1      -5.894  -3.549 -34.880  1.00  0.00     0.010 C 
HETATM   13  C   UNL     1      -4.473  -2.928 -34.733  1.00  0.00     0.047 C 
ENDROOT
BRANCH   6  14
HETATM   14  N   UNL     1      -8.751  -0.089 -32.773  1.00  0.00    -0.340 N 
HETATM   15  H   UNL     1      -8.938  -1.080 -32.760  1.00  0.00     0.167 HD
BRANCH  14  16
HETATM   16  C   UNL     1      -9.795   0.694 -33.297  1.00  0.00     0.036 A 
HETATM   17  C   UNL     1      -9.491   1.966 -33.808  1.00  0.00     0.069 A 
HETATM   18  C   UNL     1     -10.492   2.800 -34.310  1.00  0.00     0.104 A 
HETATM   19  C   UNL     1     -11.825   2.386 -34.283  1.00  0.00     0.102 A 
HETATM   20  O   UNL     1     -10.093   4.018 -34.799  1.00  0.00    -0.346 OA
HETATM   21  O   UNL     1     -12.865   3.164 -34.723  1.00  0.00    -0.346 OA
HETATM   22  C   UNL     1     -12.146   1.126 -33.793  1.00  0.00     0.042 A 
HETATM   23  C   UNL     1     -12.468   4.534 -34.846  1.00  0.00     0.202 C 
HETATM   24  C   UNL     1     -11.132   4.642 -35.562  1.00  0.00     0.202 C 
HETATM   25  C   UNL     1     -11.137   0.292 -33.297  1.00  0.00     0.032 A 
ENDBRANCH  14  16
ENDBRANCH   6  14
TORSDOF 2
ENDMDL
MODEL 4
REMARK VINA RESULT:      -8.1      2.028      3.699
REMARK  2 active torsions:
REMARK  status: ('A' for Active; 'I' for Inactive)
REMARK    1  A    between atoms: C_6  and  N_7 
REMARK    2  A    between atoms: N_7  and  C_8 
ROOT
HETATM    1  C   UNL     1     -11.813   0.999 -34.097  1.00  0.00     0.093 C 
HETATM    2  C   UNL     1     -10.519   1.432 -33.481  1.00  0.00     0.125 A 
HETATM    3  N   UNL     1     -10.585   2.197 -32.388  1.00  0.00    -0.226 NA
HETATM    4  C   UNL     1      -9.377   2.538 -31.916  1.00  0.00     0.114 A 
HETATM    5  C   UNL     1      -8.141   2.176 -32.453  1.00  0.00     0.053 A 
HETATM    6  C   UNL     1      -8.178   1.371 -33.612  1.00  0.00     0.143 A 
HETATM    7  N   UNL     1      -9.394   1.017 -34.093  1.00  0.00    -0.215 NA
HETATM    8  S   UNL     1      -9.246   3.526 -30.512  1.00  0.00    -0.073 SA
HETATM    9  C   UNL     1      -7.580   3.467 -30.603  1.00  0.00    -0.008 A 
HETATM   10  C   UNL     1      -7.101   2.732 -31.653  1.00  0.00    -0.028 A 
HETATM   11  C   UNL     1      -5.615   2.722 -31.649  1.00  0.00     0.041 C 
HETATM   12  C   UNL     1      -5.277   3.281 -30.231  1.00  0.00     0.010 C 
HETATM   13  C   UNL     1      -6.532   4.065 -29.744  1.00  0.00     0.047 C 
ENDROOT
BRANCH   6  14
HETATM   14  N   UNL     1      -7.002   0.988 -34.274  1.00  0.00    -0.340 N 
HETATM   15  H   UNL     1      -6.658   1.680 -34.922  1.00  0.00     0.167 HD
BRANCH  14  16
HETATM   16  C   UNL     1      -6.251  -0.201 -34.238  1.00  0.00     0.036 A 
HETATM   17  C   UNL     1      -6.838  -1.382 -34.723  1.00  0.00     0.069 A 
HETATM   18  C   UNL     1      -6.152  -2.597 -34.681  1.00  0.00     0.104 A 
HETATM   19  C   UNL     1      -4.873  -2.659 -34.126  1.00  0.00     0.102 A 
HETATM   20  O   UNL     1      -6.805  -3.691 -35.191  1.00  0.00    -0.346 OA
HETATM   21  O   UNL     1      -4.154  -3.822 -34.017  1.00  0.00    -0.346 OA
HETATM   22  C   UNL     1      -4.270  -1.501 -33.653  1.00  0.00     0.042 A 
HETATM   23  C   UNL     1      -4.997  -4.967 -34.183  1.00  0.00     0.202 C 
HETATM   24  C   UNL     1      -5.909  -4.791 -35.386  1.00  0.00     0.202 C 
HETATM   25  C   UNL     1      -4.960  -0.284 -33.703  1.00  0.00     0.032 A 
ENDBRANCH  14  16
ENDBRANCH   6  14
TORSDOF 2
ENDMDL
MODEL 5
REMARK VINA RESULT:      -8.1      3.558      6.949
REMARK  2 active torsions:
REMARK  status: ('A' for Active; 'I' for Inactive)
REMARK    1  A    between atoms: C_6  and  N_7 
REMARK    2  A    between atoms: N_7  and  C_8 
ROOT
HETATM    1  C   UNL     1      -5.954  -3.709 -35.194  1.00  0.00     0.093 C 
HETATM    2  C   UNL     1      -5.810  -2.481 -34.349  1.00  0.00     0.125 A 
HETATM    3  N   UNL     1      -4.571  -2.055 -34.089  1.00  0.00    -0.226 NA
HETATM    4  C   UNL     1      -4.547  -0.956 -33.322  1.00  0.00     0.114 A 
HETATM    5  C   UNL     1      -5.652  -0.274 -32.809  1.00  0.00     0.053 A 
HETATM    6  C   UNL     1      -6.917  -0.807 -33.136  1.00  0.00     0.143 A 
HETATM    7  N   UNL     1      -6.952  -1.914 -33.916  1.00  0.00    -0.215 NA
HETATM    8  S   UNL     1      -3.042  -0.251 -32.871  1.00  0.00    -0.073 SA
HETATM    9  C   UNL     1      -3.837   0.946 -32.021  1.00  0.00    -0.008 A 
HETATM   10  C   UNL     1      -5.201   0.847 -32.054  1.00  0.00    -0.028 A 
HETATM   11  C   UNL     1      -5.824   1.956 -31.286  1.00  0.00     0.041 C 
HETATM   12  C   UNL     1      -4.627   2.935 -31.075  1.00  0.00     0.010 C 
HETATM   13  C   UNL     1      -3.325   2.098 -31.244  1.00  0.00     0.047 C 
ENDROOT
BRANCH   6  14
HETATM   14  N   UNL     1      -8.100  -0.240 -32.636  1.00  0.00    -0.340 N 
HETATM   15  H   UNL     1      -8.377  -0.608 -31.738  1.00  0.00     0.167 HD
BRANCH  14  16
HETATM   16  C   UNL     1      -8.992   0.701 -33.180  1.00  0.00     0.036 A 
HETATM   17  C   UNL     1     -10.366   0.408 -33.172  1.00  0.00     0.069 A 
HETATM   18  C   UNL     1     -11.294   1.290 -33.730  1.00  0.00     0.104 A 
HETATM   19  C   UNL     1     -10.861   2.472 -34.332  1.00  0.00     0.102 A 
HETATM   20  O   UNL     1     -12.613   0.920 -33.661  1.00  0.00    -0.346 OA
HETATM   21  O   UNL     1     -11.708   3.368 -34.931  1.00  0.00    -0.346 OA
HETATM   22  C   UNL     1      -9.507   2.787 -34.338  1.00  0.00     0.042 A 
HETATM   23  C   UNL     1     -12.986   2.775 -35.188  1.00  0.00     0.202 C 
HETATM   24  C   UNL     1     -13.481   2.019 -33.966  1.00  0.00     0.202 C 
HETATM   25  C   UNL     1      -8.582   1.901 -33.773  1.00  0.00     0.032 A 
ENDBRANCH  14  16
ENDBRANCH   6  14
TORSDOF 2
ENDMDL
MODEL 6
REMARK VINA RESULT:      -8.1      3.697      7.285
REMARK  2 active torsions:
REMARK  status: ('A' for Active; 'I' for Inactive)
REMARK    1  A    between atoms: C_6  and  N_7 
REMARK    2  A    between atoms: N_7  and  C_8 
ROOT
HETATM    1  C   UNL     1      -6.006  -4.615 -35.412  1.00  0.00     0.093 C 
HETATM    2  C   UNL     1      -5.688  -3.307 -34.755  1.00  0.00     0.125 A 
HETATM    3  N   UNL     1      -4.728  -3.305 -33.826  1.00  0.00    -0.226 NA
HETATM    4  C   UNL     1      -4.522  -2.091 -33.292  1.00  0.00     0.114 A 
HETATM    5  C   UNL     1      -5.196  -0.914 -33.617  1.00  0.00     0.053 A 
HETATM    6  C   UNL     1      -6.197  -1.023 -34.606  1.00  0.00     0.143 A 
HETATM    7  N   UNL     1      -6.408  -2.243 -35.156  1.00  0.00    -0.215 NA
HETATM    8  S   UNL     1      -3.326  -1.877 -32.072  1.00  0.00    -0.073 SA
HETATM    9  C   UNL     1      -3.684  -0.249 -31.982  1.00  0.00    -0.008 A 
HETATM   10  C   UNL     1      -4.674   0.156 -32.834  1.00  0.00    -0.028 A 
HETATM   11  C   UNL     1      -4.917   1.615 -32.696  1.00  0.00     0.041 C 
HETATM   12  C   UNL     1      -3.677   2.088 -31.874  1.00  0.00     0.010 C 
HETATM   13  C   UNL     1      -3.113   0.832 -31.146  1.00  0.00     0.047 C 
ENDROOT
BRANCH   6  14
HETATM   14  N   UNL     1      -6.980   0.081 -34.979  1.00  0.00    -0.340 N 
HETATM   15  H   UNL     1      -6.688   0.510 -35.845  1.00  0.00     0.167 HD
BRANCH  14  16
HETATM   16  C   UNL     1      -8.054   0.727 -34.342  1.00  0.00     0.036 A 
HETATM   17  C   UNL     1      -8.201   2.113 -34.511  1.00  0.00     0.069 A 
HETATM   18  C   UNL     1      -9.229   2.812 -33.875  1.00  0.00     0.104 A 
HETATM   19  C   UNL     1     -10.115   2.138 -33.032  1.00  0.00     0.102 A 
HETATM   20  O   UNL     1      -9.297   4.161 -34.113  1.00  0.00    -0.346 OA
HETATM   21  O   UNL     1     -11.124   2.762 -32.346  1.00  0.00    -0.346 OA
HETATM   22  C   UNL     1      -9.994   0.765 -32.861  1.00  0.00     0.042 A 
HETATM   23  C   UNL     1     -10.920   4.179 -32.303  1.00  0.00     0.202 C 
HETATM   24  C   UNL     1     -10.548   4.707 -33.679  1.00  0.00     0.202 C 
HETATM   25  C   UNL     1      -8.965   0.069 -33.506  1.00  0.00     0.032 A 
ENDBRANCH  14  16
ENDBRANCH   6  14
TORSDOF 2
ENDMDL
MODEL 7
REMARK VINA RESULT:      -7.9      3.703      7.127
REMARK  2 active torsions:
REMARK  status: ('A' for Active; 'I' for Inactive)
REMARK    1  A    between atoms: C_6  and  N_7 
REMARK    2  A    between atoms: N_7  and  C_8 
ROOT
HETATM    1  C   UNL     1     -10.512   1.773 -34.260  1.00  0.00     0.093 C 
HETATM    2  C   UNL     1      -9.101   1.431 -33.895  1.00  0.00     0.125 A 
HETATM    3  N   UNL     1      -8.713   0.164 -34.063  1.00  0.00    -0.226 NA
HETATM    4  C   UNL     1      -7.438  -0.043 -33.702  1.00  0.00     0.114 A 
HETATM    5  C   UNL     1      -6.551   0.908 -33.196  1.00  0.00     0.053 A 
HETATM    6  C   UNL     1      -7.059   2.217 -33.050  1.00  0.00     0.143 A 
HETATM    7  N   UNL     1      -8.344   2.437 -33.418  1.00  0.00    -0.215 NA
HETATM    8  S   UNL     1      -6.746  -1.614 -33.840  1.00  0.00    -0.073 SA
HETATM    9  C   UNL     1      -5.291  -1.045 -33.251  1.00  0.00    -0.008 A 
HETATM   10  C   UNL     1      -5.291   0.289 -32.948  1.00  0.00    -0.028 A 
HETATM   11  C   UNL     1      -3.958   0.710 -32.445  1.00  0.00     0.041 C 
HETATM   12  C   UNL     1      -3.055  -0.506 -32.822  1.00  0.00     0.010 C 
HETATM   13  C   UNL     1      -4.001  -1.729 -33.007  1.00  0.00     0.047 C 
ENDROOT
BRANCH   6  14
HETATM   14  N   UNL     1      -6.279   3.247 -32.502  1.00  0.00    -0.340 N 
HETATM   15  H   UNL     1      -6.558   3.514 -31.570  1.00  0.00     0.167 HD
BRANCH  14  16
HETATM   16  C   UNL     1      -5.222   4.006 -33.033  1.00  0.00     0.036 A 
HETATM   17  C   UNL     1      -4.176   4.395 -32.178  1.00  0.00     0.069 A 
HETATM   18  C   UNL     1      -3.118   5.178 -32.643  1.00  0.00     0.104 A 
HETATM   19  C   UNL     1      -3.100   5.612 -33.970  1.00  0.00     0.102 A 
HETATM   20  O   UNL     1      -2.140   5.494 -31.735  1.00  0.00    -0.346 OA
HETATM   21  O   UNL     1      -2.115   6.412 -34.488  1.00  0.00    -0.346 OA
HETATM   22  C   UNL     1      -4.117   5.228 -34.835  1.00  0.00     0.042 A 
HETATM   23  C   UNL     1      -1.353   7.033 -33.446  1.00  0.00     0.202 C 
HETATM   24  C   UNL     1      -0.973   6.015 -32.383  1.00  0.00     0.202 C 
HETATM   25  C   UNL     1      -5.173   4.438 -34.364  1.00  0.00     0.032 A 
ENDBRANCH  14  16
ENDBRANCH   6  14
TORSDOF 2
ENDMDL
MODEL 8
REMARK VINA RESULT:      -7.8      2.546      4.397
REMARK  2 active torsions:
REMARK  status: ('A' for Active; 'I' for Inactive)
REMARK    1  A    between atoms: C_6  and  N_7 
REMARK    2  A    between atoms: N_7  and  C_8 
ROOT
HETATM    1  C   UNL     1      -9.667   3.276 -30.479  1.00  0.00     0.093 C 
HETATM    2  C   UNL     1      -8.260   3.361 -30.985  1.00  0.00     0.125 A 
HETATM    3  N   UNL     1      -7.948   4.406 -31.756  1.00  0.00    -0.226 NA
HETATM    4  C   UNL     1      -6.670   4.389 -32.165  1.00  0.00     0.114 A 
HETATM    5  C   UNL     1      -5.712   3.420 -31.862  1.00  0.00     0.053 A 
HETATM    6  C   UNL     1      -6.143   2.353 -31.045  1.00  0.00     0.143 A 
HETATM    7  N   UNL     1      -7.431   2.365 -30.622  1.00  0.00    -0.215 NA
HETATM    8  S   UNL     1      -6.069   5.650 -33.172  1.00  0.00    -0.073 SA
HETATM    9  C   UNL     1      -4.561   4.935 -33.198  1.00  0.00    -0.008 A 
HETATM   10  C   UNL     1      -4.477   3.774 -32.478  1.00  0.00    -0.028 A 
HETATM   11  C   UNL     1      -3.102   3.216 -32.546  1.00  0.00     0.041 C 
HETATM   12  C   UNL     1      -2.282   4.407 -33.136  1.00  0.00     0.010 C 
HETATM   13  C   UNL     1      -3.299   5.339 -33.858  1.00  0.00     0.047 C 
ENDROOT
BRANCH   6  14
HETATM   14  N   UNL     1      -5.286   1.292 -30.716  1.00  0.00    -0.340 N 
HETATM   15  H   UNL     1      -4.900   1.357 -29.786  1.00  0.00     0.167 HD
BRANCH  14  16
HETATM   16  C   UNL     1      -4.828   0.192 -31.462  1.00  0.00     0.036 A 
HETATM   17  C   UNL     1      -5.671  -0.352 -32.446  1.00  0.00     0.069 A 
HETATM   18  C   UNL     1      -5.282  -1.465 -33.193  1.00  0.00     0.104 A 
HETATM   19  C   UNL     1      -4.050  -2.075 -32.950  1.00  0.00     0.102 A 
HETATM   20  O   UNL     1      -6.169  -1.914 -34.138  1.00  0.00    -0.346 OA
HETATM   21  O   UNL     1      -3.617  -3.191 -33.617  1.00  0.00    -0.346 OA
HETATM   22  C   UNL     1      -3.196  -1.545 -31.991  1.00  0.00     0.042 A 
HETATM   23  C   UNL     1      -4.701  -3.845 -34.286  1.00  0.00     0.202 C 
HETATM   24  C   UNL     1      -5.550  -2.836 -35.042  1.00  0.00     0.202 C 
HETATM   25  C   UNL     1      -3.589  -0.425 -31.248  1.00  0.00     0.032 A 
ENDBRANCH  14  16
ENDBRANCH   6  14
TORSDOF 2
ENDMDL
MODEL 9
REMARK VINA RESULT:      -7.8      3.380      4.141
REMARK  2 active torsions:
REMARK  status: ('A' for Active; 'I' for Inactive)
REMARK    1  A    between atoms: C_6  and  N_7 
REMARK    2  A    between atoms: N_7  and  C_8 
ROOT
HETATM    1  C   UNL     1      -1.229   5.694 -33.034  1.00  0.00     0.093 C 
HETATM    2  C   UNL     1      -2.458   5.088 -32.429  1.00  0.00     0.125 A 
HETATM    3  N   UNL     1      -3.510   5.889 -32.243  1.00  0.00    -0.226 NA
HETATM    4  C   UNL     1      -4.556   5.257 -31.690  1.00  0.00     0.114 A 
HETATM    5  C   UNL     1      -4.615   3.913 -31.320  1.00  0.00     0.053 A 
HETATM    6  C   UNL     1      -3.449   3.152 -31.552  1.00  0.00     0.143 A 
HETATM    7  N   UNL     1      -2.389   3.781 -32.115  1.00  0.00    -0.215 NA
HETATM    8  S   UNL     1      -6.012   6.118 -31.366  1.00  0.00    -0.073 SA
HETATM    9  C   UNL     1      -6.716   4.733 -30.757  1.00  0.00    -0.008 A 
HETATM   10  C   UNL     1      -5.904   3.632 -30.780  1.00  0.00    -0.028 A 
HETATM   11  C   UNL     1      -6.614   2.447 -30.233  1.00  0.00     0.041 C 
HETATM   12  C   UNL     1      -8.098   2.929 -30.198  1.00  0.00     0.010 C 
HETATM   13  C   UNL     1      -8.067   4.486 -30.201  1.00  0.00     0.047 C 
ENDROOT
BRANCH   6  14
HETATM   14  N   UNL     1      -3.369   1.803 -31.172  1.00  0.00    -0.340 N 
HETATM   15  H   UNL     1      -2.936   1.661 -30.272  1.00  0.00     0.167 HD
BRANCH  14  16
HETATM   16  C   UNL     1      -3.730   0.619 -31.839  1.00  0.00     0.036 A 
HETATM   17  C   UNL     1      -3.092  -0.578 -31.476  1.00  0.00     0.069 A 
HETATM   18  C   UNL     1      -3.386  -1.778 -32.127  1.00  0.00     0.104 A 
HETATM   19  C   UNL     1      -4.307  -1.797 -33.175  1.00  0.00     0.102 A 
HETATM   20  O   UNL     1      -2.719  -2.895 -31.691  1.00  0.00    -0.346 OA
HETATM   21  O   UNL     1      -4.619  -2.928 -33.884  1.00  0.00    -0.346 OA
HETATM   22  C   UNL     1      -4.959  -0.626 -33.541  1.00  0.00     0.042 A 
HETATM   23  C   UNL     1      -3.641  -3.953 -33.677  1.00  0.00     0.202 C 
HETATM   24  C   UNL     1      -3.318  -4.093 -32.198  1.00  0.00     0.202 C 
HETATM   25  C   UNL     1      -4.664   0.573 -32.881  1.00  0.00     0.032 A 
ENDBRANCH  14  16
ENDBRANCH   6  14
TORSDOF 2
ENDMDL
MODEL 10
REMARK VINA RESULT:      -7.7     14.391     15.668
REMARK  2 active torsions:
REMARK  status: ('A' for Active; 'I' for Inactive)
REMARK    1  A    between atoms: C_6  and  N_7 
REMARK    2  A    between atoms: N_7  and  C_8 
ROOT
HETATM    1  C   UNL     1      -0.734 -13.760 -38.733  1.00  0.00     0.093 C 
HETATM    2  C   UNL     1      -2.205 -13.480 -38.687  1.00  0.00     0.125 A 
HETATM    3  N   UNL     1      -2.874 -13.525 -39.842  1.00  0.00    -0.226 NA
HETATM    4  C   UNL     1      -4.180 -13.254 -39.699  1.00  0.00     0.114 A 
HETATM    5  C   UNL     1      -4.840 -12.946 -38.508  1.00  0.00     0.053 A 
HETATM    6  C   UNL     1      -4.043 -12.918 -37.344  1.00  0.00     0.143 A 
HETATM    7  N   UNL     1      -2.724 -13.196 -37.478  1.00  0.00    -0.215 NA
HETATM    8  S   UNL     1      -5.218 -13.259 -41.072  1.00  0.00    -0.073 SA
HETATM    9  C   UNL     1      -6.525 -12.872 -40.108  1.00  0.00    -0.008 A 
HETATM   10  C   UNL     1      -6.223 -12.735 -38.781  1.00  0.00    -0.028 A 
HETATM   11  C   UNL     1      -7.442 -12.405 -37.998  1.00  0.00     0.041 C 
HETATM   12  C   UNL     1      -8.588 -12.708 -39.015  1.00  0.00     0.010 C 
HETATM   13  C   UNL     1      -7.954 -12.659 -40.436  1.00  0.00     0.047 C 
ENDROOT
BRANCH   6  14
HETATM   14  N   UNL     1      -4.583 -12.569 -36.096  1.00  0.00    -0.340 N 
HETATM   15  H   UNL     1      -4.676 -11.574 -35.960  1.00  0.00     0.167 HD
BRANCH  14  16
HETATM   16  C   UNL     1      -4.963 -13.347 -34.989  1.00  0.00     0.036 A 
HETATM   17  C   UNL     1      -4.957 -14.746 -35.116  1.00  0.00     0.069 A 
HETATM   18  C   UNL     1      -5.357 -15.568 -34.060  1.00  0.00     0.104 A 
HETATM   19  C   UNL     1      -5.800 -15.002 -32.863  1.00  0.00     0.102 A 
HETATM   20  O   UNL     1      -5.303 -16.921 -34.278  1.00  0.00    -0.346 OA
HETATM   21  O   UNL     1      -6.242 -15.743 -31.798  1.00  0.00    -0.346 OA
HETATM   22  C   UNL     1      -5.801 -13.621 -32.713  1.00  0.00     0.042 A 
HETATM   23  C   UNL     1      -6.542 -17.086 -32.193  1.00  0.00     0.202 C 
HETATM   24  C   UNL     1      -5.425 -17.653 -33.053  1.00  0.00     0.202 C 
HETATM   25  C   UNL     1      -5.393 -12.802 -33.773  1.00  0.00     0.032 A 
ENDBRANCH  14  16
ENDBRANCH   6  14
TORSDOF 2
ENDMDL
