MODEL 1
REMARK VINA RESULT:      -9.0      0.000      0.000
REMARK  6 active torsions:
REMARK  status: ('A' for Active; 'I' for Inactive)
REMARK    1  A    between atoms: C_5  and  N_6 
REMARK    2  A    between atoms: N_6  and  C_7 
REMARK    3  A    between atoms: C_7  and  C_8 
REMARK    4  A    between atoms: N_10  and  C_12 
REMARK    5  A    between atoms: C_12  and  C_13 
REMARK    6  A    between atoms: C_14  and  C_15 
ROOT
HETATM    1  C   UNL     1      -5.295   0.679 -31.866  1.00  0.00     0.031 C 
HETATM    2  C   UNL     1      -4.749   1.881 -32.642  1.00  0.00     0.241 C 
HETATM    3  N   UNL     1      -3.363   2.117 -32.074  1.00  0.00    -0.067 N 
HETATM    4  H   UNL     1      -2.685   2.023 -32.842  1.00  0.00     0.280 HD
HETATM    5  C   UNL     1      -3.074   1.014 -31.085  1.00  0.00     0.235 C 
HETATM    6  C   UNL     1      -4.032  -0.090 -31.498  1.00  0.00     0.035 C 
ENDROOT
BRANCH   3   7
HETATM    7  C   UNL     1      -3.118   3.500 -31.513  1.00  0.00     0.277 C 
BRANCH   7   8
HETATM    8  C   UNL     1      -2.349   4.394 -32.417  1.00  0.00     0.016 A 
HETATM    9  C   UNL     1      -1.434   5.428 -32.025  1.00  0.00     0.102 A 
HETATM   10  N   UNL     1      -0.936   6.043 -33.102  1.00  0.00    -0.174 NA
HETATM   11  N   UNL     1      -1.443   5.400 -34.154  1.00  0.00    -0.288 N 
HETATM   12  H   UNL     1      -1.149   5.695 -35.083  1.00  0.00     0.188 HD
HETATM   13  C   UNL     1      -2.314   4.410 -33.801  1.00  0.00     0.120 A 
BRANCH   9  14
HETATM   14  C   UNL     1      -1.002   5.826 -30.688  1.00  0.00     0.072 A 
HETATM   15  C   UNL     1      -1.803   6.645 -29.888  1.00  0.00     0.132 A 
HETATM   16  F   UNL     1      -2.952   7.146 -30.369  1.00  0.00    -0.205 F 
HETATM   17  C   UNL     1      -1.430   6.986 -28.587  1.00  0.00     0.043 A 
HETATM   18  C   UNL     1      -0.232   6.505 -28.063  1.00  0.00     0.006 A 
HETATM   19  C   UNL     1       0.590   5.700 -28.850  1.00  0.00     0.043 A 
HETATM   20  C   UNL     1       0.204   5.367 -30.150  1.00  0.00     0.132 A 
HETATM   21  F   UNL     1       1.048   4.632 -30.889  1.00  0.00    -0.205 F 
ENDBRANCH   9  14
ENDBRANCH   7   8
ENDBRANCH   3   7
BRANCH   1  22
HETATM   22  C   UNL     1      -6.316  -0.122 -32.683  1.00  0.00     0.127 C 
BRANCH  22  23
HETATM   23  N   UNL     1      -5.718  -0.672 -33.897  1.00  0.00    -0.376 N 
HETATM   24  H   UNL     1      -5.180  -0.046 -34.482  1.00  0.00     0.161 HD
BRANCH  23  25
HETATM   25  C   UNL     1      -5.757  -2.022 -34.187  1.00  0.00     0.101 A 
HETATM   26  N   UNL     1      -4.658  -2.757 -33.935  1.00  0.00    -0.347 N 
HETATM   27  C   UNL     1      -4.558  -4.080 -34.172  1.00  0.00     0.007 A 
HETATM   28  H   UNL     1      -3.854  -2.279 -33.543  1.00  0.00     0.167 HD
HETATM   29  C   UNL     1      -3.277  -4.781 -33.851  1.00  0.00     0.068 C 
HETATM   30  C   UNL     1      -5.647  -4.758 -34.712  1.00  0.00     0.025 A 
HETATM   31  C   UNL     1      -6.807  -4.054 -34.997  1.00  0.00     0.006 A 
HETATM   32  C   UNL     1      -6.861  -2.685 -34.739  1.00  0.00     0.048 A 
ENDBRANCH  23  25
ENDBRANCH  22  23
ENDBRANCH   1  22
TORSDOF 6
ENDMDL
MODEL 2
REMARK VINA RESULT:      -8.9      3.050      9.140
REMARK  6 active torsions:
REMARK  status: ('A' for Active; 'I' for Inactive)
REMARK    1  A    between atoms: C_5  and  N_6 
REMARK    2  A    between atoms: N_6  and  C_7 
REMARK    3  A    between atoms: C_7  and  C_8 
REMARK    4  A    between atoms: N_10  and  C_12 
REMARK    5  A    between atoms: C_12  and  C_13 
REMARK    6  A    between atoms: C_14  and  C_15 
ROOT
HETATM    1  C   UNL     1      -3.845   4.464 -32.844  1.00  0.00     0.031 C 
HETATM    2  C   UNL     1      -4.435   3.066 -32.640  1.00  0.00     0.241 C 
HETATM    3  N   UNL     1      -5.735   3.072 -33.421  1.00  0.00    -0.067 N 
HETATM    4  H   UNL     1      -5.679   2.334 -34.136  1.00  0.00     0.280 HD
HETATM    5  C   UNL     1      -5.833   4.391 -34.148  1.00  0.00     0.235 C 
HETATM    6  C   UNL     1      -4.392   4.868 -34.208  1.00  0.00     0.035 C 
ENDROOT
BRANCH   3   7
HETATM    7  C   UNL     1      -6.974   2.739 -32.621  1.00  0.00     0.277 C 
BRANCH   7   8
HETATM    8  C   UNL     1      -6.714   1.898 -31.423  1.00  0.00     0.016 A 
HETATM    9  C   UNL     1      -6.367   0.505 -31.413  1.00  0.00     0.102 A 
HETATM   10  N   UNL     1      -6.223   0.069 -30.158  1.00  0.00    -0.174 NA
HETATM   11  N   UNL     1      -6.398   1.138 -29.381  1.00  0.00    -0.288 N 
HETATM   12  H   UNL     1      -6.286   1.023 -28.375  1.00  0.00     0.188 HD
HETATM   13  C   UNL     1      -6.713   2.263 -30.088  1.00  0.00     0.120 A 
BRANCH   9  14
HETATM   14  C   UNL     1      -6.142  -0.403 -32.534  1.00  0.00     0.072 A 
HETATM   15  C   UNL     1      -4.855  -0.841 -32.858  1.00  0.00     0.132 A 
HETATM   16  F   UNL     1      -3.791  -0.370 -32.188  1.00  0.00    -0.205 F 
HETATM   17  C   UNL     1      -4.633  -1.755 -33.889  1.00  0.00     0.043 A 
HETATM   18  C   UNL     1      -5.711  -2.246 -34.623  1.00  0.00     0.006 A 
HETATM   19  C   UNL     1      -7.001  -1.809 -34.327  1.00  0.00     0.043 A 
HETATM   20  C   UNL     1      -7.209  -0.895 -33.292  1.00  0.00     0.132 A 
HETATM   21  F   UNL     1      -8.460  -0.464 -33.075  1.00  0.00    -0.205 F 
ENDBRANCH   9  14
ENDBRANCH   7   8
ENDBRANCH   3   7
BRANCH   1  22
HETATM   22  C   UNL     1      -2.315   4.468 -32.742  1.00  0.00     0.127 C 
BRANCH  22  23
HETATM   23  N   UNL     1      -1.870   4.442 -31.351  1.00  0.00    -0.376 N 
HETATM   24  H   UNL     1      -2.146   3.650 -30.784  1.00  0.00     0.161 HD
BRANCH  23  25
HETATM   25  C   UNL     1      -0.991   5.379 -30.844  1.00  0.00     0.101 A 
HETATM   26  N   UNL     1      -0.827   5.438 -29.509  1.00  0.00    -0.347 N 
HETATM   27  C   UNL     1      -0.007   6.304 -28.883  1.00  0.00     0.007 A 
HETATM   28  H   UNL     1      -1.359   4.787 -28.942  1.00  0.00     0.167 HD
HETATM   29  C   UNL     1       0.082   6.271 -27.391  1.00  0.00     0.068 C 
HETATM   30  C   UNL     1       0.733   7.209 -29.640  1.00  0.00     0.025 A 
HETATM   31  C   UNL     1       0.603   7.199 -31.020  1.00  0.00     0.006 A 
HETATM   32  C   UNL     1      -0.263   6.287 -31.622  1.00  0.00     0.048 A 
ENDBRANCH  23  25
ENDBRANCH  22  23
ENDBRANCH   1  22
TORSDOF 6
ENDMDL
MODEL 3
REMARK VINA RESULT:      -8.9      3.107      9.101
REMARK  6 active torsions:
REMARK  status: ('A' for Active; 'I' for Inactive)
REMARK    1  A    between atoms: C_5  and  N_6 
REMARK    2  A    between atoms: N_6  and  C_7 
REMARK    3  A    between atoms: C_7  and  C_8 
REMARK    4  A    between atoms: N_10  and  C_12 
REMARK    5  A    between atoms: C_12  and  C_13 
REMARK    6  A    between atoms: C_14  and  C_15 
ROOT
HETATM    1  C   UNL     1      -4.019   4.257 -32.797  1.00  0.00     0.031 C 
HETATM    2  C   UNL     1      -4.596   2.838 -32.789  1.00  0.00     0.241 C 
HETATM    3  N   UNL     1      -5.888   2.936 -33.576  1.00  0.00    -0.067 N 
HETATM    4  H   UNL     1      -5.817   2.301 -34.383  1.00  0.00     0.280 HD
HETATM    5  C   UNL     1      -5.994   4.339 -34.120  1.00  0.00     0.235 C 
HETATM    6  C   UNL     1      -4.558   4.835 -34.100  1.00  0.00     0.035 C 
ENDROOT
BRANCH   3   7
HETATM    7  C   UNL     1      -7.131   2.486 -32.841  1.00  0.00     0.277 C 
BRANCH   7   8
HETATM    8  C   UNL     1      -6.856   1.721 -31.597  1.00  0.00     0.016 A 
HETATM    9  C   UNL     1      -6.463   0.343 -31.507  1.00  0.00     0.102 A 
HETATM   10  N   UNL     1      -6.318  -0.018 -30.228  1.00  0.00    -0.174 NA
HETATM   11  N   UNL     1      -6.535   1.086 -29.513  1.00  0.00    -0.288 N 
HETATM   12  H   UNL     1      -6.429   1.030 -28.502  1.00  0.00     0.188 HD
HETATM   13  C   UNL     1      -6.880   2.159 -30.283  1.00  0.00     0.120 A 
BRANCH   9  14
HETATM   14  C   UNL     1      -6.198  -0.617 -32.574  1.00  0.00     0.072 A 
HETATM   15  C   UNL     1      -7.224  -1.056 -33.417  1.00  0.00     0.132 A 
HETATM   16  F   UNL     1      -8.489  -0.659 -33.206  1.00  0.00    -0.205 F 
HETATM   17  C   UNL     1      -6.974  -1.928 -34.477  1.00  0.00     0.043 A 
HETATM   18  C   UNL     1      -5.677  -2.381 -34.710  1.00  0.00     0.006 A 
HETATM   19  C   UNL     1      -4.643  -1.969 -33.872  1.00  0.00     0.043 A 
HETATM   20  C   UNL     1      -4.907  -1.095 -32.814  1.00  0.00     0.132 A 
HETATM   21  F   UNL     1      -3.892  -0.764 -32.003  1.00  0.00    -0.205 F 
ENDBRANCH   9  14
ENDBRANCH   7   8
ENDBRANCH   3   7
BRANCH   1  22
HETATM   22  C   UNL     1      -2.490   4.261 -32.679  1.00  0.00     0.127 C 
BRANCH  22  23
HETATM   23  N   UNL     1      -2.060   4.322 -31.284  1.00  0.00    -0.376 N 
HETATM   24  H   UNL     1      -2.316   3.552 -30.679  1.00  0.00     0.161 HD
BRANCH  23  25
HETATM   25  C   UNL     1      -1.220   5.315 -30.818  1.00  0.00     0.101 A 
HETATM   26  N   UNL     1      -1.527   5.910 -29.650  1.00  0.00    -0.347 N 
HETATM   27  C   UNL     1      -0.799   6.892 -29.084  1.00  0.00     0.007 A 
HETATM   28  H   UNL     1      -2.364   5.597 -29.171  1.00  0.00     0.167 HD
HETATM   29  C   UNL     1      -1.252   7.475 -27.784  1.00  0.00     0.068 C 
HETATM   30  C   UNL     1       0.352   7.340 -29.725  1.00  0.00     0.025 A 
HETATM   31  C   UNL     1       0.719   6.768 -30.933  1.00  0.00     0.006 A 
HETATM   32  C   UNL     1      -0.070   5.758 -31.482  1.00  0.00     0.048 A 
ENDBRANCH  23  25
ENDBRANCH  22  23
ENDBRANCH   1  22
TORSDOF 6
ENDMDL
MODEL 4
REMARK VINA RESULT:      -8.9      6.472      9.149
REMARK  6 active torsions:
REMARK  status: ('A' for Active; 'I' for Inactive)
REMARK    1  A    between atoms: C_5  and  N_6 
REMARK    2  A    between atoms: N_6  and  C_7 
REMARK    3  A    between atoms: C_7  and  C_8 
REMARK    4  A    between atoms: N_10  and  C_12 
REMARK    5  A    between atoms: C_12  and  C_13 
REMARK    6  A    between atoms: C_14  and  C_15 
ROOT
HETATM    1  C   UNL     1      -7.771   0.528 -32.929  1.00  0.00     0.031 C 
HETATM    2  C   UNL     1      -8.218   1.470 -31.807  1.00  0.00     0.241 C 
HETATM    3  N   UNL     1      -9.727   1.554 -31.945  1.00  0.00    -0.067 N 
HETATM    4  H   UNL     1     -10.145   1.217 -31.068  1.00  0.00     0.280 HD
HETATM    5  C   UNL     1     -10.146   0.600 -33.036  1.00  0.00     0.235 C 
HETATM    6  C   UNL     1      -8.984  -0.375 -33.118  1.00  0.00     0.035 C 
ENDROOT
BRANCH   3   7
HETATM    7  C   UNL     1     -10.284   2.949 -32.126  1.00  0.00     0.277 C 
BRANCH   7   8
HETATM    8  C   UNL     1     -10.625   3.289 -33.532  1.00  0.00     0.016 A 
HETATM    9  C   UNL     1     -11.913   3.170 -34.154  1.00  0.00     0.102 A 
HETATM   10  N   UNL     1     -11.849   3.550 -35.434  1.00  0.00    -0.174 NA
HETATM   11  N   UNL     1     -10.597   3.966 -35.627  1.00  0.00    -0.288 N 
HETATM   12  H   UNL     1     -10.352   4.340 -36.542  1.00  0.00     0.188 HD
HETATM   13  C   UNL     1      -9.811   3.815 -34.521  1.00  0.00     0.120 A 
BRANCH   9  14
HETATM   14  C   UNL     1     -13.185   2.743 -33.579  1.00  0.00     0.072 A 
HETATM   15  C   UNL     1     -13.852   3.536 -32.642  1.00  0.00     0.132 A 
HETATM   16  F   UNL     1     -13.293   4.672 -32.196  1.00  0.00    -0.205 F 
HETATM   17  C   UNL     1     -15.097   3.169 -32.128  1.00  0.00     0.043 A 
HETATM   18  C   UNL     1     -15.696   1.983 -32.549  1.00  0.00     0.006 A 
HETATM   19  C   UNL     1     -15.040   1.169 -33.470  1.00  0.00     0.043 A 
HETATM   20  C   UNL     1     -13.795   1.549 -33.977  1.00  0.00     0.132 A 
HETATM   21  F   UNL     1     -13.176   0.712 -34.822  1.00  0.00    -0.205 F 
ENDBRANCH   9  14
ENDBRANCH   7   8
ENDBRANCH   3   7
BRANCH   1  22
HETATM   22  C   UNL     1      -6.473  -0.210 -32.582  1.00  0.00     0.127 C 
BRANCH  22  23
HETATM   23  N   UNL     1      -5.798  -0.702 -33.781  1.00  0.00    -0.376 N 
HETATM   24  H   UNL     1      -5.240  -0.044 -34.309  1.00  0.00     0.161 HD
BRANCH  23  25
HETATM   25  C   UNL     1      -5.796  -2.040 -34.125  1.00  0.00     0.101 A 
HETATM   26  N   UNL     1      -4.685  -2.757 -33.875  1.00  0.00    -0.347 N 
HETATM   27  C   UNL     1      -4.546  -4.066 -34.162  1.00  0.00     0.007 A 
HETATM   28  H   UNL     1      -3.902  -2.276 -33.445  1.00  0.00     0.167 HD
HETATM   29  C   UNL     1      -3.254  -4.748 -33.838  1.00  0.00     0.068 C 
HETATM   30  C   UNL     1      -5.604  -4.748 -34.755  1.00  0.00     0.025 A 
HETATM   31  C   UNL     1      -6.775  -4.062 -35.040  1.00  0.00     0.006 A 
HETATM   32  C   UNL     1      -6.869  -2.707 -34.729  1.00  0.00     0.048 A 
ENDBRANCH  23  25
ENDBRANCH  22  23
ENDBRANCH   1  22
TORSDOF 6
ENDMDL
MODEL 5
REMARK VINA RESULT:      -8.8      2.708      4.318
REMARK  6 active torsions:
REMARK  status: ('A' for Active; 'I' for Inactive)
REMARK    1  A    between atoms: C_5  and  N_6 
REMARK    2  A    between atoms: N_6  and  C_7 
REMARK    3  A    between atoms: C_7  and  C_8 
REMARK    4  A    between atoms: N_10  and  C_12 
REMARK    5  A    between atoms: C_12  and  C_13 
REMARK    6  A    between atoms: C_14  and  C_15 
ROOT
HETATM    1  C   UNL     1      -4.603   1.400 -32.357  1.00  0.00     0.031 C 
HETATM    2  C   UNL     1      -3.311   2.192 -32.134  1.00  0.00     0.241 C 
HETATM    3  N   UNL     1      -3.660   3.218 -31.074  1.00  0.00    -0.067 N 
HETATM    4  H   UNL     1      -3.043   3.062 -30.265  1.00  0.00     0.280 HD
HETATM    5  C   UNL     1      -5.072   2.952 -30.616  1.00  0.00     0.235 C 
HETATM    6  C   UNL     1      -5.302   1.501 -31.006  1.00  0.00     0.035 C 
ENDROOT
BRANCH   3   7
HETATM    7  C   UNL     1      -3.421   4.660 -31.464  1.00  0.00     0.277 C 
BRANCH   7   8
HETATM    8  C   UNL     1      -3.361   4.889 -32.932  1.00  0.00     0.016 A 
HETATM    9  C   UNL     1      -4.477   5.055 -33.819  1.00  0.00     0.102 A 
HETATM   10  N   UNL     1      -4.052   5.225 -35.075  1.00  0.00    -0.174 NA
HETATM   11  N   UNL     1      -2.720   5.241 -35.009  1.00  0.00    -0.288 N 
HETATM   12  H   UNL     1      -2.200   5.404 -35.868  1.00  0.00     0.188 HD
HETATM   13  C   UNL     1      -2.249   5.026 -33.745  1.00  0.00     0.120 A 
BRANCH   9  14
HETATM   14  C   UNL     1      -5.905   5.086 -33.518  1.00  0.00     0.072 A 
HETATM   15  C   UNL     1      -6.474   6.171 -32.845  1.00  0.00     0.132 A 
HETATM   16  F   UNL     1      -5.699   7.169 -32.394  1.00  0.00    -0.205 F 
HETATM   17  C   UNL     1      -7.847   6.241 -32.603  1.00  0.00     0.043 A 
HETATM   18  C   UNL     1      -8.679   5.210 -33.034  1.00  0.00     0.006 A 
HETATM   19  C   UNL     1      -8.129   4.111 -33.693  1.00  0.00     0.043 A 
HETATM   20  C   UNL     1      -6.754   4.054 -33.930  1.00  0.00     0.132 A 
HETATM   21  F   UNL     1      -6.261   2.957 -34.521  1.00  0.00    -0.205 F 
ENDBRANCH   9  14
ENDBRANCH   7   8
ENDBRANCH   3   7
BRANCH   1  22
HETATM   22  C   UNL     1      -4.331  -0.032 -32.831  1.00  0.00     0.127 C 
BRANCH  22  23
HETATM   23  N   UNL     1      -5.313  -0.466 -33.822  1.00  0.00    -0.376 N 
HETATM   24  H   UNL     1      -5.782   0.250 -34.363  1.00  0.00     0.161 HD
BRANCH  23  25
HETATM   25  C   UNL     1      -5.511  -1.799 -34.124  1.00  0.00     0.101 A 
HETATM   26  N   UNL     1      -4.491  -2.654 -33.923  1.00  0.00    -0.347 N 
HETATM   27  C   UNL     1      -4.546  -3.975 -34.178  1.00  0.00     0.007 A 
HETATM   28  H   UNL     1      -3.624  -2.272 -33.558  1.00  0.00     0.167 HD
HETATM   29  C   UNL     1      -3.338  -4.817 -33.916  1.00  0.00     0.068 C 
HETATM   30  C   UNL     1      -5.723  -4.522 -34.682  1.00  0.00     0.025 A 
HETATM   31  C   UNL     1      -6.808  -3.691 -34.914  1.00  0.00     0.006 A 
HETATM   32  C   UNL     1      -6.701  -2.328 -34.639  1.00  0.00     0.048 A 
ENDBRANCH  23  25
ENDBRANCH  22  23
ENDBRANCH   1  22
TORSDOF 6
ENDMDL
MODEL 6
REMARK VINA RESULT:      -8.8      3.515      8.885
REMARK  6 active torsions:
REMARK  status: ('A' for Active; 'I' for Inactive)
REMARK    1  A    between atoms: C_5  and  N_6 
REMARK    2  A    between atoms: N_6  and  C_7 
REMARK    3  A    between atoms: C_7  and  C_8 
REMARK    4  A    between atoms: N_10  and  C_12 
REMARK    5  A    between atoms: C_12  and  C_13 
REMARK    6  A    between atoms: C_14  and  C_15 
ROOT
HETATM    1  C   UNL     1      -4.866   2.528 -32.084  1.00  0.00     0.031 C 
HETATM    2  C   UNL     1      -5.329   3.241 -33.358  1.00  0.00     0.241 C 
HETATM    3  N   UNL     1      -6.737   3.715 -33.051  1.00  0.00    -0.067 N 
HETATM    4  H   UNL     1      -6.753   4.740 -33.142  1.00  0.00     0.280 HD
HETATM    5  C   UNL     1      -7.032   3.389 -31.608  1.00  0.00     0.235 C 
HETATM    6  C   UNL     1      -5.652   3.243 -30.990  1.00  0.00     0.035 C 
ENDROOT
BRANCH   3   7
HETATM    7  C   UNL     1      -7.806   3.228 -34.003  1.00  0.00     0.277 C 
BRANCH   7   8
HETATM    8  C   UNL     1      -8.824   2.347 -33.373  1.00  0.00     0.016 A 
HETATM    9  C   UNL     1      -8.706   0.937 -33.135  1.00  0.00     0.102 A 
HETATM   10  N   UNL     1      -9.820   0.465 -32.565  1.00  0.00    -0.174 NA
HETATM   11  N   UNL     1     -10.605   1.525 -32.373  1.00  0.00    -0.288 N 
HETATM   12  H   UNL     1     -11.498   1.381 -31.905  1.00  0.00     0.188 HD
HETATM   13  C   UNL     1     -10.064   2.682 -32.855  1.00  0.00     0.120 A 
BRANCH   9  14
HETATM   14  C   UNL     1      -7.583   0.042 -33.399  1.00  0.00     0.072 A 
HETATM   15  C   UNL     1      -7.344  -0.451 -34.685  1.00  0.00     0.132 A 
HETATM   16  F   UNL     1      -8.193  -0.171 -35.686  1.00  0.00    -0.205 F 
HETATM   17  C   UNL     1      -6.240  -1.260 -34.963  1.00  0.00     0.043 A 
HETATM   18  C   UNL     1      -5.351  -1.592 -33.943  1.00  0.00     0.006 A 
HETATM   19  C   UNL     1      -5.580  -1.124 -32.650  1.00  0.00     0.043 A 
HETATM   20  C   UNL     1      -6.689  -0.315 -32.386  1.00  0.00     0.132 A 
HETATM   21  F   UNL     1      -6.898   0.071 -31.119  1.00  0.00    -0.205 F 
ENDBRANCH   9  14
ENDBRANCH   7   8
ENDBRANCH   3   7
BRANCH   1  22
HETATM   22  C   UNL     1      -3.343   2.577 -31.913  1.00  0.00     0.127 C 
BRANCH  22  23
HETATM   23  N   UNL     1      -2.937   3.669 -31.030  1.00  0.00    -0.376 N 
HETATM   24  H   UNL     1      -3.198   3.605 -30.054  1.00  0.00     0.161 HD
BRANCH  23  25
HETATM   25  C   UNL     1      -2.112   4.691 -31.459  1.00  0.00     0.101 A 
HETATM   26  N   UNL     1      -1.359   5.324 -30.541  1.00  0.00    -0.347 N 
HETATM   27  C   UNL     1      -0.516   6.338 -30.820  1.00  0.00     0.007 A 
HETATM   28  H   UNL     1      -1.436   5.017 -29.577  1.00  0.00     0.167 HD
HETATM   29  C   UNL     1       0.263   6.962 -29.706  1.00  0.00     0.068 C 
HETATM   30  C   UNL     1      -0.394   6.779 -32.134  1.00  0.00     0.025 A 
HETATM   31  C   UNL     1      -1.148   6.167 -33.124  1.00  0.00     0.006 A 
HETATM   32  C   UNL     1      -2.011   5.126 -32.786  1.00  0.00     0.048 A 
ENDBRANCH  23  25
ENDBRANCH  22  23
ENDBRANCH   1  22
TORSDOF 6
ENDMDL
MODEL 7
REMARK VINA RESULT:      -8.7      2.038      2.608
REMARK  6 active torsions:
REMARK  status: ('A' for Active; 'I' for Inactive)
REMARK    1  A    between atoms: C_5  and  N_6 
REMARK    2  A    between atoms: N_6  and  C_7 
REMARK    3  A    between atoms: C_7  and  C_8 
REMARK    4  A    between atoms: N_10  and  C_12 
REMARK    5  A    between atoms: C_12  and  C_13 
REMARK    6  A    between atoms: C_14  and  C_15 
ROOT
HETATM    1  C   UNL     1      -5.229   1.113 -31.790  1.00  0.00     0.031 C 
HETATM    2  C   UNL     1      -4.231   2.203 -31.390  1.00  0.00     0.241 C 
HETATM    3  N   UNL     1      -4.897   2.943 -30.246  1.00  0.00    -0.067 N 
HETATM    4  H   UNL     1      -4.288   2.866 -29.421  1.00  0.00     0.280 HD
HETATM    5  C   UNL     1      -6.186   2.229 -29.921  1.00  0.00     0.235 C 
HETATM    6  C   UNL     1      -5.971   0.836 -30.488  1.00  0.00     0.035 C 
ENDROOT
BRANCH   3   7
HETATM    7  C   UNL     1      -5.075   4.431 -30.453  1.00  0.00     0.277 C 
BRANCH   7   8
HETATM    8  C   UNL     1      -5.291   4.825 -31.870  1.00  0.00     0.016 A 
HETATM    9  C   UNL     1      -4.362   5.515 -32.719  1.00  0.00     0.102 A 
HETATM   10  N   UNL     1      -4.896   5.719 -33.927  1.00  0.00    -0.174 NA
HETATM   11  N   UNL     1      -6.092   5.130 -33.899  1.00  0.00    -0.288 N 
HETATM   12  H   UNL     1      -6.649   5.138 -34.750  1.00  0.00     0.188 HD
HETATM   13  C   UNL     1      -6.389   4.590 -32.681  1.00  0.00     0.120 A 
BRANCH   9  14
HETATM   14  C   UNL     1      -2.999   5.954 -32.437  1.00  0.00     0.072 A 
HETATM   15  C   UNL     1      -2.745   7.232 -31.929  1.00  0.00     0.132 A 
HETATM   16  F   UNL     1      -3.751   8.107 -31.767  1.00  0.00    -0.205 F 
HETATM   17  C   UNL     1      -1.454   7.645 -31.600  1.00  0.00     0.043 A 
HETATM   18  C   UNL     1      -0.382   6.772 -31.780  1.00  0.00     0.006 A 
HETATM   19  C   UNL     1      -0.610   5.499 -32.300  1.00  0.00     0.043 A 
HETATM   20  C   UNL     1      -1.909   5.099 -32.624  1.00  0.00     0.132 A 
HETATM   21  F   UNL     1      -2.076   3.885 -33.168  1.00  0.00    -0.205 F 
ENDBRANCH   9  14
ENDBRANCH   7   8
ENDBRANCH   3   7
BRANCH   1  22
HETATM   22  C   UNL     1      -4.536  -0.110 -32.404  1.00  0.00     0.127 C 
BRANCH  22  23
HETATM   23  N   UNL     1      -5.120  -0.466 -33.694  1.00  0.00    -0.376 N 
HETATM   24  H   UNL     1      -5.244   0.273 -34.375  1.00  0.00     0.161 HD
BRANCH  23  25
HETATM   25  C   UNL     1      -5.376  -1.777 -34.047  1.00  0.00     0.101 A 
HETATM   26  N   UNL     1      -4.401  -2.686 -33.860  1.00  0.00    -0.347 N 
HETATM   27  C   UNL     1      -4.514  -3.994 -34.163  1.00  0.00     0.007 A 
HETATM   28  H   UNL     1      -3.524  -2.359 -33.468  1.00  0.00     0.167 HD
HETATM   29  C   UNL     1      -3.352  -4.901 -33.912  1.00  0.00     0.068 C 
HETATM   30  C   UNL     1      -5.706  -4.465 -34.706  1.00  0.00     0.025 A 
HETATM   31  C   UNL     1      -6.747  -3.576 -34.925  1.00  0.00     0.006 A 
HETATM   32  C   UNL     1      -6.580  -2.230 -34.600  1.00  0.00     0.048 A 
ENDBRANCH  23  25
ENDBRANCH  22  23
ENDBRANCH   1  22
TORSDOF 6
ENDMDL
MODEL 8
REMARK VINA RESULT:      -8.7      3.324      5.285
REMARK  6 active torsions:
REMARK  status: ('A' for Active; 'I' for Inactive)
REMARK    1  A    between atoms: C_5  and  N_6 
REMARK    2  A    between atoms: N_6  and  C_7 
REMARK    3  A    between atoms: C_7  and  C_8 
REMARK    4  A    between atoms: N_10  and  C_12 
REMARK    5  A    between atoms: C_12  and  C_13 
REMARK    6  A    between atoms: C_14  and  C_15 
ROOT
HETATM    1  C   UNL     1      -4.386   2.046 -31.767  1.00  0.00     0.031 C 
HETATM    2  C   UNL     1      -3.204   3.016 -31.683  1.00  0.00     0.241 C 
HETATM    3  N   UNL     1      -3.720   4.192 -30.875  1.00  0.00    -0.067 N 
HETATM    4  H   UNL     1      -3.131   4.282 -30.036  1.00  0.00     0.280 HD
HETATM    5  C   UNL     1      -5.115   3.857 -30.408  1.00  0.00     0.235 C 
HETATM    6  C   UNL     1      -5.159   2.340 -30.486  1.00  0.00     0.035 C 
ENDROOT
BRANCH   3   7
HETATM    7  C   UNL     1      -3.626   5.538 -31.557  1.00  0.00     0.277 C 
BRANCH   7   8
HETATM    8  C   UNL     1      -3.610   5.467 -33.042  1.00  0.00     0.016 A 
HETATM    9  C   UNL     1      -4.733   5.219 -33.900  1.00  0.00     0.102 A 
HETATM   10  N   UNL     1      -4.349   5.207 -35.180  1.00  0.00    -0.174 NA
HETATM   11  N   UNL     1      -3.049   5.503 -35.170  1.00  0.00    -0.288 N 
HETATM   12  H   UNL     1      -2.570   5.586 -36.065  1.00  0.00     0.188 HD
HETATM   13  C   UNL     1      -2.547   5.653 -33.909  1.00  0.00     0.120 A 
BRANCH   9  14
HETATM   14  C   UNL     1      -6.138   5.024 -33.555  1.00  0.00     0.072 A 
HETATM   15  C   UNL     1      -6.785   3.816 -33.829  1.00  0.00     0.132 A 
HETATM   16  F   UNL     1      -6.142   2.838 -34.488  1.00  0.00    -0.205 F 
HETATM   17  C   UNL     1      -8.111   3.595 -33.453  1.00  0.00     0.043 A 
HETATM   18  C   UNL     1      -8.817   4.597 -32.790  1.00  0.00     0.006 A 
HETATM   19  C   UNL     1      -8.197   5.816 -32.521  1.00  0.00     0.043 A 
HETATM   20  C   UNL     1      -6.869   6.022 -32.904  1.00  0.00     0.132 A 
HETATM   21  F   UNL     1      -6.327   7.226 -32.671  1.00  0.00    -0.205 F 
ENDBRANCH   9  14
ENDBRANCH   7   8
ENDBRANCH   3   7
BRANCH   1  22
HETATM   22  C   UNL     1      -3.929   0.590 -31.917  1.00  0.00     0.127 C 
BRANCH  22  23
HETATM   23  N   UNL     1      -5.065  -0.330 -31.930  1.00  0.00    -0.376 N 
HETATM   24  H   UNL     1      -5.163  -0.967 -31.150  1.00  0.00     0.161 HD
BRANCH  23  25
HETATM   25  C   UNL     1      -6.056  -0.258 -32.889  1.00  0.00     0.101 A 
HETATM   26  N   UNL     1      -7.322  -0.051 -32.480  1.00  0.00    -0.347 N 
HETATM   27  C   UNL     1      -8.382   0.036 -33.307  1.00  0.00     0.007 A 
HETATM   28  H   UNL     1      -7.483   0.041 -31.483  1.00  0.00     0.167 HD
HETATM   29  C   UNL     1      -9.741   0.262 -32.724  1.00  0.00     0.068 C 
HETATM   30  C   UNL     1      -8.187  -0.091 -34.679  1.00  0.00     0.025 A 
HETATM   31  C   UNL     1      -6.905  -0.309 -35.161  1.00  0.00     0.006 A 
HETATM   32  C   UNL     1      -5.840  -0.397 -34.266  1.00  0.00     0.048 A 
ENDBRANCH  23  25
ENDBRANCH  22  23
ENDBRANCH   1  22
TORSDOF 6
ENDMDL
MODEL 9
REMARK VINA RESULT:      -8.7      3.489      8.864
REMARK  6 active torsions:
REMARK  status: ('A' for Active; 'I' for Inactive)
REMARK    1  A    between atoms: C_5  and  N_6 
REMARK    2  A    between atoms: N_6  and  C_7 
REMARK    3  A    between atoms: C_7  and  C_8 
REMARK    4  A    between atoms: N_10  and  C_12 
REMARK    5  A    between atoms: C_12  and  C_13 
REMARK    6  A    between atoms: C_14  and  C_15 
ROOT
HETATM    1  C   UNL     1      -4.841   2.534 -32.184  1.00  0.00     0.031 C 
HETATM    2  C   UNL     1      -5.325   3.288 -33.426  1.00  0.00     0.241 C 
HETATM    3  N   UNL     1      -6.712   3.786 -33.065  1.00  0.00    -0.067 N 
HETATM    4  H   UNL     1      -6.708   4.812 -33.130  1.00  0.00     0.280 HD
HETATM    5  C   UNL     1      -6.971   3.430 -31.622  1.00  0.00     0.235 C 
HETATM    6  C   UNL     1      -5.577   3.238 -31.050  1.00  0.00     0.035 C 
ENDROOT
BRANCH   3   7
HETATM    7  C   UNL     1      -7.821   3.346 -33.996  1.00  0.00     0.277 C 
BRANCH   7   8
HETATM    8  C   UNL     1      -8.831   2.460 -33.360  1.00  0.00     0.016 A 
HETATM    9  C   UNL     1      -8.705   1.050 -33.122  1.00  0.00     0.102 A 
HETATM   10  N   UNL     1      -9.813   0.574 -32.547  1.00  0.00    -0.174 NA
HETATM   11  N   UNL     1     -10.603   1.630 -32.351  1.00  0.00    -0.288 N 
HETATM   12  H   UNL     1     -11.493   1.482 -31.878  1.00  0.00     0.188 HD
HETATM   13  C   UNL     1     -10.070   2.789 -32.836  1.00  0.00     0.120 A 
BRANCH   9  14
HETATM   14  C   UNL     1      -7.579   0.161 -33.391  1.00  0.00     0.072 A 
HETATM   15  C   UNL     1      -6.746  -0.276 -32.357  1.00  0.00     0.132 A 
HETATM   16  F   UNL     1      -6.922   0.180 -31.107  1.00  0.00    -0.205 F 
HETATM   17  C   UNL     1      -5.701  -1.172 -32.590  1.00  0.00     0.043 A 
HETATM   18  C   UNL     1      -5.472  -1.646 -33.880  1.00  0.00     0.006 A 
HETATM   19  C   UNL     1      -6.281  -1.210 -34.929  1.00  0.00     0.043 A 
HETATM   20  C   UNL     1      -7.323  -0.314 -34.680  1.00  0.00     0.132 A 
HETATM   21  F   UNL     1      -8.044   0.118 -35.725  1.00  0.00    -0.205 F 
ENDBRANCH   9  14
ENDBRANCH   7   8
ENDBRANCH   3   7
BRANCH   1  22
HETATM   22  C   UNL     1      -3.313   2.546 -32.059  1.00  0.00     0.127 C 
BRANCH  22  23
HETATM   23  N   UNL     1      -2.859   3.568 -31.118  1.00  0.00    -0.376 N 
HETATM   24  H   UNL     1      -3.061   3.426 -30.137  1.00  0.00     0.161 HD
BRANCH  23  25
HETATM   25  C   UNL     1      -2.066   4.628 -31.512  1.00  0.00     0.101 A 
HETATM   26  N   UNL     1      -1.310   5.236 -30.579  1.00  0.00    -0.347 N 
HETATM   27  C   UNL     1      -0.495   6.280 -30.825  1.00  0.00     0.007 A 
HETATM   28  H   UNL     1      -1.363   4.883 -29.630  1.00  0.00     0.167 HD
HETATM   29  C   UNL     1       0.289   6.871 -29.697  1.00  0.00     0.068 C 
HETATM   30  C   UNL     1      -0.408   6.785 -32.119  1.00  0.00     0.025 A 
HETATM   31  C   UNL     1      -1.166   6.202 -33.124  1.00  0.00     0.006 A 
HETATM   32  C   UNL     1      -1.998   5.126 -32.819  1.00  0.00     0.048 A 
ENDBRANCH  23  25
ENDBRANCH  22  23
ENDBRANCH   1  22
TORSDOF 6
ENDMDL
MODEL 10
REMARK VINA RESULT:      -8.5      5.338      8.087
REMARK  6 active torsions:
REMARK  status: ('A' for Active; 'I' for Inactive)
REMARK    1  A    between atoms: C_5  and  N_6 
REMARK    2  A    between atoms: N_6  and  C_7 
REMARK    3  A    between atoms: C_7  and  C_8 
REMARK    4  A    between atoms: N_10  and  C_12 
REMARK    5  A    between atoms: C_12  and  C_13 
REMARK    6  A    between atoms: C_14  and  C_15 
ROOT
HETATM    1  C   UNL     1      -8.946   3.283 -32.310  1.00  0.00     0.031 C 
HETATM    2  C   UNL     1      -8.811   1.986 -31.507  1.00  0.00     0.241 C 
HETATM    3  N   UNL     1      -7.982   2.361 -30.294  1.00  0.00    -0.067 N 
HETATM    4  H   UNL     1      -8.542   2.165 -29.454  1.00  0.00     0.280 HD
HETATM    5  C   UNL     1      -7.746   3.850 -30.337  1.00  0.00     0.235 C 
HETATM    6  C   UNL     1      -8.861   4.359 -31.234  1.00  0.00     0.035 C 
ENDROOT
BRANCH   3   7
HETATM    7  C   UNL     1      -6.712   1.561 -30.105  1.00  0.00     0.277 C 
BRANCH   7   8
HETATM    8  C   UNL     1      -5.557   2.060 -30.895  1.00  0.00     0.016 A 
HETATM    9  C   UNL     1      -5.201   1.673 -32.230  1.00  0.00     0.102 A 
HETATM   10  N   UNL     1      -4.093   2.311 -32.621  1.00  0.00    -0.174 NA
HETATM   11  N   UNL     1      -3.774   3.131 -31.620  1.00  0.00    -0.288 N 
HETATM   12  H   UNL     1      -2.971   3.745 -31.740  1.00  0.00     0.188 HD
HETATM   13  C   UNL     1      -4.611   3.010 -30.548  1.00  0.00     0.120 A 
BRANCH   9  14
HETATM   14  C   UNL     1      -5.879   0.757 -33.142  1.00  0.00     0.072 A 
HETATM   15  C   UNL     1      -6.509   1.228 -34.298  1.00  0.00     0.132 A 
HETATM   16  F   UNL     1      -6.567   2.546 -34.547  1.00  0.00    -0.205 F 
HETATM   17  C   UNL     1      -7.110   0.357 -35.208  1.00  0.00     0.043 A 
HETATM   18  C   UNL     1      -7.091  -1.015 -34.969  1.00  0.00     0.006 A 
HETATM   19  C   UNL     1      -6.483  -1.505 -33.814  1.00  0.00     0.043 A 
HETATM   20  C   UNL     1      -5.884  -0.622 -32.912  1.00  0.00     0.132 A 
HETATM   21  F   UNL     1      -5.355  -1.131 -31.790  1.00  0.00    -0.205 F 
ENDBRANCH   9  14
ENDBRANCH   7   8
ENDBRANCH   3   7
BRANCH   1  22
HETATM   22  C   UNL     1     -10.231   3.315 -33.147  1.00  0.00     0.127 C 
BRANCH  22  23
HETATM   23  N   UNL     1     -11.392   2.905 -32.361  1.00  0.00    -0.376 N 
HETATM   24  H   UNL     1     -11.444   3.216 -31.400  1.00  0.00     0.161 HD
BRANCH  23  25
HETATM   25  C   UNL     1     -12.459   2.233 -32.926  1.00  0.00     0.101 A 
HETATM   26  N   UNL     1     -13.690   2.471 -32.436  1.00  0.00    -0.347 N 
HETATM   27  C   UNL     1     -14.815   1.883 -32.890  1.00  0.00     0.007 A 
HETATM   28  H   UNL     1     -13.771   3.134 -31.673  1.00  0.00     0.167 HD
HETATM   29  C   UNL     1     -16.123   2.230 -32.255  1.00  0.00     0.068 C 
HETATM   30  C   UNL     1     -14.729   0.967 -33.934  1.00  0.00     0.025 A 
HETATM   31  C   UNL     1     -13.487   0.677 -34.479  1.00  0.00     0.006 A 
HETATM   32  C   UNL     1     -12.351   1.307 -33.972  1.00  0.00     0.048 A 
ENDBRANCH  23  25
ENDBRANCH  22  23
ENDBRANCH   1  22
TORSDOF 6
ENDMDL
