MODEL 1
REMARK VINA RESULT:      -9.6      0.000      0.000
REMARK  8 active torsions:
REMARK  status: ('A' for Active; 'I' for Inactive)
REMARK    1  A    between atoms: C_4  and  N_5 
REMARK       I    between atoms: N_5  and  C_6 
REMARK       I    between atoms: C_6  and  N_7 
REMARK    2  A    between atoms: N_7  and  C_8 
REMARK    3  A    between atoms: C_8  and  C_9 
REMARK    4  A    between atoms: C_9  and  C_10 
REMARK    5  A    between atoms: C_14  and  O_15 
REMARK       I    between atoms: N_22  and  C_23 
REMARK    6  A    between atoms: C_23  and  C_24 
REMARK    7  A    between atoms: C_24  and  N_25 
REMARK    8  A    between atoms: N_29  and  C_30 
ROOT
HETATM    1  N   UNL     1      -3.575   7.566 -30.955  1.00  0.00    -0.017 N 
HETATM    2  C   UNL     1      -3.058   6.387 -31.399  1.00  0.00     0.718 C 
HETATM    3  N   UNL     1      -1.933   6.557 -32.169  1.00  0.00    -0.223 N 
HETATM    4  N   UNL     1      -3.614   5.246 -31.137  1.00  0.00    -0.026 NA
HETATM    5  C   UNL     1      -3.113   4.064 -31.591  1.00  0.00     0.286 C 
HETATM    6  O   UNL     1      -2.147   3.889 -32.336  1.00  0.00    -0.269 OA
HETATM    7  H   UNL     1      -3.606   8.329 -31.611  1.00  0.00     0.203 HD
HETATM    8  H   UNL     1      -1.494   5.671 -32.428  1.00  0.00     0.177 HD
ENDROOT
BRANCH   1   9
HETATM    9  C   UNL     1      -4.597   7.719 -30.024  1.00  0.00     0.741 A 
HETATM   10  N   UNL     1      -5.886   7.775 -30.407  1.00  0.00    -0.067 NA
HETATM   11  C   UNL     1      -6.823   7.851 -29.439  1.00  0.00     0.051 A 
HETATM   12  C   UNL     1      -8.257   7.890 -29.871  1.00  0.00     0.071 C 
HETATM   13  C   UNL     1      -6.500   7.893 -28.100  1.00  0.00     0.054 A 
HETATM   14  C   UNL     1      -5.159   7.826 -27.791  1.00  0.00     0.051 A 
HETATM   15  N   UNL     1      -4.205   7.728 -28.741  1.00  0.00    -0.067 NA
HETATM   16  C   UNL     1      -4.707   7.886 -26.363  1.00  0.00     0.071 C 
ENDBRANCH   1   9
BRANCH   3  17
HETATM   17  C   UNL     1      -0.925   7.598 -31.953  1.00  0.00     0.142 C 
BRANCH  17  18
HETATM   18  C   UNL     1       0.371   7.064 -31.327  1.00  0.00     0.061 C 
BRANCH  18  19
HETATM   19  C   UNL     1       0.214   6.619 -29.904  1.00  0.00    -0.029 A 
HETATM   20  C   UNL     1      -0.214   7.417 -28.795  1.00  0.00    -0.002 A 
HETATM   21  C   UNL     1      -0.216   6.599 -27.667  1.00  0.00     0.045 A 
HETATM   22  C   UNL     1      -0.596   8.767 -28.642  1.00  0.00     0.017 A 
HETATM   23  C   UNL     1      -0.601   7.057 -26.401  1.00  0.00     0.067 A 
HETATM   24  N   UNL     1       0.230   5.359 -28.063  1.00  0.00    -0.365 N 
HETATM   25  C   UNL     1      -0.980   8.399 -26.273  1.00  0.00     0.070 A 
HETATM   26  C   UNL     1      -0.975   9.246 -27.380  1.00  0.00     0.038 A 
HETATM   27  H   UNL     1       0.368   4.570 -27.445  1.00  0.00     0.165 HD
HETATM   28  C   UNL     1       0.481   5.357 -29.408  1.00  0.00     0.096 A 
BRANCH  25  29
HETATM   29  O   UNL     1      -1.414   8.752 -25.022  1.00  0.00    -0.356 OA
HETATM   30  C   UNL     1      -2.041  10.028 -24.920  1.00  0.00     0.210 C 
ENDBRANCH  25  29
ENDBRANCH  18  19
ENDBRANCH  17  18
ENDBRANCH   3  17
BRANCH   5  31
HETATM   31  C   UNL     1      -3.938   2.867 -31.114  1.00  0.00     0.340 C 
BRANCH  31  32
HETATM   32  N   UNL     1      -4.130   1.798 -32.196  1.00  0.00    -0.060 N 
HETATM   33  H   UNL     1      -3.696   2.180 -33.050  1.00  0.00     0.280 HD
HETATM   34  C   UNL     1      -3.359   0.523 -31.860  1.00  0.00     0.255 C 
HETATM   35  C   UNL     1      -3.580  -0.567 -32.928  1.00  0.00     0.150 C 
HETATM   36  N   UNL     1      -5.031  -0.788 -33.142  1.00  0.00    -0.378 N 
HETATM   37  C   UNL     1      -5.771   0.426 -33.530  1.00  0.00     0.150 C 
HETATM   38  C   UNL     1      -5.598   1.515 -32.454  1.00  0.00     0.255 C 
BRANCH  36  39
HETATM   39  C   UNL     1      -5.338  -1.989 -33.799  1.00  0.00     0.030 A 
HETATM   40  C   UNL     1      -4.347  -2.981 -33.923  1.00  0.00     0.032 A 
HETATM   41  C   UNL     1      -4.608  -4.206 -34.543  1.00  0.00     0.044 A 
HETATM   42  C   UNL     1      -5.874  -4.458 -35.046  1.00  0.00     0.116 A 
HETATM   43  F   UNL     1      -6.132  -5.631 -35.637  1.00  0.00    -0.206 F 
HETATM   44  C   UNL     1      -6.879  -3.508 -34.938  1.00  0.00     0.044 A 
HETATM   45  C   UNL     1      -6.612  -2.283 -34.315  1.00  0.00     0.032 A 
ENDBRANCH  36  39
ENDBRANCH  31  32
ENDBRANCH   5  31
TORSDOF 8
ENDMDL
MODEL 2
REMARK VINA RESULT:      -9.6      5.897     11.745
REMARK  8 active torsions:
REMARK  status: ('A' for Active; 'I' for Inactive)
REMARK    1  A    between atoms: C_4  and  N_5 
REMARK       I    between atoms: N_5  and  C_6 
REMARK       I    between atoms: C_6  and  N_7 
REMARK    2  A    between atoms: N_7  and  C_8 
REMARK    3  A    between atoms: C_8  and  C_9 
REMARK    4  A    between atoms: C_9  and  C_10 
REMARK    5  A    between atoms: C_14  and  O_15 
REMARK       I    between atoms: N_22  and  C_23 
REMARK    6  A    between atoms: C_23  and  C_24 
REMARK    7  A    between atoms: C_24  and  N_25 
REMARK    8  A    between atoms: N_29  and  C_30 
ROOT
HETATM    1  N   UNL     1      -7.225   1.134 -33.483  1.00  0.00    -0.017 N 
HETATM    2  C   UNL     1      -7.151   2.481 -33.672  1.00  0.00     0.718 C 
HETATM    3  N   UNL     1      -8.365   3.105 -33.519  1.00  0.00    -0.223 N 
HETATM    4  N   UNL     1      -6.046   3.075 -33.998  1.00  0.00    -0.026 NA
HETATM    5  C   UNL     1      -5.968   4.418 -34.205  1.00  0.00     0.286 C 
HETATM    6  O   UNL     1      -6.885   5.240 -34.186  1.00  0.00    -0.269 OA
HETATM    7  H   UNL     1      -8.015   0.657 -33.886  1.00  0.00     0.203 HD
HETATM    8  H   UNL     1      -8.295   4.124 -33.572  1.00  0.00     0.177 HD
ENDROOT
BRANCH   1   9
HETATM    9  C   UNL     1      -6.151   0.255 -33.401  1.00  0.00     0.741 A 
HETATM   10  N   UNL     1      -5.162   0.442 -32.507  1.00  0.00    -0.067 NA
HETATM   11  C   UNL     1      -4.193  -0.494 -32.439  1.00  0.00     0.051 A 
HETATM   12  C   UNL     1      -3.107  -0.289 -31.427  1.00  0.00     0.071 C 
HETATM   13  C   UNL     1      -4.179  -1.602 -33.259  1.00  0.00     0.054 A 
HETATM   14  C   UNL     1      -5.229  -1.723 -34.143  1.00  0.00     0.051 A 
HETATM   15  N   UNL     1      -6.221  -0.812 -34.213  1.00  0.00    -0.067 NA
HETATM   16  C   UNL     1      -5.291  -2.884 -35.090  1.00  0.00     0.071 C 
ENDBRANCH   1   9
BRANCH   3  17
HETATM   17  C   UNL     1      -9.395   2.700 -32.560  1.00  0.00     0.142 C 
BRANCH  17  18
HETATM   18  C   UNL     1     -10.728   3.437 -32.757  1.00  0.00     0.061 C 
BRANCH  18  19
HETATM   19  C   UNL     1     -11.855   2.541 -33.175  1.00  0.00    -0.029 A 
HETATM   20  C   UNL     1     -13.231   2.656 -32.795  1.00  0.00    -0.002 A 
HETATM   21  C   UNL     1     -13.924   1.617 -33.415  1.00  0.00     0.045 A 
HETATM   22  C   UNL     1     -13.956   3.548 -31.976  1.00  0.00     0.017 A 
HETATM   23  C   UNL     1     -15.306   1.439 -33.272  1.00  0.00     0.067 A 
HETATM   24  N   UNL     1     -13.002   0.874 -34.114  1.00  0.00    -0.365 N 
HETATM   25  C   UNL     1     -16.005   2.337 -32.457  1.00  0.00     0.070 A 
HETATM   26  C   UNL     1     -15.338   3.379 -31.812  1.00  0.00     0.038 A 
HETATM   27  H   UNL     1     -13.212   0.031 -34.633  1.00  0.00     0.165 HD
HETATM   28  C   UNL     1     -11.757   1.427 -33.985  1.00  0.00     0.096 A 
BRANCH  25  29
HETATM   29  O   UNL     1     -17.361   2.142 -32.426  1.00  0.00    -0.356 OA
HETATM   30  C   UNL     1     -18.159   3.284 -32.730  1.00  0.00     0.210 C 
ENDBRANCH  25  29
ENDBRANCH  18  19
ENDBRANCH  17  18
ENDBRANCH   3  17
BRANCH   5  31
HETATM   31  C   UNL     1      -4.546   4.866 -34.546  1.00  0.00     0.340 C 
BRANCH  31  32
HETATM   32  N   UNL     1      -3.876   5.660 -33.418  1.00  0.00    -0.060 N 
HETATM   33  H   UNL     1      -4.441   6.516 -33.302  1.00  0.00     0.280 HD
HETATM   34  C   UNL     1      -3.959   4.912 -32.089  1.00  0.00     0.255 C 
HETATM   35  C   UNL     1      -3.255   5.691 -30.960  1.00  0.00     0.150 C 
HETATM   36  N   UNL     1      -1.871   6.039 -31.362  1.00  0.00    -0.378 N 
HETATM   37  C   UNL     1      -1.787   6.817 -32.611  1.00  0.00     0.150 C 
HETATM   38  C   UNL     1      -2.448   6.036 -33.763  1.00  0.00     0.255 C 
BRANCH  36  39
HETATM   39  C   UNL     1      -1.037   6.408 -30.296  1.00  0.00     0.030 A 
HETATM   40  C   UNL     1      -0.145   5.460 -29.758  1.00  0.00     0.032 A 
HETATM   41  C   UNL     1       0.727   5.784 -28.715  1.00  0.00     0.044 A 
HETATM   42  C   UNL     1       0.722   7.069 -28.196  1.00  0.00     0.116 A 
HETATM   43  F   UNL     1       1.557   7.386 -27.200  1.00  0.00    -0.206 F 
HETATM   44  C   UNL     1      -0.138   8.031 -28.704  1.00  0.00     0.044 A 
HETATM   45  C   UNL     1      -1.008   7.702 -29.750  1.00  0.00     0.032 A 
ENDBRANCH  36  39
ENDBRANCH  31  32
ENDBRANCH   5  31
TORSDOF 8
ENDMDL
MODEL 3
REMARK VINA RESULT:      -9.5      3.844      9.372
REMARK  8 active torsions:
REMARK  status: ('A' for Active; 'I' for Inactive)
REMARK    1  A    between atoms: C_4  and  N_5 
REMARK       I    between atoms: N_5  and  C_6 
REMARK       I    between atoms: C_6  and  N_7 
REMARK    2  A    between atoms: N_7  and  C_8 
REMARK    3  A    between atoms: C_8  and  C_9 
REMARK    4  A    between atoms: C_9  and  C_10 
REMARK    5  A    between atoms: C_14  and  O_15 
REMARK       I    between atoms: N_22  and  C_23 
REMARK    6  A    between atoms: C_23  and  C_24 
REMARK    7  A    between atoms: C_24  and  N_25 
REMARK    8  A    between atoms: N_29  and  C_30 
ROOT
HETATM    1  N   UNL     1      -7.107   0.722 -33.607  1.00  0.00    -0.017 N 
HETATM    2  C   UNL     1      -7.188   2.074 -33.755  1.00  0.00     0.718 C 
HETATM    3  N   UNL     1      -8.484   2.528 -33.772  1.00  0.00    -0.223 N 
HETATM    4  N   UNL     1      -6.137   2.818 -33.899  1.00  0.00    -0.026 NA
HETATM    5  C   UNL     1      -6.210   4.167 -34.064  1.00  0.00     0.286 C 
HETATM    6  O   UNL     1      -7.223   4.862 -34.164  1.00  0.00    -0.269 OA
HETATM    7  H   UNL     1      -7.759   0.163 -34.134  1.00  0.00     0.203 HD
HETATM    8  H   UNL     1      -8.544   3.548 -33.792  1.00  0.00     0.177 HD
ENDROOT
BRANCH   1   9
HETATM    9  C   UNL     1      -5.948  -0.014 -33.384  1.00  0.00     0.741 A 
HETATM   10  N   UNL     1      -5.056   0.357 -32.447  1.00  0.00    -0.067 NA
HETATM   11  C   UNL     1      -3.994  -0.448 -32.240  1.00  0.00     0.051 A 
HETATM   12  C   UNL     1      -3.016  -0.041 -31.180  1.00  0.00     0.071 C 
HETATM   13  C   UNL     1      -3.792  -1.604 -32.964  1.00  0.00     0.054 A 
HETATM   14  C   UNL     1      -4.753  -1.916 -33.900  1.00  0.00     0.051 A 
HETATM   15  N   UNL     1      -5.835  -1.138 -34.109  1.00  0.00    -0.067 NA
HETATM   16  C   UNL     1      -4.611  -3.142 -34.751  1.00  0.00     0.071 C 
ENDBRANCH   1   9
BRANCH   3  17
HETATM   17  C   UNL     1      -9.579   1.955 -32.986  1.00  0.00     0.142 C 
BRANCH  17  18
HETATM   18  C   UNL     1      -9.285   1.913 -31.480  1.00  0.00     0.061 C 
BRANCH  18  19
HETATM   19  C   UNL     1      -9.369   3.253 -30.812  1.00  0.00    -0.029 A 
HETATM   20  C   UNL     1      -8.300   3.970 -30.183  1.00  0.00    -0.002 A 
HETATM   21  C   UNL     1      -8.827   5.166 -29.699  1.00  0.00     0.045 A 
HETATM   22  C   UNL     1      -6.929   3.711 -29.976  1.00  0.00     0.017 A 
HETATM   23  C   UNL     1      -8.047   6.123 -29.038  1.00  0.00     0.067 A 
HETATM   24  N   UNL     1     -10.172   5.163 -29.985  1.00  0.00    -0.365 N 
HETATM   25  C   UNL     1      -6.689   5.847 -28.846  1.00  0.00     0.070 A 
HETATM   26  C   UNL     1      -6.135   4.653 -29.307  1.00  0.00     0.038 A 
HETATM   27  H   UNL     1     -10.823   5.891 -29.717  1.00  0.00     0.165 HD
HETATM   28  C   UNL     1     -10.507   4.022 -30.664  1.00  0.00     0.096 A 
BRANCH  25  29
HETATM   29  O   UNL     1      -5.978   6.861 -28.259  1.00  0.00    -0.356 OA
HETATM   30  C   UNL     1      -4.940   6.457 -27.369  1.00  0.00     0.210 C 
ENDBRANCH  25  29
ENDBRANCH  18  19
ENDBRANCH  17  18
ENDBRANCH   3  17
BRANCH   5  31
HETATM   31  C   UNL     1      -4.827   4.810 -34.179  1.00  0.00     0.340 C 
BRANCH  31  32
HETATM   32  N   UNL     1      -4.131   4.990 -32.825  1.00  0.00    -0.060 N 
HETATM   33  H   UNL     1      -4.650   4.395 -32.161  1.00  0.00     0.280 HD
HETATM   34  C   UNL     1      -2.704   4.448 -32.858  1.00  0.00     0.255 C 
HETATM   35  C   UNL     1      -1.989   4.661 -31.508  1.00  0.00     0.150 C 
HETATM   36  N   UNL     1      -2.077   6.084 -31.101  1.00  0.00    -0.378 N 
HETATM   37  C   UNL     1      -3.455   6.596 -31.003  1.00  0.00     0.150 C 
HETATM   38  C   UNL     1      -4.174   6.432 -32.356  1.00  0.00     0.255 C 
BRANCH  36  39
HETATM   39  C   UNL     1      -1.162   6.453 -30.103  1.00  0.00     0.030 A 
HETATM   40  C   UNL     1      -0.200   5.520 -29.670  1.00  0.00     0.032 A 
HETATM   41  C   UNL     1       0.752   5.845 -28.700  1.00  0.00     0.044 A 
HETATM   42  C   UNL     1       0.757   7.117 -28.150  1.00  0.00     0.116 A 
HETATM   43  F   UNL     1       1.668   7.436 -27.223  1.00  0.00    -0.206 F 
HETATM   44  C   UNL     1      -0.170   8.065 -28.555  1.00  0.00     0.044 A 
HETATM   45  C   UNL     1      -1.121   7.735 -29.528  1.00  0.00     0.032 A 
ENDBRANCH  36  39
ENDBRANCH  31  32
ENDBRANCH   5  31
TORSDOF 8
ENDMDL
MODEL 4
REMARK VINA RESULT:      -9.5      3.999     10.331
REMARK  8 active torsions:
REMARK  status: ('A' for Active; 'I' for Inactive)
REMARK    1  A    between atoms: C_4  and  N_5 
REMARK       I    between atoms: N_5  and  C_6 
REMARK       I    between atoms: C_6  and  N_7 
REMARK    2  A    between atoms: N_7  and  C_8 
REMARK    3  A    between atoms: C_8  and  C_9 
REMARK    4  A    between atoms: C_9  and  C_10 
REMARK    5  A    between atoms: C_14  and  O_15 
REMARK       I    between atoms: N_22  and  C_23 
REMARK    6  A    between atoms: C_23  and  C_24 
REMARK    7  A    between atoms: C_24  and  N_25 
REMARK    8  A    between atoms: N_29  and  C_30 
ROOT
HETATM    1  N   UNL     1      -6.588   4.220 -34.058  1.00  0.00    -0.017 N 
HETATM    2  C   UNL     1      -7.502   5.002 -33.418  1.00  0.00     0.718 C 
HETATM    3  N   UNL     1      -8.790   4.752 -33.824  1.00  0.00    -0.223 N 
HETATM    4  N   UNL     1      -7.156   5.903 -32.552  1.00  0.00    -0.026 NA
HETATM    5  C   UNL     1      -8.062   6.700 -31.921  1.00  0.00     0.286 C 
HETATM    6  O   UNL     1      -9.280   6.747 -32.099  1.00  0.00    -0.269 OA
HETATM    7  H   UNL     1      -6.715   4.082 -35.047  1.00  0.00     0.203 HD
HETATM    8  H   UNL     1      -9.482   5.274 -33.282  1.00  0.00     0.177 HD
ENDROOT
BRANCH   1   9
HETATM    9  C   UNL     1      -5.236   4.114 -33.749  1.00  0.00     0.741 A 
HETATM   10  N   UNL     1      -4.322   4.910 -34.334  1.00  0.00    -0.067 NA
HETATM   11  C   UNL     1      -3.040   4.795 -33.929  1.00  0.00     0.051 A 
HETATM   12  C   UNL     1      -2.032   5.700 -34.569  1.00  0.00     0.071 C 
HETATM   13  C   UNL     1      -2.649   3.888 -32.967  1.00  0.00     0.054 A 
HETATM   14  C   UNL     1      -3.645   3.114 -32.414  1.00  0.00     0.051 A 
HETATM   15  N   UNL     1      -4.937   3.227 -32.787  1.00  0.00    -0.067 NA
HETATM   16  C   UNL     1      -3.315   2.085 -31.375  1.00  0.00     0.071 C 
ENDBRANCH   1   9
BRANCH   3  17
HETATM   17  C   UNL     1      -9.304   3.434 -34.201  1.00  0.00     0.142 C 
BRANCH  17  18
HETATM   18  C   UNL     1      -9.624   2.542 -32.993  1.00  0.00     0.061 C 
BRANCH  18  19
HETATM   19  C   UNL     1      -8.458   1.728 -32.519  1.00  0.00    -0.029 A 
HETATM   20  C   UNL     1      -7.776   0.698 -33.243  1.00  0.00    -0.002 A 
HETATM   21  C   UNL     1      -6.758   0.214 -32.423  1.00  0.00     0.045 A 
HETATM   22  C   UNL     1      -7.933   0.125 -34.523  1.00  0.00     0.017 A 
HETATM   23  C   UNL     1      -5.878  -0.797 -32.828  1.00  0.00     0.067 A 
HETATM   24  N   UNL     1      -6.839   0.894 -31.230  1.00  0.00    -0.365 N 
HETATM   25  C   UNL     1      -6.049  -1.348 -34.103  1.00  0.00     0.070 A 
HETATM   26  C   UNL     1      -7.067  -0.895 -34.942  1.00  0.00     0.038 A 
HETATM   27  H   UNL     1      -6.247   0.725 -30.427  1.00  0.00     0.165 HD
HETATM   28  C   UNL     1      -7.851   1.814 -31.281  1.00  0.00     0.096 A 
BRANCH  25  29
HETATM   29  O   UNL     1      -5.105  -2.277 -34.454  1.00  0.00    -0.356 OA
HETATM   30  C   UNL     1      -5.607  -3.520 -34.940  1.00  0.00     0.210 C 
ENDBRANCH  25  29
ENDBRANCH  18  19
ENDBRANCH  17  18
ENDBRANCH   3  17
BRANCH   5  31
HETATM   31  C   UNL     1      -7.397   7.653 -30.927  1.00  0.00     0.340 C 
BRANCH  31  32
HETATM   32  N   UNL     1      -5.899   7.382 -30.742  1.00  0.00    -0.060 N 
HETATM   33  H   UNL     1      -5.673   6.602 -31.378  1.00  0.00     0.280 HD
HETATM   34  C   UNL     1      -5.059   8.569 -31.207  1.00  0.00     0.255 C 
HETATM   35  C   UNL     1      -3.554   8.314 -30.988  1.00  0.00     0.150 C 
HETATM   36  N   UNL     1      -3.300   7.920 -29.581  1.00  0.00    -0.378 N 
HETATM   37  C   UNL     1      -4.059   6.735 -29.144  1.00  0.00     0.150 C 
HETATM   38  C   UNL     1      -5.570   6.985 -29.315  1.00  0.00     0.255 C 
BRANCH  36  39
HETATM   39  C   UNL     1      -1.958   8.027 -29.187  1.00  0.00     0.030 A 
HETATM   40  C   UNL     1      -1.628   8.822 -28.072  1.00  0.00     0.032 A 
HETATM   41  C   UNL     1      -0.311   8.941 -27.620  1.00  0.00     0.044 A 
HETATM   42  C   UNL     1       0.699   8.258 -28.278  1.00  0.00     0.116 A 
HETATM   43  F   UNL     1       1.962   8.364 -27.847  1.00  0.00    -0.206 F 
HETATM   44  C   UNL     1       0.413   7.460 -29.375  1.00  0.00     0.044 A 
HETATM   45  C   UNL     1      -0.908   7.344 -29.823  1.00  0.00     0.032 A 
ENDBRANCH  36  39
ENDBRANCH  31  32
ENDBRANCH   5  31
TORSDOF 8
ENDMDL
MODEL 5
REMARK VINA RESULT:      -9.5      3.860     10.590
REMARK  8 active torsions:
REMARK  status: ('A' for Active; 'I' for Inactive)
REMARK    1  A    between atoms: C_4  and  N_5 
REMARK       I    between atoms: N_5  and  C_6 
REMARK       I    between atoms: C_6  and  N_7 
REMARK    2  A    between atoms: N_7  and  C_8 
REMARK    3  A    between atoms: C_8  and  C_9 
REMARK    4  A    between atoms: C_9  and  C_10 
REMARK    5  A    between atoms: C_14  and  O_15 
REMARK       I    between atoms: N_22  and  C_23 
REMARK    6  A    between atoms: C_23  and  C_24 
REMARK    7  A    between atoms: C_24  and  N_25 
REMARK    8  A    between atoms: N_29  and  C_30 
ROOT
HETATM    1  N   UNL     1      -3.925   3.713 -31.501  1.00  0.00    -0.017 N 
HETATM    2  C   UNL     1      -4.976   4.408 -30.982  1.00  0.00     0.718 C 
HETATM    3  N   UNL     1      -5.952   3.588 -30.469  1.00  0.00    -0.223 N 
HETATM    4  N   UNL     1      -5.034   5.702 -31.017  1.00  0.00    -0.026 NA
HETATM    5  C   UNL     1      -6.088   6.403 -30.516  1.00  0.00     0.286 C 
HETATM    6  O   UNL     1      -7.130   5.958 -30.032  1.00  0.00    -0.269 OA
HETATM    7  H   UNL     1      -4.142   2.896 -32.049  1.00  0.00     0.203 HD
HETATM    8  H   UNL     1      -6.696   4.108 -30.000  1.00  0.00     0.177 HD
ENDROOT
BRANCH   1   9
HETATM    9  C   UNL     1      -2.717   4.249 -31.934  1.00  0.00     0.741 A 
HETATM   10  N   UNL     1      -2.531   4.601 -33.219  1.00  0.00    -0.067 NA
HETATM   11  C   UNL     1      -1.357   5.181 -33.546  1.00  0.00     0.051 A 
HETATM   12  C   UNL     1      -1.165   5.591 -34.974  1.00  0.00     0.071 C 
HETATM   13  C   UNL     1      -0.358   5.397 -32.621  1.00  0.00     0.054 A 
HETATM   14  C   UNL     1      -0.629   5.012 -31.326  1.00  0.00     0.051 A 
HETATM   15  N   UNL     1      -1.804   4.451 -30.972  1.00  0.00    -0.067 NA
HETATM   16  C   UNL     1       0.403   5.187 -30.253  1.00  0.00     0.071 C 
ENDBRANCH   1   9
BRANCH   3  17
HETATM   17  C   UNL     1      -5.700   2.311 -29.797  1.00  0.00     0.142 C 
BRANCH  17  18
HETATM   18  C   UNL     1      -6.385   1.122 -30.484  1.00  0.00     0.061 C 
BRANCH  18  19
HETATM   19  C   UNL     1      -5.433   0.206 -31.195  1.00  0.00    -0.029 A 
HETATM   20  C   UNL     1      -5.730  -0.655 -32.300  1.00  0.00    -0.002 A 
HETATM   21  C   UNL     1      -4.553  -1.320 -32.640  1.00  0.00     0.045 A 
HETATM   22  C   UNL     1      -6.896  -0.935 -33.044  1.00  0.00     0.017 A 
HETATM   23  C   UNL     1      -4.481  -2.234 -33.699  1.00  0.00     0.067 A 
HETATM   24  N   UNL     1      -3.585  -0.911 -31.753  1.00  0.00    -0.365 N 
HETATM   25  C   UNL     1      -5.648  -2.494 -34.425  1.00  0.00     0.070 A 
HETATM   26  C   UNL     1      -6.844  -1.855 -34.101  1.00  0.00     0.038 A 
HETATM   27  H   UNL     1      -2.634  -1.259 -31.734  1.00  0.00     0.165 HD
HETATM   28  C   UNL     1      -4.100   0.014 -30.886  1.00  0.00     0.096 A 
BRANCH  25  29
HETATM   29  O   UNL     1      -5.480  -3.341 -35.490  1.00  0.00    -0.356 OA
HETATM   30  C   UNL     1      -6.264  -4.531 -35.466  1.00  0.00     0.210 C 
ENDBRANCH  25  29
ENDBRANCH  18  19
ENDBRANCH  17  18
ENDBRANCH   3  17
BRANCH   5  31
HETATM   31  C   UNL     1      -5.894   7.914 -30.655  1.00  0.00     0.340 C 
BRANCH  31  32
HETATM   32  N   UNL     1      -4.719   8.449 -29.828  1.00  0.00    -0.060 N 
HETATM   33  H   UNL     1      -4.975   9.414 -29.566  1.00  0.00     0.280 HD
HETATM   34  C   UNL     1      -4.565   7.679 -28.518  1.00  0.00     0.255 C 
HETATM   35  C   UNL     1      -3.361   8.192 -27.701  1.00  0.00     0.150 C 
HETATM   36  N   UNL     1      -2.137   8.193 -28.538  1.00  0.00    -0.378 N 
HETATM   37  C   UNL     1      -2.256   8.989 -29.773  1.00  0.00     0.150 C 
HETATM   38  C   UNL     1      -3.429   8.465 -30.625  1.00  0.00     0.255 C 
BRANCH  36  39
HETATM   39  C   UNL     1      -0.942   8.281 -27.809  1.00  0.00     0.030 A 
HETATM   40  C   UNL     1       0.287   8.284 -28.497  1.00  0.00     0.032 A 
HETATM   41  C   UNL     1       1.505   8.398 -27.821  1.00  0.00     0.044 A 
HETATM   42  C   UNL     1       1.510   8.515 -26.441  1.00  0.00     0.116 A 
HETATM   43  F   UNL     1       2.673   8.629 -25.789  1.00  0.00    -0.206 F 
HETATM   44  C   UNL     1       0.320   8.522 -25.729  1.00  0.00     0.044 A 
HETATM   45  C   UNL     1      -0.897   8.409 -26.410  1.00  0.00     0.032 A 
ENDBRANCH  36  39
ENDBRANCH  31  32
ENDBRANCH   5  31
TORSDOF 8
ENDMDL
MODEL 6
REMARK VINA RESULT:      -9.4      4.255     11.283
REMARK  8 active torsions:
REMARK  status: ('A' for Active; 'I' for Inactive)
REMARK    1  A    between atoms: C_4  and  N_5 
REMARK       I    between atoms: N_5  and  C_6 
REMARK       I    between atoms: C_6  and  N_7 
REMARK    2  A    between atoms: N_7  and  C_8 
REMARK    3  A    between atoms: C_8  and  C_9 
REMARK    4  A    between atoms: C_9  and  C_10 
REMARK    5  A    between atoms: C_14  and  O_15 
REMARK       I    between atoms: N_22  and  C_23 
REMARK    6  A    between atoms: C_23  and  C_24 
REMARK    7  A    between atoms: C_24  and  N_25 
REMARK    8  A    between atoms: N_29  and  C_30 
ROOT
HETATM    1  N   UNL     1      -4.448   3.789 -31.135  1.00  0.00    -0.017 N 
HETATM    2  C   UNL     1      -5.183   4.290 -30.103  1.00  0.00     0.718 C 
HETATM    3  N   UNL     1      -6.177   3.434 -29.696  1.00  0.00    -0.223 N 
HETATM    4  N   UNL     1      -4.965   5.467 -29.606  1.00  0.00    -0.026 NA
HETATM    5  C   UNL     1      -5.705   5.981 -28.586  1.00  0.00     0.286 C 
HETATM    6  O   UNL     1      -6.688   5.479 -28.037  1.00  0.00    -0.269 OA
HETATM    7  H   UNL     1      -4.951   3.323 -31.872  1.00  0.00     0.203 HD
HETATM    8  H   UNL     1      -6.670   3.769 -28.866  1.00  0.00     0.177 HD
ENDROOT
BRANCH   1   9
HETATM    9  C   UNL     1      -3.277   4.333 -31.652  1.00  0.00     0.741 A 
HETATM   10  N   UNL     1      -2.238   4.640 -30.853  1.00  0.00    -0.067 NA
HETATM   11  C   UNL     1      -1.111   5.096 -31.438  1.00  0.00     0.051 A 
HETATM   12  C   UNL     1       0.049   5.415 -30.545  1.00  0.00     0.071 C 
HETATM   13  C   UNL     1      -1.007   5.271 -32.802  1.00  0.00     0.054 A 
HETATM   14  C   UNL     1      -2.112   4.929 -33.549  1.00  0.00     0.051 A 
HETATM   15  N   UNL     1      -3.242   4.451 -32.989  1.00  0.00    -0.067 NA
HETATM   16  C   UNL     1      -2.102   5.104 -35.039  1.00  0.00     0.071 C 
ENDBRANCH   1   9
BRANCH   3  17
HETATM   17  C   UNL     1      -6.068   1.973 -29.688  1.00  0.00     0.142 C 
BRANCH  17  18
HETATM   18  C   UNL     1      -6.562   1.323 -30.988  1.00  0.00     0.061 C 
BRANCH  18  19
HETATM   19  C   UNL     1      -5.616   0.305 -31.550  1.00  0.00    -0.029 A 
HETATM   20  C   UNL     1      -5.873  -0.608 -32.623  1.00  0.00    -0.002 A 
HETATM   21  C   UNL     1      -4.718  -1.366 -32.812  1.00  0.00     0.045 A 
HETATM   22  C   UNL     1      -6.985  -0.866 -33.452  1.00  0.00     0.017 A 
HETATM   23  C   UNL     1      -4.615  -2.352 -33.802  1.00  0.00     0.067 A 
HETATM   24  N   UNL     1      -3.806  -0.960 -31.867  1.00  0.00    -0.365 N 
HETATM   25  C   UNL     1      -5.729  -2.588 -34.615  1.00  0.00     0.070 A 
HETATM   26  C   UNL     1      -6.904  -1.856 -34.441  1.00  0.00     0.038 A 
HETATM   27  H   UNL     1      -2.886  -1.363 -31.740  1.00  0.00     0.165 HD
HETATM   28  C   UNL     1      -4.331   0.052 -31.110  1.00  0.00     0.096 A 
BRANCH  25  29
HETATM   29  O   UNL     1      -5.527  -3.513 -35.606  1.00  0.00    -0.356 OA
HETATM   30  C   UNL     1      -6.284  -4.716 -35.496  1.00  0.00     0.210 C 
ENDBRANCH  25  29
ENDBRANCH  18  19
ENDBRANCH  17  18
ENDBRANCH   3  17
BRANCH   5  31
HETATM   31  C   UNL     1      -5.222   7.371 -28.167  1.00  0.00     0.340 C 
BRANCH  31  32
HETATM   32  N   UNL     1      -3.712   7.432 -27.911  1.00  0.00    -0.060 N 
HETATM   33  H   UNL     1      -3.279   6.836 -28.633  1.00  0.00     0.280 HD
HETATM   34  C   UNL     1      -3.167   8.841 -28.139  1.00  0.00     0.255 C 
HETATM   35  C   UNL     1      -1.655   8.914 -27.846  1.00  0.00     0.150 C 
HETATM   36  N   UNL     1      -1.367   8.376 -26.495  1.00  0.00    -0.378 N 
HETATM   37  C   UNL     1      -1.833   6.993 -26.288  1.00  0.00     0.150 C 
HETATM   38  C   UNL     1      -3.352   6.906 -26.535  1.00  0.00     0.255 C 
BRANCH  36  39
HETATM   39  C   UNL     1      -0.107   8.731 -25.991  1.00  0.00     0.030 A 
HETATM   40  C   UNL     1      -0.022   9.682 -24.955  1.00  0.00     0.032 A 
HETATM   41  C   UNL     1       1.204  10.051 -24.397  1.00  0.00     0.044 A 
HETATM   42  C   UNL     1       2.370   9.467 -24.867  1.00  0.00     0.116 A 
HETATM   43  F   UNL     1       3.548   9.813 -24.334  1.00  0.00    -0.206 F 
HETATM   44  C   UNL     1       2.326   8.522 -25.881  1.00  0.00     0.044 A 
HETATM   45  C   UNL     1       1.094   8.155 -26.436  1.00  0.00     0.032 A 
ENDBRANCH  36  39
ENDBRANCH  31  32
ENDBRANCH   5  31
TORSDOF 8
ENDMDL
MODEL 7
REMARK VINA RESULT:      -9.4      2.254      3.704
REMARK  8 active torsions:
REMARK  status: ('A' for Active; 'I' for Inactive)
REMARK    1  A    between atoms: C_4  and  N_5 
REMARK       I    between atoms: N_5  and  C_6 
REMARK       I    between atoms: C_6  and  N_7 
REMARK    2  A    between atoms: N_7  and  C_8 
REMARK    3  A    between atoms: C_8  and  C_9 
REMARK    4  A    between atoms: C_9  and  C_10 
REMARK    5  A    between atoms: C_14  and  O_15 
REMARK       I    between atoms: N_22  and  C_23 
REMARK    6  A    between atoms: C_23  and  C_24 
REMARK    7  A    between atoms: C_24  and  N_25 
REMARK    8  A    between atoms: N_29  and  C_30 
ROOT
HETATM    1  N   UNL     1      -5.303   5.500 -33.919  1.00  0.00    -0.017 N 
HETATM    2  C   UNL     1      -4.332   4.792 -33.277  1.00  0.00     0.718 C 
HETATM    3  N   UNL     1      -3.088   4.980 -33.826  1.00  0.00    -0.223 N 
HETATM    4  N   UNL     1      -4.595   4.006 -32.280  1.00  0.00    -0.026 NA
HETATM    5  C   UNL     1      -3.634   3.283 -31.643  1.00  0.00     0.286 C 
HETATM    6  O   UNL     1      -2.437   3.203 -31.925  1.00  0.00    -0.269 OA
HETATM    7  H   UNL     1      -5.268   5.517 -34.926  1.00  0.00     0.203 HD
HETATM    8  H   UNL     1      -2.347   4.521 -33.291  1.00  0.00     0.177 HD
ENDROOT
BRANCH   1   9
HETATM    9  C   UNL     1      -6.621   5.656 -33.503  1.00  0.00     0.741 A 
HETATM   10  N   UNL     1      -6.952   6.549 -32.553  1.00  0.00    -0.067 NA
HETATM   11  C   UNL     1      -8.260   6.692 -32.256  1.00  0.00     0.051 A 
HETATM   12  C   UNL     1      -8.623   7.704 -31.212  1.00  0.00     0.071 C 
HETATM   13  C   UNL     1      -9.243   5.947 -32.873  1.00  0.00     0.054 A 
HETATM   14  C   UNL     1      -8.822   5.059 -33.838  1.00  0.00     0.051 A 
HETATM   15  N   UNL     1      -7.521   4.914 -34.167  1.00  0.00    -0.067 NA
HETATM   16  C   UNL     1      -9.814   4.189 -34.550  1.00  0.00     0.071 C 
ENDBRANCH   1   9
BRANCH   3  17
HETATM   17  C   UNL     1      -2.613   6.238 -34.405  1.00  0.00     0.142 C 
BRANCH  17  18
HETATM   18  C   UNL     1      -1.249   6.679 -33.856  1.00  0.00     0.061 C 
BRANCH  18  19
HETATM   19  C   UNL     1      -1.308   7.222 -32.460  1.00  0.00    -0.029 A 
HETATM   20  C   UNL     1      -0.690   6.666 -31.294  1.00  0.00    -0.002 A 
HETATM   21  C   UNL     1      -1.004   7.494 -30.218  1.00  0.00     0.045 A 
HETATM   22  C   UNL     1       0.108   5.528 -31.050  1.00  0.00     0.017 A 
HETATM   23  C   UNL     1      -0.544   7.252 -28.918  1.00  0.00     0.067 A 
HETATM   24  N   UNL     1      -1.815   8.495 -30.700  1.00  0.00    -0.365 N 
HETATM   25  C   UNL     1       0.248   6.120 -28.700  1.00  0.00     0.070 A 
HETATM   26  C   UNL     1       0.569   5.264 -29.753  1.00  0.00     0.038 A 
HETATM   27  H   UNL     1      -2.232   9.225 -30.135  1.00  0.00     0.165 HD
HETATM   28  C   UNL     1      -1.995   8.348 -32.048  1.00  0.00     0.096 A 
BRANCH  25  29
HETATM   29  O   UNL     1       0.721   5.992 -27.419  1.00  0.00    -0.356 OA
HETATM   30  C   UNL     1       0.536   7.124 -26.574  1.00  0.00     0.210 C 
ENDBRANCH  25  29
ENDBRANCH  18  19
ENDBRANCH  17  18
ENDBRANCH   3  17
BRANCH   5  31
HETATM   31  C   UNL     1      -4.203   2.463 -30.484  1.00  0.00     0.340 C 
BRANCH  31  32
HETATM   32  N   UNL     1      -4.595   1.037 -30.889  1.00  0.00    -0.060 N 
HETATM   33  H   UNL     1      -4.955   0.590 -30.032  1.00  0.00     0.280 HD
HETATM   34  C   UNL     1      -5.752   1.041 -31.886  1.00  0.00     0.255 C 
HETATM   35  C   UNL     1      -6.125  -0.390 -32.323  1.00  0.00     0.150 C 
HETATM   36  N   UNL     1      -4.922  -1.106 -32.811  1.00  0.00    -0.378 N 
HETATM   37  C   UNL     1      -3.823  -1.171 -31.830  1.00  0.00     0.150 C 
HETATM   38  C   UNL     1      -3.407   0.252 -31.411  1.00  0.00     0.255 C 
BRANCH  36  39
HETATM   39  C   UNL     1      -5.203  -2.255 -33.565  1.00  0.00     0.030 A 
HETATM   40  C   UNL     1      -6.449  -2.368 -34.211  1.00  0.00     0.032 A 
HETATM   41  C   UNL     1      -6.770  -3.477 -34.998  1.00  0.00     0.044 A 
HETATM   42  C   UNL     1      -5.841  -4.493 -35.153  1.00  0.00     0.116 A 
HETATM   43  F   UNL     1      -6.140  -5.557 -35.908  1.00  0.00    -0.206 F 
HETATM   44  C   UNL     1      -4.601  -4.416 -34.537  1.00  0.00     0.044 A 
HETATM   45  C   UNL     1      -4.284  -3.302 -33.752  1.00  0.00     0.032 A 
ENDBRANCH  36  39
ENDBRANCH  31  32
ENDBRANCH   5  31
TORSDOF 8
ENDMDL
MODEL 8
REMARK VINA RESULT:      -9.2      4.336      6.720
REMARK  8 active torsions:
REMARK  status: ('A' for Active; 'I' for Inactive)
REMARK    1  A    between atoms: C_4  and  N_5 
REMARK       I    between atoms: N_5  and  C_6 
REMARK       I    between atoms: C_6  and  N_7 
REMARK    2  A    between atoms: N_7  and  C_8 
REMARK    3  A    between atoms: C_8  and  C_9 
REMARK    4  A    between atoms: C_9  and  C_10 
REMARK    5  A    between atoms: C_14  and  O_15 
REMARK       I    between atoms: N_22  and  C_23 
REMARK    6  A    between atoms: C_23  and  C_24 
REMARK    7  A    between atoms: C_24  and  N_25 
REMARK    8  A    between atoms: N_29  and  C_30 
ROOT
HETATM    1  N   UNL     1      -4.621   2.483 -32.478  1.00  0.00    -0.017 N 
HETATM    2  C   UNL     1      -4.802   3.833 -32.506  1.00  0.00     0.718 C 
HETATM    3  N   UNL     1      -3.617   4.527 -32.511  1.00  0.00    -0.223 N 
HETATM    4  N   UNL     1      -5.980   4.373 -32.492  1.00  0.00    -0.026 NA
HETATM    5  C   UNL     1      -6.170   5.721 -32.503  1.00  0.00     0.286 C 
HETATM    6  O   UNL     1      -5.312   6.605 -32.466  1.00  0.00    -0.269 OA
HETATM    7  H   UNL     1      -3.905   2.130 -31.863  1.00  0.00     0.203 HD
HETATM    8  H   UNL     1      -3.750   5.534 -32.624  1.00  0.00     0.177 HD
ENDROOT
BRANCH   1   9
HETATM    9  C   UNL     1      -5.608   1.516 -32.636  1.00  0.00     0.741 A 
HETATM   10  N   UNL     1      -6.806   1.637 -32.036  1.00  0.00    -0.067 NA
HETATM   11  C   UNL     1      -7.735   0.694 -32.297  1.00  0.00     0.051 A 
HETATM   12  C   UNL     1      -9.074   0.847 -31.642  1.00  0.00     0.071 C 
HETATM   13  C   UNL     1      -7.486  -0.377 -33.129  1.00  0.00     0.054 A 
HETATM   14  C   UNL     1      -6.238  -0.425 -33.708  1.00  0.00     0.051 A 
HETATM   15  N   UNL     1      -5.300   0.518 -33.479  1.00  0.00    -0.067 NA
HETATM   16  C   UNL     1      -5.865  -1.562 -34.612  1.00  0.00     0.071 C 
ENDBRANCH   1   9
BRANCH   3  17
HETATM   17  C   UNL     1      -2.393   4.083 -33.183  1.00  0.00     0.142 C 
BRANCH  17  18
HETATM   18  C   UNL     1      -1.452   5.238 -33.551  1.00  0.00     0.061 C 
BRANCH  18  19
HETATM   19  C   UNL     1      -1.316   6.272 -32.473  1.00  0.00    -0.029 A 
HETATM   20  C   UNL     1      -0.635   6.125 -31.222  1.00  0.00    -0.002 A 
HETATM   21  C   UNL     1      -0.759   7.332 -30.535  1.00  0.00     0.045 A 
HETATM   22  C   UNL     1       0.074   5.074 -30.604  1.00  0.00     0.017 A 
HETATM   23  C   UNL     1      -0.191   7.545 -29.273  1.00  0.00     0.067 A 
HETATM   24  N   UNL     1      -1.518   8.169 -31.318  1.00  0.00    -0.365 N 
HETATM   25  C   UNL     1       0.511   6.489 -28.680  1.00  0.00     0.070 A 
HETATM   26  C   UNL     1       0.640   5.265 -29.336  1.00  0.00     0.038 A 
HETATM   27  H   UNL     1      -1.804   9.105 -31.057  1.00  0.00     0.165 HD
HETATM   28  C   UNL     1      -1.850   7.546 -32.491  1.00  0.00     0.096 A 
BRANCH  25  29
HETATM   29  O   UNL     1       1.099   6.797 -27.481  1.00  0.00    -0.356 OA
HETATM   30  C   UNL     1       0.226   7.297 -26.472  1.00  0.00     0.210 C 
ENDBRANCH  25  29
ENDBRANCH  18  19
ENDBRANCH  17  18
ENDBRANCH   3  17
BRANCH   5  31
HETATM   31  C   UNL     1      -7.653   6.094 -32.514  1.00  0.00     0.340 C 
BRANCH  31  32
HETATM   32  N   UNL     1      -8.580   4.880 -32.643  1.00  0.00    -0.060 N 
HETATM   33  H   UNL     1      -8.046   4.078 -32.273  1.00  0.00     0.280 HD
HETATM   34  C   UNL     1      -9.810   5.023 -31.749  1.00  0.00     0.255 C 
HETATM   35  C   UNL     1     -10.761   3.819 -31.904  1.00  0.00     0.150 C 
HETATM   36  N   UNL     1     -11.087   3.604 -33.335  1.00  0.00    -0.378 N 
HETATM   37  C   UNL     1      -9.907   3.400 -34.194  1.00  0.00     0.150 C 
HETATM   38  C   UNL     1      -8.962   4.613 -34.086  1.00  0.00     0.255 C 
BRANCH  36  39
HETATM   39  C   UNL     1     -12.211   2.794 -33.553  1.00  0.00     0.030 A 
HETATM   40  C   UNL     1     -12.139   1.756 -34.503  1.00  0.00     0.032 A 
HETATM   41  C   UNL     1     -13.220   0.902 -34.739  1.00  0.00     0.044 A 
HETATM   42  C   UNL     1     -14.392   1.072 -34.021  1.00  0.00     0.116 A 
HETATM   43  F   UNL     1     -15.429   0.255 -34.239  1.00  0.00    -0.206 F 
HETATM   44  C   UNL     1     -14.499   2.079 -33.072  1.00  0.00     0.044 A 
HETATM   45  C   UNL     1     -13.413   2.931 -32.839  1.00  0.00     0.032 A 
ENDBRANCH  36  39
ENDBRANCH  31  32
ENDBRANCH   5  31
TORSDOF 8
ENDMDL
MODEL 9
REMARK VINA RESULT:      -9.1      4.884     10.274
REMARK  8 active torsions:
REMARK  status: ('A' for Active; 'I' for Inactive)
REMARK    1  A    between atoms: C_4  and  N_5 
REMARK       I    between atoms: N_5  and  C_6 
REMARK       I    between atoms: C_6  and  N_7 
REMARK    2  A    between atoms: N_7  and  C_8 
REMARK    3  A    between atoms: C_8  and  C_9 
REMARK    4  A    between atoms: C_9  and  C_10 
REMARK    5  A    between atoms: C_14  and  O_15 
REMARK       I    between atoms: N_22  and  C_23 
REMARK    6  A    between atoms: C_23  and  C_24 
REMARK    7  A    between atoms: C_24  and  N_25 
REMARK    8  A    between atoms: N_29  and  C_30 
ROOT
HETATM    1  N   UNL     1     -11.292   2.385 -32.672  1.00  0.00    -0.017 N 
HETATM    2  C   UNL     1     -10.122   2.397 -31.975  1.00  0.00     0.718 C 
HETATM    3  N   UNL     1      -9.429   1.216 -32.082  1.00  0.00    -0.223 N 
HETATM    4  N   UNL     1      -9.750   3.416 -31.267  1.00  0.00    -0.026 NA
HETATM    5  C   UNL     1      -8.590   3.430 -30.554  1.00  0.00     0.286 C 
HETATM    6  O   UNL     1      -7.778   2.514 -30.413  1.00  0.00    -0.269 OA
HETATM    7  H   UNL     1     -11.848   1.546 -32.621  1.00  0.00     0.203 HD
HETATM    8  H   UNL     1      -8.511   1.256 -31.634  1.00  0.00     0.177 HD
ENDROOT
BRANCH   1   9
HETATM    9  C   UNL     1     -12.126   3.474 -32.901  1.00  0.00     0.741 A 
HETATM   10  N   UNL     1     -13.146   3.759 -32.070  1.00  0.00    -0.067 NA
HETATM   11  C   UNL     1     -13.864   4.874 -32.319  1.00  0.00     0.051 A 
HETATM   12  C   UNL     1     -14.983   5.197 -31.377  1.00  0.00     0.071 C 
HETATM   13  C   UNL     1     -13.599   5.698 -33.392  1.00  0.00     0.054 A 
HETATM   14  C   UNL     1     -12.536   5.340 -34.192  1.00  0.00     0.051 A 
HETATM   15  N   UNL     1     -11.789   4.242 -33.949  1.00  0.00    -0.067 NA
HETATM   16  C   UNL     1     -12.182   6.162 -35.395  1.00  0.00     0.071 C 
ENDBRANCH   1   9
BRANCH   3  17
HETATM   17  C   UNL     1      -9.391   0.377 -33.282  1.00  0.00     0.142 C 
BRANCH  17  18
HETATM   18  C   UNL     1      -8.326   0.820 -34.295  1.00  0.00     0.061 C 
BRANCH  18  19
HETATM   19  C   UNL     1      -6.932   0.413 -33.921  1.00  0.00    -0.029 A 
HETATM   20  C   UNL     1      -6.322  -0.865 -34.132  1.00  0.00    -0.002 A 
HETATM   21  C   UNL     1      -5.023  -0.797 -33.633  1.00  0.00     0.045 A 
HETATM   22  C   UNL     1      -6.758  -2.082 -34.700  1.00  0.00     0.017 A 
HETATM   23  C   UNL     1      -4.132  -1.876 -33.692  1.00  0.00     0.067 A 
HETATM   24  N   UNL     1      -4.857   0.461 -33.102  1.00  0.00    -0.365 N 
HETATM   25  C   UNL     1      -4.584  -3.072 -34.262  1.00  0.00     0.070 A 
HETATM   26  C   UNL     1      -5.883  -3.176 -34.758  1.00  0.00     0.038 A 
HETATM   27  H   UNL     1      -4.021   0.786 -32.634  1.00  0.00     0.165 HD
HETATM   28  C   UNL     1      -5.995   1.201 -33.280  1.00  0.00     0.096 A 
BRANCH  25  29
HETATM   29  O   UNL     1      -3.634  -4.055 -34.352  1.00  0.00    -0.356 OA
HETATM   30  C   UNL     1      -3.705  -5.078 -33.362  1.00  0.00     0.210 C 
ENDBRANCH  25  29
ENDBRANCH  18  19
ENDBRANCH  17  18
ENDBRANCH   3  17
BRANCH   5  31
HETATM   31  C   UNL     1      -8.373   4.762 -29.833  1.00  0.00     0.340 C 
BRANCH  31  32
HETATM   32  N   UNL     1      -7.080   5.471 -30.253  1.00  0.00    -0.060 N 
HETATM   33  H   UNL     1      -7.350   6.441 -30.474  1.00  0.00     0.280 HD
HETATM   34  C   UNL     1      -6.092   5.557 -29.092  1.00  0.00     0.255 C 
HETATM   35  C   UNL     1      -4.776   6.238 -29.522  1.00  0.00     0.150 C 
HETATM   36  N   UNL     1      -4.224   5.571 -30.725  1.00  0.00    -0.378 N 
HETATM   37  C   UNL     1      -5.149   5.541 -31.872  1.00  0.00     0.150 C 
HETATM   38  C   UNL     1      -6.455   4.826 -31.476  1.00  0.00     0.255 C 
BRANCH  36  39
HETATM   39  C   UNL     1      -2.873   5.859 -30.973  1.00  0.00     0.030 A 
HETATM   40  C   UNL     1      -2.302   7.019 -30.416  1.00  0.00     0.032 A 
HETATM   41  C   UNL     1      -0.955   7.338 -30.607  1.00  0.00     0.044 A 
HETATM   42  C   UNL     1      -0.155   6.493 -31.360  1.00  0.00     0.116 A 
HETATM   43  F   UNL     1       1.137   6.791 -31.543  1.00  0.00    -0.206 F 
HETATM   44  C   UNL     1      -0.680   5.337 -31.919  1.00  0.00     0.044 A 
HETATM   45  C   UNL     1      -2.029   5.022 -31.723  1.00  0.00     0.032 A 
ENDBRANCH  36  39
ENDBRANCH  31  32
ENDBRANCH   5  31
TORSDOF 8
ENDMDL
MODEL 10
REMARK VINA RESULT:      -9.1      3.839      6.171
REMARK  8 active torsions:
REMARK  status: ('A' for Active; 'I' for Inactive)
REMARK    1  A    between atoms: C_4  and  N_5 
REMARK       I    between atoms: N_5  and  C_6 
REMARK       I    between atoms: C_6  and  N_7 
REMARK    2  A    between atoms: N_7  and  C_8 
REMARK    3  A    between atoms: C_8  and  C_9 
REMARK    4  A    between atoms: C_9  and  C_10 
REMARK    5  A    between atoms: C_14  and  O_15 
REMARK       I    between atoms: N_22  and  C_23 
REMARK    6  A    between atoms: C_23  and  C_24 
REMARK    7  A    between atoms: C_24  and  N_25 
REMARK    8  A    between atoms: N_29  and  C_30 
ROOT
HETATM    1  N   UNL     1      -3.369   2.479 -32.127  1.00  0.00    -0.017 N 
HETATM    2  C   UNL     1      -3.758   3.608 -31.470  1.00  0.00     0.718 C 
HETATM    3  N   UNL     1      -2.729   4.501 -31.296  1.00  0.00    -0.223 N 
HETATM    4  N   UNL     1      -4.968   3.773 -31.037  1.00  0.00    -0.026 NA
HETATM    5  C   UNL     1      -5.361   4.890 -30.365  1.00  0.00     0.286 C 
HETATM    6  O   UNL     1      -4.666   5.846 -30.018  1.00  0.00    -0.269 OA
HETATM    7  H   UNL     1      -2.482   2.079 -31.865  1.00  0.00     0.203 HD
HETATM    8  H   UNL     1      -3.040   5.384 -30.885  1.00  0.00     0.177 HD
ENDROOT
BRANCH   1   9
HETATM    9  C   UNL     1      -4.204   1.474 -32.602  1.00  0.00     0.741 A 
HETATM   10  N   UNL     1      -5.366   1.764 -33.215  1.00  0.00    -0.067 NA
HETATM   11  C   UNL     1      -6.085   0.736 -33.713  1.00  0.00     0.051 A 
HETATM   12  C   UNL     1      -7.367   1.068 -34.413  1.00  0.00     0.071 C 
HETATM   13  C   UNL     1      -5.678  -0.575 -33.593  1.00  0.00     0.054 A 
HETATM   14  C   UNL     1      -4.475  -0.787 -32.957  1.00  0.00     0.051 A 
HETATM   15  N   UNL     1      -3.728   0.226 -32.471  1.00  0.00    -0.067 NA
HETATM   16  C   UNL     1      -3.958  -2.181 -32.760  1.00  0.00     0.071 C 
ENDBRANCH   1   9
BRANCH   3  17
HETATM   17  C   UNL     1      -1.646   4.722 -32.256  1.00  0.00     0.142 C 
BRANCH  17  18
HETATM   18  C   UNL     1      -0.718   5.881 -31.863  1.00  0.00     0.061 C 
BRANCH  18  19
HETATM   19  C   UNL     1      -0.053   5.696 -30.531  1.00  0.00    -0.029 A 
HETATM   20  C   UNL     1      -0.021   6.633 -29.449  1.00  0.00    -0.002 A 
HETATM   21  C   UNL     1       0.701   6.048 -28.411  1.00  0.00     0.045 A 
HETATM   22  C   UNL     1      -0.536   7.933 -29.256  1.00  0.00     0.017 A 
HETATM   23  C   UNL     1       0.915   6.688 -27.183  1.00  0.00     0.067 A 
HETATM   24  N   UNL     1       1.126   4.817 -28.855  1.00  0.00    -0.365 N 
HETATM   25  C   UNL     1       0.392   7.975 -27.012  1.00  0.00     0.070 A 
HETATM   26  C   UNL     1      -0.323   8.593 -28.037  1.00  0.00     0.038 A 
HETATM   27  H   UNL     1       1.708   4.180 -28.325  1.00  0.00     0.165 HD
HETATM   28  C   UNL     1       0.669   4.591 -30.125  1.00  0.00     0.096 A 
BRANCH  25  29
HETATM   29  O   UNL     1       0.578   8.504 -25.762  1.00  0.00    -0.356 OA
HETATM   30  C   UNL     1       1.933   8.674 -25.355  1.00  0.00     0.210 C 
ENDBRANCH  25  29
ENDBRANCH  18  19
ENDBRANCH  17  18
ENDBRANCH   3  17
BRANCH   5  31
HETATM   31  C   UNL     1      -6.844   4.848 -29.994  1.00  0.00     0.340 C 
BRANCH  31  32
HETATM   32  N   UNL     1      -7.710   4.145 -31.047  1.00  0.00    -0.060 N 
HETATM   33  H   UNL     1      -7.057   3.819 -31.776  1.00  0.00     0.280 HD
HETATM   34  C   UNL     1      -8.371   2.892 -30.476  1.00  0.00     0.255 C 
HETATM   35  C   UNL     1      -9.271   2.204 -31.522  1.00  0.00     0.150 C 
HETATM   36  N   UNL     1     -10.233   3.178 -32.091  1.00  0.00    -0.378 N 
HETATM   37  C   UNL     1      -9.599   4.360 -32.702  1.00  0.00     0.150 C 
HETATM   38  C   UNL     1      -8.727   5.087 -31.660  1.00  0.00     0.255 C 
BRANCH  36  39
HETATM   39  C   UNL     1     -11.319   2.591 -32.758  1.00  0.00     0.030 A 
HETATM   40  C   UNL     1     -12.563   3.251 -32.762  1.00  0.00     0.032 A 
HETATM   41  C   UNL     1     -13.669   2.725 -33.435  1.00  0.00     0.044 A 
HETATM   42  C   UNL     1     -13.543   1.528 -34.121  1.00  0.00     0.116 A 
HETATM   43  F   UNL     1     -14.598   1.021 -34.771  1.00  0.00    -0.206 F 
HETATM   44  C   UNL     1     -12.332   0.852 -34.146  1.00  0.00     0.044 A 
HETATM   45  C   UNL     1     -11.227   1.384 -33.471  1.00  0.00     0.032 A 
ENDBRANCH  36  39
ENDBRANCH  31  32
ENDBRANCH   5  31
TORSDOF 8
ENDMDL
