MODEL 1
REMARK VINA RESULT:      -9.4      0.000      0.000
REMARK  4 active torsions:
REMARK  status: ('A' for Active; 'I' for Inactive)
REMARK    1  A    between atoms: C_2  and  C_3 
REMARK    2  A    between atoms: C_7  and  C_8 
REMARK       I    between atoms: C_8  and  N_9 
REMARK    3  A    between atoms: N_9  and  C_10 
REMARK    4  A    between atoms: C_10  and  C_11 
ROOT
HETATM    1  C   UNL     1      -5.631   3.545 -33.464  1.00  0.00     0.270 C 
HETATM    2  N   UNL     1      -5.481   2.252 -33.028  1.00  0.00    -0.351 N 
HETATM    3  O   UNL     1      -6.594   3.912 -34.127  1.00  0.00    -0.266 OA
HETATM    4  H   UNL     1      -4.721   2.013 -32.408  1.00  0.00     0.163 HD
ENDROOT
BRANCH   1   5
HETATM    5  C   UNL     1      -4.575   4.448 -33.097  1.00  0.00     0.120 A 
HETATM    6  N   UNL     1      -4.239   5.504 -33.898  1.00  0.00    -0.272 N 
HETATM    7  N   UNL     1      -3.244   6.263 -33.422  1.00  0.00    -0.174 NA
HETATM    8  H   UNL     1      -4.666   5.750 -34.787  1.00  0.00     0.189 HD
HETATM    9  C   UNL     1      -2.896   5.683 -32.263  1.00  0.00     0.089 A 
HETATM   10  C   UNL     1      -3.709   4.536 -32.025  1.00  0.00     0.071 A 
BRANCH   9  11
HETATM   11  C   UNL     1      -1.823   6.233 -31.425  1.00  0.00    -0.005 A 
HETATM   12  C   UNL     1      -2.118   6.765 -30.157  1.00  0.00     0.017 A 
HETATM   13  C   UNL     1      -1.108   7.284 -29.344  1.00  0.00     0.043 A 
HETATM   14  C   UNL     1       0.204   7.277 -29.796  1.00  0.00     0.116 A 
HETATM   15  C   UNL     1       0.523   6.762 -31.047  1.00  0.00     0.043 A 
HETATM   16  F   UNL     1       1.175   7.774 -29.019  1.00  0.00    -0.206 F 
HETATM   17  C   UNL     1      -0.487   6.241 -31.861  1.00  0.00     0.017 A 
ENDBRANCH   9  11
ENDBRANCH   1   5
BRANCH   2  18
HETATM   18  C   UNL     1      -6.481   1.242 -33.288  1.00  0.00     0.161 C 
BRANCH  18  19
HETATM   19  C   UNL     1      -5.851  -0.096 -33.584  1.00  0.00    -0.040 A 
HETATM   20  C   UNL     1      -6.626  -1.156 -34.079  1.00  0.00     0.018 A 
HETATM   21  C   UNL     1      -6.059  -2.416 -34.322  1.00  0.00    -0.024 A 
HETATM   22  C   UNL     1      -4.709  -2.623 -34.023  1.00  0.00     0.075 A 
HETATM   23  C   UNL     1      -6.910  -3.530 -34.859  1.00  0.00     0.043 C 
HETATM   24  O   UNL     1      -4.068  -3.820 -34.205  1.00  0.00    -0.351 OA
HETATM   25  C   UNL     1      -3.928  -1.577 -33.536  1.00  0.00     0.038 A 
HETATM   26  C   UNL     1      -4.943  -4.942 -34.355  1.00  0.00     0.176 C 
HETATM   27  C   UNL     1      -6.041  -4.671 -35.370  1.00  0.00     0.031 C 
HETATM   28  C   UNL     1      -4.495  -0.320 -33.313  1.00  0.00     0.011 A 
ENDBRANCH  18  19
ENDBRANCH   2  18
TORSDOF 4
ENDMDL
MODEL 2
REMARK VINA RESULT:      -9.1      1.483      2.389
REMARK  4 active torsions:
REMARK  status: ('A' for Active; 'I' for Inactive)
REMARK    1  A    between atoms: C_2  and  C_3 
REMARK    2  A    between atoms: C_7  and  C_8 
REMARK       I    between atoms: C_8  and  N_9 
REMARK    3  A    between atoms: N_9  and  C_10 
REMARK    4  A    between atoms: C_10  and  C_11 
ROOT
HETATM    1  C   UNL     1      -6.617   2.272 -33.599  1.00  0.00     0.270 C 
HETATM    2  N   UNL     1      -6.387   1.347 -34.587  1.00  0.00    -0.351 N 
HETATM    3  O   UNL     1      -7.600   2.231 -32.870  1.00  0.00    -0.266 OA
HETATM    4  H   UNL     1      -5.521   1.363 -35.104  1.00  0.00     0.163 HD
ENDROOT
BRANCH   1   5
HETATM    5  C   UNL     1      -5.625   3.305 -33.477  1.00  0.00     0.120 A 
HETATM    6  N   UNL     1      -5.821   4.541 -34.028  1.00  0.00    -0.272 N 
HETATM    7  N   UNL     1      -4.816   5.402 -33.824  1.00  0.00    -0.174 NA
HETATM    8  H   UNL     1      -6.634   4.847 -34.555  1.00  0.00     0.189 HD
HETATM    9  C   UNL     1      -3.909   4.708 -33.118  1.00  0.00     0.089 A 
HETATM   10  C   UNL     1      -4.381   3.384 -32.882  1.00  0.00     0.071 A 
BRANCH   9  11
HETATM   11  C   UNL     1      -2.645   5.318 -32.689  1.00  0.00    -0.005 A 
HETATM   12  C   UNL     1      -2.198   6.512 -33.283  1.00  0.00     0.017 A 
HETATM   13  C   UNL     1      -1.002   7.111 -32.880  1.00  0.00     0.043 A 
HETATM   14  C   UNL     1      -0.244   6.516 -31.882  1.00  0.00     0.116 A 
HETATM   15  C   UNL     1      -0.658   5.334 -31.282  1.00  0.00     0.043 A 
HETATM   16  F   UNL     1       0.904   7.087 -31.494  1.00  0.00    -0.206 F 
HETATM   17  C   UNL     1      -1.856   4.734 -31.683  1.00  0.00     0.017 A 
ENDBRANCH   9  11
ENDBRANCH   1   5
BRANCH   2  18
HETATM   18  C   UNL     1      -7.279   0.231 -34.803  1.00  0.00     0.161 C 
BRANCH  18  19
HETATM   19  C   UNL     1      -6.585  -1.086 -34.560  1.00  0.00    -0.040 A 
HETATM   20  C   UNL     1      -5.429  -1.149 -33.767  1.00  0.00     0.018 A 
HETATM   21  C   UNL     1      -4.754  -2.362 -33.564  1.00  0.00    -0.024 A 
HETATM   22  C   UNL     1      -5.222  -3.514 -34.203  1.00  0.00     0.075 A 
HETATM   23  C   UNL     1      -3.525  -2.402 -32.704  1.00  0.00     0.043 C 
HETATM   24  O   UNL     1      -4.622  -4.741 -34.085  1.00  0.00    -0.351 OA
HETATM   25  C   UNL     1      -6.371  -3.466 -34.989  1.00  0.00     0.038 A 
HETATM   26  C   UNL     1      -3.282  -4.698 -33.588  1.00  0.00     0.176 C 
HETATM   27  C   UNL     1      -3.169  -3.837 -32.342  1.00  0.00     0.031 C 
HETATM   28  C   UNL     1      -7.049  -2.258 -35.171  1.00  0.00     0.011 A 
ENDBRANCH  18  19
ENDBRANCH   2  18
TORSDOF 4
ENDMDL
MODEL 3
REMARK VINA RESULT:      -9.0      5.903      8.680
REMARK  4 active torsions:
REMARK  status: ('A' for Active; 'I' for Inactive)
REMARK    1  A    between atoms: C_2  and  C_3 
REMARK    2  A    between atoms: C_7  and  C_8 
REMARK       I    between atoms: C_8  and  N_9 
REMARK    3  A    between atoms: N_9  and  C_10 
REMARK    4  A    between atoms: C_10  and  C_11 
ROOT
HETATM    1  C   UNL     1      -7.884   2.088 -33.518  1.00  0.00     0.270 C 
HETATM    2  N   UNL     1      -7.457   1.322 -32.462  1.00  0.00    -0.351 N 
HETATM    3  O   UNL     1      -7.110   2.659 -34.277  1.00  0.00    -0.266 OA
HETATM    4  H   UNL     1      -8.123   0.795 -31.918  1.00  0.00     0.163 HD
ENDROOT
BRANCH   1   5
HETATM    5  C   UNL     1      -9.310   2.184 -33.676  1.00  0.00     0.120 A 
HETATM    6  N   UNL     1      -9.870   2.423 -34.899  1.00  0.00    -0.272 N 
HETATM    7  N   UNL     1     -11.208   2.476 -34.892  1.00  0.00    -0.174 NA
HETATM    8  H   UNL     1      -9.376   2.555 -35.777  1.00  0.00     0.189 HD
HETATM    9  C   UNL     1     -11.552   2.276 -33.610  1.00  0.00     0.089 A 
HETATM   10  C   UNL     1     -10.384   2.090 -32.813  1.00  0.00     0.071 A 
BRANCH   9  11
HETATM   11  C   UNL     1     -12.958   2.258 -33.190  1.00  0.00    -0.005 A 
HETATM   12  C   UNL     1     -13.865   1.365 -33.789  1.00  0.00     0.017 A 
HETATM   13  C   UNL     1     -15.204   1.329 -33.395  1.00  0.00     0.043 A 
HETATM   14  C   UNL     1     -15.646   2.190 -32.400  1.00  0.00     0.116 A 
HETATM   15  C   UNL     1     -14.774   3.086 -31.795  1.00  0.00     0.043 A 
HETATM   16  F   UNL     1     -16.930   2.159 -32.020  1.00  0.00    -0.206 F 
HETATM   17  C   UNL     1     -13.432   3.122 -32.188  1.00  0.00     0.017 A 
ENDBRANCH   9  11
ENDBRANCH   1   5
BRANCH   2  18
HETATM   18  C   UNL     1      -6.053   1.104 -32.202  1.00  0.00     0.161 C 
BRANCH  18  19
HETATM   19  C   UNL     1      -5.564  -0.172 -32.838  1.00  0.00    -0.040 A 
HETATM   20  C   UNL     1      -6.473  -1.101 -33.367  1.00  0.00     0.018 A 
HETATM   21  C   UNL     1      -6.032  -2.309 -33.927  1.00  0.00    -0.024 A 
HETATM   22  C   UNL     1      -4.666  -2.605 -33.914  1.00  0.00     0.075 A 
HETATM   23  C   UNL     1      -7.026  -3.279 -34.495  1.00  0.00     0.043 C 
HETATM   24  O   UNL     1      -4.138  -3.765 -34.418  1.00  0.00    -0.351 OA
HETATM   25  C   UNL     1      -3.752  -1.689 -33.396  1.00  0.00     0.038 A 
HETATM   26  C   UNL     1      -5.091  -4.815 -34.607  1.00  0.00     0.176 C 
HETATM   27  C   UNL     1      -6.326  -4.329 -35.346  1.00  0.00     0.031 C 
HETATM   28  C   UNL     1      -4.197  -0.480 -32.856  1.00  0.00     0.011 A 
ENDBRANCH  18  19
ENDBRANCH   2  18
TORSDOF 4
ENDMDL
MODEL 4
REMARK VINA RESULT:      -8.9      3.965      9.362
REMARK  4 active torsions:
REMARK  status: ('A' for Active; 'I' for Inactive)
REMARK    1  A    between atoms: C_2  and  C_3 
REMARK    2  A    between atoms: C_7  and  C_8 
REMARK       I    between atoms: C_8  and  N_9 
REMARK    3  A    between atoms: N_9  and  C_10 
REMARK    4  A    between atoms: C_10  and  C_11 
ROOT
HETATM    1  C   UNL     1      -7.701   2.828 -33.448  1.00  0.00     0.270 C 
HETATM    2  N   UNL     1      -6.869   3.789 -33.965  1.00  0.00    -0.351 N 
HETATM    3  O   UNL     1      -8.587   3.084 -32.641  1.00  0.00    -0.266 OA
HETATM    4  H   UNL     1      -6.213   3.551 -34.695  1.00  0.00     0.163 HD
ENDROOT
BRANCH   1   5
HETATM    5  C   UNL     1      -7.461   1.488 -33.910  1.00  0.00     0.120 A 
HETATM    6  N   UNL     1      -8.152   0.974 -34.972  1.00  0.00    -0.272 N 
HETATM    7  N   UNL     1      -7.815  -0.282 -35.293  1.00  0.00    -0.174 NA
HETATM    8  H   UNL     1      -8.868   1.447 -35.515  1.00  0.00     0.189 HD
HETATM    9  C   UNL     1      -6.869  -0.620 -34.402  1.00  0.00     0.089 A 
HETATM   10  C   UNL     1      -6.621   0.466 -33.514  1.00  0.00     0.071 A 
BRANCH   9  11
HETATM   11  C   UNL     1      -6.234  -1.944 -34.428  1.00  0.00    -0.005 A 
HETATM   12  C   UNL     1      -6.982  -3.081 -34.783  1.00  0.00     0.017 A 
HETATM   13  C   UNL     1      -6.391  -4.346 -34.821  1.00  0.00     0.043 A 
HETATM   14  C   UNL     1      -5.047  -4.481 -34.501  1.00  0.00     0.116 A 
HETATM   15  C   UNL     1      -4.286  -3.376 -34.142  1.00  0.00     0.043 A 
HETATM   16  F   UNL     1      -4.477  -5.693 -34.537  1.00  0.00    -0.206 F 
HETATM   17  C   UNL     1      -4.876  -2.109 -34.105  1.00  0.00     0.017 A 
ENDBRANCH   9  11
ENDBRANCH   1   5
BRANCH   2  18
HETATM   18  C   UNL     1      -7.014   5.184 -33.621  1.00  0.00     0.161 C 
BRANCH  18  19
HETATM   19  C   UNL     1      -5.695   5.796 -33.221  1.00  0.00    -0.040 A 
HETATM   20  C   UNL     1      -4.521   5.485 -33.925  1.00  0.00     0.018 A 
HETATM   21  C   UNL     1      -3.282   6.018 -33.539  1.00  0.00    -0.024 A 
HETATM   22  C   UNL     1      -3.218   6.836 -32.407  1.00  0.00     0.075 A 
HETATM   23  C   UNL     1      -2.044   5.677 -34.315  1.00  0.00     0.043 C 
HETATM   24  O   UNL     1      -2.055   7.389 -31.937  1.00  0.00    -0.351 OA
HETATM   25  C   UNL     1      -4.377   7.156 -31.702  1.00  0.00     0.038 A 
HETATM   26  C   UNL     1      -0.864   6.775 -32.440  1.00  0.00     0.176 C 
HETATM   27  C   UNL     1      -0.905   6.618 -33.950  1.00  0.00     0.031 C 
HETATM   28  C   UNL     1      -5.610   6.636 -32.103  1.00  0.00     0.011 A 
ENDBRANCH  18  19
ENDBRANCH   2  18
TORSDOF 4
ENDMDL
MODEL 5
REMARK VINA RESULT:      -8.8      3.709      9.520
REMARK  4 active torsions:
REMARK  status: ('A' for Active; 'I' for Inactive)
REMARK    1  A    between atoms: C_2  and  C_3 
REMARK    2  A    between atoms: C_7  and  C_8 
REMARK       I    between atoms: C_8  and  N_9 
REMARK    3  A    between atoms: N_9  and  C_10 
REMARK    4  A    between atoms: C_10  and  C_11 
ROOT
HETATM    1  C   UNL     1      -6.628   3.044 -33.728  1.00  0.00     0.270 C 
HETATM    2  N   UNL     1      -5.451   3.468 -33.165  1.00  0.00    -0.351 N 
HETATM    3  O   UNL     1      -7.567   3.799 -33.948  1.00  0.00    -0.266 OA
HETATM    4  H   UNL     1      -4.670   2.833 -33.085  1.00  0.00     0.163 HD
ENDROOT
BRANCH   1   5
HETATM    5  C   UNL     1      -6.694   1.642 -34.040  1.00  0.00     0.120 A 
HETATM    6  N   UNL     1      -7.767   1.117 -34.705  1.00  0.00    -0.272 N 
HETATM    7  N   UNL     1      -7.684  -0.200 -34.934  1.00  0.00    -0.174 NA
HETATM    8  H   UNL     1      -8.587   1.623 -35.028  1.00  0.00     0.189 HD
HETATM    9  C   UNL     1      -6.513  -0.568 -34.390  1.00  0.00     0.089 A 
HETATM   10  C   UNL     1      -5.862   0.563 -33.816  1.00  0.00     0.071 A 
BRANCH   9  11
HETATM   11  C   UNL     1      -6.052  -1.961 -34.440  1.00  0.00    -0.005 A 
HETATM   12  C   UNL     1      -4.713  -2.274 -34.144  1.00  0.00     0.017 A 
HETATM   13  C   UNL     1      -4.260  -3.595 -34.178  1.00  0.00     0.043 A 
HETATM   14  C   UNL     1      -5.144  -4.610 -34.512  1.00  0.00     0.116 A 
HETATM   15  C   UNL     1      -6.471  -4.330 -34.815  1.00  0.00     0.043 A 
HETATM   16  F   UNL     1      -4.713  -5.878 -34.547  1.00  0.00    -0.206 F 
HETATM   17  C   UNL     1      -6.926  -3.008 -34.779  1.00  0.00     0.017 A 
ENDBRANCH   9  11
ENDBRANCH   1   5
BRANCH   2  18
HETATM   18  C   UNL     1      -5.226   4.856 -32.831  1.00  0.00     0.161 C 
BRANCH  18  19
HETATM   19  C   UNL     1      -3.801   5.097 -32.401  1.00  0.00    -0.040 A 
HETATM   20  C   UNL     1      -3.518   5.912 -31.293  1.00  0.00     0.018 A 
HETATM   21  C   UNL     1      -2.196   6.174 -30.906  1.00  0.00    -0.024 A 
HETATM   22  C   UNL     1      -1.148   5.648 -31.667  1.00  0.00     0.075 A 
HETATM   23  C   UNL     1      -1.922   7.042 -29.712  1.00  0.00     0.043 C 
HETATM   24  O   UNL     1       0.176   5.863 -31.384  1.00  0.00    -0.351 OA
HETATM   25  C   UNL     1      -1.416   4.834 -32.766  1.00  0.00     0.038 A 
HETATM   26  C   UNL     1       0.420   6.961 -30.501  1.00  0.00     0.176 C 
HETATM   27  C   UNL     1      -0.471   6.907 -29.272  1.00  0.00     0.031 C 
HETATM   28  C   UNL     1      -2.735   4.562 -33.135  1.00  0.00     0.011 A 
ENDBRANCH  18  19
ENDBRANCH   2  18
TORSDOF 4
ENDMDL
MODEL 6
REMARK VINA RESULT:      -8.6      4.136     10.054
REMARK  4 active torsions:
REMARK  status: ('A' for Active; 'I' for Inactive)
REMARK    1  A    between atoms: C_2  and  C_3 
REMARK    2  A    between atoms: C_7  and  C_8 
REMARK       I    between atoms: C_8  and  N_9 
REMARK    3  A    between atoms: N_9  and  C_10 
REMARK    4  A    between atoms: C_10  and  C_11 
ROOT
HETATM    1  C   UNL     1      -3.556   3.710 -31.733  1.00  0.00     0.270 C 
HETATM    2  N   UNL     1      -2.383   4.196 -32.256  1.00  0.00    -0.351 N 
HETATM    3  O   UNL     1      -4.319   4.399 -31.065  1.00  0.00    -0.266 OA
HETATM    4  H   UNL     1      -1.830   3.623 -32.875  1.00  0.00     0.163 HD
ENDROOT
BRANCH   1   5
HETATM    5  C   UNL     1      -3.833   2.328 -32.014  1.00  0.00     0.120 A 
HETATM    6  N   UNL     1      -3.221   1.329 -31.310  1.00  0.00    -0.272 N 
HETATM    7  N   UNL     1      -3.586   0.093 -31.677  1.00  0.00    -0.174 NA
HETATM    8  H   UNL     1      -2.542   1.441 -30.562  1.00  0.00     0.189 HD
HETATM    9  C   UNL     1      -4.468   0.278 -32.671  1.00  0.00     0.089 A 
HETATM   10  C   UNL     1      -4.648   1.671 -32.914  1.00  0.00     0.071 A 
BRANCH   9  11
HETATM   11  C   UNL     1      -5.110  -0.858 -33.344  1.00  0.00    -0.005 A 
HETATM   12  C   UNL     1      -6.508  -0.895 -33.492  1.00  0.00     0.017 A 
HETATM   13  C   UNL     1      -7.134  -1.964 -34.137  1.00  0.00     0.043 A 
HETATM   14  C   UNL     1      -6.363  -3.005 -34.636  1.00  0.00     0.116 A 
HETATM   15  C   UNL     1      -4.981  -2.998 -34.499  1.00  0.00     0.043 A 
HETATM   16  F   UNL     1      -6.960  -4.032 -35.255  1.00  0.00    -0.206 F 
HETATM   17  C   UNL     1      -4.353  -1.927 -33.855  1.00  0.00     0.017 A 
ENDBRANCH   9  11
ENDBRANCH   1   5
BRANCH   2  18
HETATM   18  C   UNL     1      -1.991   5.576 -32.087  1.00  0.00     0.161 C 
BRANCH  18  19
HETATM   19  C   UNL     1      -1.233   5.782 -30.800  1.00  0.00    -0.040 A 
HETATM   20  C   UNL     1      -1.656   6.742 -29.867  1.00  0.00     0.018 A 
HETATM   21  C   UNL     1      -0.937   6.968 -28.684  1.00  0.00    -0.024 A 
HETATM   22  C   UNL     1       0.243   6.253 -28.459  1.00  0.00     0.075 A 
HETATM   23  C   UNL     1      -1.418   7.994 -27.699  1.00  0.00     0.043 C 
HETATM   24  O   UNL     1       1.026   6.416 -27.345  1.00  0.00    -0.351 OA
HETATM   25  C   UNL     1       0.671   5.295 -29.375  1.00  0.00     0.038 A 
HETATM   26  C   UNL     1       0.775   7.622 -26.618  1.00  0.00     0.176 C 
HETATM   27  C   UNL     1      -0.708   7.829 -26.363  1.00  0.00     0.031 C 
HETATM   28  C   UNL     1      -0.059   5.062 -30.542  1.00  0.00     0.011 A 
ENDBRANCH  18  19
ENDBRANCH   2  18
TORSDOF 4
ENDMDL
MODEL 7
REMARK VINA RESULT:      -8.4      5.422      8.480
REMARK  4 active torsions:
REMARK  status: ('A' for Active; 'I' for Inactive)
REMARK    1  A    between atoms: C_2  and  C_3 
REMARK    2  A    between atoms: C_7  and  C_8 
REMARK       I    between atoms: C_8  and  N_9 
REMARK    3  A    between atoms: N_9  and  C_10 
REMARK    4  A    between atoms: C_10  and  C_11 
ROOT
HETATM    1  C   UNL     1      -6.992   1.863 -32.015  1.00  0.00     0.270 C 
HETATM    2  N   UNL     1      -5.960   1.880 -32.920  1.00  0.00    -0.351 N 
HETATM    3  O   UNL     1      -6.813   1.740 -30.809  1.00  0.00    -0.266 OA
HETATM    4  H   UNL     1      -6.143   2.076 -33.892  1.00  0.00     0.163 HD
ENDROOT
BRANCH   1   5
HETATM    5  C   UNL     1      -8.309   1.993 -32.577  1.00  0.00     0.120 A 
HETATM    6  N   UNL     1      -8.678   3.119 -33.256  1.00  0.00    -0.272 N 
HETATM    7  N   UNL     1      -9.931   3.091 -33.730  1.00  0.00    -0.174 NA
HETATM    8  H   UNL     1      -8.105   3.940 -33.427  1.00  0.00     0.189 HD
HETATM    9  C   UNL     1     -10.418   1.903 -33.339  1.00  0.00     0.089 A 
HETATM   10  C   UNL     1      -9.427   1.184 -32.609  1.00  0.00     0.071 A 
BRANCH   9  11
HETATM   11  C   UNL     1     -11.786   1.490 -33.675  1.00  0.00    -0.005 A 
HETATM   12  C   UNL     1     -12.196   0.161 -33.466  1.00  0.00     0.017 A 
HETATM   13  C   UNL     1     -13.497  -0.246 -33.772  1.00  0.00     0.043 A 
HETATM   14  C   UNL     1     -14.395   0.675 -34.293  1.00  0.00     0.116 A 
HETATM   15  C   UNL     1     -14.016   1.993 -34.515  1.00  0.00     0.043 A 
HETATM   16  F   UNL     1     -15.643   0.288 -34.588  1.00  0.00    -0.206 F 
HETATM   17  C   UNL     1     -12.714   2.402 -34.207  1.00  0.00     0.017 A 
ENDBRANCH   9  11
ENDBRANCH   1   5
BRANCH   2  18
HETATM   18  C   UNL     1      -4.580   1.797 -32.499  1.00  0.00     0.161 C 
BRANCH  18  19
HETATM   19  C   UNL     1      -4.093   0.370 -32.480  1.00  0.00    -0.040 A 
HETATM   20  C   UNL     1      -4.645  -0.585 -33.349  1.00  0.00     0.018 A 
HETATM   21  C   UNL     1      -4.226  -1.923 -33.315  1.00  0.00    -0.024 A 
HETATM   22  C   UNL     1      -3.275  -2.314 -32.367  1.00  0.00     0.075 A 
HETATM   23  C   UNL     1      -4.826  -2.921 -34.262  1.00  0.00     0.043 C 
HETATM   24  O   UNL     1      -2.817  -3.599 -32.240  1.00  0.00    -0.351 OA
HETATM   25  C   UNL     1      -2.717  -1.375 -31.502  1.00  0.00     0.038 A 
HETATM   26  C   UNL     1      -3.640  -4.585 -32.869  1.00  0.00     0.176 C 
HETATM   27  C   UNL     1      -3.997  -4.197 -34.294  1.00  0.00     0.031 C 
HETATM   28  C   UNL     1      -3.125  -0.040 -31.554  1.00  0.00     0.011 A 
ENDBRANCH  18  19
ENDBRANCH   2  18
TORSDOF 4
ENDMDL
MODEL 8
REMARK VINA RESULT:      -8.4      5.967      9.424
REMARK  4 active torsions:
REMARK  status: ('A' for Active; 'I' for Inactive)
REMARK    1  A    between atoms: C_2  and  C_3 
REMARK    2  A    between atoms: C_7  and  C_8 
REMARK       I    between atoms: C_8  and  N_9 
REMARK    3  A    between atoms: N_9  and  C_10 
REMARK    4  A    between atoms: C_10  and  C_11 
ROOT
HETATM    1  C   UNL     1      -8.194   2.683 -32.135  1.00  0.00     0.270 C 
HETATM    2  N   UNL     1      -9.027   3.264 -33.059  1.00  0.00    -0.351 N 
HETATM    3  O   UNL     1      -8.146   3.048 -30.966  1.00  0.00    -0.266 OA
HETATM    4  H   UNL     1      -9.103   2.874 -33.986  1.00  0.00     0.163 HD
ENDROOT
BRANCH   1   5
HETATM    5  C   UNL     1      -7.370   1.615 -32.631  1.00  0.00     0.120 A 
HETATM    6  N   UNL     1      -6.030   1.793 -32.831  1.00  0.00    -0.272 N 
HETATM    7  N   UNL     1      -5.391   0.706 -33.286  1.00  0.00    -0.174 NA
HETATM    8  H   UNL     1      -5.500   2.644 -32.669  1.00  0.00     0.189 HD
HETATM    9  C   UNL     1      -6.347  -0.228 -33.402  1.00  0.00     0.089 A 
HETATM   10  C   UNL     1      -7.607   0.306 -33.001  1.00  0.00     0.071 A 
BRANCH   9  11
HETATM   11  C   UNL     1      -6.038  -1.583 -33.876  1.00  0.00    -0.005 A 
HETATM   12  C   UNL     1      -4.715  -2.061 -33.836  1.00  0.00     0.017 A 
HETATM   13  C   UNL     1      -4.405  -3.351 -34.274  1.00  0.00     0.043 A 
HETATM   14  C   UNL     1      -5.416  -4.169 -34.758  1.00  0.00     0.116 A 
HETATM   15  C   UNL     1      -6.730  -3.721 -34.813  1.00  0.00     0.043 A 
HETATM   16  F   UNL     1      -5.122  -5.406 -35.179  1.00  0.00    -0.206 F 
HETATM   17  C   UNL     1      -7.042  -2.431 -34.373  1.00  0.00     0.017 A 
ENDBRANCH   9  11
ENDBRANCH   1   5
BRANCH   2  18
HETATM   18  C   UNL     1      -9.939   4.324 -32.698  1.00  0.00     0.161 C 
BRANCH  18  19
HETATM   19  C   UNL     1     -11.336   3.801 -32.476  1.00  0.00    -0.040 A 
HETATM   20  C   UNL     1     -11.939   2.952 -33.417  1.00  0.00     0.018 A 
HETATM   21  C   UNL     1     -13.251   2.489 -33.240  1.00  0.00    -0.024 A 
HETATM   22  C   UNL     1     -13.979   2.920 -32.126  1.00  0.00     0.075 A 
HETATM   23  C   UNL     1     -13.868   1.575 -34.258  1.00  0.00     0.043 C 
HETATM   24  O   UNL     1     -15.271   2.542 -31.874  1.00  0.00    -0.351 OA
HETATM   25  C   UNL     1     -13.390   3.759 -31.182  1.00  0.00     0.038 A 
HETATM   26  C   UNL     1     -15.958   1.994 -33.004  1.00  0.00     0.176 C 
HETATM   27  C   UNL     1     -15.131   0.930 -33.705  1.00  0.00     0.031 C 
HETATM   28  C   UNL     1     -12.076   4.202 -31.356  1.00  0.00     0.011 A 
ENDBRANCH  18  19
ENDBRANCH   2  18
TORSDOF 4
ENDMDL
MODEL 9
REMARK VINA RESULT:      -8.4      3.730      9.547
REMARK  4 active torsions:
REMARK  status: ('A' for Active; 'I' for Inactive)
REMARK    1  A    between atoms: C_2  and  C_3 
REMARK    2  A    between atoms: C_7  and  C_8 
REMARK       I    between atoms: C_8  and  N_9 
REMARK    3  A    between atoms: N_9  and  C_10 
REMARK    4  A    between atoms: C_10  and  C_11 
ROOT
HETATM    1  C   UNL     1      -6.683   3.471 -33.504  1.00  0.00     0.270 C 
HETATM    2  N   UNL     1      -5.528   4.077 -33.080  1.00  0.00    -0.351 N 
HETATM    3  O   UNL     1      -7.654   4.102 -33.906  1.00  0.00    -0.266 OA
HETATM    4  H   UNL     1      -4.721   3.519 -32.844  1.00  0.00     0.163 HD
ENDROOT
BRANCH   1   5
HETATM    5  C   UNL     1      -6.688   2.034 -33.440  1.00  0.00     0.120 A 
HETATM    6  N   UNL     1      -7.436   1.372 -32.508  1.00  0.00    -0.272 N 
HETATM    7  N   UNL     1      -7.347   0.037 -32.576  1.00  0.00    -0.174 NA
HETATM    8  H   UNL     1      -8.031   1.791 -31.798  1.00  0.00     0.189 HD
HETATM    9  C   UNL     1      -6.497  -0.197 -33.588  1.00  0.00     0.089 A 
HETATM   10  C   UNL     1      -6.058   1.035 -34.155  1.00  0.00     0.071 A 
BRANCH   9  11
HETATM   11  C   UNL     1      -6.139  -1.565 -33.984  1.00  0.00    -0.005 A 
HETATM   12  C   UNL     1      -4.801  -1.993 -33.921  1.00  0.00     0.017 A 
HETATM   13  C   UNL     1      -4.445  -3.294 -34.286  1.00  0.00     0.043 A 
HETATM   14  C   UNL     1      -5.427  -4.173 -34.719  1.00  0.00     0.116 A 
HETATM   15  C   UNL     1      -6.756  -3.775 -34.797  1.00  0.00     0.043 A 
HETATM   16  F   UNL     1      -5.089  -5.421 -35.071  1.00  0.00    -0.206 F 
HETATM   17  C   UNL     1      -7.113  -2.474 -34.431  1.00  0.00     0.017 A 
ENDBRANCH   9  11
ENDBRANCH   1   5
BRANCH   2  18
HETATM   18  C   UNL     1      -5.365   5.512 -33.122  1.00  0.00     0.161 C 
BRANCH  18  19
HETATM   19  C   UNL     1      -4.285   5.974 -32.175  1.00  0.00    -0.040 A 
HETATM   20  C   UNL     1      -2.933   5.728 -32.459  1.00  0.00     0.018 A 
HETATM   21  C   UNL     1      -1.923   6.120 -31.568  1.00  0.00    -0.024 A 
HETATM   22  C   UNL     1      -2.280   6.725 -30.360  1.00  0.00     0.075 A 
HETATM   23  C   UNL     1      -0.484   5.852 -31.902  1.00  0.00     0.043 C 
HETATM   24  O   UNL     1      -1.370   7.125 -29.416  1.00  0.00    -0.351 OA
HETATM   25  C   UNL     1      -3.619   6.979 -30.068  1.00  0.00     0.038 A 
HETATM   26  C   UNL     1      -0.071   6.545 -29.564  1.00  0.00     0.176 C 
HETATM   27  C   UNL     1       0.436   6.654 -30.992  1.00  0.00     0.031 C 
HETATM   28  C   UNL     1      -4.618   6.602 -30.968  1.00  0.00     0.011 A 
ENDBRANCH  18  19
ENDBRANCH   2  18
TORSDOF 4
ENDMDL
MODEL 10
REMARK VINA RESULT:      -8.4      4.121     10.506
REMARK  4 active torsions:
REMARK  status: ('A' for Active; 'I' for Inactive)
REMARK    1  A    between atoms: C_2  and  C_3 
REMARK    2  A    between atoms: C_7  and  C_8 
REMARK       I    between atoms: C_8  and  N_9 
REMARK    3  A    between atoms: N_9  and  C_10 
REMARK    4  A    between atoms: C_10  and  C_11 
ROOT
HETATM    1  C   UNL     1      -2.167   5.385 -32.007  1.00  0.00     0.270 C 
HETATM    2  N   UNL     1      -0.940   5.396 -31.393  1.00  0.00    -0.351 N 
HETATM    3  O   UNL     1      -2.641   6.373 -32.557  1.00  0.00    -0.266 OA
HETATM    4  H   UNL     1      -0.547   4.539 -31.033  1.00  0.00     0.163 HD
ENDROOT
BRANCH   1   5
HETATM    5  C   UNL     1      -2.872   4.133 -31.960  1.00  0.00     0.120 A 
HETATM    6  N   UNL     1      -3.528   3.735 -30.830  1.00  0.00    -0.272 N 
HETATM    7  N   UNL     1      -4.147   2.552 -30.939  1.00  0.00    -0.174 NA
HETATM    8  H   UNL     1      -3.585   4.242 -29.951  1.00  0.00     0.189 HD
HETATM    9  C   UNL     1      -3.883   2.142 -32.189  1.00  0.00     0.089 A 
HETATM   10  C   UNL     1      -3.081   3.109 -32.863  1.00  0.00     0.071 A 
BRANCH   9  11
HETATM   11  C   UNL     1      -4.400   0.866 -32.701  1.00  0.00    -0.005 A 
HETATM   12  C   UNL     1      -3.562  -0.261 -32.767  1.00  0.00     0.017 A 
HETATM   13  C   UNL     1      -4.040  -1.484 -33.242  1.00  0.00     0.043 A 
HETATM   14  C   UNL     1      -5.360  -1.585 -33.658  1.00  0.00     0.116 A 
HETATM   15  C   UNL     1      -6.209  -0.486 -33.609  1.00  0.00     0.043 A 
HETATM   16  F   UNL     1      -5.822  -2.757 -34.115  1.00  0.00    -0.206 F 
HETATM   17  C   UNL     1      -5.731   0.738 -33.131  1.00  0.00     0.017 A 
ENDBRANCH   9  11
ENDBRANCH   1   5
BRANCH   2  18
HETATM   18  C   UNL     1      -0.102   6.572 -31.392  1.00  0.00     0.161 C 
BRANCH  18  19
HETATM   19  C   UNL     1      -0.242   7.350 -30.107  1.00  0.00    -0.040 A 
HETATM   20  C   UNL     1       0.715   7.224 -29.088  1.00  0.00     0.018 A 
HETATM   21  C   UNL     1       0.576   7.914 -27.874  1.00  0.00    -0.024 A 
HETATM   22  C   UNL     1      -0.560   8.702 -27.667  1.00  0.00     0.075 A 
HETATM   23  C   UNL     1       1.620   7.768 -26.805  1.00  0.00     0.043 C 
HETATM   24  O   UNL     1      -0.798   9.397 -26.511  1.00  0.00    -0.351 OA
HETATM   25  C   UNL     1      -1.515   8.839 -28.673  1.00  0.00     0.038 A 
HETATM   26  C   UNL     1      -0.016   8.969 -25.392  1.00  0.00     0.176 C 
HETATM   27  C   UNL     1       1.456   8.848 -25.745  1.00  0.00     0.031 C 
HETATM   28  C   UNL     1      -1.361   8.164 -29.886  1.00  0.00     0.011 A 
ENDBRANCH  18  19
ENDBRANCH   2  18
TORSDOF 4
ENDMDL
