MODEL 1
REMARK VINA RESULT:      -7.7      0.000      0.000
REMARK  8 active torsions:
REMARK  status: ('A' for Active; 'I' for Inactive)
REMARK    1  A    between atoms: C_2  and  C_3 
REMARK    2  A    between atoms: C_3  and  C_4 
REMARK    3  A    between atoms: C_4  and  N_5 
REMARK    4  A    between atoms: N_5  and  C_6 
REMARK    5  A    between atoms: C_8  and  N_9 
REMARK    6  A    between atoms: N_9  and  C_10 
REMARK    7  A    between atoms: C_10  and  C_11 
REMARK    8  A    between atoms: C_12  and  O_13 
ROOT
HETATM    1  C   UNL     1      -6.837  -0.486 -34.814  1.00  0.00     0.181 A 
HETATM    2  N   UNL     1      -5.777   0.017 -34.157  1.00  0.00    -0.207 NA
HETATM    3  C   UNL     1      -4.834  -0.846 -33.729  1.00  0.00     0.119 A 
HETATM    4  C   UNL     1      -4.908  -2.231 -33.991  1.00  0.00     0.031 A 
HETATM    5  C   UNL     1      -6.074  -2.683 -34.635  1.00  0.00     0.048 A 
HETATM    6  N   UNL     1      -6.997  -1.793 -35.013  1.00  0.00    -0.330 N 
HETATM    7  H   UNL     1      -7.859  -2.090 -35.449  1.00  0.00     0.168 HD
HETATM    8  C   UNL     1      -3.916  -3.194 -33.687  1.00  0.00     0.017 A 
HETATM    9  C   UNL     1      -4.111  -4.550 -33.959  1.00  0.00     0.001 A 
HETATM   10  C   UNL     1      -5.293  -4.978 -34.553  1.00  0.00     0.002 A 
HETATM   11  C   UNL     1      -6.271  -4.048 -34.899  1.00  0.00     0.030 A 
ENDROOT
BRANCH   3  12
HETATM   12  N   UNL     1      -3.785  -0.255 -33.031  1.00  0.00    -0.272 NA
HETATM   13  H   UNL     1      -3.617   0.669 -33.420  1.00  0.00     0.129 HD
BRANCH  12  14
HETATM   14  C   UNL     1      -3.929  -0.213 -31.566  1.00  0.00     0.135 C 
BRANCH  14  15
HETATM   15  C   UNL     1      -4.707   0.982 -31.051  1.00  0.00    -0.012 A 
HETATM   16  C   UNL     1      -4.188   2.284 -31.243  1.00  0.00     0.075 A 
HETATM   17  C   UNL     1      -4.873   3.391 -30.730  1.00  0.00     0.037 A 
HETATM   18  C   UNL     1      -6.049   3.218 -30.001  1.00  0.00     0.003 A 
HETATM   19  C   UNL     1      -6.543   1.939 -29.767  1.00  0.00     0.001 A 
HETATM   20  C   UNL     1      -5.871   0.828 -30.276  1.00  0.00     0.011 A 
BRANCH  16  21
HETATM   21  O   UNL     1      -3.002   2.359 -31.928  1.00  0.00    -0.355 OA
HETATM   22  C   UNL     1      -2.747   3.544 -32.676  1.00  0.00     0.210 C 
ENDBRANCH  16  21
ENDBRANCH  14  15
ENDBRANCH  12  14
ENDBRANCH   3  12
BRANCH   1  23
HETATM   23  N   UNL     1      -7.850   0.328 -35.302  1.00  0.00    -0.262 NA
HETATM   24  H   UNL     1      -7.669   0.705 -36.227  1.00  0.00     0.130 HD
BRANCH  23  25
HETATM   25  C   UNL     1      -8.334   1.358 -34.379  1.00  0.00     0.095 C 
BRANCH  25  26
HETATM   26  C   UNL     1      -9.845   1.204 -34.172  1.00  0.00     0.014 C 
BRANCH  26  27
HETATM   27  C   UNL     1     -10.189   0.251 -33.025  1.00  0.00    -0.003 C 
HETATM   28  C   UNL     1      -9.183   0.366 -31.890  1.00  0.00     0.005 C 
ENDBRANCH  26  27
ENDBRANCH  25  26
ENDBRANCH  23  25
ENDBRANCH   1  23
TORSDOF 8
ENDMDL
MODEL 2
REMARK VINA RESULT:      -7.4      2.267      7.172
REMARK  8 active torsions:
REMARK  status: ('A' for Active; 'I' for Inactive)
REMARK    1  A    between atoms: C_2  and  C_3 
REMARK    2  A    between atoms: C_3  and  C_4 
REMARK    3  A    between atoms: C_4  and  N_5 
REMARK    4  A    between atoms: N_5  and  C_6 
REMARK    5  A    between atoms: C_8  and  N_9 
REMARK    6  A    between atoms: N_9  and  C_10 
REMARK    7  A    between atoms: C_10  and  C_11 
REMARK    8  A    between atoms: C_12  and  O_13 
ROOT
HETATM    1  C   UNL     1      -3.693   3.155 -31.159  1.00  0.00     0.181 A 
HETATM    2  N   UNL     1      -4.197   1.989 -31.601  1.00  0.00    -0.207 NA
HETATM    3  C   UNL     1      -5.516   1.771 -31.439  1.00  0.00     0.119 A 
HETATM    4  C   UNL     1      -6.374   2.737 -30.870  1.00  0.00     0.031 A 
HETATM    5  C   UNL     1      -5.761   3.906 -30.384  1.00  0.00     0.048 A 
HETATM    6  N   UNL     1      -4.443   4.064 -30.540  1.00  0.00    -0.330 N 
HETATM    7  H   UNL     1      -3.969   4.878 -30.173  1.00  0.00     0.168 HD
HETATM    8  C   UNL     1      -7.783   2.647 -30.765  1.00  0.00     0.017 A 
HETATM    9  C   UNL     1      -8.531   3.652 -30.147  1.00  0.00     0.001 A 
HETATM   10  C   UNL     1      -7.897   4.776 -29.632  1.00  0.00     0.002 A 
HETATM   11  C   UNL     1      -6.515   4.910 -29.755  1.00  0.00     0.030 A 
ENDROOT
BRANCH   3  12
HETATM   12  N   UNL     1      -5.956   0.531 -31.892  1.00  0.00    -0.272 NA
HETATM   13  H   UNL     1      -6.870   0.343 -31.486  1.00  0.00     0.129 HD
BRANCH  12  14
HETATM   14  C   UNL     1      -5.959   0.343 -33.353  1.00  0.00     0.135 C 
BRANCH  14  15
HETATM   15  C   UNL     1      -5.817  -1.101 -33.795  1.00  0.00    -0.012 A 
HETATM   16  C   UNL     1      -4.554  -1.732 -33.708  1.00  0.00     0.075 A 
HETATM   17  C   UNL     1      -4.400  -3.047 -34.158  1.00  0.00     0.037 A 
HETATM   18  C   UNL     1      -5.476  -3.732 -34.722  1.00  0.00     0.003 A 
HETATM   19  C   UNL     1      -6.710  -3.105 -34.855  1.00  0.00     0.001 A 
HETATM   20  C   UNL     1      -6.877  -1.794 -34.407  1.00  0.00     0.011 A 
BRANCH  16  21
HETATM   21  O   UNL     1      -3.540  -0.970 -33.187  1.00  0.00    -0.355 OA
HETATM   22  C   UNL     1      -2.926  -1.424 -31.984  1.00  0.00     0.210 C 
ENDBRANCH  16  21
ENDBRANCH  14  15
ENDBRANCH  12  14
ENDBRANCH   3  12
BRANCH   1  23
HETATM   23  N   UNL     1      -2.349   3.471 -31.296  1.00  0.00    -0.262 NA
HETATM   24  H   UNL     1      -1.826   3.445 -30.426  1.00  0.00     0.130 HD
BRANCH  23  25
HETATM   25  C   UNL     1      -2.058   4.682 -32.068  1.00  0.00     0.095 C 
BRANCH  25  26
HETATM   26  C   UNL     1      -2.264   4.409 -33.563  1.00  0.00     0.014 C 
BRANCH  26  27
HETATM   27  C   UNL     1      -1.548   5.427 -34.452  1.00  0.00    -0.003 C 
HETATM   28  C   UNL     1      -1.769   6.848 -33.956  1.00  0.00     0.005 C 
ENDBRANCH  26  27
ENDBRANCH  25  26
ENDBRANCH  23  25
ENDBRANCH   1  23
TORSDOF 8
ENDMDL
MODEL 3
REMARK VINA RESULT:      -7.4      2.414      3.554
REMARK  8 active torsions:
REMARK  status: ('A' for Active; 'I' for Inactive)
REMARK    1  A    between atoms: C_2  and  C_3 
REMARK    2  A    between atoms: C_3  and  C_4 
REMARK    3  A    between atoms: C_4  and  N_5 
REMARK    4  A    between atoms: N_5  and  C_6 
REMARK    5  A    between atoms: C_8  and  N_9 
REMARK    6  A    between atoms: N_9  and  C_10 
REMARK    7  A    between atoms: C_10  and  C_11 
REMARK    8  A    between atoms: C_12  and  O_13 
ROOT
HETATM    1  C   UNL     1      -9.438   0.383 -32.665  1.00  0.00     0.181 A 
HETATM    2  N   UNL     1      -8.790   0.835 -31.576  1.00  0.00    -0.207 NA
HETATM    3  C   UNL     1      -7.492   0.503 -31.432  1.00  0.00     0.119 A 
HETATM    4  C   UNL     1      -6.797  -0.252 -32.401  1.00  0.00     0.031 A 
HETATM    5  C   UNL     1      -7.559  -0.733 -33.482  1.00  0.00     0.048 A 
HETATM    6  N   UNL     1      -8.851  -0.403 -33.565  1.00  0.00    -0.330 N 
HETATM    7  H   UNL     1      -9.432  -0.759 -34.312  1.00  0.00     0.168 HD
HETATM    8  C   UNL     1      -5.413  -0.549 -32.395  1.00  0.00     0.017 A 
HETATM    9  C   UNL     1      -4.836  -1.341 -33.390  1.00  0.00     0.001 A 
HETATM   10  C   UNL     1      -5.619  -1.843 -34.423  1.00  0.00     0.002 A 
HETATM   11  C   UNL     1      -6.977  -1.535 -34.475  1.00  0.00     0.030 A 
ENDROOT
BRANCH   3  12
HETATM   12  N   UNL     1      -6.900   0.982 -30.267  1.00  0.00    -0.272 NA
HETATM   13  H   UNL     1      -6.045   0.457 -30.099  1.00  0.00     0.129 HD
BRANCH  12  14
HETATM   14  C   UNL     1      -6.669   2.435 -30.211  1.00  0.00     0.135 C 
BRANCH  14  15
HETATM   15  C   UNL     1      -5.537   2.919 -31.097  1.00  0.00    -0.012 A 
HETATM   16  C   UNL     1      -5.835   3.697 -32.240  1.00  0.00     0.075 A 
HETATM   17  C   UNL     1      -4.804   4.108 -33.092  1.00  0.00     0.037 A 
HETATM   18  C   UNL     1      -3.486   3.729 -32.839  1.00  0.00     0.003 A 
HETATM   19  C   UNL     1      -3.188   2.926 -31.744  1.00  0.00     0.001 A 
HETATM   20  C   UNL     1      -4.208   2.512 -30.886  1.00  0.00     0.011 A 
BRANCH  16  21
HETATM   21  O   UNL     1      -7.162   3.982 -32.440  1.00  0.00    -0.355 OA
HETATM   22  C   UNL     1      -7.744   3.581 -33.676  1.00  0.00     0.210 C 
ENDBRANCH  16  21
ENDBRANCH  14  15
ENDBRANCH  12  14
ENDBRANCH   3  12
BRANCH   1  23
HETATM   23  N   UNL     1     -10.771   0.685 -32.902  1.00  0.00    -0.262 NA
HETATM   24  H   UNL     1     -11.371  -0.129 -32.993  1.00  0.00     0.130 HD
BRANCH  23  25
HETATM   25  C   UNL     1     -11.019   1.665 -33.963  1.00  0.00     0.095 C 
BRANCH  25  26
HETATM   26  C   UNL     1     -12.318   1.317 -34.700  1.00  0.00     0.014 C 
BRANCH  26  27
HETATM   27  C   UNL     1     -13.249   0.432 -33.868  1.00  0.00    -0.003 C 
HETATM   28  C   UNL     1     -14.705   0.646 -34.251  1.00  0.00     0.005 C 
ENDBRANCH  26  27
ENDBRANCH  25  26
ENDBRANCH  23  25
ENDBRANCH   1  23
TORSDOF 8
ENDMDL
MODEL 4
REMARK VINA RESULT:      -7.3      2.212      6.967
REMARK  8 active torsions:
REMARK  status: ('A' for Active; 'I' for Inactive)
REMARK    1  A    between atoms: C_2  and  C_3 
REMARK    2  A    between atoms: C_3  and  C_4 
REMARK    3  A    between atoms: C_4  and  N_5 
REMARK    4  A    between atoms: N_5  and  C_6 
REMARK    5  A    between atoms: C_8  and  N_9 
REMARK    6  A    between atoms: N_9  and  C_10 
REMARK    7  A    between atoms: C_10  and  C_11 
REMARK    8  A    between atoms: C_12  and  O_13 
ROOT
HETATM    1  C   UNL     1      -3.646   2.560 -31.306  1.00  0.00     0.181 A 
HETATM    2  N   UNL     1      -3.661   1.248 -31.605  1.00  0.00    -0.207 NA
HETATM    3  C   UNL     1      -4.852   0.619 -31.617  1.00  0.00     0.119 A 
HETATM    4  C   UNL     1      -6.065   1.299 -31.375  1.00  0.00     0.031 A 
HETATM    5  C   UNL     1      -5.959   2.655 -31.017  1.00  0.00     0.048 A 
HETATM    6  N   UNL     1      -4.752   3.229 -30.987  1.00  0.00    -0.330 N 
HETATM    7  H   UNL     1      -4.640   4.192 -30.702  1.00  0.00     0.168 HD
HETATM    8  C   UNL     1      -7.366   0.753 -31.481  1.00  0.00     0.017 A 
HETATM    9  C   UNL     1      -8.500   1.511 -31.181  1.00  0.00     0.001 A 
HETATM   10  C   UNL     1      -8.366   2.836 -30.782  1.00  0.00     0.002 A 
HETATM   11  C   UNL     1      -7.099   3.412 -30.707  1.00  0.00     0.030 A 
ENDROOT
BRANCH   3  12
HETATM   12  N   UNL     1      -4.783  -0.741 -31.905  1.00  0.00    -0.272 NA
HETATM   13  H   UNL     1      -5.706  -1.147 -31.775  1.00  0.00     0.129 HD
BRANCH  12  14
HETATM   14  C   UNL     1      -4.210  -1.095 -33.214  1.00  0.00     0.135 C 
BRANCH  14  15
HETATM   15  C   UNL     1      -4.837  -2.317 -33.858  1.00  0.00    -0.012 A 
HETATM   16  C   UNL     1      -6.184  -2.262 -34.285  1.00  0.00     0.075 A 
HETATM   17  C   UNL     1      -6.789  -3.397 -34.835  1.00  0.00     0.037 A 
HETATM   18  C   UNL     1      -6.081  -4.595 -34.937  1.00  0.00     0.003 A 
HETATM   19  C   UNL     1      -4.770  -4.672 -34.477  1.00  0.00     0.001 A 
HETATM   20  C   UNL     1      -4.156  -3.546 -33.929  1.00  0.00     0.011 A 
BRANCH  16  21
HETATM   21  O   UNL     1      -6.821  -1.061 -34.103  1.00  0.00    -0.355 OA
HETATM   22  C   UNL     1      -7.090  -0.275 -35.260  1.00  0.00     0.210 C 
ENDBRANCH  16  21
ENDBRANCH  14  15
ENDBRANCH  12  14
ENDBRANCH   3  12
BRANCH   1  23
HETATM   23  N   UNL     1      -2.468   3.292 -31.282  1.00  0.00    -0.262 NA
HETATM   24  H   UNL     1      -1.983   3.270 -30.390  1.00  0.00     0.130 HD
BRANCH  23  25
HETATM   25  C   UNL     1      -2.556   4.653 -31.818  1.00  0.00     0.095 C 
BRANCH  25  26
HETATM   26  C   UNL     1      -1.212   5.059 -32.433  1.00  0.00     0.014 C 
BRANCH  26  27
HETATM   27  C   UNL     1      -1.369   5.759 -33.784  1.00  0.00    -0.003 C 
HETATM   28  C   UNL     1      -1.643   7.245 -33.609  1.00  0.00     0.005 C 
ENDBRANCH  26  27
ENDBRANCH  25  26
ENDBRANCH  23  25
ENDBRANCH   1  23
TORSDOF 8
ENDMDL
MODEL 5
REMARK VINA RESULT:      -7.2      2.296      5.805
REMARK  8 active torsions:
REMARK  status: ('A' for Active; 'I' for Inactive)
REMARK    1  A    between atoms: C_2  and  C_3 
REMARK    2  A    between atoms: C_3  and  C_4 
REMARK    3  A    between atoms: C_4  and  N_5 
REMARK    4  A    between atoms: N_5  and  C_6 
REMARK    5  A    between atoms: C_8  and  N_9 
REMARK    6  A    between atoms: N_9  and  C_10 
REMARK    7  A    between atoms: C_10  and  C_11 
REMARK    8  A    between atoms: C_12  and  O_13 
ROOT
HETATM    1  C   UNL     1      -5.698   0.481 -31.783  1.00  0.00     0.181 A 
HETATM    2  N   UNL     1      -6.909   0.633 -32.349  1.00  0.00    -0.207 NA
HETATM    3  C   UNL     1      -7.255  -0.221 -33.333  1.00  0.00     0.119 A 
HETATM    4  C   UNL     1      -6.413  -1.278 -33.742  1.00  0.00     0.031 A 
HETATM    5  C   UNL     1      -5.144  -1.334 -33.139  1.00  0.00     0.048 A 
HETATM    6  N   UNL     1      -4.834  -0.446 -32.190  1.00  0.00    -0.330 N 
HETATM    7  H   UNL     1      -3.919  -0.441 -31.761  1.00  0.00     0.168 HD
HETATM    8  C   UNL     1      -6.736  -2.289 -34.679  1.00  0.00     0.017 A 
HETATM    9  C   UNL     1      -5.808  -3.269 -35.038  1.00  0.00     0.001 A 
HETATM   10  C   UNL     1      -4.543  -3.275 -34.463  1.00  0.00     0.002 A 
HETATM   11  C   UNL     1      -4.211  -2.315 -33.509  1.00  0.00     0.030 A 
ENDROOT
BRANCH   3  12
HETATM   12  N   UNL     1      -8.508   0.018 -33.890  1.00  0.00    -0.272 NA
HETATM   13  H   UNL     1      -8.780  -0.796 -34.435  1.00  0.00     0.129 HD
BRANCH  12  14
HETATM   14  C   UNL     1      -9.565   0.424 -32.949  1.00  0.00     0.135 C 
BRANCH  14  15
HETATM   15  C   UNL     1     -10.891   0.752 -33.607  1.00  0.00    -0.012 A 
HETATM   16  C   UNL     1     -11.005   1.921 -34.394  1.00  0.00     0.075 A 
HETATM   17  C   UNL     1     -12.236   2.261 -34.967  1.00  0.00     0.037 A 
HETATM   18  C   UNL     1     -13.362   1.470 -34.739  1.00  0.00     0.003 A 
HETATM   19  C   UNL     1     -13.272   0.343 -33.928  1.00  0.00     0.001 A 
HETATM   20  C   UNL     1     -12.049  -0.007 -33.355  1.00  0.00     0.011 A 
BRANCH  16  21
HETATM   21  O   UNL     1      -9.861   2.667 -34.526  1.00  0.00    -0.355 OA
HETATM   22  C   UNL     1      -9.939   4.054 -34.212  1.00  0.00     0.210 C 
ENDBRANCH  16  21
ENDBRANCH  14  15
ENDBRANCH  12  14
ENDBRANCH   3  12
BRANCH   1  23
HETATM   23  N   UNL     1      -5.263   1.305 -30.755  1.00  0.00    -0.262 NA
HETATM   24  H   UNL     1      -5.866   1.302 -29.938  1.00  0.00     0.130 HD
BRANCH  23  25
HETATM   25  C   UNL     1      -4.888   2.665 -31.149  1.00  0.00     0.095 C 
BRANCH  25  26
HETATM   26  C   UNL     1      -3.380   2.733 -31.416  1.00  0.00     0.014 C 
BRANCH  26  27
HETATM   27  C   UNL     1      -3.041   3.527 -32.680  1.00  0.00    -0.003 C 
HETATM   28  C   UNL     1      -1.919   4.522 -32.425  1.00  0.00     0.005 C 
ENDBRANCH  26  27
ENDBRANCH  25  26
ENDBRANCH  23  25
ENDBRANCH   1  23
TORSDOF 8
ENDMDL
MODEL 6
REMARK VINA RESULT:      -7.1      2.272      5.799
REMARK  8 active torsions:
REMARK  status: ('A' for Active; 'I' for Inactive)
REMARK    1  A    between atoms: C_2  and  C_3 
REMARK    2  A    between atoms: C_3  and  C_4 
REMARK    3  A    between atoms: C_4  and  N_5 
REMARK    4  A    between atoms: N_5  and  C_6 
REMARK    5  A    between atoms: C_8  and  N_9 
REMARK    6  A    between atoms: N_9  and  C_10 
REMARK    7  A    between atoms: C_10  and  C_11 
REMARK    8  A    between atoms: C_12  and  O_13 
ROOT
HETATM    1  C   UNL     1      -8.974   2.429 -33.462  1.00  0.00     0.181 A 
HETATM    2  N   UNL     1      -8.487   1.176 -33.406  1.00  0.00    -0.207 NA
HETATM    3  C   UNL     1      -7.162   1.023 -33.219  1.00  0.00     0.119 A 
HETATM    4  C   UNL     1      -6.296   2.123 -33.036  1.00  0.00     0.031 A 
HETATM    5  C   UNL     1      -6.874   3.399 -33.163  1.00  0.00     0.048 A 
HETATM    6  N   UNL     1      -8.189   3.501 -33.380  1.00  0.00    -0.330 N 
HETATM    7  H   UNL     1      -8.627   4.403 -33.508  1.00  0.00     0.168 HD
HETATM    8  C   UNL     1      -4.918   2.059 -32.718  1.00  0.00     0.017 A 
HETATM    9  C   UNL     1      -4.146   3.216 -32.596  1.00  0.00     0.001 A 
HETATM   10  C   UNL     1      -4.730   4.466 -32.773  1.00  0.00     0.002 A 
HETATM   11  C   UNL     1      -6.093   4.560 -33.049  1.00  0.00     0.030 A 
ENDROOT
BRANCH   3  12
HETATM   12  N   UNL     1      -6.731  -0.300 -33.203  1.00  0.00    -0.272 NA
HETATM   13  H   UNL     1      -7.401  -0.853 -32.675  1.00  0.00     0.129 HD
BRANCH  12  14
HETATM   14  C   UNL     1      -6.442  -0.900 -34.516  1.00  0.00     0.135 C 
BRANCH  14  15
HETATM   15  C   UNL     1      -5.927  -2.325 -34.450  1.00  0.00    -0.012 A 
HETATM   16  C   UNL     1      -4.617  -2.568 -33.975  1.00  0.00     0.075 A 
HETATM   17  C   UNL     1      -4.113  -3.873 -33.955  1.00  0.00     0.037 A 
HETATM   18  C   UNL     1      -4.883  -4.934 -34.431  1.00  0.00     0.003 A 
HETATM   19  C   UNL     1      -6.154  -4.700 -34.943  1.00  0.00     0.001 A 
HETATM   20  C   UNL     1      -6.669  -3.403 -34.965  1.00  0.00     0.011 A 
BRANCH  16  21
HETATM   21  O   UNL     1      -3.912  -1.462 -33.573  1.00  0.00    -0.355 OA
HETATM   22  C   UNL     1      -3.440  -1.434 -32.230  1.00  0.00     0.210 C 
ENDBRANCH  16  21
ENDBRANCH  14  15
ENDBRANCH  12  14
ENDBRANCH   3  12
BRANCH   1  23
HETATM   23  N   UNL     1     -10.327   2.682 -33.640  1.00  0.00    -0.262 NA
HETATM   24  H   UNL     1     -10.689   3.428 -33.054  1.00  0.00     0.130 HD
BRANCH  23  25
HETATM   25  C   UNL     1     -11.199   1.505 -33.623  1.00  0.00     0.095 C 
BRANCH  25  26
HETATM   26  C   UNL     1     -12.118   1.520 -34.850  1.00  0.00     0.014 C 
BRANCH  26  27
HETATM   27  C   UNL     1     -13.552   1.104 -34.517  1.00  0.00    -0.003 C 
HETATM   28  C   UNL     1     -13.581  -0.170 -33.687  1.00  0.00     0.005 C 
ENDBRANCH  26  27
ENDBRANCH  25  26
ENDBRANCH  23  25
ENDBRANCH   1  23
TORSDOF 8
ENDMDL
MODEL 7
REMARK VINA RESULT:      -7.1     13.513     15.459
REMARK  8 active torsions:
REMARK  status: ('A' for Active; 'I' for Inactive)
REMARK    1  A    between atoms: C_2  and  C_3 
REMARK    2  A    between atoms: C_3  and  C_4 
REMARK    3  A    between atoms: C_4  and  N_5 
REMARK    4  A    between atoms: N_5  and  C_6 
REMARK    5  A    between atoms: C_8  and  N_9 
REMARK    6  A    between atoms: N_9  and  C_10 
REMARK    7  A    between atoms: C_10  and  C_11 
REMARK    8  A    between atoms: C_12  and  O_13 
ROOT
HETATM    1  C   UNL     1      -3.991 -13.307 -40.559  1.00  0.00     0.181 A 
HETATM    2  N   UNL     1      -3.734 -12.939 -39.291  1.00  0.00    -0.207 NA
HETATM    3  C   UNL     1      -4.777 -12.592 -38.512  1.00  0.00     0.119 A 
HETATM    4  C   UNL     1      -6.111 -12.650 -38.972  1.00  0.00     0.031 A 
HETATM    5  C   UNL     1      -6.290 -12.992 -40.324  1.00  0.00     0.048 A 
HETATM    6  N   UNL     1      -5.221 -13.298 -41.066  1.00  0.00    -0.330 N 
HETATM    7  H   UNL     1      -5.315 -13.516 -42.049  1.00  0.00     0.168 HD
HETATM    8  C   UNL     1      -7.273 -12.420 -38.197  1.00  0.00     0.017 A 
HETATM    9  C   UNL     1      -8.547 -12.468 -38.767  1.00  0.00     0.001 A 
HETATM   10  C   UNL     1      -8.696 -12.762 -40.118  1.00  0.00     0.002 A 
HETATM   11  C   UNL     1      -7.571 -13.031 -40.896  1.00  0.00     0.030 A 
ENDROOT
BRANCH   3  12
HETATM   12  N   UNL     1      -4.429 -12.193 -37.225  1.00  0.00    -0.272 NA
HETATM   13  H   UNL     1      -5.206 -11.672 -36.826  1.00  0.00     0.129 HD
BRANCH  12  14
HETATM   14  C   UNL     1      -3.969 -13.262 -36.322  1.00  0.00     0.135 C 
BRANCH  14  15
HETATM   15  C   UNL     1      -5.033 -13.774 -35.370  1.00  0.00    -0.012 A 
HETATM   16  C   UNL     1      -5.811 -14.896 -35.738  1.00  0.00     0.075 A 
HETATM   17  C   UNL     1      -6.828 -15.348 -34.891  1.00  0.00     0.037 A 
HETATM   18  C   UNL     1      -7.103 -14.679 -33.698  1.00  0.00     0.003 A 
HETATM   19  C   UNL     1      -6.374 -13.547 -33.349  1.00  0.00     0.001 A 
HETATM   20  C   UNL     1      -5.355 -13.089 -34.185  1.00  0.00     0.011 A 
BRANCH  16  21
HETATM   21  O   UNL     1      -5.507 -15.463 -36.950  1.00  0.00    -0.355 OA
HETATM   22  C   UNL     1      -6.566 -16.084 -37.672  1.00  0.00     0.210 C 
ENDBRANCH  16  21
ENDBRANCH  14  15
ENDBRANCH  12  14
ENDBRANCH   3  12
BRANCH   1  23
HETATM   23  N   UNL     1      -2.980 -13.692 -41.428  1.00  0.00    -0.262 NA
HETATM   24  H   UNL     1      -3.308 -13.974 -42.347  1.00  0.00     0.130 HD
BRANCH  23  25
HETATM   25  C   UNL     1      -2.005 -14.641 -40.885  1.00  0.00     0.095 C 
BRANCH  25  26
HETATM   26  C   UNL     1      -0.676 -13.926 -40.617  1.00  0.00     0.014 C 
BRANCH  26  27
HETATM   27  C   UNL     1      -0.268 -13.972 -39.143  1.00  0.00    -0.003 C 
HETATM   28  C   UNL     1       1.087 -14.640 -38.963  1.00  0.00     0.005 C 
ENDBRANCH  26  27
ENDBRANCH  25  26
ENDBRANCH  23  25
ENDBRANCH   1  23
TORSDOF 8
ENDMDL
MODEL 8
REMARK VINA RESULT:      -7.0      2.420      6.829
REMARK  8 active torsions:
REMARK  status: ('A' for Active; 'I' for Inactive)
REMARK    1  A    between atoms: C_2  and  C_3 
REMARK    2  A    between atoms: C_3  and  C_4 
REMARK    3  A    between atoms: C_4  and  N_5 
REMARK    4  A    between atoms: N_5  and  C_6 
REMARK    5  A    between atoms: C_8  and  N_9 
REMARK    6  A    between atoms: N_9  and  C_10 
REMARK    7  A    between atoms: C_10  and  C_11 
REMARK    8  A    between atoms: C_12  and  O_13 
ROOT
HETATM    1  C   UNL     1      -6.046   0.123 -32.438  1.00  0.00     0.181 A 
HETATM    2  N   UNL     1      -7.387   0.006 -32.440  1.00  0.00    -0.207 NA
HETATM    3  C   UNL     1      -8.098   0.899 -31.724  1.00  0.00     0.119 A 
HETATM    4  C   UNL     1      -7.485   1.961 -31.025  1.00  0.00     0.031 A 
HETATM    5  C   UNL     1      -6.079   1.981 -31.028  1.00  0.00     0.048 A 
HETATM    6  N   UNL     1      -5.415   1.055 -31.727  1.00  0.00    -0.330 N 
HETATM    7  H   UNL     1      -4.405   1.024 -31.723  1.00  0.00     0.168 HD
HETATM    8  C   UNL     1      -8.151   3.010 -30.346  1.00  0.00     0.017 A 
HETATM    9  C   UNL     1      -7.441   3.993 -29.653  1.00  0.00     0.001 A 
HETATM   10  C   UNL     1      -6.051   3.964 -29.631  1.00  0.00     0.002 A 
HETATM   11  C   UNL     1      -5.368   2.965 -30.322  1.00  0.00     0.030 A 
ENDROOT
BRANCH   3  12
HETATM   12  N   UNL     1      -9.474   0.694 -31.751  1.00  0.00    -0.272 NA
HETATM   13  H   UNL     1      -9.937   1.598 -31.694  1.00  0.00     0.129 HD
BRANCH  12  14
HETATM   14  C   UNL     1      -9.985  -0.112 -32.872  1.00  0.00     0.135 C 
BRANCH  14  15
HETATM   15  C   UNL     1     -11.159   0.512 -33.602  1.00  0.00    -0.012 A 
HETATM   16  C   UNL     1     -10.960   1.689 -34.360  1.00  0.00     0.075 A 
HETATM   17  C   UNL     1     -12.045   2.300 -34.997  1.00  0.00     0.037 A 
HETATM   18  C   UNL     1     -13.330   1.774 -34.864  1.00  0.00     0.003 A 
HETATM   19  C   UNL     1     -13.544   0.644 -34.083  1.00  0.00     0.001 A 
HETATM   20  C   UNL     1     -12.470   0.024 -33.445  1.00  0.00     0.011 A 
BRANCH  16  21
HETATM   21  O   UNL     1      -9.674   2.165 -34.398  1.00  0.00    -0.355 OA
HETATM   22  C   UNL     1      -9.461   3.518 -34.008  1.00  0.00     0.210 C 
ENDBRANCH  16  21
ENDBRANCH  14  15
ENDBRANCH  12  14
ENDBRANCH   3  12
BRANCH   1  23
HETATM   23  N   UNL     1      -5.235  -0.743 -33.156  1.00  0.00    -0.262 NA
HETATM   24  H   UNL     1      -4.548  -0.278 -33.742  1.00  0.00     0.130 HD
BRANCH  23  25
HETATM   25  C   UNL     1      -5.930  -1.811 -33.878  1.00  0.00     0.095 C 
BRANCH  25  26
HETATM   26  C   UNL     1      -4.911  -2.712 -34.585  1.00  0.00     0.014 C 
BRANCH  26  27
HETATM   27  C   UNL     1      -5.339  -4.181 -34.610  1.00  0.00    -0.003 C 
HETATM   28  C   UNL     1      -6.754  -4.337 -35.148  1.00  0.00     0.005 C 
ENDBRANCH  26  27
ENDBRANCH  25  26
ENDBRANCH  23  25
ENDBRANCH   1  23
TORSDOF 8
ENDMDL
MODEL 9
REMARK VINA RESULT:      -7.0      2.064      5.295
REMARK  8 active torsions:
REMARK  status: ('A' for Active; 'I' for Inactive)
REMARK    1  A    between atoms: C_2  and  C_3 
REMARK    2  A    between atoms: C_3  and  C_4 
REMARK    3  A    between atoms: C_4  and  N_5 
REMARK    4  A    between atoms: N_5  and  C_6 
REMARK    5  A    between atoms: C_8  and  N_9 
REMARK    6  A    between atoms: N_9  and  C_10 
REMARK    7  A    between atoms: C_10  and  C_11 
REMARK    8  A    between atoms: C_12  and  O_13 
ROOT
HETATM    1  C   UNL     1      -4.714  -0.034 -33.024  1.00  0.00     0.181 A 
HETATM    2  N   UNL     1      -4.209   1.083 -32.470  1.00  0.00    -0.207 NA
HETATM    3  C   UNL     1      -5.072   1.954 -31.913  1.00  0.00     0.119 A 
HETATM    4  C   UNL     1      -6.460   1.706 -31.855  1.00  0.00     0.031 A 
HETATM    5  C   UNL     1      -6.913   0.544 -32.505  1.00  0.00     0.048 A 
HETATM    6  N   UNL     1      -6.022  -0.276 -33.072  1.00  0.00    -0.330 N 
HETATM    7  H   UNL     1      -6.319  -1.101 -33.573  1.00  0.00     0.168 HD
HETATM    8  C   UNL     1      -7.426   2.501 -31.192  1.00  0.00     0.017 A 
HETATM    9  C   UNL     1      -8.784   2.179 -31.231  1.00  0.00     0.001 A 
HETATM   10  C   UNL     1      -9.212   1.050 -31.921  1.00  0.00     0.002 A 
HETATM   11  C   UNL     1      -8.280   0.227 -32.551  1.00  0.00     0.030 A 
ENDROOT
BRANCH   3  12
HETATM   12  N   UNL     1      -4.478   3.099 -31.389  1.00  0.00    -0.272 NA
HETATM   13  H   UNL     1      -4.756   3.191 -30.415  1.00  0.00     0.129 HD
BRANCH  12  14
HETATM   14  C   UNL     1      -3.018   3.200 -31.552  1.00  0.00     0.135 C 
BRANCH  14  15
HETATM   15  C   UNL     1      -2.573   4.276 -32.524  1.00  0.00    -0.012 A 
HETATM   16  C   UNL     1      -1.379   4.989 -32.272  1.00  0.00     0.075 A 
HETATM   17  C   UNL     1      -0.984   6.016 -33.135  1.00  0.00     0.037 A 
HETATM   18  C   UNL     1      -1.778   6.365 -34.228  1.00  0.00     0.003 A 
HETATM   19  C   UNL     1      -2.978   5.701 -34.458  1.00  0.00     0.001 A 
HETATM   20  C   UNL     1      -3.380   4.673 -33.606  1.00  0.00     0.011 A 
BRANCH  16  21
HETATM   21  O   UNL     1      -0.685   4.615 -31.149  1.00  0.00    -0.355 OA
HETATM   22  C   UNL     1      -0.399   5.622 -30.184  1.00  0.00     0.210 C 
ENDBRANCH  16  21
ENDBRANCH  14  15
ENDBRANCH  12  14
ENDBRANCH   3  12
BRANCH   1  23
HETATM   23  N   UNL     1      -3.900  -0.994 -33.609  1.00  0.00    -0.262 NA
HETATM   24  H   UNL     1      -3.745  -0.857 -34.603  1.00  0.00     0.130 HD
BRANCH  23  25
HETATM   25  C   UNL     1      -4.237  -2.385 -33.299  1.00  0.00     0.095 C 
BRANCH  25  26
HETATM   26  C   UNL     1      -4.442  -3.174 -34.598  1.00  0.00     0.014 C 
BRANCH  26  27
HETATM   27  C   UNL     1      -5.891  -3.136 -35.088  1.00  0.00    -0.003 C 
HETATM   28  C   UNL     1      -6.529  -4.516 -35.037  1.00  0.00     0.005 C 
ENDBRANCH  26  27
ENDBRANCH  25  26
ENDBRANCH  23  25
ENDBRANCH   1  23
TORSDOF 8
ENDMDL
MODEL 10
REMARK VINA RESULT:      -6.9      2.153      4.569
REMARK  8 active torsions:
REMARK  status: ('A' for Active; 'I' for Inactive)
REMARK    1  A    between atoms: C_2  and  C_3 
REMARK    2  A    between atoms: C_3  and  C_4 
REMARK    3  A    between atoms: C_4  and  N_5 
REMARK    4  A    between atoms: N_5  and  C_6 
REMARK    5  A    between atoms: C_8  and  N_9 
REMARK    6  A    between atoms: N_9  and  C_10 
REMARK    7  A    between atoms: C_10  and  C_11 
REMARK    8  A    between atoms: C_12  and  O_13 
ROOT
HETATM    1  C   UNL     1      -4.463  -0.131 -32.875  1.00  0.00     0.181 A 
HETATM    2  N   UNL     1      -5.698   0.277 -33.218  1.00  0.00    -0.207 NA
HETATM    3  C   UNL     1      -6.496  -0.600 -33.856  1.00  0.00     0.119 A 
HETATM    4  C   UNL     1      -6.093  -1.926 -34.127  1.00  0.00     0.031 A 
HETATM    5  C   UNL     1      -4.769  -2.256 -33.786  1.00  0.00     0.048 A 
HETATM    6  N   UNL     1      -4.004  -1.342 -33.182  1.00  0.00    -0.330 N 
HETATM    7  H   UNL     1      -3.039  -1.539 -32.954  1.00  0.00     0.168 HD
HETATM    8  C   UNL     1      -6.898  -2.949 -34.683  1.00  0.00     0.017 A 
HETATM    9  C   UNL     1      -6.381  -4.220 -34.943  1.00  0.00     0.001 A 
HETATM   10  C   UNL     1      -5.055  -4.508 -34.641  1.00  0.00     0.002 A 
HETATM   11  C   UNL     1      -4.250  -3.532 -34.056  1.00  0.00     0.030 A 
ENDROOT
BRANCH   3  12
HETATM   12  N   UNL     1      -7.746  -0.096 -34.205  1.00  0.00    -0.272 NA
HETATM   13  H   UNL     1      -8.045  -0.541 -35.069  1.00  0.00     0.129 HD
BRANCH  12  14
HETATM   14  C   UNL     1      -8.785  -0.171 -33.164  1.00  0.00     0.135 C 
BRANCH  14  15
HETATM   15  C   UNL     1      -9.121   1.162 -32.523  1.00  0.00    -0.012 A 
HETATM   16  C   UNL     1      -9.909   2.095 -33.236  1.00  0.00     0.075 A 
HETATM   17  C   UNL     1     -10.185   3.347 -32.676  1.00  0.00     0.037 A 
HETATM   18  C   UNL     1      -9.660   3.695 -31.431  1.00  0.00     0.003 A 
HETATM   19  C   UNL     1      -8.845   2.802 -30.743  1.00  0.00     0.001 A 
HETATM   20  C   UNL     1      -8.566   1.550 -31.290  1.00  0.00     0.011 A 
BRANCH  16  21
HETATM   21  O   UNL     1     -10.343   1.690 -34.472  1.00  0.00    -0.355 OA
HETATM   22  C   UNL     1     -11.745   1.720 -34.722  1.00  0.00     0.210 C 
ENDBRANCH  16  21
ENDBRANCH  14  15
ENDBRANCH  12  14
ENDBRANCH   3  12
BRANCH   1  23
HETATM   23  N   UNL     1      -3.577   0.701 -32.204  1.00  0.00    -0.262 NA
HETATM   24  H   UNL     1      -3.433   0.453 -31.230  1.00  0.00     0.130 HD
BRANCH  23  25
HETATM   25  C   UNL     1      -3.807   2.138 -32.372  1.00  0.00     0.095 C 
BRANCH  25  26
HETATM   26  C   UNL     1      -4.496   2.704 -31.125  1.00  0.00     0.014 C 
BRANCH  26  27
HETATM   27  C   UNL     1      -5.326   3.954 -31.426  1.00  0.00    -0.003 C 
HETATM   28  C   UNL     1      -5.995   3.860 -32.789  1.00  0.00     0.005 C 
ENDBRANCH  26  27
ENDBRANCH  25  26
ENDBRANCH  23  25
ENDBRANCH   1  23
TORSDOF 8
ENDMDL
