MODEL 1
REMARK VINA RESULT:      -7.6      0.000      0.000
REMARK  5 active torsions:
REMARK  status: ('A' for Active; 'I' for Inactive)
REMARK    1  A    between atoms: C_3  and  N_4 
REMARK       I    between atoms: N_4  and  C_5 
REMARK       I    between atoms: C_5  and  N_6 
REMARK    2  A    between atoms: N_6  and  C_7 
REMARK    3  A    between atoms: C_7  and  C_8 
REMARK    4  A    between atoms: C_8  and  O_9 
REMARK    5  A    between atoms: O_9  and  C_10 
ROOT
HETATM    1  N   UNL     1      -2.639   3.326 -32.516  1.00  0.00    -0.307 N 
HETATM    2  C   UNL     1      -3.620   2.943 -31.628  1.00  0.00     0.320 C 
HETATM    3  N   UNL     1      -3.665   1.569 -31.521  1.00  0.00    -0.340 N 
HETATM    4  O   UNL     1      -4.330   3.679 -30.960  1.00  0.00    -0.247 OA
HETATM    5  H   UNL     1      -1.876   2.665 -32.548  1.00  0.00     0.170 HD
HETATM    6  H   UNL     1      -3.357   1.033 -32.321  1.00  0.00     0.164 HD
ENDROOT
BRANCH   3   7
HETATM    7  C   UNL     1      -4.599   0.910 -30.621  1.00  0.00     0.156 C 
BRANCH   7   8
HETATM    8  C   UNL     1      -5.865   0.381 -31.323  1.00  0.00     0.142 C 
HETATM    9  C   UNL     1      -7.090   1.253 -31.056  1.00  0.00     0.042 C 
BRANCH   8  10
HETATM   10  O   UNL     1      -5.667   0.362 -32.747  1.00  0.00    -0.345 OA
BRANCH  10  11
HETATM   11  C   UNL     1      -5.680  -0.837 -33.405  1.00  0.00     0.069 A 
HETATM   12  C   UNL     1      -4.572  -1.629 -33.710  1.00  0.00     0.038 A 
HETATM   13  C   UNL     1      -4.736  -2.834 -34.405  1.00  0.00     0.026 A 
HETATM   14  C   UNL     1      -6.008  -3.247 -34.793  1.00  0.00     0.034 A 
HETATM   15 CL   UNL     1      -6.204  -4.727 -35.647  1.00  0.00    -0.084 Cl
HETATM   16  C   UNL     1      -7.119  -2.464 -34.497  1.00  0.00     0.026 A 
HETATM   17  C   UNL     1      -6.951  -1.262 -33.806  1.00  0.00     0.038 A 
ENDBRANCH  10  11
ENDBRANCH   8  10
ENDBRANCH   7   8
ENDBRANCH   3   7
BRANCH   1  18
HETATM   18  C   UNL     1      -2.317   4.657 -32.875  1.00  0.00     0.059 A 
HETATM   19  C   UNL     1      -1.378   5.481 -32.239  1.00  0.00    -0.032 A 
HETATM   20  C   UNL     1      -0.616   5.113 -30.998  1.00  0.00     0.050 C 
HETATM   21  C   UNL     1      -1.144   6.761 -32.776  1.00  0.00     0.028 A 
HETATM   22  C   UNL     1      -1.885   7.193 -33.865  1.00  0.00     0.117 A 
HETATM   23  N   UNL     1      -2.842   6.454 -34.453  1.00  0.00    -0.271 NA
HETATM   24  C   UNL     1      -3.031   5.214 -33.943  1.00  0.00     0.146 A 
ENDBRANCH   1  18
TORSDOF 5
ENDMDL
MODEL 2
REMARK VINA RESULT:      -7.5      0.827      1.534
REMARK  5 active torsions:
REMARK  status: ('A' for Active; 'I' for Inactive)
REMARK    1  A    between atoms: C_3  and  N_4 
REMARK       I    between atoms: N_4  and  C_5 
REMARK       I    between atoms: C_5  and  N_6 
REMARK    2  A    between atoms: N_6  and  C_7 
REMARK    3  A    between atoms: C_7  and  C_8 
REMARK    4  A    between atoms: C_8  and  O_9 
REMARK    5  A    between atoms: O_9  and  C_10 
ROOT
HETATM    1  N   UNL     1      -2.589   3.557 -32.501  1.00  0.00    -0.307 N 
HETATM    2  C   UNL     1      -3.644   3.211 -31.685  1.00  0.00     0.320 C 
HETATM    3  N   UNL     1      -3.791   1.841 -31.641  1.00  0.00    -0.340 N 
HETATM    4  O   UNL     1      -4.338   3.970 -31.026  1.00  0.00    -0.247 OA
HETATM    5  H   UNL     1      -1.873   2.844 -32.519  1.00  0.00     0.170 HD
HETATM    6  H   UNL     1      -3.476   1.316 -32.446  1.00  0.00     0.164 HD
ENDROOT
BRANCH   3   7
HETATM    7  C   UNL     1      -4.821   1.216 -30.825  1.00  0.00     0.156 C 
BRANCH   7   8
HETATM    8  C   UNL     1      -6.069   0.791 -31.621  1.00  0.00     0.142 C 
HETATM    9  C   UNL     1      -7.192   1.824 -31.543  1.00  0.00     0.042 C 
BRANCH   8  10
HETATM   10  O   UNL     1      -5.738   0.637 -33.011  1.00  0.00    -0.345 OA
BRANCH  10  11
HETATM   11  C   UNL     1      -5.712  -0.617 -33.555  1.00  0.00     0.069 A 
HETATM   12  C   UNL     1      -4.585  -1.418 -33.742  1.00  0.00     0.038 A 
HETATM   13  C   UNL     1      -4.709  -2.684 -34.328  1.00  0.00     0.026 A 
HETATM   14  C   UNL     1      -5.961  -3.150 -34.724  1.00  0.00     0.034 A 
HETATM   15 CL   UNL     1      -6.107  -4.706 -35.442  1.00  0.00    -0.084 Cl
HETATM   16  C   UNL     1      -7.090  -2.359 -34.544  1.00  0.00     0.026 A 
HETATM   17  C   UNL     1      -6.963  -1.095 -33.962  1.00  0.00     0.038 A 
ENDBRANCH  10  11
ENDBRANCH   8  10
ENDBRANCH   7   8
ENDBRANCH   3   7
BRANCH   1  18
HETATM   18  C   UNL     1      -2.153   4.874 -32.783  1.00  0.00     0.059 A 
HETATM   19  C   UNL     1      -2.590   5.681 -33.844  1.00  0.00    -0.032 A 
HETATM   20  C   UNL     1      -3.537   5.239 -34.922  1.00  0.00     0.050 C 
HETATM   21  C   UNL     1      -2.089   6.993 -33.931  1.00  0.00     0.028 A 
HETATM   22  C   UNL     1      -1.141   7.427 -33.018  1.00  0.00     0.117 A 
HETATM   23  N   UNL     1      -0.649   6.655 -32.033  1.00  0.00    -0.271 NA
HETATM   24  C   UNL     1      -1.166   5.406 -31.944  1.00  0.00     0.146 A 
ENDBRANCH   1  18
TORSDOF 5
ENDMDL
MODEL 3
REMARK VINA RESULT:      -7.4      3.232      6.898
REMARK  5 active torsions:
REMARK  status: ('A' for Active; 'I' for Inactive)
REMARK    1  A    between atoms: C_3  and  N_4 
REMARK       I    between atoms: N_4  and  C_5 
REMARK       I    between atoms: C_5  and  N_6 
REMARK    2  A    between atoms: N_6  and  C_7 
REMARK    3  A    between atoms: C_7  and  C_8 
REMARK    4  A    between atoms: C_8  and  O_9 
REMARK    5  A    between atoms: O_9  and  C_10 
ROOT
HETATM    1  N   UNL     1      -4.238  -1.123 -33.734  1.00  0.00    -0.307 N 
HETATM    2  C   UNL     1      -4.360  -0.494 -32.515  1.00  0.00     0.320 C 
HETATM    3  N   UNL     1      -3.673   0.701 -32.516  1.00  0.00    -0.340 N 
HETATM    4  O   UNL     1      -5.023  -0.872 -31.561  1.00  0.00    -0.247 OA
HETATM    5  H   UNL     1      -4.117  -0.464 -34.491  1.00  0.00     0.170 HD
HETATM    6  H   UNL     1      -2.878   0.776 -33.136  1.00  0.00     0.164 HD
ENDROOT
BRANCH   3   7
HETATM    7  C   UNL     1      -3.668   1.573 -31.351  1.00  0.00     0.156 C 
BRANCH   7   8
HETATM    8  C   UNL     1      -4.896   2.500 -31.268  1.00  0.00     0.142 C 
HETATM    9  C   UNL     1      -4.519   3.938 -30.915  1.00  0.00     0.042 C 
BRANCH   8  10
HETATM   10  O   UNL     1      -5.568   2.543 -32.538  1.00  0.00    -0.345 OA
BRANCH  10  11
HETATM   11  C   UNL     1      -6.848   2.074 -32.631  1.00  0.00     0.069 A 
HETATM   12  C   UNL     1      -7.579   1.447 -31.620  1.00  0.00     0.038 A 
HETATM   13  C   UNL     1      -8.884   1.003 -31.863  1.00  0.00     0.026 A 
HETATM   14  C   UNL     1      -9.460   1.187 -33.118  1.00  0.00     0.034 A 
HETATM   15 CL   UNL     1     -11.063   0.639 -33.412  1.00  0.00    -0.084 Cl
HETATM   16  C   UNL     1      -8.740   1.807 -34.134  1.00  0.00     0.026 A 
HETATM   17  C   UNL     1      -7.437   2.247 -33.888  1.00  0.00     0.038 A 
ENDBRANCH  10  11
ENDBRANCH   8  10
ENDBRANCH   7   8
ENDBRANCH   3   7
BRANCH   1  18
HETATM   18  C   UNL     1      -4.807  -2.370 -34.088  1.00  0.00     0.059 A 
HETATM   19  C   UNL     1      -6.109  -2.580 -34.564  1.00  0.00    -0.032 A 
HETATM   20  C   UNL     1      -7.157  -1.512 -34.693  1.00  0.00     0.050 C 
HETATM   21  C   UNL     1      -6.482  -3.888 -34.925  1.00  0.00     0.028 A 
HETATM   22  C   UNL     1      -5.589  -4.931 -34.741  1.00  0.00     0.117 A 
HETATM   23  N   UNL     1      -4.359  -4.774 -34.220  1.00  0.00    -0.271 NA
HETATM   24  C   UNL     1      -4.005  -3.504 -33.908  1.00  0.00     0.146 A 
ENDBRANCH   1  18
TORSDOF 5
ENDMDL
MODEL 4
REMARK VINA RESULT:      -7.1      3.571      7.311
REMARK  5 active torsions:
REMARK  status: ('A' for Active; 'I' for Inactive)
REMARK    1  A    between atoms: C_3  and  N_4 
REMARK       I    between atoms: N_4  and  C_5 
REMARK       I    between atoms: C_5  and  N_6 
REMARK    2  A    between atoms: N_6  and  C_7 
REMARK    3  A    between atoms: C_7  and  C_8 
REMARK    4  A    between atoms: C_8  and  O_9 
REMARK    5  A    between atoms: O_9  and  C_10 
ROOT
HETATM    1  N   UNL     1      -5.024  -0.720 -34.005  1.00  0.00    -0.307 N 
HETATM    2  C   UNL     1      -6.102  -0.091 -33.421  1.00  0.00     0.320 C 
HETATM    3  N   UNL     1      -6.448   1.038 -34.133  1.00  0.00    -0.340 N 
HETATM    4  O   UNL     1      -6.733  -0.475 -32.448  1.00  0.00    -0.247 OA
HETATM    5  H   UNL     1      -4.992  -0.568 -35.004  1.00  0.00     0.170 HD
HETATM    6  H   UNL     1      -5.714   1.498 -34.655  1.00  0.00     0.164 HD
ENDROOT
BRANCH   3   7
HETATM    7  C   UNL     1      -7.576   1.867 -33.737  1.00  0.00     0.156 C 
BRANCH   7   8
HETATM    8  C   UNL     1      -7.244   3.369 -33.660  1.00  0.00     0.142 C 
HETATM    9  C   UNL     1      -8.378   4.188 -33.047  1.00  0.00     0.042 C 
BRANCH   8  10
HETATM   10  O   UNL     1      -6.085   3.576 -32.835  1.00  0.00    -0.345 OA
BRANCH  10  11
HETATM   11  C   UNL     1      -4.945   4.077 -33.401  1.00  0.00     0.069 A 
HETATM   12  C   UNL     1      -4.865   4.862 -34.552  1.00  0.00     0.038 A 
HETATM   13  C   UNL     1      -3.621   5.295 -35.026  1.00  0.00     0.026 A 
HETATM   14  C   UNL     1      -2.456   4.944 -34.347  1.00  0.00     0.034 A 
HETATM   15 CL   UNL     1      -0.930   5.479 -34.934  1.00  0.00    -0.084 Cl
HETATM   16  C   UNL     1      -2.524   4.160 -33.200  1.00  0.00     0.026 A 
HETATM   17  C   UNL     1      -3.767   3.728 -32.732  1.00  0.00     0.038 A 
ENDBRANCH  10  11
ENDBRANCH   8  10
ENDBRANCH   7   8
ENDBRANCH   3   7
BRANCH   1  18
HETATM   18  C   UNL     1      -4.399  -1.902 -33.541  1.00  0.00     0.059 A 
HETATM   19  C   UNL     1      -3.588  -2.017 -32.404  1.00  0.00    -0.032 A 
HETATM   20  C   UNL     1      -3.169  -0.869 -31.531  1.00  0.00     0.050 C 
HETATM   21  C   UNL     1      -3.100  -3.292 -32.061  1.00  0.00     0.028 A 
HETATM   22  C   UNL     1      -3.376  -4.374 -32.881  1.00  0.00     0.117 A 
HETATM   23  N   UNL     1      -4.091  -4.284 -34.016  1.00  0.00    -0.271 NA
HETATM   24  C   UNL     1      -4.579  -3.056 -34.313  1.00  0.00     0.146 A 
ENDBRANCH   1  18
TORSDOF 5
ENDMDL
MODEL 5
REMARK VINA RESULT:      -6.9      2.552      3.317
REMARK  5 active torsions:
REMARK  status: ('A' for Active; 'I' for Inactive)
REMARK    1  A    between atoms: C_3  and  N_4 
REMARK       I    between atoms: N_4  and  C_5 
REMARK       I    between atoms: C_5  and  N_6 
REMARK    2  A    between atoms: N_6  and  C_7 
REMARK    3  A    between atoms: C_7  and  C_8 
REMARK    4  A    between atoms: C_8  and  O_9 
REMARK    5  A    between atoms: O_9  and  C_10 
ROOT
HETATM    1  N   UNL     1      -5.866   4.162 -32.468  1.00  0.00    -0.307 N 
HETATM    2  C   UNL     1      -6.586   3.358 -33.325  1.00  0.00     0.320 C 
HETATM    3  N   UNL     1      -7.867   3.170 -32.848  1.00  0.00    -0.340 N 
HETATM    4  O   UNL     1      -6.208   2.905 -34.394  1.00  0.00    -0.247 OA
HETATM    5  H   UNL     1      -6.458   4.813 -31.972  1.00  0.00     0.170 HD
HETATM    6  H   UNL     1      -8.001   3.228 -31.848  1.00  0.00     0.164 HD
ENDROOT
BRANCH   3   7
HETATM    7  C   UNL     1      -8.840   2.379 -33.586  1.00  0.00     0.156 C 
BRANCH   7   8
HETATM    8  C   UNL     1      -9.013   0.947 -33.043  1.00  0.00     0.142 C 
HETATM    9  C   UNL     1     -10.453   0.451 -33.153  1.00  0.00     0.042 C 
BRANCH   8  10
HETATM   10  O   UNL     1      -8.197   0.033 -33.794  1.00  0.00    -0.345 OA
BRANCH  10  11
HETATM   11  C   UNL     1      -7.011  -0.391 -33.262  1.00  0.00     0.069 A 
HETATM   12  C   UNL     1      -6.573  -0.202 -31.950  1.00  0.00     0.038 A 
HETATM   13  C   UNL     1      -5.322  -0.683 -31.547  1.00  0.00     0.026 A 
HETATM   14  C   UNL     1      -4.507  -1.355 -32.456  1.00  0.00     0.034 A 
HETATM   15 CL   UNL     1      -2.971  -1.943 -31.956  1.00  0.00    -0.084 Cl
HETATM   16  C   UNL     1      -4.932  -1.546 -33.767  1.00  0.00     0.026 A 
HETATM   17  C   UNL     1      -6.180  -1.063 -34.166  1.00  0.00     0.038 A 
ENDBRANCH  10  11
ENDBRANCH   8  10
ENDBRANCH   7   8
ENDBRANCH   3   7
BRANCH   1  18
HETATM   18  C   UNL     1      -4.518   4.559 -32.637  1.00  0.00     0.059 A 
HETATM   19  C   UNL     1      -3.385   3.799 -32.313  1.00  0.00    -0.032 A 
HETATM   20  C   UNL     1      -3.417   2.458 -31.638  1.00  0.00     0.050 C 
HETATM   21  C   UNL     1      -2.118   4.335 -32.610  1.00  0.00     0.028 A 
HETATM   22  C   UNL     1      -2.021   5.609 -33.147  1.00  0.00     0.117 A 
HETATM   23  N   UNL     1      -3.085   6.391 -33.403  1.00  0.00    -0.271 NA
HETATM   24  C   UNL     1      -4.297   5.847 -33.141  1.00  0.00     0.146 A 
ENDBRANCH   1  18
TORSDOF 5
ENDMDL
MODEL 6
REMARK VINA RESULT:      -6.8      2.019      2.598
REMARK  5 active torsions:
REMARK  status: ('A' for Active; 'I' for Inactive)
REMARK    1  A    between atoms: C_3  and  N_4 
REMARK       I    between atoms: N_4  and  C_5 
REMARK       I    between atoms: C_5  and  N_6 
REMARK    2  A    between atoms: N_6  and  C_7 
REMARK    3  A    between atoms: C_7  and  C_8 
REMARK    4  A    between atoms: C_8  and  O_9 
REMARK    5  A    between atoms: O_9  and  C_10 
ROOT
HETATM    1  N   UNL     1      -5.071   3.797 -32.181  1.00  0.00    -0.307 N 
HETATM    2  C   UNL     1      -5.898   3.030 -31.389  1.00  0.00     0.320 C 
HETATM    3  N   UNL     1      -6.937   2.514 -32.134  1.00  0.00    -0.340 N 
HETATM    4  O   UNL     1      -5.739   2.766 -30.207  1.00  0.00    -0.247 OA
HETATM    5  H   UNL     1      -5.065   3.481 -33.141  1.00  0.00     0.170 HD
HETATM    6  H   UNL     1      -7.227   3.038 -32.948  1.00  0.00     0.164 HD
ENDROOT
BRANCH   3   7
HETATM    7  C   UNL     1      -7.938   1.644 -31.535  1.00  0.00     0.156 C 
BRANCH   7   8
HETATM    8  C   UNL     1      -8.185   0.347 -32.329  1.00  0.00     0.142 C 
HETATM    9  C   UNL     1      -9.622   0.238 -32.837  1.00  0.00     0.042 C 
BRANCH   8  10
HETATM   10  O   UNL     1      -7.329   0.305 -33.483  1.00  0.00    -0.345 OA
BRANCH  10  11
HETATM   11  C   UNL     1      -6.417  -0.706 -33.599  1.00  0.00     0.069 A 
HETATM   12  C   UNL     1      -5.145  -0.748 -33.024  1.00  0.00     0.038 A 
HETATM   13  C   UNL     1      -4.309  -1.850 -33.241  1.00  0.00     0.026 A 
HETATM   14  C   UNL     1      -4.744  -2.911 -34.032  1.00  0.00     0.034 A 
HETATM   15 CL   UNL     1      -3.712  -4.261 -34.296  1.00  0.00    -0.084 Cl
HETATM   16  C   UNL     1      -6.008  -2.878 -34.612  1.00  0.00     0.026 A 
HETATM   17  C   UNL     1      -6.839  -1.776 -34.396  1.00  0.00     0.038 A 
ENDBRANCH  10  11
ENDBRANCH   8  10
ENDBRANCH   7   8
ENDBRANCH   3   7
BRANCH   1  18
HETATM   18  C   UNL     1      -3.911   4.483 -31.751  1.00  0.00     0.059 A 
HETATM   19  C   UNL     1      -3.875   5.742 -31.133  1.00  0.00    -0.032 A 
HETATM   20  C   UNL     1      -5.073   6.619 -30.906  1.00  0.00     0.050 C 
HETATM   21  C   UNL     1      -2.628   6.243 -30.716  1.00  0.00     0.028 A 
HETATM   22  C   UNL     1      -1.475   5.521 -30.982  1.00  0.00     0.117 A 
HETATM   23  N   UNL     1      -1.468   4.346 -31.636  1.00  0.00    -0.271 NA
HETATM   24  C   UNL     1      -2.680   3.863 -32.001  1.00  0.00     0.146 A 
ENDBRANCH   1  18
TORSDOF 5
ENDMDL
MODEL 7
REMARK VINA RESULT:      -6.7      3.499      7.740
REMARK  5 active torsions:
REMARK  status: ('A' for Active; 'I' for Inactive)
REMARK    1  A    between atoms: C_3  and  N_4 
REMARK       I    between atoms: N_4  and  C_5 
REMARK       I    between atoms: C_5  and  N_6 
REMARK    2  A    between atoms: N_6  and  C_7 
REMARK    3  A    between atoms: C_7  and  C_8 
REMARK    4  A    between atoms: C_8  and  O_9 
REMARK    5  A    between atoms: O_9  and  C_10 
ROOT
HETATM    1  N   UNL     1      -4.780  -0.421 -33.288  1.00  0.00    -0.307 N 
HETATM    2  C   UNL     1      -5.737   0.166 -32.489  1.00  0.00     0.320 C 
HETATM    3  N   UNL     1      -5.906   1.491 -32.833  1.00  0.00    -0.340 N 
HETATM    4  O   UNL     1      -6.409  -0.383 -31.629  1.00  0.00    -0.247 OA
HETATM    5  H   UNL     1      -4.736   0.005 -34.203  1.00  0.00     0.170 HD
HETATM    6  H   UNL     1      -5.115   1.966 -33.245  1.00  0.00     0.164 HD
ENDROOT
BRANCH   3   7
HETATM    7  C   UNL     1      -6.883   2.329 -32.155  1.00  0.00     0.156 C 
BRANCH   7   8
HETATM    8  C   UNL     1      -6.254   3.442 -31.295  1.00  0.00     0.142 C 
HETATM    9  C   UNL     1      -6.850   3.504 -29.891  1.00  0.00     0.042 C 
BRANCH   8  10
HETATM   10  O   UNL     1      -4.844   3.207 -31.141  1.00  0.00    -0.345 OA
BRANCH  10  11
HETATM   11  C   UNL     1      -3.958   4.090 -31.693  1.00  0.00     0.069 A 
HETATM   12  C   UNL     1      -2.692   3.790 -32.199  1.00  0.00     0.038 A 
HETATM   13  C   UNL     1      -1.883   4.805 -32.725  1.00  0.00     0.026 A 
HETATM   14  C   UNL     1      -2.342   6.121 -32.747  1.00  0.00     0.034 A 
HETATM   15 CL   UNL     1      -1.345   7.363 -33.394  1.00  0.00    -0.084 Cl
HETATM   16  C   UNL     1      -3.601   6.431 -32.244  1.00  0.00     0.026 A 
HETATM   17  C   UNL     1      -4.403   5.416 -31.717  1.00  0.00     0.038 A 
ENDBRANCH  10  11
ENDBRANCH   8  10
ENDBRANCH   7   8
ENDBRANCH   3   7
BRANCH   1  18
HETATM   18  C   UNL     1      -4.346  -1.766 -33.213  1.00  0.00     0.059 A 
HETATM   19  C   UNL     1      -4.733  -2.809 -34.066  1.00  0.00    -0.032 A 
HETATM   20  C   UNL     1      -5.756  -2.688 -35.159  1.00  0.00     0.050 C 
HETATM   21  C   UNL     1      -4.147  -4.075 -33.877  1.00  0.00     0.028 A 
HETATM   22  C   UNL     1      -3.266  -4.272 -32.825  1.00  0.00     0.117 A 
HETATM   23  N   UNL     1      -2.930  -3.312 -31.947  1.00  0.00    -0.271 NA
HETATM   24  C   UNL     1      -3.478  -2.092 -32.164  1.00  0.00     0.146 A 
ENDBRANCH   1  18
TORSDOF 5
ENDMDL
MODEL 8
REMARK VINA RESULT:      -6.7      4.803      6.820
REMARK  5 active torsions:
REMARK  status: ('A' for Active; 'I' for Inactive)
REMARK    1  A    between atoms: C_3  and  N_4 
REMARK       I    between atoms: N_4  and  C_5 
REMARK       I    between atoms: C_5  and  N_6 
REMARK    2  A    between atoms: N_6  and  C_7 
REMARK    3  A    between atoms: C_7  and  C_8 
REMARK    4  A    between atoms: C_8  and  O_9 
REMARK    5  A    between atoms: O_9  and  C_10 
ROOT
HETATM    1  N   UNL     1      -6.772  -0.020 -31.536  1.00  0.00    -0.307 N 
HETATM    2  C   UNL     1      -6.909   1.351 -31.570  1.00  0.00     0.320 C 
HETATM    3  N   UNL     1      -7.601   1.795 -30.463  1.00  0.00    -0.340 N 
HETATM    4  O   UNL     1      -6.449   2.111 -32.408  1.00  0.00    -0.247 OA
HETATM    5  H   UNL     1      -6.746  -0.375 -30.590  1.00  0.00     0.170 HD
HETATM    6  H   UNL     1      -8.254   1.151 -30.037  1.00  0.00     0.164 HD
ENDROOT
BRANCH   3   7
HETATM    7  C   UNL     1      -7.856   3.211 -30.248  1.00  0.00     0.156 C 
BRANCH   7   8
HETATM    8  C   UNL     1      -9.285   3.647 -30.624  1.00  0.00     0.142 C 
HETATM    9  C   UNL     1      -9.598   5.073 -30.177  1.00  0.00     0.042 C 
BRANCH   8  10
HETATM   10  O   UNL     1      -9.451   3.610 -32.052  1.00  0.00    -0.345 OA
BRANCH  10  11
HETATM   11  C   UNL     1     -10.403   2.789 -32.590  1.00  0.00     0.069 A 
HETATM   12  C   UNL     1     -10.208   1.491 -33.065  1.00  0.00     0.038 A 
HETATM   13  C   UNL     1     -11.279   0.769 -33.605  1.00  0.00     0.026 A 
HETATM   14  C   UNL     1     -12.546   1.345 -33.669  1.00  0.00     0.034 A 
HETATM   15 CL   UNL     1     -13.858   0.454 -34.335  1.00  0.00    -0.084 Cl
HETATM   16  C   UNL     1     -12.751   2.639 -33.202  1.00  0.00     0.026 A 
HETATM   17  C   UNL     1     -11.679   3.357 -32.665  1.00  0.00     0.038 A 
ENDBRANCH  10  11
ENDBRANCH   8  10
ENDBRANCH   7   8
ENDBRANCH   3   7
BRANCH   1  18
HETATM   18  C   UNL     1      -6.123  -0.814 -32.511  1.00  0.00     0.059 A 
HETATM   19  C   UNL     1      -4.761  -1.149 -32.533  1.00  0.00    -0.032 A 
HETATM   20  C   UNL     1      -3.737  -0.634 -31.564  1.00  0.00     0.050 C 
HETATM   21  C   UNL     1      -4.304  -2.005 -33.552  1.00  0.00     0.028 A 
HETATM   22  C   UNL     1      -5.185  -2.437 -34.532  1.00  0.00     0.117 A 
HETATM   23  N   UNL     1      -6.479  -2.077 -34.578  1.00  0.00    -0.271 NA
HETATM   24  C   UNL     1      -6.909  -1.279 -33.572  1.00  0.00     0.146 A 
ENDBRANCH   1  18
TORSDOF 5
ENDMDL
MODEL 9
REMARK VINA RESULT:      -6.6      2.350      3.081
REMARK  5 active torsions:
REMARK  status: ('A' for Active; 'I' for Inactive)
REMARK    1  A    between atoms: C_3  and  N_4 
REMARK       I    between atoms: N_4  and  C_5 
REMARK       I    between atoms: C_5  and  N_6 
REMARK    2  A    between atoms: N_6  and  C_7 
REMARK    3  A    between atoms: C_7  and  C_8 
REMARK    4  A    between atoms: C_8  and  O_9 
REMARK    5  A    between atoms: O_9  and  C_10 
ROOT
HETATM    1  N   UNL     1      -2.286   3.972 -31.969  1.00  0.00    -0.307 N 
HETATM    2  C   UNL     1      -3.479   3.297 -32.107  1.00  0.00     0.320 C 
HETATM    3  N   UNL     1      -3.331   1.975 -31.747  1.00  0.00    -0.340 N 
HETATM    4  O   UNL     1      -4.554   3.773 -32.438  1.00  0.00    -0.247 OA
HETATM    5  H   UNL     1      -1.709   3.576 -31.239  1.00  0.00     0.170 HD
HETATM    6  H   UNL     1      -2.412   1.567 -31.853  1.00  0.00     0.164 HD
ENDROOT
BRANCH   3   7
HETATM    7  C   UNL     1      -4.455   1.051 -31.778  1.00  0.00     0.156 C 
BRANCH   7   8
HETATM    8  C   UNL     1      -4.215  -0.186 -32.664  1.00  0.00     0.142 C 
HETATM    9  C   UNL     1      -3.087  -1.071 -32.139  1.00  0.00     0.042 C 
BRANCH   8  10
HETATM   10  O   UNL     1      -5.400  -1.000 -32.705  1.00  0.00    -0.345 OA
BRANCH  10  11
HETATM   11  C   UNL     1      -6.551  -0.473 -33.221  1.00  0.00     0.069 A 
HETATM   12  C   UNL     1      -6.810  -0.198 -34.565  1.00  0.00     0.038 A 
HETATM   13  C   UNL     1      -8.036   0.357 -34.949  1.00  0.00     0.026 A 
HETATM   14  C   UNL     1      -9.007   0.636 -33.988  1.00  0.00     0.034 A 
HETATM   15 CL   UNL     1     -10.512   1.318 -34.465  1.00  0.00    -0.084 Cl
HETATM   16  C   UNL     1      -8.759   0.367 -32.646  1.00  0.00     0.026 A 
HETATM   17  C   UNL     1      -7.533  -0.184 -32.267  1.00  0.00     0.038 A 
ENDBRANCH  10  11
ENDBRANCH   8  10
ENDBRANCH   7   8
ENDBRANCH   3   7
BRANCH   1  18
HETATM   18  C   UNL     1      -2.068   5.341 -32.253  1.00  0.00     0.059 A 
HETATM   19  C   UNL     1      -1.856   5.899 -33.522  1.00  0.00    -0.032 A 
HETATM   20  C   UNL     1      -1.734   5.111 -34.795  1.00  0.00     0.050 C 
HETATM   21  C   UNL     1      -1.718   7.296 -33.619  1.00  0.00     0.028 A 
HETATM   22  C   UNL     1      -1.727   8.068 -32.468  1.00  0.00     0.117 A 
HETATM   23  N   UNL     1      -1.856   7.557 -31.231  1.00  0.00    -0.271 NA
HETATM   24  C   UNL     1      -2.021   6.214 -31.159  1.00  0.00     0.146 A 
ENDBRANCH   1  18
TORSDOF 5
ENDMDL
MODEL 10
REMARK VINA RESULT:      -6.5      4.194      6.503
REMARK  5 active torsions:
REMARK  status: ('A' for Active; 'I' for Inactive)
REMARK    1  A    between atoms: C_3  and  N_4 
REMARK       I    between atoms: N_4  and  C_5 
REMARK       I    between atoms: C_5  and  N_6 
REMARK    2  A    between atoms: N_6  and  C_7 
REMARK    3  A    between atoms: C_7  and  C_8 
REMARK    4  A    between atoms: C_8  and  O_9 
REMARK    5  A    between atoms: O_9  and  C_10 
ROOT
HETATM    1  N   UNL     1      -9.025   2.556 -34.040  1.00  0.00    -0.307 N 
HETATM    2  C   UNL     1      -8.444   2.309 -32.816  1.00  0.00     0.320 C 
HETATM    3  N   UNL     1      -7.070   2.372 -32.911  1.00  0.00    -0.340 N 
HETATM    4  O   UNL     1      -9.023   2.118 -31.757  1.00  0.00    -0.247 OA
HETATM    5  H   UNL     1      -8.458   3.166 -34.613  1.00  0.00     0.170 HD
HETATM    6  H   UNL     1      -6.658   2.156 -33.808  1.00  0.00     0.164 HD
ENDROOT
BRANCH   3   7
HETATM    7  C   UNL     1      -6.221   2.176 -31.746  1.00  0.00     0.156 C 
BRANCH   7   8
HETATM    8  C   UNL     1      -5.403   0.871 -31.790  1.00  0.00     0.142 C 
HETATM    9  C   UNL     1      -6.191  -0.331 -31.272  1.00  0.00     0.042 C 
BRANCH   8  10
HETATM   10  O   UNL     1      -5.024   0.572 -33.144  1.00  0.00    -0.345 OA
BRANCH  10  11
HETATM   11  C   UNL     1      -5.395  -0.625 -33.690  1.00  0.00     0.069 A 
HETATM   12  C   UNL     1      -6.663  -0.964 -34.167  1.00  0.00     0.038 A 
HETATM   13  C   UNL     1      -6.902  -2.240 -34.690  1.00  0.00     0.026 A 
HETATM   14  C   UNL     1      -5.873  -3.179 -34.738  1.00  0.00     0.034 A 
HETATM   15 CL   UNL     1      -6.173  -4.745 -35.381  1.00  0.00    -0.084 Cl
HETATM   16  C   UNL     1      -4.607  -2.853 -34.262  1.00  0.00     0.026 A 
HETATM   17  C   UNL     1      -4.373  -1.579 -33.739  1.00  0.00     0.038 A 
ENDBRANCH  10  11
ENDBRANCH   8  10
ENDBRANCH   7   8
ENDBRANCH   3   7
BRANCH   1  18
HETATM   18  C   UNL     1     -10.413   2.566 -34.315  1.00  0.00     0.059 A 
HETATM   19  C   UNL     1     -11.175   3.683 -34.685  1.00  0.00    -0.032 A 
HETATM   20  C   UNL     1     -10.653   5.089 -34.761  1.00  0.00     0.050 C 
HETATM   21  C   UNL     1     -12.538   3.490 -34.980  1.00  0.00     0.028 A 
HETATM   22  C   UNL     1     -13.099   2.231 -34.836  1.00  0.00     0.117 A 
HETATM   23  N   UNL     1     -12.412   1.155 -34.416  1.00  0.00    -0.271 NA
HETATM   24  C   UNL     1     -11.095   1.352 -34.167  1.00  0.00     0.146 A 
ENDBRANCH   1  18
TORSDOF 5
ENDMDL
