MODEL 1
REMARK VINA RESULT:      -8.5      0.000      0.000
REMARK  5 active torsions:
REMARK  status: ('A' for Active; 'I' for Inactive)
REMARK    1  A    between atoms: C_5  and  N_6 
REMARK       I    between atoms: N_6  and  C_7 
REMARK    2  A    between atoms: C_7  and  C_8 
REMARK    3  A    between atoms: C_9  and  C_10 
REMARK    4  A    between atoms: C_13  and  O_14 
REMARK    5  A    between atoms: N_20  and  C_21 
ROOT
HETATM    1  C   UNL     1      -6.758   2.164 -32.824  1.00  0.00     0.060 C 
HETATM    2  C   UNL     1      -5.569   2.687 -32.081  1.00  0.00     0.158 C 
HETATM    3  N   UNL     1      -6.009   3.418 -30.915  1.00  0.00    -0.354 N 
HETATM    4  C   UNL     1      -7.208   4.064 -30.793  1.00  0.00     0.179 C 
HETATM    5  S   UNL     1      -7.324   5.120 -29.490  1.00  0.00    -0.040 SA
HETATM    6  N   UNL     1      -8.210   3.716 -31.728  1.00  0.00    -0.292 N 
HETATM    7  C   UNL     1      -7.986   2.715 -32.704  1.00  0.00     0.030 C 
HETATM    8  C   UNL     1      -9.114   2.383 -33.661  1.00  0.00     0.070 C 
HETATM    9  H   UNL     1      -5.291   3.734 -30.275  1.00  0.00     0.163 HD
ENDROOT
BRANCH   1  10
HETATM   10  C   UNL     1      -6.447   1.024 -33.743  1.00  0.00     0.257 C 
HETATM   11  N   UNL     1      -6.018  -0.104 -33.079  1.00  0.00    -0.306 N 
HETATM   12  H   UNL     1      -5.914  -0.082 -32.076  1.00  0.00     0.170 HD
HETATM   13  O   UNL     1      -6.526   1.181 -34.953  1.00  0.00    -0.267 OA
BRANCH  11  14
HETATM   14  C   UNL     1      -5.797  -1.323 -33.693  1.00  0.00     0.160 A 
HETATM   15  N   UNL     1      -4.605  -1.848 -33.989  1.00  0.00    -0.110 NA
HETATM   16  O   UNL     1      -4.852  -3.041 -34.634  1.00  0.00    -0.216 OA
HETATM   17  C   UNL     1      -6.192  -3.231 -34.733  1.00  0.00     0.078 A 
HETATM   18  C   UNL     1      -6.628  -4.451 -35.435  1.00  0.00     0.079 C 
HETATM   19  C   UNL     1      -6.837  -2.179 -34.132  1.00  0.00     0.087 A 
ENDBRANCH  11  14
ENDBRANCH   1  10
BRANCH   2  20
HETATM   20  C   UNL     1      -4.635   3.554 -32.915  1.00  0.00    -0.031 A 
HETATM   21  C   UNL     1      -5.112   4.369 -33.959  1.00  0.00     0.012 A 
HETATM   22  C   UNL     1      -4.231   5.118 -34.743  1.00  0.00     0.037 A 
HETATM   23  C   UNL     1      -2.866   5.063 -34.482  1.00  0.00     0.065 A 
HETATM   24  C   UNL     1      -2.372   4.285 -33.444  1.00  0.00     0.037 A 
HETATM   25  C   UNL     1      -3.253   3.532 -32.664  1.00  0.00     0.012 A 
BRANCH  23  26
HETATM   26  O   UNL     1      -1.971   5.761 -35.236  1.00  0.00    -0.361 OA
HETATM   27  H   UNL     1      -2.007   6.694 -34.970  1.00  0.00     0.217 HD
ENDBRANCH  23  26
ENDBRANCH   2  20
BRANCH   6  28
HETATM   28  C   UNL     1      -9.504   4.322 -31.596  1.00  0.00     0.042 A 
HETATM   29  C   UNL     1      -9.803   5.497 -32.297  1.00  0.00     0.030 A 
HETATM   30  C   UNL     1     -11.072   6.068 -32.194  1.00  0.00     0.002 A 
HETATM   31  C   UNL     1     -12.044   5.470 -31.391  1.00  0.00     0.000 A 
HETATM   32  C   UNL     1     -11.749   4.303 -30.686  1.00  0.00     0.002 A 
HETATM   33  C   UNL     1     -10.482   3.728 -30.789  1.00  0.00     0.030 A 
ENDBRANCH   6  28
TORSDOF 5
ENDMDL
MODEL 2
REMARK VINA RESULT:      -8.1      4.054      7.694
REMARK  5 active torsions:
REMARK  status: ('A' for Active; 'I' for Inactive)
REMARK    1  A    between atoms: C_5  and  N_6 
REMARK       I    between atoms: N_6  and  C_7 
REMARK    2  A    between atoms: C_7  and  C_8 
REMARK    3  A    between atoms: C_9  and  C_10 
REMARK    4  A    between atoms: C_13  and  O_14 
REMARK    5  A    between atoms: N_20  and  C_21 
ROOT
HETATM    1  C   UNL     1     -10.534   2.523 -33.823  1.00  0.00     0.060 C 
HETATM    2  C   UNL     1     -10.158   3.969 -33.912  1.00  0.00     0.158 C 
HETATM    3  N   UNL     1      -8.736   4.087 -34.138  1.00  0.00    -0.354 N 
HETATM    4  C   UNL     1      -7.794   3.177 -33.745  1.00  0.00     0.179 C 
HETATM    5  S   UNL     1      -6.203   3.714 -33.815  1.00  0.00    -0.040 SA
HETATM    6  N   UNL     1      -8.268   1.891 -33.395  1.00  0.00    -0.292 N 
HETATM    7  C   UNL     1      -9.641   1.562 -33.499  1.00  0.00     0.030 C 
HETATM    8  C   UNL     1     -10.071   0.157 -33.125  1.00  0.00     0.070 C 
HETATM    9  H   UNL     1      -8.376   5.016 -34.318  1.00  0.00     0.163 HD
ENDROOT
BRANCH   1  10
HETATM   10  C   UNL     1     -11.986   2.257 -34.067  1.00  0.00     0.257 C 
HETATM   11  N   UNL     1     -12.717   2.141 -32.905  1.00  0.00    -0.306 N 
HETATM   12  H   UNL     1     -12.249   2.206 -32.013  1.00  0.00     0.170 HD
HETATM   13  O   UNL     1     -12.392   2.104 -35.209  1.00  0.00    -0.267 OA
BRANCH  11  14
HETATM   14  C   UNL     1     -14.095   2.028 -32.867  1.00  0.00     0.160 A 
HETATM   15  N   UNL     1     -14.841   1.267 -33.672  1.00  0.00    -0.110 NA
HETATM   16  O   UNL     1     -16.155   1.496 -33.320  1.00  0.00    -0.216 OA
HETATM   17  C   UNL     1     -16.200   2.400 -32.310  1.00  0.00     0.078 A 
HETATM   18  C   UNL     1     -17.541   2.786 -31.839  1.00  0.00     0.079 C 
HETATM   19  C   UNL     1     -14.917   2.754 -31.971  1.00  0.00     0.087 A 
ENDBRANCH  11  14
ENDBRANCH   1  10
BRANCH   2  20
HETATM   20  C   UNL     1     -10.561   4.802 -32.702  1.00  0.00    -0.031 A 
HETATM   21  C   UNL     1     -11.618   5.730 -32.757  1.00  0.00     0.012 A 
HETATM   22  C   UNL     1     -11.938   6.519 -31.649  1.00  0.00     0.037 A 
HETATM   23  C   UNL     1     -11.207   6.377 -30.474  1.00  0.00     0.065 A 
HETATM   24  C   UNL     1     -10.176   5.453 -30.386  1.00  0.00     0.037 A 
HETATM   25  C   UNL     1      -9.852   4.669 -31.496  1.00  0.00     0.012 A 
BRANCH  23  26
HETATM   26  O   UNL     1     -11.472   7.141 -29.377  1.00  0.00    -0.361 OA
HETATM   27  H   UNL     1     -10.658   7.602 -29.121  1.00  0.00     0.217 HD
ENDBRANCH  23  26
ENDBRANCH   2  20
BRANCH   6  28
HETATM   28  C   UNL     1      -7.308   0.886 -33.039  1.00  0.00     0.042 A 
HETATM   29  C   UNL     1      -6.697   0.115 -34.036  1.00  0.00     0.030 A 
HETATM   30  C   UNL     1      -5.739  -0.840 -33.691  1.00  0.00     0.002 A 
HETATM   31  C   UNL     1      -5.390  -1.029 -32.353  1.00  0.00     0.000 A 
HETATM   32  C   UNL     1      -6.000  -0.267 -31.356  1.00  0.00     0.002 A 
HETATM   33  C   UNL     1      -6.956   0.690 -31.698  1.00  0.00     0.030 A 
ENDBRANCH   6  28
TORSDOF 5
ENDMDL
MODEL 3
REMARK VINA RESULT:      -8.0      2.132      2.527
REMARK  5 active torsions:
REMARK  status: ('A' for Active; 'I' for Inactive)
REMARK    1  A    between atoms: C_5  and  N_6 
REMARK       I    between atoms: N_6  and  C_7 
REMARK    2  A    between atoms: C_7  and  C_8 
REMARK    3  A    between atoms: C_9  and  C_10 
REMARK    4  A    between atoms: C_13  and  O_14 
REMARK    5  A    between atoms: N_20  and  C_21 
ROOT
HETATM    1  C   UNL     1      -7.339   1.564 -31.878  1.00  0.00     0.060 C 
HETATM    2  C   UNL     1      -6.697   2.710 -31.163  1.00  0.00     0.158 C 
HETATM    3  N   UNL     1      -7.661   3.772 -30.986  1.00  0.00    -0.354 N 
HETATM    4  C   UNL     1      -8.733   4.011 -31.800  1.00  0.00     0.179 C 
HETATM    5  S   UNL     1      -9.483   5.499 -31.580  1.00  0.00    -0.040 SA
HETATM    6  N   UNL     1      -9.111   2.961 -32.669  1.00  0.00    -0.292 N 
HETATM    7  C   UNL     1      -8.437   1.716 -32.652  1.00  0.00     0.030 C 
HETATM    8  C   UNL     1      -8.911   0.632 -33.599  1.00  0.00     0.070 C 
HETATM    9  H   UNL     1      -7.373   4.563 -30.423  1.00  0.00     0.163 HD
ENDROOT
BRANCH   1  10
HETATM   10  C   UNL     1      -6.624   0.260 -31.703  1.00  0.00     0.257 C 
HETATM   11  N   UNL     1      -5.862  -0.089 -32.797  1.00  0.00    -0.306 N 
HETATM   12  H   UNL     1      -5.860   0.504 -33.612  1.00  0.00     0.170 HD
HETATM   13  O   UNL     1      -6.804  -0.400 -30.691  1.00  0.00    -0.267 OA
BRANCH  11  14
HETATM   14  C   UNL     1      -5.007  -1.176 -32.826  1.00  0.00     0.160 A 
HETATM   15  N   UNL     1      -3.925  -1.343 -32.062  1.00  0.00    -0.110 NA
HETATM   16  O   UNL     1      -3.346  -2.531 -32.458  1.00  0.00    -0.216 OA
HETATM   17  C   UNL     1      -4.075  -3.074 -33.464  1.00  0.00     0.078 A 
HETATM   18  C   UNL     1      -3.568  -4.336 -34.030  1.00  0.00     0.079 C 
HETATM   19  C   UNL     1      -5.153  -2.264 -33.722  1.00  0.00     0.087 A 
ENDBRANCH  11  14
ENDBRANCH   1  10
BRANCH   2  20
HETATM   20  C   UNL     1      -5.444   3.254 -31.839  1.00  0.00    -0.031 A 
HETATM   21  C   UNL     1      -5.505   3.971 -33.048  1.00  0.00     0.012 A 
HETATM   22  C   UNL     1      -4.339   4.417 -33.675  1.00  0.00     0.037 A 
HETATM   23  C   UNL     1      -3.104   4.156 -33.091  1.00  0.00     0.065 A 
HETATM   24  C   UNL     1      -3.019   3.470 -31.888  1.00  0.00     0.037 A 
HETATM   25  C   UNL     1      -4.184   3.019 -31.264  1.00  0.00     0.012 A 
BRANCH  23  26
HETATM   26  O   UNL     1      -1.942   4.555 -33.681  1.00  0.00    -0.361 OA
HETATM   27  H   UNL     1      -1.246   4.574 -33.004  1.00  0.00     0.217 HD
ENDBRANCH  23  26
ENDBRANCH   2  20
BRANCH   6  28
HETATM   28  C   UNL     1     -10.270   3.146 -33.495  1.00  0.00     0.042 A 
HETATM   29  C   UNL     1     -11.530   2.746 -33.034  1.00  0.00     0.030 A 
HETATM   30  C   UNL     1     -12.661   2.955 -33.824  1.00  0.00     0.002 A 
HETATM   31  C   UNL     1     -12.537   3.562 -35.075  1.00  0.00     0.000 A 
HETATM   32  C   UNL     1     -11.284   3.957 -35.540  1.00  0.00     0.002 A 
HETATM   33  C   UNL     1     -10.151   3.751 -34.752  1.00  0.00     0.030 A 
ENDBRANCH   6  28
TORSDOF 5
ENDMDL
MODEL 4
REMARK VINA RESULT:      -8.0      2.640      5.350
REMARK  5 active torsions:
REMARK  status: ('A' for Active; 'I' for Inactive)
REMARK    1  A    between atoms: C_5  and  N_6 
REMARK       I    between atoms: N_6  and  C_7 
REMARK    2  A    between atoms: C_7  and  C_8 
REMARK    3  A    between atoms: C_9  and  C_10 
REMARK    4  A    between atoms: C_13  and  O_14 
REMARK    5  A    between atoms: N_20  and  C_21 
ROOT
HETATM    1  C   UNL     1      -7.805   2.035 -33.854  1.00  0.00     0.060 C 
HETATM    2  C   UNL     1      -9.116   2.435 -34.453  1.00  0.00     0.158 C 
HETATM    3  N   UNL     1      -9.418   3.801 -34.090  1.00  0.00    -0.354 N 
HETATM    4  C   UNL     1      -8.981   4.434 -32.960  1.00  0.00     0.179 C 
HETATM    5  S   UNL     1      -9.753   5.884 -32.606  1.00  0.00    -0.040 SA
HETATM    6  N   UNL     1      -7.901   3.829 -32.276  1.00  0.00    -0.292 N 
HETATM    7  C   UNL     1      -7.283   2.657 -32.773  1.00  0.00     0.030 C 
HETATM    8  C   UNL     1      -6.118   2.076 -31.995  1.00  0.00     0.070 C 
HETATM    9  H   UNL     1     -10.233   4.221 -34.522  1.00  0.00     0.163 HD
ENDROOT
BRANCH   1  10
HETATM   10  C   UNL     1      -7.165   0.859 -34.523  1.00  0.00     0.257 C 
HETATM   11  N   UNL     1      -6.708  -0.087 -33.632  1.00  0.00    -0.306 N 
HETATM   12  H   UNL     1      -6.798   0.078 -32.641  1.00  0.00     0.170 HD
HETATM   13  O   UNL     1      -7.038   0.847 -35.739  1.00  0.00    -0.267 OA
BRANCH  11  14
HETATM   14  C   UNL     1      -6.201  -1.318 -34.006  1.00  0.00     0.160 A 
HETATM   15  N   UNL     1      -4.915  -1.676 -33.985  1.00  0.00    -0.110 NA
HETATM   16  O   UNL     1      -4.857  -2.960 -34.485  1.00  0.00    -0.216 OA
HETATM   17  C   UNL     1      -6.107  -3.372 -34.813  1.00  0.00     0.078 A 
HETATM   18  C   UNL     1      -6.217  -4.719 -35.400  1.00  0.00     0.079 C 
HETATM   19  C   UNL     1      -7.000  -2.375 -34.509  1.00  0.00     0.087 A 
ENDBRANCH  11  14
ENDBRANCH   1  10
BRANCH   2  20
HETATM   20  C   UNL     1     -10.283   1.530 -34.081  1.00  0.00    -0.031 A 
HETATM   21  C   UNL     1     -10.123   0.428 -33.220  1.00  0.00     0.012 A 
HETATM   22  C   UNL     1     -11.197  -0.418 -32.932  1.00  0.00     0.037 A 
HETATM   23  C   UNL     1     -12.441  -0.161 -33.497  1.00  0.00     0.065 A 
HETATM   24  C   UNL     1     -12.631   0.932 -34.331  1.00  0.00     0.037 A 
HETATM   25  C   UNL     1     -11.556   1.774 -34.623  1.00  0.00     0.012 A 
BRANCH  23  26
HETATM   26  O   UNL     1     -13.510  -0.973 -33.259  1.00  0.00    -0.361 OA
HETATM   27  H   UNL     1     -13.192  -1.774 -32.812  1.00  0.00     0.217 HD
ENDBRANCH  23  26
ENDBRANCH   2  20
BRANCH   6  28
HETATM   28  C   UNL     1      -7.369   4.494 -31.121  1.00  0.00     0.042 A 
HETATM   29  C   UNL     1      -6.321   5.412 -31.261  1.00  0.00     0.030 A 
HETATM   30  C   UNL     1      -5.826   6.083 -30.142  1.00  0.00     0.002 A 
HETATM   31  C   UNL     1      -6.373   5.838 -28.882  1.00  0.00     0.000 A 
HETATM   32  C   UNL     1      -7.414   4.921 -28.736  1.00  0.00     0.002 A 
HETATM   33  C   UNL     1      -7.913   4.250 -29.854  1.00  0.00     0.030 A 
ENDBRANCH   6  28
TORSDOF 5
ENDMDL
MODEL 5
REMARK VINA RESULT:      -7.8      2.963      5.951
REMARK  5 active torsions:
REMARK  status: ('A' for Active; 'I' for Inactive)
REMARK    1  A    between atoms: C_5  and  N_6 
REMARK       I    between atoms: N_6  and  C_7 
REMARK    2  A    between atoms: C_7  and  C_8 
REMARK    3  A    between atoms: C_9  and  C_10 
REMARK    4  A    between atoms: C_13  and  O_14 
REMARK    5  A    between atoms: N_20  and  C_21 
ROOT
HETATM    1  C   UNL     1      -8.260   1.697 -32.983  1.00  0.00     0.060 C 
HETATM    2  C   UNL     1      -7.749   0.527 -32.202  1.00  0.00     0.158 C 
HETATM    3  N   UNL     1      -6.990   0.998 -31.066  1.00  0.00    -0.354 N 
HETATM    4  C   UNL     1      -6.320   2.188 -31.000  1.00  0.00     0.179 C 
HETATM    5  S   UNL     1      -5.241   2.334 -29.720  1.00  0.00    -0.040 SA
HETATM    6  N   UNL     1      -6.663   3.159 -31.969  1.00  0.00    -0.292 N 
HETATM    7  C   UNL     1      -7.684   2.918 -32.920  1.00  0.00     0.030 C 
HETATM    8  C   UNL     1      -8.010   4.014 -33.915  1.00  0.00     0.070 C 
HETATM    9  H   UNL     1      -6.678   0.300 -30.403  1.00  0.00     0.163 HD
ENDROOT
BRANCH   1  10
HETATM   10  C   UNL     1      -9.421   1.373 -33.872  1.00  0.00     0.257 C 
HETATM   11  N   UNL     1     -10.640   1.625 -33.281  1.00  0.00    -0.306 N 
HETATM   12  H   UNL     1     -10.674   1.961 -32.331  1.00  0.00     0.170 HD
HETATM   13  O   UNL     1      -9.224   0.875 -34.970  1.00  0.00    -0.267 OA
BRANCH  11  14
HETATM   14  C   UNL     1     -11.851   1.533 -33.943  1.00  0.00     0.160 A 
HETATM   15  N   UNL     1     -12.176   2.163 -35.075  1.00  0.00    -0.110 NA
HETATM   16  O   UNL     1     -13.486   1.828 -35.347  1.00  0.00    -0.216 OA
HETATM   17  C   UNL     1     -13.951   1.004 -34.376  1.00  0.00     0.078 A 
HETATM   18  C   UNL     1     -15.357   0.580 -34.498  1.00  0.00     0.079 C 
HETATM   19  C   UNL     1     -12.946   0.768 -33.471  1.00  0.00     0.087 A 
ENDBRANCH  11  14
ENDBRANCH   1  10
BRANCH   2  20
HETATM   20  C   UNL     1      -6.914  -0.455 -33.012  1.00  0.00    -0.031 A 
HETATM   21  C   UNL     1      -7.504  -1.484 -33.770  1.00  0.00     0.012 A 
HETATM   22  C   UNL     1      -6.715  -2.405 -34.465  1.00  0.00     0.037 A 
HETATM   23  C   UNL     1      -5.330  -2.295 -34.414  1.00  0.00     0.065 A 
HETATM   24  C   UNL     1      -4.724  -1.277 -33.693  1.00  0.00     0.037 A 
HETATM   25  C   UNL     1      -5.512  -0.360 -32.993  1.00  0.00     0.012 A 
BRANCH  23  26
HETATM   26  O   UNL     1      -4.524  -3.185 -35.060  1.00  0.00    -0.361 OA
HETATM   27  H   UNL     1      -3.771  -3.391 -34.483  1.00  0.00     0.217 HD
ENDBRANCH  23  26
ENDBRANCH   2  20
BRANCH   6  28
HETATM   28  C   UNL     1      -6.030   4.445 -31.897  1.00  0.00     0.042 A 
HETATM   29  C   UNL     1      -6.546   5.434 -31.050  1.00  0.00     0.030 A 
HETATM   30  C   UNL     1      -5.910   6.673 -30.957  1.00  0.00     0.002 A 
HETATM   31  C   UNL     1      -4.762   6.929 -31.708  1.00  0.00     0.000 A 
HETATM   32  C   UNL     1      -4.248   5.949 -32.557  1.00  0.00     0.002 A 
HETATM   33  C   UNL     1      -4.880   4.708 -32.651  1.00  0.00     0.030 A 
ENDBRANCH   6  28
TORSDOF 5
ENDMDL
MODEL 6
REMARK VINA RESULT:      -7.6      1.923      2.291
REMARK  5 active torsions:
REMARK  status: ('A' for Active; 'I' for Inactive)
REMARK    1  A    between atoms: C_5  and  N_6 
REMARK       I    between atoms: N_6  and  C_7 
REMARK    2  A    between atoms: C_7  and  C_8 
REMARK    3  A    between atoms: C_9  and  C_10 
REMARK    4  A    between atoms: C_13  and  O_14 
REMARK    5  A    between atoms: N_20  and  C_21 
ROOT
HETATM    1  C   UNL     1      -5.277   2.142 -32.374  1.00  0.00     0.060 C 
HETATM    2  C   UNL     1      -4.637   3.257 -31.608  1.00  0.00     0.158 C 
HETATM    3  N   UNL     1      -5.661   4.097 -31.030  1.00  0.00    -0.354 N 
HETATM    4  C   UNL     1      -6.919   4.272 -31.535  1.00  0.00     0.179 C 
HETATM    5  S   UNL     1      -7.783   5.556 -30.881  1.00  0.00    -0.040 SA
HETATM    6  N   UNL     1      -7.355   3.320 -32.486  1.00  0.00    -0.292 N 
HETATM    7  C   UNL     1      -6.539   2.222 -32.850  1.00  0.00     0.030 C 
HETATM    8  C   UNL     1      -7.081   1.232 -33.863  1.00  0.00     0.070 C 
HETATM    9  H   UNL     1      -5.352   4.829 -30.402  1.00  0.00     0.163 HD
ENDROOT
BRANCH   1  10
HETATM   10  C   UNL     1      -4.375   0.970 -32.607  1.00  0.00     0.257 C 
HETATM   11  N   UNL     1      -4.897  -0.215 -32.135  1.00  0.00    -0.306 N 
HETATM   12  H   UNL     1      -5.787  -0.214 -31.660  1.00  0.00     0.170 HD
HETATM   13  O   UNL     1      -3.275   1.140 -33.110  1.00  0.00    -0.267 OA
BRANCH  11  14
HETATM   14  C   UNL     1      -4.317  -1.452 -32.347  1.00  0.00     0.160 A 
HETATM   15  N   UNL     1      -3.341  -1.997 -31.617  1.00  0.00    -0.110 NA
HETATM   16  O   UNL     1      -3.035  -3.204 -32.210  1.00  0.00    -0.216 OA
HETATM   17  C   UNL     1      -3.821  -3.383 -33.300  1.00  0.00     0.078 A 
HETATM   18  C   UNL     1      -3.594  -4.615 -34.074  1.00  0.00     0.079 C 
HETATM   19  C   UNL     1      -4.668  -2.309 -33.420  1.00  0.00     0.087 A 
ENDBRANCH  11  14
ENDBRANCH   1  10
BRANCH   2  20
HETATM   20  C   UNL     1      -3.667   4.105 -32.420  1.00  0.00    -0.031 A 
HETATM   21  C   UNL     1      -4.025   4.657 -33.665  1.00  0.00     0.012 A 
HETATM   22  C   UNL     1      -3.103   5.390 -34.415  1.00  0.00     0.037 A 
HETATM   23  C   UNL     1      -1.817   5.584 -33.921  1.00  0.00     0.065 A 
HETATM   24  C   UNL     1      -1.446   5.069 -32.687  1.00  0.00     0.037 A 
HETATM   25  C   UNL     1      -2.367   4.332 -31.939  1.00  0.00     0.012 A 
BRANCH  23  26
HETATM   26  O   UNL     1      -0.881   6.275 -34.630  1.00  0.00    -0.361 OA
HETATM   27  H   UNL     1      -1.203   6.381 -35.540  1.00  0.00     0.217 HD
ENDBRANCH  23  26
ENDBRANCH   2  20
BRANCH   6  28
HETATM   28  C   UNL     1      -8.692   3.428 -32.994  1.00  0.00     0.042 A 
HETATM   29  C   UNL     1      -9.742   2.759 -32.353  1.00  0.00     0.030 A 
HETATM   30  C   UNL     1     -11.048   2.891 -32.828  1.00  0.00     0.002 A 
HETATM   31  C   UNL     1     -11.308   3.689 -33.943  1.00  0.00     0.000 A 
HETATM   32  C   UNL     1     -10.265   4.353 -34.588  1.00  0.00     0.002 A 
HETATM   33  C   UNL     1      -8.959   4.225 -34.114  1.00  0.00     0.030 A 
ENDBRANCH   6  28
TORSDOF 5
ENDMDL
MODEL 7
REMARK VINA RESULT:      -7.6      2.331      2.837
REMARK  5 active torsions:
REMARK  status: ('A' for Active; 'I' for Inactive)
REMARK    1  A    between atoms: C_5  and  N_6 
REMARK       I    between atoms: N_6  and  C_7 
REMARK    2  A    between atoms: C_7  and  C_8 
REMARK    3  A    between atoms: C_9  and  C_10 
REMARK    4  A    between atoms: C_13  and  O_14 
REMARK    5  A    between atoms: N_20  and  C_21 
ROOT
HETATM    1  C   UNL     1      -7.050   1.764 -32.546  1.00  0.00     0.060 C 
HETATM    2  C   UNL     1      -6.947   2.680 -31.368  1.00  0.00     0.158 C 
HETATM    3  N   UNL     1      -8.271   3.089 -30.955  1.00  0.00    -0.354 N 
HETATM    4  C   UNL     1      -9.363   3.175 -31.773  1.00  0.00     0.179 C 
HETATM    5  S   UNL     1     -10.677   4.003 -31.130  1.00  0.00    -0.040 SA
HETATM    6  N   UNL     1      -9.274   2.507 -33.016  1.00  0.00    -0.292 N 
HETATM    7  C   UNL     1      -8.127   1.752 -33.362  1.00  0.00     0.030 C 
HETATM    8  C   UNL     1      -8.112   1.048 -34.705  1.00  0.00     0.070 C 
HETATM    9  H   UNL     1      -8.338   3.630 -30.102  1.00  0.00     0.163 HD
ENDROOT
BRANCH   1  10
HETATM   10  C   UNL     1      -5.836   0.915 -32.763  1.00  0.00     0.257 C 
HETATM   11  N   UNL     1      -5.992  -0.376 -32.309  1.00  0.00    -0.306 N 
HETATM   12  H   UNL     1      -6.852  -0.645 -31.856  1.00  0.00     0.170 HD
HETATM   13  O   UNL     1      -4.825   1.411 -33.239  1.00  0.00    -0.267 OA
BRANCH  11  14
HETATM   14  C   UNL     1      -5.067  -1.383 -32.514  1.00  0.00     0.160 A 
HETATM   15  N   UNL     1      -3.924  -1.547 -31.842  1.00  0.00    -0.110 NA
HETATM   16  O   UNL     1      -3.291  -2.636 -32.404  1.00  0.00    -0.216 OA
HETATM   17  C   UNL     1      -4.049  -3.123 -33.418  1.00  0.00     0.078 A 
HETATM   18  C   UNL     1      -3.493  -4.272 -34.153  1.00  0.00     0.079 C 
HETATM   19  C   UNL     1      -5.197  -2.376 -33.516  1.00  0.00     0.087 A 
ENDBRANCH  11  14
ENDBRANCH   1  10
BRANCH   2  20
HETATM   20  C   UNL     1      -6.073   3.907 -31.597  1.00  0.00    -0.031 A 
HETATM   21  C   UNL     1      -6.201   4.706 -32.748  1.00  0.00     0.012 A 
HETATM   22  C   UNL     1      -5.355   5.797 -32.961  1.00  0.00     0.037 A 
HETATM   23  C   UNL     1      -4.381   6.102 -32.016  1.00  0.00     0.065 A 
HETATM   24  C   UNL     1      -4.249   5.344 -30.861  1.00  0.00     0.037 A 
HETATM   25  C   UNL     1      -5.092   4.250 -30.652  1.00  0.00     0.012 A 
BRANCH  23  26
HETATM   26  O   UNL     1      -3.522   7.145 -32.195  1.00  0.00    -0.361 OA
HETATM   27  H   UNL     1      -3.151   7.087 -33.090  1.00  0.00     0.217 HD
ENDBRANCH  23  26
ENDBRANCH   2  20
BRANCH   6  28
HETATM   28  C   UNL     1     -10.421   2.517 -33.877  1.00  0.00     0.042 A 
HETATM   29  C   UNL     1     -10.611   3.571 -34.781  1.00  0.00     0.030 A 
HETATM   30  C   UNL     1     -11.710   3.563 -35.641  1.00  0.00     0.002 A 
HETATM   31  C   UNL     1     -12.621   2.507 -35.601  1.00  0.00     0.000 A 
HETATM   32  C   UNL     1     -12.440   1.459 -34.700  1.00  0.00     0.002 A 
HETATM   33  C   UNL     1     -11.341   1.462 -33.839  1.00  0.00     0.030 A 
ENDBRANCH   6  28
TORSDOF 5
ENDMDL
MODEL 8
REMARK VINA RESULT:      -7.5     16.820     19.552
REMARK  5 active torsions:
REMARK  status: ('A' for Active; 'I' for Inactive)
REMARK    1  A    between atoms: C_5  and  N_6 
REMARK       I    between atoms: N_6  and  C_7 
REMARK    2  A    between atoms: C_7  and  C_8 
REMARK    3  A    between atoms: C_9  and  C_10 
REMARK    4  A    between atoms: C_13  and  O_14 
REMARK    5  A    between atoms: N_20  and  C_21 
ROOT
HETATM    1  C   UNL     1      -6.660 -14.674 -39.155  1.00  0.00     0.060 C 
HETATM    2  C   UNL     1      -8.069 -15.119 -39.388  1.00  0.00     0.158 C 
HETATM    3  N   UNL     1      -8.093 -16.127 -40.423  1.00  0.00    -0.354 N 
HETATM    4  C   UNL     1      -7.181 -16.244 -41.435  1.00  0.00     0.179 C 
HETATM    5  S   UNL     1      -7.630 -17.267 -42.691  1.00  0.00    -0.040 SA
HETATM    6  N   UNL     1      -5.962 -15.548 -41.268  1.00  0.00    -0.292 N 
HETATM    7  C   UNL     1      -5.693 -14.813 -40.088  1.00  0.00     0.030 C 
HETATM    8  C   UNL     1      -4.355 -14.109 -39.973  1.00  0.00     0.070 C 
HETATM    9  H   UNL     1      -8.981 -16.581 -40.599  1.00  0.00     0.163 HD
ENDROOT
BRANCH   1  10
HETATM   10  C   UNL     1      -6.442 -14.015 -37.828  1.00  0.00     0.257 C 
HETATM   11  N   UNL     1      -7.079 -14.663 -36.793  1.00  0.00    -0.306 N 
HETATM   12  H   UNL     1      -7.646 -15.474 -36.986  1.00  0.00     0.170 HD
HETATM   13  O   UNL     1      -5.808 -12.972 -37.764  1.00  0.00    -0.267 OA
BRANCH  11  14
HETATM   14  C   UNL     1      -6.924 -14.327 -35.460  1.00  0.00     0.160 A 
HETATM   15  N   UNL     1      -7.533 -13.321 -34.828  1.00  0.00    -0.110 NA
HETATM   16  O   UNL     1      -7.051 -13.320 -33.536  1.00  0.00    -0.216 OA
HETATM   17  C   UNL     1      -6.146 -14.320 -33.393  1.00  0.00     0.078 A 
HETATM   18  C   UNL     1      -5.503 -14.434 -32.072  1.00  0.00     0.079 C 
HETATM   19  C   UNL     1      -6.043 -15.003 -34.579  1.00  0.00     0.087 A 
ENDBRANCH  11  14
ENDBRANCH   1  10
BRANCH   2  20
HETATM   20  C   UNL     1      -9.037 -13.995 -39.735  1.00  0.00    -0.031 A 
HETATM   21  C   UNL     1     -10.410 -14.232 -39.933  1.00  0.00     0.012 A 
HETATM   22  C   UNL     1     -11.271 -13.195 -40.300  1.00  0.00     0.037 A 
HETATM   23  C   UNL     1     -10.763 -11.910 -40.462  1.00  0.00     0.065 A 
HETATM   24  C   UNL     1      -9.418 -11.646 -40.252  1.00  0.00     0.037 A 
HETATM   25  C   UNL     1      -8.556 -12.684 -39.890  1.00  0.00     0.012 A 
BRANCH  23  26
HETATM   26  O   UNL     1     -11.564 -10.873 -40.840  1.00  0.00    -0.361 OA
HETATM   27  H   UNL     1     -12.402 -11.238 -41.169  1.00  0.00     0.217 HD
ENDBRANCH  23  26
ENDBRANCH   2  20
BRANCH   6  28
HETATM   28  C   UNL     1      -4.951 -15.695 -42.276  1.00  0.00     0.042 A 
HETATM   29  C   UNL     1      -3.987 -16.704 -42.161  1.00  0.00     0.030 A 
HETATM   30  C   UNL     1      -3.024 -16.866 -43.158  1.00  0.00     0.002 A 
HETATM   31  C   UNL     1      -3.021 -16.023 -44.270  1.00  0.00     0.000 A 
HETATM   32  C   UNL     1      -3.976 -15.014 -44.387  1.00  0.00     0.002 A 
HETATM   33  C   UNL     1      -4.941 -14.849 -43.393  1.00  0.00     0.030 A 
ENDBRANCH   6  28
TORSDOF 5
ENDMDL
MODEL 9
REMARK VINA RESULT:      -7.4      3.312      5.104
REMARK  5 active torsions:
REMARK  status: ('A' for Active; 'I' for Inactive)
REMARK    1  A    between atoms: C_5  and  N_6 
REMARK       I    between atoms: N_6  and  C_7 
REMARK    2  A    between atoms: C_7  and  C_8 
REMARK    3  A    between atoms: C_9  and  C_10 
REMARK    4  A    between atoms: C_13  and  O_14 
REMARK    5  A    between atoms: N_20  and  C_21 
ROOT
HETATM    1  C   UNL     1      -6.300   1.546 -31.990  1.00  0.00     0.060 C 
HETATM    2  C   UNL     1      -6.971   1.874 -33.287  1.00  0.00     0.158 C 
HETATM    3  N   UNL     1      -6.881   3.295 -33.533  1.00  0.00    -0.354 N 
HETATM    4  C   UNL     1      -6.785   4.261 -32.569  1.00  0.00     0.179 C 
HETATM    5  S   UNL     1      -7.047   5.833 -33.101  1.00  0.00    -0.040 SA
HETATM    6  N   UNL     1      -6.416   3.825 -31.276  1.00  0.00    -0.292 N 
HETATM    7  C   UNL     1      -6.117   2.465 -31.017  1.00  0.00     0.030 C 
HETATM    8  C   UNL     1      -5.710   2.076 -29.609  1.00  0.00     0.070 C 
HETATM    9  H   UNL     1      -7.210   3.627 -34.432  1.00  0.00     0.163 HD
ENDROOT
BRANCH   1  10
HETATM   10  C   UNL     1      -5.910   0.107 -31.856  1.00  0.00     0.257 C 
HETATM   11  N   UNL     1      -4.982  -0.290 -32.793  1.00  0.00    -0.306 N 
HETATM   12  H   UNL     1      -4.666   0.365 -33.491  1.00  0.00     0.170 HD
HETATM   13  O   UNL     1      -6.456  -0.595 -31.017  1.00  0.00    -0.267 OA
BRANCH  11  14
HETATM   14  C   UNL     1      -4.368  -1.529 -32.794  1.00  0.00     0.160 A 
HETATM   15  N   UNL     1      -3.456  -1.954 -31.915  1.00  0.00    -0.110 NA
HETATM   16  O   UNL     1      -3.080  -3.217 -32.319  1.00  0.00    -0.216 OA
HETATM   17  C   UNL     1      -3.759  -3.551 -33.445  1.00  0.00     0.078 A 
HETATM   18  C   UNL     1      -3.444  -4.865 -34.031  1.00  0.00     0.079 C 
HETATM   19  C   UNL     1      -4.606  -2.522 -33.776  1.00  0.00     0.087 A 
ENDBRANCH  11  14
ENDBRANCH   1  10
BRANCH   2  20
HETATM   20  C   UNL     1      -8.424   1.424 -33.378  1.00  0.00    -0.031 A 
HETATM   21  C   UNL     1      -9.380   2.144 -34.118  1.00  0.00     0.012 A 
HETATM   22  C   UNL     1     -10.717   1.740 -34.146  1.00  0.00     0.037 A 
HETATM   23  C   UNL     1     -11.104   0.605 -33.440  1.00  0.00     0.065 A 
HETATM   24  C   UNL     1     -10.177  -0.135 -32.722  1.00  0.00     0.037 A 
HETATM   25  C   UNL     1      -8.841   0.273 -32.689  1.00  0.00     0.012 A 
BRANCH  23  26
HETATM   26  O   UNL     1     -12.402   0.188 -33.424  1.00  0.00    -0.361 OA
HETATM   27  H   UNL     1     -12.687   0.110 -32.499  1.00  0.00     0.217 HD
ENDBRANCH  23  26
ENDBRANCH   2  20
BRANCH   6  28
HETATM   28  C   UNL     1      -6.240   4.812 -30.250  1.00  0.00     0.042 A 
HETATM   29  C   UNL     1      -7.298   5.121 -29.384  1.00  0.00     0.030 A 
HETATM   30  C   UNL     1      -7.116   6.058 -28.366  1.00  0.00     0.002 A 
HETATM   31  C   UNL     1      -5.882   6.690 -28.210  1.00  0.00     0.000 A 
HETATM   32  C   UNL     1      -4.827   6.390 -29.072  1.00  0.00     0.002 A 
HETATM   33  C   UNL     1      -5.005   5.452 -30.090  1.00  0.00     0.030 A 
ENDBRANCH   6  28
TORSDOF 5
ENDMDL
MODEL 10
REMARK VINA RESULT:      -7.3      2.981      6.298
REMARK  5 active torsions:
REMARK  status: ('A' for Active; 'I' for Inactive)
REMARK    1  A    between atoms: C_5  and  N_6 
REMARK       I    between atoms: N_6  and  C_7 
REMARK    2  A    between atoms: C_7  and  C_8 
REMARK    3  A    between atoms: C_9  and  C_10 
REMARK    4  A    between atoms: C_13  and  O_14 
REMARK    5  A    between atoms: N_20  and  C_21 
ROOT
HETATM    1  C   UNL     1      -7.162   2.758 -32.444  1.00  0.00     0.060 C 
HETATM    2  C   UNL     1      -6.626   1.510 -31.817  1.00  0.00     0.158 C 
HETATM    3  N   UNL     1      -5.315   1.769 -31.267  1.00  0.00    -0.354 N 
HETATM    4  C   UNL     1      -4.440   2.716 -31.722  1.00  0.00     0.179 C 
HETATM    5  S   UNL     1      -2.867   2.575 -31.144  1.00  0.00    -0.040 SA
HETATM    6  N   UNL     1      -4.977   3.721 -32.559  1.00  0.00    -0.292 N 
HETATM    7  C   UNL     1      -6.359   3.761 -32.862  1.00  0.00     0.030 C 
HETATM    8  C   UNL     1      -6.865   4.880 -33.751  1.00  0.00     0.070 C 
HETATM    9  H   UNL     1      -4.891   1.026 -30.724  1.00  0.00     0.163 HD
ENDROOT
BRANCH   1  10
HETATM   10  C   UNL     1      -8.650   2.761 -32.615  1.00  0.00     0.257 C 
HETATM   11  N   UNL     1      -9.044   2.567 -33.920  1.00  0.00    -0.306 N 
HETATM   12  H   UNL     1      -8.347   2.473 -34.643  1.00  0.00     0.170 HD
HETATM   13  O   UNL     1      -9.371   2.988 -31.654  1.00  0.00    -0.267 OA
BRANCH  11  14
HETATM   14  C   UNL     1     -10.360   2.398 -34.312  1.00  0.00     0.160 A 
HETATM   15  N   UNL     1     -11.082   3.262 -35.030  1.00  0.00    -0.110 NA
HETATM   16  O   UNL     1     -12.345   2.719 -35.142  1.00  0.00    -0.216 OA
HETATM   17  C   UNL     1     -12.385   1.532 -34.487  1.00  0.00     0.078 A 
HETATM   18  C   UNL     1     -13.682   0.834 -34.480  1.00  0.00     0.079 C 
HETATM   19  C   UNL     1     -11.144   1.271 -33.959  1.00  0.00     0.087 A 
ENDBRANCH  11  14
ENDBRANCH   1  10
BRANCH   2  20
HETATM   20  C   UNL     1      -6.568   0.308 -32.751  1.00  0.00    -0.031 A 
HETATM   21  C   UNL     1      -7.734  -0.344 -33.196  1.00  0.00     0.012 A 
HETATM   22  C   UNL     1      -7.654  -1.475 -34.012  1.00  0.00     0.037 A 
HETATM   23  C   UNL     1      -6.407  -1.956 -34.397  1.00  0.00     0.065 A 
HETATM   24  C   UNL     1      -5.244  -1.318 -33.990  1.00  0.00     0.037 A 
HETATM   25  C   UNL     1      -5.323  -0.191 -33.169  1.00  0.00     0.012 A 
BRANCH  23  26
HETATM   26  O   UNL     1      -6.284  -3.068 -35.175  1.00  0.00    -0.361 OA
HETATM   27  H   UNL     1      -6.642  -3.826 -34.685  1.00  0.00     0.217 HD
ENDBRANCH  23  26
ENDBRANCH   2  20
BRANCH   6  28
HETATM   28  C   UNL     1      -4.107   4.770 -33.006  1.00  0.00     0.042 A 
HETATM   29  C   UNL     1      -3.462   4.667 -34.246  1.00  0.00     0.030 A 
HETATM   30  C   UNL     1      -2.642   5.703 -34.694  1.00  0.00     0.002 A 
HETATM   31  C   UNL     1      -2.461   6.841 -33.908  1.00  0.00     0.000 A 
HETATM   32  C   UNL     1      -3.096   6.947 -32.671  1.00  0.00     0.002 A 
HETATM   33  C   UNL     1      -3.919   5.914 -32.220  1.00  0.00     0.030 A 
ENDBRANCH   6  28
TORSDOF 5
ENDMDL
