MODEL 1
REMARK VINA RESULT:      -9.7      0.000      0.000
REMARK  8 active torsions:
REMARK  status: ('A' for Active; 'I' for Inactive)
REMARK    1  A    between atoms: C_8  and  N_9 
REMARK    2  A    between atoms: N_9  and  C_10 
REMARK    3  A    between atoms: N_14  and  C_15 
REMARK    4  A    between atoms: C_15  and  C_16 
REMARK    5  A    between atoms: C_28  and  N_29 
REMARK       I    between atoms: N_29  and  C_30 
REMARK    6  A    between atoms: C_30  and  O_31 
REMARK    7  A    between atoms: O_31  and  C_32 
REMARK    8  A    between atoms: C_32  and  C_33 
ROOT
HETATM    1  C   UNL     1      -3.814   5.823 -30.147  1.00  0.00     0.053 C 
HETATM    2  C   UNL     1      -2.645   5.771 -31.068  1.00  0.00    -0.002 A 
HETATM    3  C   UNL     1      -2.666   5.587 -32.451  1.00  0.00     0.106 A 
HETATM    4  N   UNL     1      -1.378   5.613 -32.903  1.00  0.00    -0.238 N 
HETATM    5  N   UNL     1      -0.998   5.455 -34.176  1.00  0.00    -0.161 NA
HETATM    6  C   UNL     1      -1.986   5.292 -34.996  1.00  0.00     0.257 A 
HETATM    7  N   UNL     1      -3.317   5.285 -34.682  1.00  0.00    -0.226 NA
HETATM    8  C   UNL     1      -3.702   5.436 -33.447  1.00  0.00     0.138 A 
HETATM    9  C   UNL     1      -0.530   5.857 -31.862  1.00  0.00     0.149 A 
HETATM   10  C   UNL     1      -1.271   5.979 -30.712  1.00  0.00     0.062 A 
ENDROOT
BRANCH   8  11
HETATM   11  N   UNL     1      -5.051   5.455 -33.127  1.00  0.00    -0.242 NA
HETATM   12  H   UNL     1      -5.586   6.116 -33.670  1.00  0.00     0.135 HD
BRANCH  11  13
HETATM   13  C   UNL     1      -5.784   4.240 -32.994  1.00  0.00     0.015 A 
HETATM   14  C   UNL     1      -5.917   3.578 -31.764  1.00  0.00     0.039 A 
HETATM   15  C   UNL     1      -6.536   2.315 -31.713  1.00  0.00     0.013 A 
HETATM   16  C   UNL     1      -7.028   1.748 -32.883  1.00  0.00     0.065 A 
HETATM   17  C   UNL     1      -6.814   1.365 -30.708  1.00  0.00     0.152 A 
HETATM   18  N   UNL     1      -7.458   0.491 -32.518  1.00  0.00    -0.265 N 
HETATM   19  C   UNL     1      -6.984   2.414 -34.112  1.00  0.00     0.034 A 
HETATM   20  N   UNL     1      -7.376   0.254 -31.190  1.00  0.00    -0.183 NA
HETATM   21  C   UNL     1      -6.362   3.669 -34.139  1.00  0.00     0.026 A 
BRANCH  18  22
HETATM   22  C   UNL     1      -7.876  -0.588 -33.410  1.00  0.00     0.190 C 
BRANCH  22  23
HETATM   23  C   UNL     1      -6.721  -1.471 -33.837  1.00  0.00    -0.035 A 
HETATM   24  C   UNL     1      -6.928  -2.635 -34.598  1.00  0.00     0.051 A 
HETATM   25  C   UNL     1      -5.849  -3.438 -34.954  1.00  0.00     0.117 A 
HETATM   26  F   UNL     1      -6.065  -4.565 -35.646  1.00  0.00    -0.206 F 
HETATM   27  C   UNL     1      -4.552  -3.095 -34.596  1.00  0.00     0.042 A 
HETATM   28  C   UNL     1      -4.327  -1.926 -33.873  1.00  0.00     0.004 A 
HETATM   29  C   UNL     1      -5.405  -1.116 -33.497  1.00  0.00     0.009 A 
ENDBRANCH  22  23
ENDBRANCH  18  22
ENDBRANCH  11  13
ENDBRANCH   8  11
BRANCH  10  30
HETATM   30  N   UNL     1      -0.791   6.271 -29.447  1.00  0.00    -0.301 N 
HETATM   31  C   UNL     1       0.307   5.706 -28.870  1.00  0.00     0.365 C 
HETATM   32  O   UNL     1       1.025   4.815 -29.304  1.00  0.00    -0.238 OA
HETATM   33  H   UNL     1      -1.177   7.072 -28.967  1.00  0.00     0.171 HD
BRANCH  31  34
HETATM   34  O   UNL     1       0.566   6.328 -27.690  1.00  0.00    -0.302 OA
BRANCH  34  35
HETATM   35  C   UNL     1       0.688   7.770 -27.709  1.00  0.00     0.215 C 
BRANCH  35  36
HETATM   36  C   UNL     1      -0.065   8.511 -26.577  1.00  0.00     0.233 C 
HETATM   37  N   UNL     1      -0.374   9.955 -26.954  1.00  0.00    -0.065 N 
HETATM   38  H   UNL     1      -0.608  10.501 -26.117  1.00  0.00     0.277 HD
HETATM   39  H   UNL     1       0.495  10.388 -27.334  1.00  0.00     0.277 HD
HETATM   40  C   UNL     1      -1.442  10.119 -28.000  1.00  0.00     0.259 C 
HETATM   41  C   UNL     1      -2.671   9.289 -27.627  1.00  0.00     0.195 C 
HETATM   42  O   UNL     1      -2.310   7.925 -27.364  1.00  0.00    -0.387 OA
HETATM   43  C   UNL     1      -1.405   7.823 -26.258  1.00  0.00     0.202 C 
ENDBRANCH  35  36
ENDBRANCH  34  35
ENDBRANCH  31  34
ENDBRANCH  10  30
TORSDOF 8
ENDMDL
MODEL 2
REMARK VINA RESULT:      -9.6      7.070      9.745
REMARK  8 active torsions:
REMARK  status: ('A' for Active; 'I' for Inactive)
REMARK    1  A    between atoms: C_8  and  N_9 
REMARK    2  A    between atoms: N_9  and  C_10 
REMARK    3  A    between atoms: N_14  and  C_15 
REMARK    4  A    between atoms: C_15  and  C_16 
REMARK    5  A    between atoms: C_28  and  N_29 
REMARK       I    between atoms: N_29  and  C_30 
REMARK    6  A    between atoms: C_30  and  O_31 
REMARK    7  A    between atoms: O_31  and  C_32 
REMARK    8  A    between atoms: C_32  and  C_33 
ROOT
HETATM    1  C   UNL     1     -10.025   4.909 -32.828  1.00  0.00     0.053 C 
HETATM    2  C   UNL     1     -11.028   4.485 -33.845  1.00  0.00    -0.002 A 
HETATM    3  C   UNL     1     -11.562   3.209 -34.025  1.00  0.00     0.106 A 
HETATM    4  N   UNL     1     -12.450   3.262 -35.059  1.00  0.00    -0.238 N 
HETATM    5  N   UNL     1     -13.152   2.227 -35.535  1.00  0.00    -0.161 NA
HETATM    6  C   UNL     1     -12.939   1.120 -34.899  1.00  0.00     0.257 A 
HETATM    7  N   UNL     1     -12.111   0.939 -33.826  1.00  0.00    -0.226 NA
HETATM    8  C   UNL     1     -11.421   1.938 -33.353  1.00  0.00     0.138 A 
HETATM    9  C   UNL     1     -12.542   4.543 -35.523  1.00  0.00     0.149 A 
HETATM   10  C   UNL     1     -11.693   5.335 -34.789  1.00  0.00     0.062 A 
ENDROOT
BRANCH   8  11
HETATM   11  N   UNL     1     -10.598   1.765 -32.250  1.00  0.00    -0.242 NA
HETATM   12  H   UNL     1     -11.089   1.459 -31.424  1.00  0.00     0.135 HD
BRANCH  11  13
HETATM   13  C   UNL     1      -9.367   1.057 -32.365  1.00  0.00     0.015 A 
HETATM   14  C   UNL     1      -8.455   0.967 -31.301  1.00  0.00     0.039 A 
HETATM   15  C   UNL     1      -7.197   0.371 -31.507  1.00  0.00     0.013 A 
HETATM   16  C   UNL     1      -6.881  -0.140 -32.761  1.00  0.00     0.065 A 
HETATM   17  C   UNL     1      -6.048   0.136 -30.723  1.00  0.00     0.152 A 
HETATM   18  N   UNL     1      -5.565  -0.539 -32.664  1.00  0.00    -0.265 N 
HETATM   19  C   UNL     1      -7.794  -0.139 -33.821  1.00  0.00     0.034 A 
HETATM   20  N   UNL     1      -5.053  -0.418 -31.419  1.00  0.00    -0.183 NA
HETATM   21  C   UNL     1      -9.040   0.460 -33.592  1.00  0.00     0.026 A 
BRANCH  18  22
HETATM   22  C   UNL     1      -4.692  -0.961 -33.757  1.00  0.00     0.190 C 
BRANCH  22  23
HETATM   23  C   UNL     1      -4.758  -2.453 -34.011  1.00  0.00    -0.035 A 
HETATM   24  C   UNL     1      -5.766  -3.018 -34.813  1.00  0.00     0.051 A 
HETATM   25  C   UNL     1      -5.814  -4.395 -35.008  1.00  0.00     0.117 A 
HETATM   26  F   UNL     1      -6.802  -4.923 -35.742  1.00  0.00    -0.206 F 
HETATM   27  C   UNL     1      -4.859  -5.231 -34.446  1.00  0.00     0.042 A 
HETATM   28  C   UNL     1      -3.834  -4.683 -33.679  1.00  0.00     0.004 A 
HETATM   29  C   UNL     1      -3.781  -3.301 -33.464  1.00  0.00     0.009 A 
ENDBRANCH  22  23
ENDBRANCH  18  22
ENDBRANCH  11  13
ENDBRANCH   8  11
BRANCH  10  30
HETATM   30  N   UNL     1     -11.524   6.703 -34.917  1.00  0.00    -0.301 N 
HETATM   31  C   UNL     1     -10.601   7.314 -35.713  1.00  0.00     0.365 C 
HETATM   32  O   UNL     1      -9.726   6.802 -36.398  1.00  0.00    -0.238 OA
HETATM   33  H   UNL     1     -12.230   7.307 -34.520  1.00  0.00     0.171 HD
BRANCH  31  34
HETATM   34  O   UNL     1     -10.813   8.656 -35.700  1.00  0.00    -0.302 OA
BRANCH  34  35
HETATM   35  C   UNL     1     -10.911   9.327 -36.978  1.00  0.00     0.215 C 
BRANCH  35  36
HETATM   36  C   UNL     1     -12.247  10.069 -37.233  1.00  0.00     0.233 C 
HETATM   37  N   UNL     1     -12.622  10.068 -38.709  1.00  0.00    -0.065 N 
HETATM   38  H   UNL     1     -13.334  10.783 -38.899  1.00  0.00     0.277 HD
HETATM   39  H   UNL     1     -11.785  10.355 -39.260  1.00  0.00     0.277 HD
HETATM   40  C   UNL     1     -13.066   8.735 -39.247  1.00  0.00     0.259 C 
HETATM   41  C   UNL     1     -14.126   8.127 -38.327  1.00  0.00     0.195 C 
HETATM   42  O   UNL     1     -13.668   8.090 -36.968  1.00  0.00    -0.387 OA
HETATM   43  C   UNL     1     -13.405   9.407 -36.464  1.00  0.00     0.202 C 
ENDBRANCH  35  36
ENDBRANCH  34  35
ENDBRANCH  31  34
ENDBRANCH  10  30
TORSDOF 8
ENDMDL
MODEL 3
REMARK VINA RESULT:      -9.5      5.486     10.660
REMARK  8 active torsions:
REMARK  status: ('A' for Active; 'I' for Inactive)
REMARK    1  A    between atoms: C_8  and  N_9 
REMARK    2  A    between atoms: N_9  and  C_10 
REMARK    3  A    between atoms: N_14  and  C_15 
REMARK    4  A    between atoms: C_15  and  C_16 
REMARK    5  A    between atoms: C_28  and  N_29 
REMARK       I    between atoms: N_29  and  C_30 
REMARK    6  A    between atoms: C_30  and  O_31 
REMARK    7  A    between atoms: O_31  and  C_32 
REMARK    8  A    between atoms: C_32  and  C_33 
ROOT
HETATM    1  C   UNL     1      -7.025   2.853 -32.530  1.00  0.00     0.053 C 
HETATM    2  C   UNL     1      -6.756   1.568 -33.234  1.00  0.00    -0.002 A 
HETATM    3  C   UNL     1      -5.615   0.771 -33.132  1.00  0.00     0.106 A 
HETATM    4  N   UNL     1      -5.784  -0.317 -33.937  1.00  0.00    -0.238 N 
HETATM    5  N   UNL     1      -4.893  -1.300 -34.112  1.00  0.00    -0.161 NA
HETATM    6  C   UNL     1      -3.815  -1.153 -33.411  1.00  0.00     0.257 A 
HETATM    7  N   UNL     1      -3.537  -0.136 -32.540  1.00  0.00    -0.226 NA
HETATM    8  C   UNL     1      -4.395   0.828 -32.361  1.00  0.00     0.138 A 
HETATM    9  C   UNL     1      -7.018  -0.273 -34.519  1.00  0.00     0.149 A 
HETATM   10  C   UNL     1      -7.659   0.866 -34.098  1.00  0.00     0.062 A 
ENDROOT
BRANCH   8  11
HETATM   11  N   UNL     1      -4.129   1.848 -31.460  1.00  0.00    -0.242 NA
HETATM   12  H   UNL     1      -3.548   1.563 -30.686  1.00  0.00     0.135 HD
BRANCH  11  13
HETATM   13  C   UNL     1      -3.718   3.133 -31.918  1.00  0.00     0.015 A 
HETATM   14  C   UNL     1      -3.006   3.307 -33.116  1.00  0.00     0.039 A 
HETATM   15  C   UNL     1      -2.509   4.580 -33.455  1.00  0.00     0.013 A 
HETATM   16  C   UNL     1      -2.747   5.655 -32.606  1.00  0.00     0.065 A 
HETATM   17  C   UNL     1      -1.750   5.119 -34.514  1.00  0.00     0.152 A 
HETATM   18  N   UNL     1      -2.045   6.706 -33.154  1.00  0.00    -0.265 N 
HETATM   19  C   UNL     1      -3.519   5.534 -31.446  1.00  0.00     0.034 A 
HETATM   20  N   UNL     1      -1.465   6.412 -34.340  1.00  0.00    -0.183 NA
HETATM   21  C   UNL     1      -4.003   4.258 -31.128  1.00  0.00     0.026 A 
BRANCH  18  22
HETATM   22  C   UNL     1      -1.799   8.011 -32.545  1.00  0.00     0.190 C 
BRANCH  22  23
HETATM   23  C   UNL     1      -1.167   7.902 -31.172  1.00  0.00    -0.035 A 
HETATM   24  C   UNL     1      -1.732   8.534 -30.051  1.00  0.00     0.051 A 
HETATM   25  C   UNL     1      -1.115   8.436 -28.808  1.00  0.00     0.117 A 
HETATM   26  F   UNL     1      -1.643   9.075 -27.756  1.00  0.00    -0.206 F 
HETATM   27  C   UNL     1       0.046   7.693 -28.642  1.00  0.00     0.042 A 
HETATM   28  C   UNL     1       0.599   7.032 -29.736  1.00  0.00     0.004 A 
HETATM   29  C   UNL     1      -0.005   7.133 -30.994  1.00  0.00     0.009 A 
ENDBRANCH  22  23
ENDBRANCH  18  22
ENDBRANCH  11  13
ENDBRANCH   8  11
BRANCH  10  30
HETATM   30  N   UNL     1      -8.946   1.258 -34.426  1.00  0.00    -0.301 N 
HETATM   31  C   UNL     1     -10.078   0.879 -33.767  1.00  0.00     0.365 C 
HETATM   32  O   UNL     1     -10.192   0.097 -32.832  1.00  0.00    -0.238 OA
HETATM   33  H   UNL     1      -9.059   2.001 -35.101  1.00  0.00     0.171 HD
BRANCH  31  34
HETATM   34  O   UNL     1     -11.141   1.560 -34.269  1.00  0.00    -0.302 OA
BRANCH  34  35
HETATM   35  C   UNL     1     -11.795   2.511 -33.396  1.00  0.00     0.215 C 
BRANCH  35  36
HETATM   36  C   UNL     1     -13.127   3.091 -33.933  1.00  0.00     0.233 C 
HETATM   37  N   UNL     1     -14.057   1.997 -34.440  1.00  0.00    -0.065 N 
HETATM   38  H   UNL     1     -14.791   2.397 -35.037  1.00  0.00     0.277 HD
HETATM   39  H   UNL     1     -13.510   1.363 -35.062  1.00  0.00     0.277 HD
HETATM   40  C   UNL     1     -14.669   1.139 -33.367  1.00  0.00     0.259 C 
HETATM   41  C   UNL     1     -15.273   2.022 -32.274  1.00  0.00     0.195 C 
HETATM   42  O   UNL     1     -14.314   2.974 -31.791  1.00  0.00    -0.387 OA
HETATM   43  C   UNL     1     -13.881   3.860 -32.832  1.00  0.00     0.202 C 
ENDBRANCH  35  36
ENDBRANCH  34  35
ENDBRANCH  31  34
ENDBRANCH  10  30
TORSDOF 8
ENDMDL
MODEL 4
REMARK VINA RESULT:      -9.5      1.328      2.153
REMARK  8 active torsions:
REMARK  status: ('A' for Active; 'I' for Inactive)
REMARK    1  A    between atoms: C_8  and  N_9 
REMARK    2  A    between atoms: N_9  and  C_10 
REMARK    3  A    between atoms: N_14  and  C_15 
REMARK    4  A    between atoms: C_15  and  C_16 
REMARK    5  A    between atoms: C_28  and  N_29 
REMARK       I    between atoms: N_29  and  C_30 
REMARK    6  A    between atoms: C_30  and  O_31 
REMARK    7  A    between atoms: O_31  and  C_32 
REMARK    8  A    between atoms: C_32  and  C_33 
ROOT
HETATM    1  C   UNL     1      -4.501   7.218 -30.993  1.00  0.00     0.053 C 
HETATM    2  C   UNL     1      -3.190   7.041 -31.676  1.00  0.00    -0.002 A 
HETATM    3  C   UNL     1      -2.946   6.382 -32.882  1.00  0.00     0.106 A 
HETATM    4  N   UNL     1      -1.610   6.461 -33.147  1.00  0.00    -0.238 N 
HETATM    5  N   UNL     1      -0.997   5.932 -34.212  1.00  0.00    -0.161 NA
HETATM    6  C   UNL     1      -1.802   5.331 -35.029  1.00  0.00     0.257 A 
HETATM    7  N   UNL     1      -3.159   5.216 -34.903  1.00  0.00    -0.226 NA
HETATM    8  C   UNL     1      -3.769   5.725 -33.871  1.00  0.00     0.138 A 
HETATM    9  C   UNL     1      -0.989   7.190 -32.174  1.00  0.00     0.149 A 
HETATM   10  C   UNL     1      -1.930   7.583 -31.255  1.00  0.00     0.062 A 
ENDROOT
BRANCH   8  11
HETATM   11  N   UNL     1      -5.147   5.632 -33.752  1.00  0.00    -0.242 NA
HETATM   12  H   UNL     1      -5.648   6.020 -34.537  1.00  0.00     0.135 HD
BRANCH  11  13
HETATM   13  C   UNL     1      -5.762   4.411 -33.349  1.00  0.00     0.015 A 
HETATM   14  C   UNL     1      -5.563   3.859 -32.074  1.00  0.00     0.039 A 
HETATM   15  C   UNL     1      -6.084   2.587 -31.773  1.00  0.00     0.013 A 
HETATM   16  C   UNL     1      -6.809   1.899 -32.741  1.00  0.00     0.065 A 
HETATM   17  C   UNL     1      -6.064   1.723 -30.658  1.00  0.00     0.152 A 
HETATM   18  N   UNL     1      -7.072   0.667 -32.183  1.00  0.00    -0.265 N 
HETATM   19  C   UNL     1      -7.093   2.452 -33.994  1.00  0.00     0.034 A 
HETATM   20  N   UNL     1      -6.664   0.555 -30.899  1.00  0.00    -0.183 NA
HETATM   21  C   UNL     1      -6.563   3.719 -34.271  1.00  0.00     0.026 A 
BRANCH  18  22
HETATM   22  C   UNL     1      -7.631  -0.501 -32.858  1.00  0.00     0.190 C 
BRANCH  22  23
HETATM   23  C   UNL     1      -6.565  -1.368 -33.499  1.00  0.00    -0.035 A 
HETATM   24  C   UNL     1      -6.899  -2.408 -34.385  1.00  0.00     0.051 A 
HETATM   25  C   UNL     1      -5.900  -3.202 -34.938  1.00  0.00     0.117 A 
HETATM   26  F   UNL     1      -6.234  -4.214 -35.750  1.00  0.00    -0.206 F 
HETATM   27  C   UNL     1      -4.561  -2.969 -34.655  1.00  0.00     0.042 A 
HETATM   28  C   UNL     1      -4.212  -1.920 -33.808  1.00  0.00     0.004 A 
HETATM   29  C   UNL     1      -5.208  -1.122 -33.234  1.00  0.00     0.009 A 
ENDBRANCH  22  23
ENDBRANCH  18  22
ENDBRANCH  11  13
ENDBRANCH   8  11
BRANCH  10  30
HETATM   30  N   UNL     1      -1.715   8.375 -30.140  1.00  0.00    -0.301 N 
HETATM   31  C   UNL     1      -2.149   9.658 -29.987  1.00  0.00     0.365 C 
HETATM   32  O   UNL     1      -2.736  10.366 -30.794  1.00  0.00    -0.238 OA
HETATM   33  H   UNL     1      -1.347   7.934 -29.309  1.00  0.00     0.171 HD
BRANCH  31  34
HETATM   34  O   UNL     1      -1.883  10.076 -28.722  1.00  0.00    -0.302 OA
BRANCH  34  35
HETATM   35  C   UNL     1      -2.108   9.134 -27.647  1.00  0.00     0.215 C 
BRANCH  35  36
HETATM   36  C   UNL     1      -0.939   8.987 -26.642  1.00  0.00     0.233 C 
HETATM   37  N   UNL     1      -0.929   7.614 -25.982  1.00  0.00    -0.065 N 
HETATM   38  H   UNL     1      -0.346   7.626 -25.137  1.00  0.00     0.277 HD
HETATM   39  H   UNL     1      -1.895   7.403 -25.650  1.00  0.00     0.277 HD
HETATM   40  C   UNL     1      -0.518   6.483 -26.883  1.00  0.00     0.259 C 
HETATM   41  C   UNL     1       0.779   6.841 -27.612  1.00  0.00     0.195 C 
HETATM   42  O   UNL     1       0.665   8.108 -28.274  1.00  0.00    -0.387 OA
HETATM   43  C   UNL     1       0.421   9.170 -27.341  1.00  0.00     0.202 C 
ENDBRANCH  35  36
ENDBRANCH  34  35
ENDBRANCH  31  34
ENDBRANCH  10  30
TORSDOF 8
ENDMDL
MODEL 5
REMARK VINA RESULT:      -9.2      4.388      6.394
REMARK  8 active torsions:
REMARK  status: ('A' for Active; 'I' for Inactive)
REMARK    1  A    between atoms: C_8  and  N_9 
REMARK    2  A    between atoms: N_9  and  C_10 
REMARK    3  A    between atoms: N_14  and  C_15 
REMARK    4  A    between atoms: C_15  and  C_16 
REMARK    5  A    between atoms: C_28  and  N_29 
REMARK       I    between atoms: N_29  and  C_30 
REMARK    6  A    between atoms: C_30  and  O_31 
REMARK    7  A    between atoms: O_31  and  C_32 
REMARK    8  A    between atoms: C_32  and  C_33 
ROOT
HETATM    1  C   UNL     1      -6.191   4.129 -30.479  1.00  0.00     0.053 C 
HETATM    2  C   UNL     1      -5.088   3.191 -30.829  1.00  0.00    -0.002 A 
HETATM    3  C   UNL     1      -5.189   1.819 -31.067  1.00  0.00     0.106 A 
HETATM    4  N   UNL     1      -3.943   1.347 -31.362  1.00  0.00    -0.238 N 
HETATM    5  N   UNL     1      -3.640   0.072 -31.634  1.00  0.00    -0.161 NA
HETATM    6  C   UNL     1      -4.664  -0.718 -31.622  1.00  0.00     0.257 A 
HETATM    7  N   UNL     1      -5.965  -0.369 -31.383  1.00  0.00    -0.226 NA
HETATM    8  C   UNL     1      -6.274   0.867 -31.115  1.00  0.00     0.138 A 
HETATM    9  C   UNL     1      -3.049   2.378 -31.369  1.00  0.00     0.149 A 
HETATM   10  C   UNL     1      -3.717   3.538 -31.062  1.00  0.00     0.062 A 
ENDROOT
BRANCH   8  11
HETATM   11  N   UNL     1      -7.595   1.231 -30.896  1.00  0.00    -0.242 NA
HETATM   12  H   UNL     1      -7.708   1.922 -30.170  1.00  0.00     0.135 HD
BRANCH  11  13
HETATM   13  C   UNL     1      -8.455   1.540 -31.989  1.00  0.00     0.015 A 
HETATM   14  C   UNL     1      -8.390   2.767 -32.667  1.00  0.00     0.039 A 
HETATM   15  C   UNL     1      -9.349   3.074 -33.651  1.00  0.00     0.013 A 
HETATM   16  C   UNL     1     -10.339   2.145 -33.953  1.00  0.00     0.065 A 
HETATM   17  C   UNL     1      -9.620   4.175 -34.490  1.00  0.00     0.152 A 
HETATM   18  N   UNL     1     -11.166   2.784 -34.851  1.00  0.00    -0.265 N 
HETATM   19  C   UNL     1     -10.386   0.882 -33.354  1.00  0.00     0.034 A 
HETATM   20  N   UNL     1     -10.723   4.005 -35.224  1.00  0.00    -0.183 NA
HETATM   21  C   UNL     1      -9.422   0.600 -32.378  1.00  0.00     0.026 A 
BRANCH  18  22
HETATM   22  C   UNL     1     -12.466   2.321 -35.330  1.00  0.00     0.190 C 
BRANCH  22  23
HETATM   23  C   UNL     1     -13.508   2.273 -34.230  1.00  0.00    -0.035 A 
HETATM   24  C   UNL     1     -13.565   3.259 -33.229  1.00  0.00     0.051 A 
HETATM   25  C   UNL     1     -14.518   3.175 -32.218  1.00  0.00     0.117 A 
HETATM   26  F   UNL     1     -14.536   4.099 -31.249  1.00  0.00    -0.206 F 
HETATM   27  C   UNL     1     -15.446   2.142 -32.194  1.00  0.00     0.042 A 
HETATM   28  C   UNL     1     -15.425   1.178 -33.199  1.00  0.00     0.004 A 
HETATM   29  C   UNL     1     -14.463   1.244 -34.213  1.00  0.00     0.009 A 
ENDBRANCH  22  23
ENDBRANCH  18  22
ENDBRANCH  11  13
ENDBRANCH   8  11
BRANCH  10  30
HETATM   30  N   UNL     1      -3.177   4.812 -31.010  1.00  0.00    -0.301 N 
HETATM   31  C   UNL     1      -3.383   5.795 -31.932  1.00  0.00     0.365 C 
HETATM   32  O   UNL     1      -4.006   5.737 -32.984  1.00  0.00    -0.238 OA
HETATM   33  H   UNL     1      -2.724   5.100 -30.154  1.00  0.00     0.171 HD
BRANCH  31  34
HETATM   34  O   UNL     1      -2.820   6.950 -31.492  1.00  0.00    -0.302 OA
BRANCH  34  35
HETATM   35  C   UNL     1      -2.016   6.884 -30.290  1.00  0.00     0.215 C 
BRANCH  35  36
HETATM   36  C   UNL     1      -0.502   7.143 -30.493  1.00  0.00     0.233 C 
HETATM   37  N   UNL     1       0.257   7.126 -29.173  1.00  0.00    -0.065 N 
HETATM   38  H   UNL     1       1.177   7.568 -29.282  1.00  0.00     0.277 HD
HETATM   39  H   UNL     1      -0.258   7.723 -28.490  1.00  0.00     0.277 HD
HETATM   40  C   UNL     1       0.403   5.767 -28.546  1.00  0.00     0.259 C 
HETATM   41  C   UNL     1       0.917   4.766 -29.582  1.00  0.00     0.195 C 
HETATM   42  O   UNL     1       0.105   4.784 -30.764  1.00  0.00    -0.387 OA
HETATM   43  C   UNL     1       0.128   6.069 -31.399  1.00  0.00     0.202 C 
ENDBRANCH  35  36
ENDBRANCH  34  35
ENDBRANCH  31  34
ENDBRANCH  10  30
TORSDOF 8
ENDMDL
MODEL 6
REMARK VINA RESULT:      -9.1      4.757     10.351
REMARK  8 active torsions:
REMARK  status: ('A' for Active; 'I' for Inactive)
REMARK    1  A    between atoms: C_8  and  N_9 
REMARK    2  A    between atoms: N_9  and  C_10 
REMARK    3  A    between atoms: N_14  and  C_15 
REMARK    4  A    between atoms: C_15  and  C_16 
REMARK    5  A    between atoms: C_28  and  N_29 
REMARK       I    between atoms: N_29  and  C_30 
REMARK    6  A    between atoms: C_30  and  O_31 
REMARK    7  A    between atoms: O_31  and  C_32 
REMARK    8  A    between atoms: C_32  and  C_33 
ROOT
HETATM    1  C   UNL     1      -5.841   0.456 -31.261  1.00  0.00     0.053 C 
HETATM    2  C   UNL     1      -7.223   0.884 -31.615  1.00  0.00    -0.002 A 
HETATM    3  C   UNL     1      -7.912   1.999 -31.137  1.00  0.00     0.106 A 
HETATM    4  N   UNL     1      -9.144   2.022 -31.724  1.00  0.00    -0.238 N 
HETATM    5  N   UNL     1     -10.094   2.937 -31.501  1.00  0.00    -0.161 NA
HETATM    6  C   UNL     1      -9.739   3.860 -30.666  1.00  0.00     0.257 A 
HETATM    7  N   UNL     1      -8.528   3.977 -30.042  1.00  0.00    -0.226 NA
HETATM    8  C   UNL     1      -7.594   3.093 -30.249  1.00  0.00     0.138 A 
HETATM    9  C   UNL     1      -9.255   0.983 -32.602  1.00  0.00     0.149 A 
HETATM   10  C   UNL     1      -8.085   0.264 -32.580  1.00  0.00     0.062 A 
ENDROOT
BRANCH   8  11
HETATM   11  N   UNL     1      -6.355   3.221 -29.638  1.00  0.00    -0.242 NA
HETATM   12  H   UNL     1      -5.956   2.341 -29.347  1.00  0.00     0.135 HD
BRANCH  11  13
HETATM   13  C   UNL     1      -5.342   4.040 -30.213  1.00  0.00     0.015 A 
HETATM   14  C   UNL     1      -4.446   3.554 -31.178  1.00  0.00     0.039 A 
HETATM   15  C   UNL     1      -3.381   4.364 -31.615  1.00  0.00     0.013 A 
HETATM   16  C   UNL     1      -3.242   5.647 -31.097  1.00  0.00     0.065 A 
HETATM   17  C   UNL     1      -2.302   4.219 -32.511  1.00  0.00     0.152 A 
HETATM   18  N   UNL     1      -2.063   6.122 -31.630  1.00  0.00    -0.265 N 
HETATM   19  C   UNL     1      -4.161   6.192 -30.194  1.00  0.00     0.034 A 
HETATM   20  N   UNL     1      -1.497   5.284 -32.527  1.00  0.00    -0.183 NA
HETATM   21  C   UNL     1      -5.212   5.367 -29.773  1.00  0.00     0.026 A 
BRANCH  18  22
HETATM   22  C   UNL     1      -1.357   7.343 -31.251  1.00  0.00     0.190 C 
BRANCH  22  23
HETATM   23  C   UNL     1      -0.556   7.180 -29.974  1.00  0.00    -0.035 A 
HETATM   24  C   UNL     1      -0.281   8.274 -29.135  1.00  0.00     0.051 A 
HETATM   25  C   UNL     1       0.478   8.097 -27.983  1.00  0.00     0.117 A 
HETATM   26  F   UNL     1       0.767   9.154 -27.213  1.00  0.00    -0.206 F 
HETATM   27  C   UNL     1       0.949   6.841 -27.622  1.00  0.00     0.042 A 
HETATM   28  C   UNL     1       0.653   5.742 -28.424  1.00  0.00     0.004 A 
HETATM   29  C   UNL     1      -0.098   5.909 -29.593  1.00  0.00     0.009 A 
ENDBRANCH  22  23
ENDBRANCH  18  22
ENDBRANCH  11  13
ENDBRANCH   8  11
BRANCH  10  30
HETATM   30  N   UNL     1      -7.779  -0.839 -33.358  1.00  0.00    -0.301 N 
HETATM   31  C   UNL     1      -7.165  -0.800 -34.575  1.00  0.00     0.365 C 
HETATM   32  O   UNL     1      -6.833   0.177 -35.232  1.00  0.00    -0.238 OA
HETATM   33  H   UNL     1      -7.867  -1.754 -32.940  1.00  0.00     0.171 HD
BRANCH  31  34
HETATM   34  O   UNL     1      -6.896  -2.068 -34.984  1.00  0.00    -0.302 OA
BRANCH  34  35
HETATM   35  C   UNL     1      -6.029  -2.868 -34.147  1.00  0.00     0.215 C 
BRANCH  35  36
HETATM   36  C   UNL     1      -4.521  -2.788 -34.491  1.00  0.00     0.233 C 
HETATM   37  N   UNL     1      -3.796  -1.767 -33.624  1.00  0.00    -0.065 N 
HETATM   38  H   UNL     1      -2.890  -1.522 -34.039  1.00  0.00     0.277 HD
HETATM   39  H   UNL     1      -4.351  -0.883 -33.625  1.00  0.00     0.277 HD
HETATM   40  C   UNL     1      -3.619  -2.172 -32.187  1.00  0.00     0.259 C 
HETATM   41  C   UNL     1      -3.041  -3.586 -32.110  1.00  0.00     0.195 C 
HETATM   42  O   UNL     1      -3.823  -4.505 -32.887  1.00  0.00    -0.387 OA
HETATM   43  C   UNL     1      -3.829  -4.147 -34.276  1.00  0.00     0.202 C 
ENDBRANCH  35  36
ENDBRANCH  34  35
ENDBRANCH  31  34
ENDBRANCH  10  30
TORSDOF 8
ENDMDL
MODEL 7
REMARK VINA RESULT:      -8.9      5.285      9.040
REMARK  8 active torsions:
REMARK  status: ('A' for Active; 'I' for Inactive)
REMARK    1  A    between atoms: C_8  and  N_9 
REMARK    2  A    between atoms: N_9  and  C_10 
REMARK    3  A    between atoms: N_14  and  C_15 
REMARK    4  A    between atoms: C_15  and  C_16 
REMARK    5  A    between atoms: C_28  and  N_29 
REMARK       I    between atoms: N_29  and  C_30 
REMARK    6  A    between atoms: C_30  and  O_31 
REMARK    7  A    between atoms: O_31  and  C_32 
REMARK    8  A    between atoms: C_32  and  C_33 
ROOT
HETATM    1  C   UNL     1      -9.736   2.805 -31.200  1.00  0.00     0.053 C 
HETATM    2  C   UNL     1      -9.368   4.247 -31.134  1.00  0.00    -0.002 A 
HETATM    3  C   UNL     1      -8.364   4.829 -30.361  1.00  0.00     0.106 A 
HETATM    4  N   UNL     1      -8.361   6.171 -30.607  1.00  0.00    -0.238 N 
HETATM    5  N   UNL     1      -7.545   7.065 -30.037  1.00  0.00    -0.161 NA
HETATM    6  C   UNL     1      -6.698   6.540 -29.211  1.00  0.00     0.257 A 
HETATM    7  N   UNL     1      -6.568   5.213 -28.906  1.00  0.00    -0.226 NA
HETATM    8  C   UNL     1      -7.356   4.333 -29.452  1.00  0.00     0.138 A 
HETATM    9  C   UNL     1      -9.301   6.468 -31.552  1.00  0.00     0.149 A 
HETATM   10  C   UNL     1      -9.935   5.306 -31.918  1.00  0.00     0.062 A 
ENDROOT
BRANCH   8  11
HETATM   11  N   UNL     1      -7.212   2.984 -29.164  1.00  0.00    -0.242 NA
HETATM   12  H   UNL     1      -8.082   2.472 -29.178  1.00  0.00     0.135 HD
BRANCH  11  13
HETATM   13  C   UNL     1      -6.193   2.211 -29.793  1.00  0.00     0.015 A 
HETATM   14  C   UNL     1      -5.298   2.767 -30.719  1.00  0.00     0.039 A 
HETATM   15  C   UNL     1      -4.398   1.934 -31.409  1.00  0.00     0.013 A 
HETATM   16  C   UNL     1      -4.395   0.568 -31.148  1.00  0.00     0.065 A 
HETATM   17  C   UNL     1      -3.409   2.113 -32.399  1.00  0.00     0.152 A 
HETATM   18  N   UNL     1      -3.502   0.033 -32.051  1.00  0.00    -0.265 N 
HETATM   19  C   UNL     1      -5.218  -0.009 -30.175  1.00  0.00     0.034 A 
HETATM   20  N   UNL     1      -2.858   0.962 -32.793  1.00  0.00    -0.183 NA
HETATM   21  C   UNL     1      -6.105   0.840 -29.502  1.00  0.00     0.026 A 
BRANCH  18  22
HETATM   22  C   UNL     1      -3.278  -1.383 -32.332  1.00  0.00     0.190 C 
BRANCH  22  23
HETATM   23  C   UNL     1      -4.311  -1.959 -33.279  1.00  0.00    -0.035 A 
HETATM   24  C   UNL     1      -5.419  -1.204 -33.704  1.00  0.00     0.051 A 
HETATM   25  C   UNL     1      -6.364  -1.769 -34.555  1.00  0.00     0.117 A 
HETATM   26  F   UNL     1      -7.434  -1.053 -34.922  1.00  0.00    -0.206 F 
HETATM   27  C   UNL     1      -6.219  -3.069 -35.023  1.00  0.00     0.042 A 
HETATM   28  C   UNL     1      -5.108  -3.816 -34.639  1.00  0.00     0.004 A 
HETATM   29  C   UNL     1      -4.158  -3.264 -33.774  1.00  0.00     0.009 A 
ENDBRANCH  22  23
ENDBRANCH  18  22
ENDBRANCH  11  13
ENDBRANCH   8  11
BRANCH  10  30
HETATM   30  N   UNL     1     -10.920   5.172 -32.881  1.00  0.00    -0.301 N 
HETATM   31  C   UNL     1     -10.768   4.549 -34.084  1.00  0.00     0.365 C 
HETATM   32  O   UNL     1      -9.757   4.059 -34.568  1.00  0.00    -0.238 OA
HETATM   33  H   UNL     1     -11.869   5.408 -32.625  1.00  0.00     0.171 HD
BRANCH  31  34
HETATM   34  O   UNL     1     -11.972   4.481 -34.711  1.00  0.00    -0.302 OA
BRANCH  34  35
HETATM   35  C   UNL     1     -13.063   3.856 -33.994  1.00  0.00     0.215 C 
BRANCH  35  36
HETATM   36  C   UNL     1     -12.765   2.440 -33.443  1.00  0.00     0.233 C 
HETATM   37  N   UNL     1     -13.806   2.000 -32.421  1.00  0.00    -0.065 N 
HETATM   38  H   UNL     1     -13.455   1.209 -31.869  1.00  0.00     0.277 HD
HETATM   39  H   UNL     1     -13.943   2.776 -31.738  1.00  0.00     0.277 HD
HETATM   40  C   UNL     1     -15.158   1.676 -32.995  1.00  0.00     0.259 C 
HETATM   41  C   UNL     1     -15.006   0.729 -34.187  1.00  0.00     0.195 C 
HETATM   42  O   UNL     1     -14.071   1.249 -35.142  1.00  0.00    -0.387 OA
HETATM   43  C   UNL     1     -12.763   1.394 -34.574  1.00  0.00     0.202 C 
ENDBRANCH  35  36
ENDBRANCH  34  35
ENDBRANCH  31  34
ENDBRANCH  10  30
TORSDOF 8
ENDMDL
MODEL 8
REMARK VINA RESULT:      -8.8      1.688      2.103
REMARK  8 active torsions:
REMARK  status: ('A' for Active; 'I' for Inactive)
REMARK    1  A    between atoms: C_8  and  N_9 
REMARK    2  A    between atoms: N_9  and  C_10 
REMARK    3  A    between atoms: N_14  and  C_15 
REMARK    4  A    between atoms: C_15  and  C_16 
REMARK    5  A    between atoms: C_28  and  N_29 
REMARK       I    between atoms: N_29  and  C_30 
REMARK    6  A    between atoms: C_30  and  O_31 
REMARK    7  A    between atoms: O_31  and  C_32 
REMARK    8  A    between atoms: C_32  and  C_33 
ROOT
HETATM    1  C   UNL     1      -3.727   6.286 -30.084  1.00  0.00     0.053 C 
HETATM    2  C   UNL     1      -2.670   5.868 -31.046  1.00  0.00    -0.002 A 
HETATM    3  C   UNL     1      -2.790   5.735 -32.430  1.00  0.00     0.106 A 
HETATM    4  N   UNL     1      -1.582   5.339 -32.925  1.00  0.00    -0.238 N 
HETATM    5  N   UNL     1      -1.313   5.094 -34.213  1.00  0.00    -0.161 NA
HETATM    6  C   UNL     1      -2.321   5.292 -35.000  1.00  0.00     0.257 A 
HETATM    7  N   UNL     1      -3.567   5.724 -34.640  1.00  0.00    -0.226 NA
HETATM    8  C   UNL     1      -3.844   5.966 -33.391  1.00  0.00     0.138 A 
HETATM    9  C   UNL     1      -0.672   5.258 -31.911  1.00  0.00     0.149 A 
HETATM   10  C   UNL     1      -1.297   5.593 -30.735  1.00  0.00     0.062 A 
ENDROOT
BRANCH   8  11
HETATM   11  N   UNL     1      -5.099   6.428 -33.024  1.00  0.00    -0.242 NA
HETATM   12  H   UNL     1      -5.434   7.186 -33.599  1.00  0.00     0.135 HD
BRANCH  11  13
HETATM   13  C   UNL     1      -6.163   5.517 -32.766  1.00  0.00     0.015 A 
HETATM   14  C   UNL     1      -6.849   5.496 -31.542  1.00  0.00     0.039 A 
HETATM   15  C   UNL     1      -7.801   4.490 -31.291  1.00  0.00     0.013 A 
HETATM   16  C   UNL     1      -8.064   3.538 -32.270  1.00  0.00     0.065 A 
HETATM   17  C   UNL     1      -8.635   4.134 -30.211  1.00  0.00     0.152 A 
HETATM   18  N   UNL     1      -8.936   2.649 -31.680  1.00  0.00    -0.265 N 
HETATM   19  C   UNL     1      -7.457   3.576 -33.530  1.00  0.00     0.034 A 
HETATM   20  N   UNL     1      -9.330   3.017 -30.441  1.00  0.00    -0.183 NA
HETATM   21  C   UNL     1      -6.513   4.586 -33.757  1.00  0.00     0.026 A 
BRANCH  18  22
HETATM   22  C   UNL     1      -9.367   1.358 -32.211  1.00  0.00     0.190 C 
BRANCH  22  23
HETATM   23  C   UNL     1      -8.203   0.435 -32.513  1.00  0.00    -0.035 A 
HETATM   24  C   UNL     1      -8.140  -0.301 -33.709  1.00  0.00     0.051 A 
HETATM   25  C   UNL     1      -7.071  -1.159 -33.946  1.00  0.00     0.117 A 
HETATM   26  F   UNL     1      -7.043  -1.884 -35.072  1.00  0.00    -0.206 F 
HETATM   27  C   UNL     1      -6.035  -1.283 -33.029  1.00  0.00     0.042 A 
HETATM   28  C   UNL     1      -6.065  -0.533 -31.856  1.00  0.00     0.004 A 
HETATM   29  C   UNL     1      -7.142   0.324 -31.599  1.00  0.00     0.009 A 
ENDBRANCH  22  23
ENDBRANCH  18  22
ENDBRANCH  11  13
ENDBRANCH   8  11
BRANCH  10  30
HETATM   30  N   UNL     1      -0.711   5.676 -29.483  1.00  0.00    -0.301 N 
HETATM   31  C   UNL     1       0.204   6.611 -29.101  1.00  0.00     0.365 C 
HETATM   32  O   UNL     1       0.723   7.492 -29.774  1.00  0.00    -0.238 OA
HETATM   33  H   UNL     1      -1.094   5.107 -28.742  1.00  0.00     0.171 HD
BRANCH  31  34
HETATM   34  O   UNL     1       0.454   6.479 -27.772  1.00  0.00    -0.302 OA
BRANCH  34  35
HETATM   35  C   UNL     1       0.232   7.638 -26.933  1.00  0.00     0.215 C 
BRANCH  35  36
HETATM   36  C   UNL     1      -1.210   8.203 -26.957  1.00  0.00     0.233 C 
HETATM   37  N   UNL     1      -1.808   8.285 -25.558  1.00  0.00    -0.065 N 
HETATM   38  H   UNL     1      -2.828   8.386 -25.609  1.00  0.00     0.277 HD
HETATM   39  H   UNL     1      -1.642   7.375 -25.076  1.00  0.00     0.277 HD
HETATM   40  C   UNL     1      -1.221   9.359 -24.683  1.00  0.00     0.259 C 
HETATM   41  C   UNL     1      -1.194  10.690 -25.435  1.00  0.00     0.195 C 
HETATM   42  O   UNL     1      -0.546  10.549 -26.708  1.00  0.00    -0.387 OA
HETATM   43  C   UNL     1      -1.240   9.623 -27.553  1.00  0.00     0.202 C 
ENDBRANCH  35  36
ENDBRANCH  34  35
ENDBRANCH  31  34
ENDBRANCH  10  30
TORSDOF 8
ENDMDL
MODEL 9
REMARK VINA RESULT:      -8.8      2.466      4.288
REMARK  8 active torsions:
REMARK  status: ('A' for Active; 'I' for Inactive)
REMARK    1  A    between atoms: C_8  and  N_9 
REMARK    2  A    between atoms: N_9  and  C_10 
REMARK    3  A    between atoms: N_14  and  C_15 
REMARK    4  A    between atoms: C_15  and  C_16 
REMARK    5  A    between atoms: C_28  and  N_29 
REMARK       I    between atoms: N_29  and  C_30 
REMARK    6  A    between atoms: C_30  and  O_31 
REMARK    7  A    between atoms: O_31  and  C_32 
REMARK    8  A    between atoms: C_32  and  C_33 
ROOT
HETATM    1  C   UNL     1      -5.238   5.748 -32.941  1.00  0.00     0.053 C 
HETATM    2  C   UNL     1      -5.855   6.203 -31.665  1.00  0.00    -0.002 A 
HETATM    3  C   UNL     1      -7.137   5.917 -31.196  1.00  0.00     0.106 A 
HETATM    4  N   UNL     1      -7.292   6.524 -29.984  1.00  0.00    -0.238 N 
HETATM    5  N   UNL     1      -8.399   6.487 -29.232  1.00  0.00    -0.161 NA
HETATM    6  C   UNL     1      -9.352   5.780 -29.748  1.00  0.00     0.257 A 
HETATM    7  N   UNL     1      -9.314   5.091 -30.928  1.00  0.00    -0.226 NA
HETATM    8  C   UNL     1      -8.244   5.119 -31.671  1.00  0.00     0.138 A 
HETATM    9  C   UNL     1      -6.134   7.154 -29.633  1.00  0.00     0.149 A 
HETATM   10  C   UNL     1      -5.213   6.967 -30.634  1.00  0.00     0.062 A 
ENDROOT
BRANCH   8  11
HETATM   11  N   UNL     1      -8.191   4.402 -32.856  1.00  0.00    -0.242 NA
HETATM   12  H   UNL     1      -7.919   4.958 -33.653  1.00  0.00     0.135 HD
BRANCH  11  13
HETATM   13  C   UNL     1      -7.540   3.136 -32.912  1.00  0.00     0.015 A 
HETATM   14  C   UNL     1      -7.445   2.294 -31.793  1.00  0.00     0.039 A 
HETATM   15  C   UNL     1      -6.677   1.117 -31.866  1.00  0.00     0.013 A 
HETATM   16  C   UNL     1      -6.038   0.792 -33.057  1.00  0.00     0.065 A 
HETATM   17  C   UNL     1      -6.331   0.078 -30.977  1.00  0.00     0.152 A 
HETATM   18  N   UNL     1      -5.293  -0.331 -32.768  1.00  0.00    -0.265 N 
HETATM   19  C   UNL     1      -6.175   1.565 -34.214  1.00  0.00     0.034 A 
HETATM   20  N   UNL     1      -5.491  -0.807 -31.518  1.00  0.00    -0.183 NA
HETATM   21  C   UNL     1      -6.944   2.732 -34.117  1.00  0.00     0.026 A 
BRANCH  18  22
HETATM   22  C   UNL     1      -4.284  -0.958 -33.618  1.00  0.00     0.190 C 
BRANCH  22  23
HETATM   23  C   UNL     1      -4.621  -2.396 -33.958  1.00  0.00    -0.035 A 
HETATM   24  C   UNL     1      -5.763  -2.724 -34.711  1.00  0.00     0.051 A 
HETATM   25  C   UNL     1      -6.059  -4.055 -34.987  1.00  0.00     0.117 A 
HETATM   26  F   UNL     1      -7.170  -4.356 -35.672  1.00  0.00    -0.206 F 
HETATM   27  C   UNL     1      -5.225  -5.078 -34.556  1.00  0.00     0.042 A 
HETATM   28  C   UNL     1      -4.072  -4.767 -33.840  1.00  0.00     0.004 A 
HETATM   29  C   UNL     1      -3.769  -3.433 -33.544  1.00  0.00     0.009 A 
ENDBRANCH  22  23
ENDBRANCH  18  22
ENDBRANCH  11  13
ENDBRANCH   8  11
BRANCH  10  30
HETATM   30  N   UNL     1      -3.901   7.410 -30.643  1.00  0.00    -0.301 N 
HETATM   31  C   UNL     1      -3.501   8.686 -30.906  1.00  0.00     0.365 C 
HETATM   32  O   UNL     1      -4.182   9.647 -31.238  1.00  0.00    -0.238 OA
HETATM   33  H   UNL     1      -3.190   6.793 -30.277  1.00  0.00     0.171 HD
BRANCH  31  34
HETATM   34  O   UNL     1      -2.164   8.793 -30.688  1.00  0.00    -0.302 OA
BRANCH  34  35
HETATM   35  C   UNL     1      -1.525   7.736 -29.933  1.00  0.00     0.215 C 
BRANCH  35  36
HETATM   36  C   UNL     1       0.012   7.646 -30.095  1.00  0.00     0.233 C 
HETATM   37  N   UNL     1       0.698   7.283 -28.784  1.00  0.00    -0.065 N 
HETATM   38  H   UNL     1       1.701   7.500 -28.832  1.00  0.00     0.277 HD
HETATM   39  H   UNL     1       0.317   7.897 -28.033  1.00  0.00     0.277 HD
HETATM   40  C   UNL     1       0.494   5.862 -28.336  1.00  0.00     0.259 C 
HETATM   41  C   UNL     1       0.791   4.903 -29.490  1.00  0.00     0.195 C 
HETATM   42  O   UNL     1       0.048   5.262 -30.663  1.00  0.00    -0.387 OA
HETATM   43  C   UNL     1       0.399   6.572 -31.129  1.00  0.00     0.202 C 
ENDBRANCH  35  36
ENDBRANCH  34  35
ENDBRANCH  31  34
ENDBRANCH  10  30
TORSDOF 8
ENDMDL
MODEL 10
REMARK VINA RESULT:      -8.8      5.480     11.014
REMARK  8 active torsions:
REMARK  status: ('A' for Active; 'I' for Inactive)
REMARK    1  A    between atoms: C_8  and  N_9 
REMARK    2  A    between atoms: N_9  and  C_10 
REMARK    3  A    between atoms: N_14  and  C_15 
REMARK    4  A    between atoms: C_15  and  C_16 
REMARK    5  A    between atoms: C_28  and  N_29 
REMARK       I    between atoms: N_29  and  C_30 
REMARK    6  A    between atoms: C_30  and  O_31 
REMARK    7  A    between atoms: O_31  and  C_32 
REMARK    8  A    between atoms: C_32  and  C_33 
ROOT
HETATM    1  C   UNL     1      -6.089   3.334 -34.216  1.00  0.00     0.053 C 
HETATM    2  C   UNL     1      -6.055   2.081 -33.413  1.00  0.00    -0.002 A 
HETATM    3  C   UNL     1      -5.005   1.612 -32.622  1.00  0.00     0.106 A 
HETATM    4  N   UNL     1      -5.394   0.433 -32.055  1.00  0.00    -0.238 N 
HETATM    5  N   UNL     1      -4.646  -0.322 -31.242  1.00  0.00    -0.161 NA
HETATM    6  C   UNL     1      -3.478   0.179 -30.998  1.00  0.00     0.257 A 
HETATM    7  N   UNL     1      -2.982   1.364 -31.467  1.00  0.00    -0.226 NA
HETATM    8  C   UNL     1      -3.698   2.109 -32.259  1.00  0.00     0.138 A 
HETATM    9  C   UNL     1      -6.679   0.150 -32.417  1.00  0.00     0.149 A 
HETATM   10  C   UNL     1      -7.132   1.150 -33.242  1.00  0.00     0.062 A 
ENDROOT
BRANCH   8  11
HETATM   11  N   UNL     1      -3.209   3.323 -32.717  1.00  0.00    -0.242 NA
HETATM   12  H   UNL     1      -3.689   3.670 -33.534  1.00  0.00     0.135 HD
BRANCH  11  13
HETATM   13  C   UNL     1      -2.967   4.397 -31.813  1.00  0.00     0.015 A 
HETATM   14  C   UNL     1      -3.995   4.984 -31.058  1.00  0.00     0.039 A 
HETATM   15  C   UNL     1      -3.728   6.127 -30.281  1.00  0.00     0.013 A 
HETATM   16  C   UNL     1      -2.439   6.649 -30.257  1.00  0.00     0.065 A 
HETATM   17  C   UNL     1      -4.479   6.982 -29.449  1.00  0.00     0.152 A 
HETATM   18  N   UNL     1      -2.536   7.806 -29.514  1.00  0.00    -0.265 N 
HETATM   19  C   UNL     1      -1.374   6.044 -30.933  1.00  0.00     0.034 A 
HETATM   20  N   UNL     1      -3.761   8.005 -28.977  1.00  0.00    -0.183 NA
HETATM   21  C   UNL     1      -1.665   4.909 -31.699  1.00  0.00     0.026 A 
BRANCH  18  22
HETATM   22  C   UNL     1      -1.512   8.834 -29.352  1.00  0.00     0.190 C 
BRANCH  22  23
HETATM   23  C   UNL     1      -0.597   8.564 -28.175  1.00  0.00    -0.035 A 
HETATM   24  C   UNL     1      -0.914   9.012 -26.880  1.00  0.00     0.051 A 
HETATM   25  C   UNL     1      -0.042   8.769 -25.824  1.00  0.00     0.117 A 
HETATM   26  F   UNL     1      -0.337   9.236 -24.603  1.00  0.00    -0.206 F 
HETATM   27  C   UNL     1       1.135   8.058 -26.016  1.00  0.00     0.042 A 
HETATM   28  C   UNL     1       1.445   7.576 -27.286  1.00  0.00     0.004 A 
HETATM   29  C   UNL     1       0.583   7.825 -28.359  1.00  0.00     0.009 A 
ENDBRANCH  22  23
ENDBRANCH  18  22
ENDBRANCH  11  13
ENDBRANCH   8  11
BRANCH  10  30
HETATM   30  N   UNL     1      -8.399   1.258 -33.789  1.00  0.00    -0.301 N 
HETATM   31  C   UNL     1      -9.509   1.697 -33.129  1.00  0.00     0.365 C 
HETATM   32  O   UNL     1      -9.623   2.010 -31.952  1.00  0.00    -0.238 OA
HETATM   33  H   UNL     1      -8.494   1.158 -34.790  1.00  0.00     0.171 HD
BRANCH  31  34
HETATM   34  O   UNL     1     -10.540   1.808 -34.007  1.00  0.00    -0.302 OA
BRANCH  34  35
HETATM   35  C   UNL     1     -11.876   1.581 -33.498  1.00  0.00     0.215 C 
BRANCH  35  36
HETATM   36  C   UNL     1     -12.949   2.581 -33.993  1.00  0.00     0.233 C 
HETATM   37  N   UNL     1     -14.221   1.872 -34.439  1.00  0.00    -0.065 N 
HETATM   38  H   UNL     1     -14.798   2.496 -35.014  1.00  0.00     0.277 HD
HETATM   39  H   UNL     1     -13.954   1.084 -35.068  1.00  0.00     0.277 HD
HETATM   40  C   UNL     1     -15.041   1.284 -33.323  1.00  0.00     0.259 C 
HETATM   41  C   UNL     1     -15.254   2.329 -32.226  1.00  0.00     0.195 C 
HETATM   42  O   UNL     1     -14.005   2.894 -31.803  1.00  0.00    -0.387 OA
HETATM   43  C   UNL     1     -13.342   3.570 -32.879  1.00  0.00     0.202 C 
ENDBRANCH  35  36
ENDBRANCH  34  35
ENDBRANCH  31  34
ENDBRANCH  10  30
TORSDOF 8
ENDMDL
