MODEL 1
REMARK VINA RESULT:      -7.5      0.000      0.000
REMARK  6 active torsions:
REMARK  status: ('A' for Active; 'I' for Inactive)
REMARK    1  A    between atoms: C_4  and  C_5 
REMARK    2  A    between atoms: C_7  and  N_8 
REMARK    3  A    between atoms: N_8  and  C_9 
REMARK    4  A    between atoms: C_9  and  C_10 
REMARK    5  A    between atoms: C_10  and  C_11 
REMARK    6  A    between atoms: C_11  and  N_12 
ROOT
HETATM    1  C   UNL     1      -5.549  -0.737 -33.685  1.00  0.00     0.162 C 
HETATM    2  N   UNL     1      -6.614   0.016 -34.047  1.00  0.00    -0.216 NA
HETATM    3  C   UNL     1      -6.670   1.264 -33.525  1.00  0.00     0.118 C 
HETATM    4  C   UNL     1      -5.585   1.847 -32.837  1.00  0.00     0.033 A 
HETATM    5  C   UNL     1      -4.505   0.994 -32.598  1.00  0.00     0.072 A 
HETATM    6  N   UNL     1      -4.497  -0.278 -32.995  1.00  0.00    -0.228 NA
HETATM    7  C   UNL     1      -5.514   3.194 -32.389  1.00  0.00     0.017 A 
HETATM    8  C   UNL     1      -4.391   3.665 -31.711  1.00  0.00     0.001 A 
HETATM    9  C   UNL     1      -3.330   2.805 -31.470  1.00  0.00     0.002 A 
HETATM   10  C   UNL     1      -3.397   1.483 -31.916  1.00  0.00     0.032 A 
ENDROOT
BRANCH   3  11
HETATM   11  N   UNL     1      -7.823   2.045 -33.781  1.00  0.00    -0.277 NA
HETATM   12  H   UNL     1      -8.156   2.395 -32.879  1.00  0.00     0.129 HD
BRANCH  11  13
HETATM   13  C   UNL     1      -8.931   1.416 -34.496  1.00  0.00     0.095 C 
BRANCH  13  14
HETATM   14  C   UNL     1     -10.111   1.196 -33.551  1.00  0.00     0.042 C 
BRANCH  14  15
HETATM   15  C   UNL     1      -9.958   0.040 -32.572  1.00  0.00     0.230 C 
BRANCH  15  16
HETATM   16  N   UNL     1      -9.347   0.479 -31.302  1.00  0.00    -0.079 N 
HETATM   17  H   UNL     1      -8.452  -0.031 -31.153  1.00  0.00     0.274 HD
HETATM   18  H   UNL     1      -9.143   1.483 -31.281  1.00  0.00     0.274 HD
HETATM   19  H   UNL     1      -9.941   0.247 -30.498  1.00  0.00     0.274 HD
ENDBRANCH  15  16
ENDBRANCH  14  15
ENDBRANCH  13  14
ENDBRANCH  11  13
ENDBRANCH   3  11
BRANCH   1  20
HETATM   20  C   UNL     1      -5.523  -2.163 -34.076  1.00  0.00     0.012 A 
HETATM   21  C   UNL     1      -4.376  -2.966 -33.932  1.00  0.00     0.015 A 
HETATM   22  C   UNL     1      -4.377  -4.318 -34.295  1.00  0.00     0.001 A 
HETATM   23  C   UNL     1      -5.522  -4.895 -34.833  1.00  0.00     0.000 A 
HETATM   24  C   UNL     1      -6.666  -4.124 -35.007  1.00  0.00     0.001 A 
HETATM   25  C   UNL     1      -6.664  -2.778 -34.629  1.00  0.00     0.015 A 
ENDBRANCH   1  20
TORSDOF 6
ENDMDL
MODEL 2
REMARK VINA RESULT:      -7.4      2.433      3.344
REMARK  6 active torsions:
REMARK  status: ('A' for Active; 'I' for Inactive)
REMARK    1  A    between atoms: C_4  and  C_5 
REMARK    2  A    between atoms: C_7  and  N_8 
REMARK    3  A    between atoms: N_8  and  C_9 
REMARK    4  A    between atoms: C_9  and  C_10 
REMARK    5  A    between atoms: C_10  and  C_11 
REMARK    6  A    between atoms: C_11  and  N_12 
ROOT
HETATM    1  C   UNL     1      -7.450  -0.177 -32.954  1.00  0.00     0.162 C 
HETATM    2  N   UNL     1      -8.728  -0.079 -33.391  1.00  0.00    -0.216 NA
HETATM    3  C   UNL     1      -9.525   0.787 -32.722  1.00  0.00     0.118 C 
HETATM    4  C   UNL     1      -9.019   1.711 -31.783  1.00  0.00     0.033 A 
HETATM    5  C   UNL     1      -7.664   1.567 -31.477  1.00  0.00     0.072 A 
HETATM    6  N   UNL     1      -6.901   0.627 -32.036  1.00  0.00    -0.228 NA
HETATM    7  C   UNL     1      -9.763   2.744 -31.152  1.00  0.00     0.017 A 
HETATM    8  C   UNL     1      -9.162   3.600 -30.231  1.00  0.00     0.001 A 
HETATM    9  C   UNL     1      -7.818   3.439 -29.928  1.00  0.00     0.002 A 
HETATM   10  C   UNL     1      -7.085   2.428 -30.552  1.00  0.00     0.032 A 
ENDROOT
BRANCH   3  11
HETATM   11  N   UNL     1     -10.896   0.837 -33.068  1.00  0.00    -0.277 NA
HETATM   12  H   UNL     1     -11.229  -0.130 -33.118  1.00  0.00     0.129 HD
BRANCH  11  13
HETATM   13  C   UNL     1     -11.269   1.542 -34.292  1.00  0.00     0.095 C 
BRANCH  13  14
HETATM   14  C   UNL     1     -12.702   1.188 -34.688  1.00  0.00     0.042 C 
BRANCH  14  15
HETATM   15  C   UNL     1     -13.614   0.776 -33.542  1.00  0.00     0.230 C 
BRANCH  15  16
HETATM   16  N   UNL     1     -13.749  -0.692 -33.454  1.00  0.00    -0.079 N 
HETATM   17  H   UNL     1     -12.848  -1.105 -33.134  1.00  0.00     0.274 HD
HETATM   18  H   UNL     1     -14.480  -0.989 -32.800  1.00  0.00     0.274 HD
HETATM   19  H   UNL     1     -13.940  -1.109 -34.372  1.00  0.00     0.274 HD
ENDBRANCH  15  16
ENDBRANCH  14  15
ENDBRANCH  13  14
ENDBRANCH  11  13
ENDBRANCH   3  11
BRANCH   1  20
HETATM   20  C   UNL     1      -6.585  -1.232 -33.524  1.00  0.00     0.012 A 
HETATM   21  C   UNL     1      -7.088  -2.269 -34.331  1.00  0.00     0.015 A 
HETATM   22  C   UNL     1      -6.248  -3.250 -34.873  1.00  0.00     0.001 A 
HETATM   23  C   UNL     1      -4.885  -3.229 -34.600  1.00  0.00     0.000 A 
HETATM   24  C   UNL     1      -4.359  -2.230 -33.789  1.00  0.00     0.001 A 
HETATM   25  C   UNL     1      -5.199  -1.244 -33.264  1.00  0.00     0.015 A 
ENDBRANCH   1  20
TORSDOF 6
ENDMDL
MODEL 3
REMARK VINA RESULT:      -7.3      1.529      2.006
REMARK  6 active torsions:
REMARK  status: ('A' for Active; 'I' for Inactive)
REMARK    1  A    between atoms: C_4  and  C_5 
REMARK    2  A    between atoms: C_7  and  N_8 
REMARK    3  A    between atoms: N_8  and  C_9 
REMARK    4  A    between atoms: C_9  and  C_10 
REMARK    5  A    between atoms: C_10  and  C_11 
REMARK    6  A    between atoms: C_11  and  N_12 
ROOT
HETATM    1  C   UNL     1      -6.257  -0.800 -34.166  1.00  0.00     0.162 C 
HETATM    2  N   UNL     1      -7.438  -0.411 -34.701  1.00  0.00    -0.216 NA
HETATM    3  C   UNL     1      -7.845   0.845 -34.405  1.00  0.00     0.118 C 
HETATM    4  C   UNL     1      -7.002   1.787 -33.777  1.00  0.00     0.033 A 
HETATM    5  C   UNL     1      -5.771   1.287 -33.345  1.00  0.00     0.072 A 
HETATM    6  N   UNL     1      -5.416   0.014 -33.517  1.00  0.00    -0.228 NA
HETATM    7  C   UNL     1      -7.303   3.159 -33.565  1.00  0.00     0.017 A 
HETATM    8  C   UNL     1      -6.396   4.002 -32.927  1.00  0.00     0.001 A 
HETATM    9  C   UNL     1      -5.181   3.491 -32.492  1.00  0.00     0.002 A 
HETATM   10  C   UNL     1      -4.882   2.144 -32.706  1.00  0.00     0.032 A 
ENDROOT
BRANCH   3  11
HETATM   11  N   UNL     1      -9.126   1.254 -34.846  1.00  0.00    -0.277 NA
HETATM   12  H   UNL     1      -9.062   2.250 -35.074  1.00  0.00     0.129 HD
BRANCH  11  13
HETATM   13  C   UNL     1     -10.260   1.034 -33.952  1.00  0.00     0.095 C 
BRANCH  13  14
HETATM   14  C   UNL     1     -10.987   2.352 -33.688  1.00  0.00     0.042 C 
BRANCH  14  15
HETATM   15  C   UNL     1     -11.881   2.843 -34.819  1.00  0.00     0.230 C 
BRANCH  15  16
HETATM   16  N   UNL     1     -12.068   1.806 -35.854  1.00  0.00    -0.079 N 
HETATM   17  H   UNL     1     -11.500   0.968 -35.613  1.00  0.00     0.274 HD
HETATM   18  H   UNL     1     -13.044   1.507 -35.950  1.00  0.00     0.274 HD
HETATM   19  H   UNL     1     -11.731   2.123 -36.770  1.00  0.00     0.274 HD
ENDBRANCH  15  16
ENDBRANCH  14  15
ENDBRANCH  13  14
ENDBRANCH  11  13
ENDBRANCH   3  11
BRANCH   1  20
HETATM   20  C   UNL     1      -5.846  -2.214 -34.304  1.00  0.00     0.012 A 
HETATM   21  C   UNL     1      -4.543  -2.656 -34.009  1.00  0.00     0.015 A 
HETATM   22  C   UNL     1      -4.179  -4.003 -34.133  1.00  0.00     0.001 A 
HETATM   23  C   UNL     1      -5.108  -4.938 -34.576  1.00  0.00     0.000 A 
HETATM   24  C   UNL     1      -6.398  -4.530 -34.895  1.00  0.00     0.001 A 
HETATM   25  C   UNL     1      -6.761  -3.187 -34.755  1.00  0.00     0.015 A 
ENDBRANCH   1  20
TORSDOF 6
ENDMDL
MODEL 4
REMARK VINA RESULT:      -7.2      1.108      1.560
REMARK  6 active torsions:
REMARK  status: ('A' for Active; 'I' for Inactive)
REMARK    1  A    between atoms: C_4  and  C_5 
REMARK    2  A    between atoms: C_7  and  N_8 
REMARK    3  A    between atoms: N_8  and  C_9 
REMARK    4  A    between atoms: C_9  and  C_10 
REMARK    5  A    between atoms: C_10  and  C_11 
REMARK    6  A    between atoms: C_11  and  N_12 
ROOT
HETATM    1  C   UNL     1      -5.782  -0.597 -33.005  1.00  0.00     0.162 C 
HETATM    2  N   UNL     1      -6.972  -0.183 -32.509  1.00  0.00    -0.216 NA
HETATM    3  C   UNL     1      -6.946   0.935 -31.747  1.00  0.00     0.118 C 
HETATM    4  C   UNL     1      -5.808   1.765 -31.656  1.00  0.00     0.033 A 
HETATM    5  C   UNL     1      -4.661   1.272 -32.283  1.00  0.00     0.072 A 
HETATM    6  N   UNL     1      -4.644   0.104 -32.926  1.00  0.00    -0.228 NA
HETATM    7  C   UNL     1      -5.749   3.023 -30.998  1.00  0.00     0.017 A 
HETATM    8  C   UNL     1      -4.567   3.759 -30.965  1.00  0.00     0.001 A 
HETATM    9  C   UNL     1      -3.431   3.254 -31.582  1.00  0.00     0.002 A 
HETATM   10  C   UNL     1      -3.491   2.020 -32.233  1.00  0.00     0.032 A 
ENDROOT
BRANCH   3  11
HETATM   11  N   UNL     1      -8.145   1.339 -31.112  1.00  0.00    -0.277 NA
HETATM   12  H   UNL     1      -8.292   0.708 -30.318  1.00  0.00     0.129 HD
BRANCH  11  13
HETATM   13  C   UNL     1      -9.362   1.395 -31.918  1.00  0.00     0.095 C 
BRANCH  13  14
HETATM   14  C   UNL     1      -9.368   2.662 -32.773  1.00  0.00     0.042 C 
BRANCH  14  15
HETATM   15  C   UNL     1      -9.437   2.436 -34.277  1.00  0.00     0.230 C 
BRANCH  15  16
HETATM   16  N   UNL     1      -9.124   1.037 -34.632  1.00  0.00    -0.079 N 
HETATM   17  H   UNL     1      -8.330   0.700 -34.049  1.00  0.00     0.274 HD
HETATM   18  H   UNL     1      -9.913   0.400 -34.486  1.00  0.00     0.274 HD
HETATM   19  H   UNL     1      -8.812   0.956 -35.607  1.00  0.00     0.274 HD
ENDBRANCH  15  16
ENDBRANCH  14  15
ENDBRANCH  13  14
ENDBRANCH  11  13
ENDBRANCH   3  11
BRANCH   1  20
HETATM   20  C   UNL     1      -5.716  -1.905 -33.692  1.00  0.00     0.012 A 
HETATM   21  C   UNL     1      -4.514  -2.623 -33.837  1.00  0.00     0.015 A 
HETATM   22  C   UNL     1      -4.476  -3.867 -34.479  1.00  0.00     0.001 A 
HETATM   23  C   UNL     1      -5.639  -4.413 -35.011  1.00  0.00     0.000 A 
HETATM   24  C   UNL     1      -6.839  -3.720 -34.902  1.00  0.00     0.001 A 
HETATM   25  C   UNL     1      -6.875  -2.485 -34.247  1.00  0.00     0.015 A 
ENDBRANCH   1  20
TORSDOF 6
ENDMDL
MODEL 5
REMARK VINA RESULT:      -7.2      1.532      3.685
REMARK  6 active torsions:
REMARK  status: ('A' for Active; 'I' for Inactive)
REMARK    1  A    between atoms: C_4  and  C_5 
REMARK    2  A    between atoms: C_7  and  N_8 
REMARK    3  A    between atoms: N_8  and  C_9 
REMARK    4  A    between atoms: C_9  and  C_10 
REMARK    5  A    between atoms: C_10  and  C_11 
REMARK    6  A    between atoms: C_11  and  N_12 
ROOT
HETATM    1  C   UNL     1      -6.389  -0.812 -33.916  1.00  0.00     0.162 C 
HETATM    2  N   UNL     1      -5.514   0.029 -33.317  1.00  0.00    -0.216 NA
HETATM    3  C   UNL     1      -5.884   1.329 -33.249  1.00  0.00     0.118 C 
HETATM    4  C   UNL     1      -7.190   1.763 -33.563  1.00  0.00     0.033 A 
HETATM    5  C   UNL     1      -8.031   0.782 -34.095  1.00  0.00     0.072 A 
HETATM    6  N   UNL     1      -7.630  -0.475 -34.287  1.00  0.00    -0.228 NA
HETATM    7  C   UNL     1      -7.694   3.078 -33.379  1.00  0.00     0.017 A 
HETATM    8  C   UNL     1      -9.004   3.400 -33.730  1.00  0.00     0.001 A 
HETATM    9  C   UNL     1      -9.825   2.419 -34.267  1.00  0.00     0.002 A 
HETATM   10  C   UNL     1      -9.332   1.125 -34.443  1.00  0.00     0.032 A 
ENDROOT
BRANCH   3  11
HETATM   11  N   UNL     1      -4.953   2.264 -32.736  1.00  0.00    -0.277 NA
HETATM   12  H   UNL     1      -4.199   2.345 -33.424  1.00  0.00     0.129 HD
BRANCH  11  13
HETATM   13  C   UNL     1      -4.381   2.006 -31.417  1.00  0.00     0.095 C 
BRANCH  13  14
HETATM   14  C   UNL     1      -5.476   2.044 -30.351  1.00  0.00     0.042 C 
BRANCH  14  15
HETATM   15  C   UNL     1      -5.752   0.721 -29.651  1.00  0.00     0.230 C 
BRANCH  15  16
HETATM   16  N   UNL     1      -6.885   0.005 -30.269  1.00  0.00    -0.079 N 
HETATM   17  H   UNL     1      -6.654  -0.227 -31.256  1.00  0.00     0.274 HD
HETATM   18  H   UNL     1      -7.118  -0.870 -29.787  1.00  0.00     0.274 HD
HETATM   19  H   UNL     1      -7.727   0.591 -30.307  1.00  0.00     0.274 HD
ENDBRANCH  15  16
ENDBRANCH  14  15
ENDBRANCH  13  14
ENDBRANCH  11  13
ENDBRANCH   3  11
BRANCH   1  20
HETATM   20  C   UNL     1      -5.966  -2.204 -34.181  1.00  0.00     0.012 A 
HETATM   21  C   UNL     1      -6.853  -3.185 -34.663  1.00  0.00     0.015 A 
HETATM   22  C   UNL     1      -6.429  -4.495 -34.921  1.00  0.00     0.001 A 
HETATM   23  C   UNL     1      -5.108  -4.860 -34.681  1.00  0.00     0.000 A 
HETATM   24  C   UNL     1      -4.212  -3.920 -34.185  1.00  0.00     0.001 A 
HETATM   25  C   UNL     1      -4.637  -2.610 -33.944  1.00  0.00     0.015 A 
ENDBRANCH   1  20
TORSDOF 6
ENDMDL
MODEL 6
REMARK VINA RESULT:      -7.1      1.151      5.267
REMARK  6 active torsions:
REMARK  status: ('A' for Active; 'I' for Inactive)
REMARK    1  A    between atoms: C_4  and  C_5 
REMARK    2  A    between atoms: C_7  and  N_8 
REMARK    3  A    between atoms: N_8  and  C_9 
REMARK    4  A    between atoms: C_9  and  C_10 
REMARK    5  A    between atoms: C_10  and  C_11 
REMARK    6  A    between atoms: C_11  and  N_12 
ROOT
HETATM    1  C   UNL     1      -5.435   1.011 -32.735  1.00  0.00     0.162 C 
HETATM    2  N   UNL     1      -6.788   0.942 -32.740  1.00  0.00    -0.216 NA
HETATM    3  C   UNL     1      -7.330  -0.121 -33.378  1.00  0.00     0.118 C 
HETATM    4  C   UNL     1      -6.558  -1.219 -33.813  1.00  0.00     0.033 A 
HETATM    5  C   UNL     1      -5.177  -1.066 -33.677  1.00  0.00     0.072 A 
HETATM    6  N   UNL     1      -4.626   0.036 -33.168  1.00  0.00    -0.228 NA
HETATM    7  C   UNL     1      -7.069  -2.429 -34.356  1.00  0.00     0.017 A 
HETATM    8  C   UNL     1      -6.212  -3.451 -34.760  1.00  0.00     0.001 A 
HETATM    9  C   UNL     1      -4.841  -3.282 -34.629  1.00  0.00     0.002 A 
HETATM   10  C   UNL     1      -4.340  -2.096 -34.090  1.00  0.00     0.032 A 
ENDROOT
BRANCH   3  11
HETATM   11  N   UNL     1      -8.739  -0.174 -33.510  1.00  0.00    -0.277 NA
HETATM   12  H   UNL     1      -8.962  -1.043 -34.003  1.00  0.00     0.129 HD
BRANCH  11  13
HETATM   13  C   UNL     1      -9.407   0.944 -34.171  1.00  0.00     0.095 C 
BRANCH  13  14
HETATM   14  C   UNL     1     -10.464   1.548 -33.246  1.00  0.00     0.042 C 
BRANCH  14  15
HETATM   15  C   UNL     1      -9.931   2.473 -32.161  1.00  0.00     0.230 C 
BRANCH  15  16
HETATM   16  N   UNL     1      -9.399   1.714 -31.012  1.00  0.00    -0.079 N 
HETATM   17  H   UNL     1      -8.406   1.461 -31.191  1.00  0.00     0.274 HD
HETATM   18  H   UNL     1      -9.435   2.239 -30.132  1.00  0.00     0.274 HD
HETATM   19  H   UNL     1      -9.897   0.825 -30.883  1.00  0.00     0.274 HD
ENDBRANCH  15  16
ENDBRANCH  14  15
ENDBRANCH  13  14
ENDBRANCH  11  13
ENDBRANCH   3  11
BRANCH   1  20
HETATM   20  C   UNL     1      -4.789   2.234 -32.213  1.00  0.00     0.012 A 
HETATM   21  C   UNL     1      -3.408   2.473 -32.339  1.00  0.00     0.015 A 
HETATM   22  C   UNL     1      -2.819   3.646 -31.850  1.00  0.00     0.001 A 
HETATM   23  C   UNL     1      -3.596   4.599 -31.202  1.00  0.00     0.000 A 
HETATM   24  C   UNL     1      -4.960   4.384 -31.043  1.00  0.00     0.001 A 
HETATM   25  C   UNL     1      -5.547   3.219 -31.547  1.00  0.00     0.015 A 
ENDBRANCH   1  20
TORSDOF 6
ENDMDL
MODEL 7
REMARK VINA RESULT:      -7.0      1.592      4.311
REMARK  6 active torsions:
REMARK  status: ('A' for Active; 'I' for Inactive)
REMARK    1  A    between atoms: C_4  and  C_5 
REMARK    2  A    between atoms: C_7  and  N_8 
REMARK    3  A    between atoms: N_8  and  C_9 
REMARK    4  A    between atoms: C_9  and  C_10 
REMARK    5  A    between atoms: C_10  and  C_11 
REMARK    6  A    between atoms: C_11  and  N_12 
ROOT
HETATM    1  C   UNL     1      -6.450  -0.759 -33.956  1.00  0.00     0.162 C 
HETATM    2  N   UNL     1      -5.583   0.145 -33.442  1.00  0.00    -0.216 NA
HETATM    3  C   UNL     1      -6.011   1.429 -33.404  1.00  0.00     0.118 C 
HETATM    4  C   UNL     1      -7.351   1.789 -33.657  1.00  0.00     0.033 A 
HETATM    5  C   UNL     1      -8.173   0.750 -34.099  1.00  0.00     0.072 A 
HETATM    6  N   UNL     1      -7.725  -0.494 -34.266  1.00  0.00    -0.228 NA
HETATM    7  C   UNL     1      -7.906   3.087 -33.495  1.00  0.00     0.017 A 
HETATM    8  C   UNL     1      -9.248   3.334 -33.781  1.00  0.00     0.001 A 
HETATM    9  C   UNL     1     -10.051   2.295 -34.230  1.00  0.00     0.002 A 
HETATM   10  C   UNL     1      -9.507   1.018 -34.383  1.00  0.00     0.032 A 
ENDROOT
BRANCH   3  11
HETATM   11  N   UNL     1      -5.097   2.425 -32.984  1.00  0.00    -0.277 NA
HETATM   12  H   UNL     1      -4.240   2.298 -33.530  1.00  0.00     0.129 HD
BRANCH  11  13
HETATM   13  C   UNL     1      -4.762   2.491 -31.564  1.00  0.00     0.095 C 
BRANCH  13  14
HETATM   14  C   UNL     1      -3.248   2.608 -31.385  1.00  0.00     0.042 C 
BRANCH  14  15
HETATM   15  C   UNL     1      -2.648   3.956 -31.759  1.00  0.00     0.230 C 
BRANCH  15  16
HETATM   16  N   UNL     1      -2.427   4.068 -33.215  1.00  0.00    -0.079 N 
HETATM   17  H   UNL     1      -3.174   3.549 -33.721  1.00  0.00     0.274 HD
HETATM   18  H   UNL     1      -2.437   5.037 -33.548  1.00  0.00     0.274 HD
HETATM   19  H   UNL     1      -1.541   3.633 -33.496  1.00  0.00     0.274 HD
ENDBRANCH  15  16
ENDBRANCH  14  15
ENDBRANCH  13  14
ENDBRANCH  11  13
ENDBRANCH   3  11
BRANCH   1  20
HETATM   20  C   UNL     1      -5.977  -2.141 -34.190  1.00  0.00     0.012 A 
HETATM   21  C   UNL     1      -4.646  -2.535 -33.958  1.00  0.00     0.015 A 
HETATM   22  C   UNL     1      -4.223  -3.852 -34.172  1.00  0.00     0.001 A 
HETATM   23  C   UNL     1      -5.119  -4.804 -34.646  1.00  0.00     0.000 A 
HETATM   24  C   UNL     1      -6.436  -4.443 -34.905  1.00  0.00     0.001 A 
HETATM   25  C   UNL     1      -6.857  -3.130 -34.674  1.00  0.00     0.015 A 
ENDBRANCH   1  20
TORSDOF 6
ENDMDL
MODEL 8
REMARK VINA RESULT:      -6.9     13.468     14.942
REMARK  6 active torsions:
REMARK  status: ('A' for Active; 'I' for Inactive)
REMARK    1  A    between atoms: C_4  and  C_5 
REMARK    2  A    between atoms: C_7  and  N_8 
REMARK    3  A    between atoms: N_8  and  C_9 
REMARK    4  A    between atoms: C_9  and  C_10 
REMARK    5  A    between atoms: C_10  and  C_11 
REMARK    6  A    between atoms: C_11  and  N_12 
ROOT
HETATM    1  C   UNL     1      -5.152 -13.259 -36.270  1.00  0.00     0.162 C 
HETATM    2  N   UNL     1      -4.037 -12.664 -36.753  1.00  0.00    -0.216 NA
HETATM    3  C   UNL     1      -4.047 -12.351 -38.070  1.00  0.00     0.118 C 
HETATM    4  C   UNL     1      -5.219 -12.416 -38.854  1.00  0.00     0.033 A 
HETATM    5  C   UNL     1      -6.332 -12.970 -38.218  1.00  0.00     0.072 A 
HETATM    6  N   UNL     1      -6.292 -13.403 -36.957  1.00  0.00    -0.228 NA
HETATM    7  C   UNL     1      -5.344 -11.969 -40.197  1.00  0.00     0.017 A 
HETATM    8  C   UNL     1      -6.551 -12.086 -40.883  1.00  0.00     0.001 A 
HETATM    9  C   UNL     1      -7.646 -12.649 -40.243  1.00  0.00     0.002 A 
HETATM   10  C   UNL     1      -7.525 -13.083 -38.921  1.00  0.00     0.032 A 
ENDROOT
BRANCH   3  11
HETATM   11  N   UNL     1      -2.862 -11.835 -38.644  1.00  0.00    -0.277 NA
HETATM   12  H   UNL     1      -2.939 -11.959 -39.658  1.00  0.00     0.129 HD
BRANCH  11  13
HETATM   13  C   UNL     1      -1.586 -12.379 -38.186  1.00  0.00     0.095 C 
BRANCH  13  14
HETATM   14  C   UNL     1      -1.337 -13.746 -38.823  1.00  0.00     0.042 C 
BRANCH  14  15
HETATM   15  C   UNL     1      -0.982 -13.722 -40.304  1.00  0.00     0.230 C 
BRANCH  15  16
HETATM   16  N   UNL     1      -2.189 -13.750 -41.153  1.00  0.00    -0.079 N 
HETATM   17  H   UNL     1      -2.196 -14.623 -41.719  1.00  0.00     0.274 HD
HETATM   18  H   UNL     1      -3.060 -13.718 -40.614  1.00  0.00     0.274 HD
HETATM   19  H   UNL     1      -2.193 -12.976 -41.828  1.00  0.00     0.274 HD
ENDBRANCH  15  16
ENDBRANCH  14  15
ENDBRANCH  13  14
ENDBRANCH  11  13
ENDBRANCH   3  11
BRANCH   1  20
HETATM   20  C   UNL     1      -5.133 -13.786 -34.888  1.00  0.00     0.012 A 
HETATM   21  C   UNL     1      -5.565 -13.027 -33.783  1.00  0.00     0.015 A 
HETATM   22  C   UNL     1      -5.553 -13.551 -32.485  1.00  0.00     0.001 A 
HETATM   23  C   UNL     1      -5.086 -14.841 -32.257  1.00  0.00     0.000 A 
HETATM   24  C   UNL     1      -4.633 -15.608 -33.324  1.00  0.00     0.001 A 
HETATM   25  C   UNL     1      -4.663 -15.087 -34.621  1.00  0.00     0.015 A 
ENDBRANCH   1  20
TORSDOF 6
ENDMDL
MODEL 9
REMARK VINA RESULT:      -6.8     13.414     15.127
REMARK  6 active torsions:
REMARK  status: ('A' for Active; 'I' for Inactive)
REMARK    1  A    between atoms: C_4  and  C_5 
REMARK    2  A    between atoms: C_7  and  N_8 
REMARK    3  A    between atoms: N_8  and  C_9 
REMARK    4  A    between atoms: C_9  and  C_10 
REMARK    5  A    between atoms: C_10  and  C_11 
REMARK    6  A    between atoms: C_11  and  N_12 
ROOT
HETATM    1  C   UNL     1      -6.628 -13.189 -39.583  1.00  0.00     0.162 C 
HETATM    2  N   UNL     1      -6.160 -12.677 -38.420  1.00  0.00    -0.216 NA
HETATM    3  C   UNL     1      -4.836 -12.835 -38.186  1.00  0.00     0.118 C 
HETATM    4  C   UNL     1      -3.940 -13.290 -39.177  1.00  0.00     0.033 A 
HETATM    5  C   UNL     1      -4.535 -13.711 -40.369  1.00  0.00     0.072 A 
HETATM    6  N   UNL     1      -5.854 -13.681 -40.558  1.00  0.00    -0.228 NA
HETATM    7  C   UNL     1      -2.526 -13.344 -39.055  1.00  0.00     0.017 A 
HETATM    8  C   UNL     1      -1.734 -13.818 -40.099  1.00  0.00     0.001 A 
HETATM    9  C   UNL     1      -2.338 -14.244 -41.273  1.00  0.00     0.002 A 
HETATM   10  C   UNL     1      -3.728 -14.185 -41.395  1.00  0.00     0.032 A 
ENDROOT
BRANCH   3  11
HETATM   11  N   UNL     1      -4.324 -12.420 -36.933  1.00  0.00    -0.277 NA
HETATM   12  H   UNL     1      -3.409 -11.994 -37.108  1.00  0.00     0.129 HD
BRANCH  11  13
HETATM   13  C   UNL     1      -4.199 -13.423 -35.879  1.00  0.00     0.095 C 
BRANCH  13  14
HETATM   14  C   UNL     1      -5.025 -13.013 -34.661  1.00  0.00     0.042 C 
BRANCH  14  15
HETATM   15  C   UNL     1      -6.409 -13.641 -34.567  1.00  0.00     0.230 C 
BRANCH  15  16
HETATM   16  N   UNL     1      -7.285 -13.194 -35.668  1.00  0.00    -0.079 N 
HETATM   17  H   UNL     1      -7.943 -12.468 -35.315  1.00  0.00     0.274 HD
HETATM   18  H   UNL     1      -6.767 -12.792 -36.455  1.00  0.00     0.274 HD
HETATM   19  H   UNL     1      -7.872 -13.960 -36.018  1.00  0.00     0.274 HD
ENDBRANCH  15  16
ENDBRANCH  14  15
ENDBRANCH  13  14
ENDBRANCH  11  13
ENDBRANCH   3  11
BRANCH   1  20
HETATM   20  C   UNL     1      -8.089 -13.207 -39.813  1.00  0.00     0.012 A 
HETATM   21  C   UNL     1      -8.828 -12.038 -40.076  1.00  0.00     0.015 A 
HETATM   22  C   UNL     1     -10.208 -12.080 -40.306  1.00  0.00     0.001 A 
HETATM   23  C   UNL     1     -10.888 -13.293 -40.255  1.00  0.00     0.000 A 
HETATM   24  C   UNL     1     -10.190 -14.462 -39.977  1.00  0.00     0.001 A 
HETATM   25  C   UNL     1      -8.809 -14.418 -39.764  1.00  0.00     0.015 A 
ENDBRANCH   1  20
TORSDOF 6
ENDMDL
MODEL 10
REMARK VINA RESULT:      -6.8      1.876      4.648
REMARK  6 active torsions:
REMARK  status: ('A' for Active; 'I' for Inactive)
REMARK    1  A    between atoms: C_4  and  C_5 
REMARK    2  A    between atoms: C_7  and  N_8 
REMARK    3  A    between atoms: N_8  and  C_9 
REMARK    4  A    between atoms: C_9  and  C_10 
REMARK    5  A    between atoms: C_10  and  C_11 
REMARK    6  A    between atoms: C_11  and  N_12 
ROOT
HETATM    1  C   UNL     1      -7.433  -0.293 -33.115  1.00  0.00     0.162 C 
HETATM    2  N   UNL     1      -7.129   0.270 -31.921  1.00  0.00    -0.216 NA
HETATM    3  C   UNL     1      -7.860   1.351 -31.565  1.00  0.00     0.118 C 
HETATM    4  C   UNL     1      -9.023   1.743 -32.263  1.00  0.00     0.033 A 
HETATM    5  C   UNL     1      -9.281   1.031 -33.436  1.00  0.00     0.072 A 
HETATM    6  N   UNL     1      -8.489   0.047 -33.864  1.00  0.00    -0.228 NA
HETATM    7  C   UNL     1      -9.920   2.772 -31.869  1.00  0.00     0.017 A 
HETATM    8  C   UNL     1     -11.039   3.082 -32.639  1.00  0.00     0.001 A 
HETATM    9  C   UNL     1     -11.278   2.374 -33.809  1.00  0.00     0.002 A 
HETATM   10  C   UNL     1     -10.400   1.358 -34.193  1.00  0.00     0.032 A 
ENDROOT
BRANCH   3  11
HETATM   11  N   UNL     1      -7.502   2.041 -30.382  1.00  0.00    -0.277 NA
HETATM   12  H   UNL     1      -7.775   3.020 -30.510  1.00  0.00     0.129 HD
BRANCH  11  13
HETATM   13  C   UNL     1      -6.108   1.979 -29.950  1.00  0.00     0.095 C 
BRANCH  13  14
HETATM   14  C   UNL     1      -5.467   3.363 -30.040  1.00  0.00     0.042 C 
BRANCH  14  15
HETATM   15  C   UNL     1      -4.603   3.604 -31.270  1.00  0.00     0.230 C 
BRANCH  15  16
HETATM   16  N   UNL     1      -3.245   3.050 -31.099  1.00  0.00    -0.079 N 
HETATM   17  H   UNL     1      -3.146   2.664 -30.138  1.00  0.00     0.274 HD
HETATM   18  H   UNL     1      -3.032   2.298 -31.763  1.00  0.00     0.274 HD
HETATM   19  H   UNL     1      -2.527   3.778 -31.187  1.00  0.00     0.274 HD
ENDBRANCH  15  16
ENDBRANCH  14  15
ENDBRANCH  13  14
ENDBRANCH  11  13
ENDBRANCH   3  11
BRANCH   1  20
HETATM   20  C   UNL     1      -6.555  -1.361 -33.639  1.00  0.00     0.012 A 
HETATM   21  C   UNL     1      -7.047  -2.436 -34.404  1.00  0.00     0.015 A 
HETATM   22  C   UNL     1      -6.196  -3.429 -34.904  1.00  0.00     0.001 A 
HETATM   23  C   UNL     1      -4.833  -3.383 -34.631  1.00  0.00     0.000 A 
HETATM   24  C   UNL     1      -4.319  -2.346 -33.861  1.00  0.00     0.001 A 
HETATM   25  C   UNL     1      -5.170  -1.347 -33.378  1.00  0.00     0.015 A 
ENDBRANCH   1  20
TORSDOF 6
ENDMDL
