MODEL 1
REMARK VINA RESULT:      -8.1      0.000      0.000
REMARK  11 active torsions:
REMARK  status: ('A' for Active; 'I' for Inactive)
REMARK    1  A    between atoms: O_2  and  C_3 
REMARK    2  A    between atoms: C_5  and  C_6 
REMARK    3  A    between atoms: C_10  and  C_11 
REMARK       I    between atoms: C_11  and  N_12 
REMARK    4  A    between atoms: N_12  and  C_13 
REMARK    5  A    between atoms: C_13  and  C_14 
REMARK    6  A    between atoms: C_15  and  C_16 
REMARK    7  A    between atoms: C_16  and  O_17 
REMARK    8  A    between atoms: O_17  and  C_18 
REMARK    9  A    between atoms: C_19  and  C_20 
REMARK   10  A    between atoms: C_20  and  C_21 
REMARK   11  A    between atoms: C_29  and  O_30 
ROOT
HETATM    1  C   UNL     1      -6.057   2.204 -30.585  1.00  0.00     0.270 C 
HETATM    2  N   UNL     1      -6.928   1.953 -31.614  1.00  0.00    -0.345 N 
HETATM    3  O   UNL     1      -6.009   1.510 -29.574  1.00  0.00    -0.266 OA
HETATM    4  H   UNL     1      -6.964   2.578 -32.405  1.00  0.00     0.163 HD
ENDROOT
BRANCH   1   5
HETATM    5  C   UNL     1      -5.210   3.353 -30.756  1.00  0.00     0.120 A 
HETATM    6  N   UNL     1      -5.459   4.527 -30.099  1.00  0.00    -0.272 N 
HETATM    7  N   UNL     1      -4.626   5.528 -30.417  1.00  0.00    -0.174 NA
HETATM    8  H   UNL     1      -6.210   4.704 -29.439  1.00  0.00     0.189 HD
HETATM    9  C   UNL     1      -3.768   4.978 -31.287  1.00  0.00     0.092 A 
HETATM   10  C   UNL     1      -4.092   3.614 -31.523  1.00  0.00     0.071 A 
BRANCH   9  11
HETATM   11  C   UNL     1      -2.726   5.760 -31.944  1.00  0.00     0.030 A 
HETATM   12  C   UNL     1      -1.541   6.019 -31.234  1.00  0.00     0.053 A 
HETATM   13  C   UNL     1      -0.493   6.737 -31.813  1.00  0.00     0.069 A 
HETATM   14  C   UNL     1      -0.633   7.214 -33.115  1.00  0.00     0.039 A 
HETATM   15  C   UNL     1      -1.812   6.971 -33.831  1.00  0.00     0.040 A 
HETATM   16  C   UNL     1      -2.855   6.235 -33.258  1.00  0.00     0.081 A 
BRANCH  13  17
HETATM   17  O   UNL     1       0.594   6.911 -31.003  1.00  0.00    -0.356 OA
HETATM   18  C   UNL     1       0.338   7.174 -29.629  1.00  0.00     0.210 C 
ENDBRANCH  13  17
BRANCH  16  19
HETATM   19  O   UNL     1      -4.048   6.045 -33.910  1.00  0.00    -0.355 OA
HETATM   20  C   UNL     1      -3.964   5.186 -35.044  1.00  0.00     0.210 C 
ENDBRANCH  16  19
ENDBRANCH   9  11
ENDBRANCH   1   5
BRANCH   2  21
HETATM   21  C   UNL     1      -7.936   0.930 -31.513  1.00  0.00     0.217 C 
BRANCH  21  22
HETATM   22  C   UNL     1      -7.837   0.016 -32.653  1.00  0.00    -0.085 C 
HETATM   23  C   UNL     1      -7.702  -0.743 -33.575  1.00  0.00    -0.078 C 
BRANCH  23  24
HETATM   24  C   UNL     1      -7.466  -1.684 -34.679  1.00  0.00     0.269 C 
BRANCH  24  25
HETATM   25  O   UNL     1      -6.084  -1.705 -35.051  1.00  0.00    -0.339 OA
BRANCH  25  26
HETATM   26  C   UNL     1      -5.337  -2.749 -34.568  1.00  0.00     0.076 A 
HETATM   27  C   UNL     1      -4.281  -2.428 -33.697  1.00  0.00    -0.021 A 
HETATM   28  C   UNL     1      -3.495  -3.465 -33.163  1.00  0.00     0.010 A 
HETATM   29  C   UNL     1      -3.773  -4.797 -33.464  1.00  0.00     0.001 A 
HETATM   30  C   UNL     1      -4.837  -5.110 -34.302  1.00  0.00     0.003 A 
HETATM   31  C   UNL     1      -5.619  -4.091 -34.849  1.00  0.00     0.037 A 
BRANCH  27  32
HETATM   32  C   UNL     1      -3.933  -0.995 -33.356  1.00  0.00     0.067 C 
BRANCH  32  33
HETATM   33  C   UNL     1      -4.144  -0.692 -31.898  1.00  0.00    -0.032 C 
HETATM   34  C   UNL     1      -3.209  -0.182 -31.086  1.00  0.00     0.007 C 
ENDBRANCH  32  33
ENDBRANCH  27  32
ENDBRANCH  25  26
ENDBRANCH  24  25
ENDBRANCH  23  24
ENDBRANCH  21  22
ENDBRANCH   2  21
TORSDOF 11
ENDMDL
MODEL 2
REMARK VINA RESULT:      -7.8      2.367      4.559
REMARK  11 active torsions:
REMARK  status: ('A' for Active; 'I' for Inactive)
REMARK    1  A    between atoms: O_2  and  C_3 
REMARK    2  A    between atoms: C_5  and  C_6 
REMARK    3  A    between atoms: C_10  and  C_11 
REMARK       I    between atoms: C_11  and  N_12 
REMARK    4  A    between atoms: N_12  and  C_13 
REMARK    5  A    between atoms: C_13  and  C_14 
REMARK    6  A    between atoms: C_15  and  C_16 
REMARK    7  A    between atoms: C_16  and  O_17 
REMARK    8  A    between atoms: O_17  and  C_18 
REMARK    9  A    between atoms: C_19  and  C_20 
REMARK   10  A    between atoms: C_20  and  C_21 
REMARK   11  A    between atoms: C_29  and  O_30 
ROOT
HETATM    1  C   UNL     1      -3.986   5.503 -34.240  1.00  0.00     0.270 C 
HETATM    2  N   UNL     1      -5.013   4.877 -33.580  1.00  0.00    -0.345 N 
HETATM    3  O   UNL     1      -3.804   5.382 -35.448  1.00  0.00    -0.266 OA
HETATM    4  H   UNL     1      -5.096   4.967 -32.579  1.00  0.00     0.163 HD
ENDROOT
BRANCH   1   5
HETATM    5  C   UNL     1      -3.116   6.300 -33.418  1.00  0.00     0.120 A 
HETATM    6  N   UNL     1      -2.206   7.160 -33.969  1.00  0.00    -0.272 N 
HETATM    7  N   UNL     1      -1.417   7.779 -33.078  1.00  0.00    -0.174 NA
HETATM    8  H   UNL     1      -2.064   7.340 -34.959  1.00  0.00     0.189 HD
HETATM    9  C   UNL     1      -1.856   7.338 -31.890  1.00  0.00     0.092 A 
HETATM   10  C   UNL     1      -2.925   6.416 -32.056  1.00  0.00     0.071 A 
BRANCH   9  11
HETATM   11  C   UNL     1      -1.210   7.718 -30.639  1.00  0.00     0.030 A 
HETATM   12  C   UNL     1      -1.826   8.700 -29.843  1.00  0.00     0.053 A 
HETATM   13  C   UNL     1      -1.275   9.091 -28.621  1.00  0.00     0.069 A 
HETATM   14  C   UNL     1      -0.087   8.503 -28.191  1.00  0.00     0.039 A 
HETATM   15  C   UNL     1       0.542   7.530 -28.978  1.00  0.00     0.040 A 
HETATM   16  C   UNL     1      -0.019   7.125 -30.195  1.00  0.00     0.081 A 
BRANCH  13  17
HETATM   17  O   UNL     1      -1.984  10.054 -27.959  1.00  0.00    -0.356 OA
HETATM   18  C   UNL     1      -3.160  10.539 -28.594  1.00  0.00     0.210 C 
ENDBRANCH  13  17
BRANCH  16  19
HETATM   19  O   UNL     1       0.615   6.228 -31.018  1.00  0.00    -0.355 OA
HETATM   20  C   UNL     1       0.773   4.928 -30.456  1.00  0.00     0.210 C 
ENDBRANCH  16  19
ENDBRANCH   9  11
ENDBRANCH   1   5
BRANCH   2  21
HETATM   21  C   UNL     1      -5.868   3.930 -34.247  1.00  0.00     0.217 C 
BRANCH  21  22
HETATM   22  C   UNL     1      -6.494   3.044 -33.263  1.00  0.00    -0.085 C 
HETATM   23  C   UNL     1      -6.985   2.274 -32.482  1.00  0.00    -0.078 C 
BRANCH  23  24
HETATM   24  C   UNL     1      -7.552   1.275 -31.564  1.00  0.00     0.269 C 
BRANCH  24  25
HETATM   25  O   UNL     1      -7.225  -0.054 -31.985  1.00  0.00    -0.339 OA
BRANCH  25  26
HETATM   26  C   UNL     1      -5.890  -0.365 -32.045  1.00  0.00     0.076 A 
HETATM   27  C   UNL     1      -5.438  -1.008 -33.210  1.00  0.00    -0.021 A 
HETATM   28  C   UNL     1      -4.075  -1.334 -33.327  1.00  0.00     0.010 A 
HETATM   29  C   UNL     1      -3.173  -1.000 -32.318  1.00  0.00     0.001 A 
HETATM   30  C   UNL     1      -3.621  -0.336 -31.182  1.00  0.00     0.003 A 
HETATM   31  C   UNL     1      -4.974  -0.017 -31.046  1.00  0.00     0.037 A 
BRANCH  27  32
HETATM   32  C   UNL     1      -6.384  -1.406 -34.323  1.00  0.00     0.067 C 
BRANCH  32  33
HETATM   33  C   UNL     1      -6.019  -2.733 -34.930  1.00  0.00    -0.032 C 
HETATM   34  C   UNL     1      -6.729  -3.858 -34.776  1.00  0.00     0.007 C 
ENDBRANCH  32  33
ENDBRANCH  27  32
ENDBRANCH  25  26
ENDBRANCH  24  25
ENDBRANCH  23  24
ENDBRANCH  21  22
ENDBRANCH   2  21
TORSDOF 11
ENDMDL
MODEL 3
REMARK VINA RESULT:      -7.8      2.629      4.497
REMARK  11 active torsions:
REMARK  status: ('A' for Active; 'I' for Inactive)
REMARK    1  A    between atoms: O_2  and  C_3 
REMARK    2  A    between atoms: C_5  and  C_6 
REMARK    3  A    between atoms: C_10  and  C_11 
REMARK       I    between atoms: C_11  and  N_12 
REMARK    4  A    between atoms: N_12  and  C_13 
REMARK    5  A    between atoms: C_13  and  C_14 
REMARK    6  A    between atoms: C_15  and  C_16 
REMARK    7  A    between atoms: C_16  and  O_17 
REMARK    8  A    between atoms: O_17  and  C_18 
REMARK    9  A    between atoms: C_19  and  C_20 
REMARK   10  A    between atoms: C_20  and  C_21 
REMARK   11  A    between atoms: C_29  and  O_30 
ROOT
HETATM    1  C   UNL     1      -4.024   5.536 -34.252  1.00  0.00     0.270 C 
HETATM    2  N   UNL     1      -5.031   4.860 -33.612  1.00  0.00    -0.345 N 
HETATM    3  O   UNL     1      -3.755   5.358 -35.436  1.00  0.00    -0.266 OA
HETATM    4  H   UNL     1      -5.186   5.004 -32.626  1.00  0.00     0.163 HD
ENDROOT
BRANCH   1   5
HETATM    5  C   UNL     1      -3.283   6.461 -33.437  1.00  0.00     0.120 A 
HETATM    6  N   UNL     1      -2.182   7.112 -33.919  1.00  0.00    -0.272 N 
HETATM    7  N   UNL     1      -1.556   7.885 -33.020  1.00  0.00    -0.174 NA
HETATM    8  H   UNL     1      -1.797   7.040 -34.856  1.00  0.00     0.189 HD
HETATM    9  C   UNL     1      -2.301   7.769 -31.912  1.00  0.00     0.092 A 
HETATM   10  C   UNL     1      -3.399   6.893 -32.131  1.00  0.00     0.071 A 
BRANCH   9  11
HETATM   11  C   UNL     1      -1.923   8.405 -30.655  1.00  0.00     0.030 A 
HETATM   12  C   UNL     1      -1.006   7.741 -29.822  1.00  0.00     0.053 A 
HETATM   13  C   UNL     1      -0.581   8.306 -28.619  1.00  0.00     0.069 A 
HETATM   14  C   UNL     1      -1.086   9.547 -28.233  1.00  0.00     0.039 A 
HETATM   15  C   UNL     1      -2.006  10.216 -29.049  1.00  0.00     0.040 A 
HETATM   16  C   UNL     1      -2.419   9.658 -30.265  1.00  0.00     0.081 A 
BRANCH  13  17
HETATM   17  O   UNL     1       0.311   7.544 -27.915  1.00  0.00    -0.356 OA
HETATM   18  C   UNL     1       0.228   6.135 -28.084  1.00  0.00     0.210 C 
ENDBRANCH  13  17
BRANCH  16  19
HETATM   19  O   UNL     1      -3.375  10.258 -31.046  1.00  0.00    -0.355 OA
HETATM   20  C   UNL     1      -4.662  10.334 -30.441  1.00  0.00     0.210 C 
ENDBRANCH  16  19
ENDBRANCH   9  11
ENDBRANCH   1   5
BRANCH   2  21
HETATM   21  C   UNL     1      -5.753   3.797 -34.262  1.00  0.00     0.217 C 
BRANCH  21  22
HETATM   22  C   UNL     1      -6.316   2.890 -33.259  1.00  0.00    -0.085 C 
HETATM   23  C   UNL     1      -6.803   2.190 -32.413  1.00  0.00    -0.078 C 
BRANCH  23  24
HETATM   24  C   UNL     1      -7.434   1.394 -31.351  1.00  0.00     0.269 C 
BRANCH  24  25
HETATM   25  O   UNL     1      -7.111   0.006 -31.486  1.00  0.00    -0.339 OA
BRANCH  25  26
HETATM   26  C   UNL     1      -5.790  -0.296 -31.695  1.00  0.00     0.076 A 
HETATM   27  C   UNL     1      -5.479  -1.036 -32.849  1.00  0.00    -0.021 A 
HETATM   28  C   UNL     1      -4.137  -1.358 -33.115  1.00  0.00     0.010 A 
HETATM   29  C   UNL     1      -3.118  -0.926 -32.266  1.00  0.00     0.001 A 
HETATM   30  C   UNL     1      -3.429  -0.170 -31.142  1.00  0.00     0.003 A 
HETATM   31  C   UNL     1      -4.759   0.148 -30.859  1.00  0.00     0.037 A 
BRANCH  27  32
HETATM   32  C   UNL     1      -6.553  -1.539 -33.789  1.00  0.00     0.067 C 
BRANCH  32  33
HETATM   33  C   UNL     1      -6.719  -0.648 -34.990  1.00  0.00    -0.032 C 
HETATM   34  C   UNL     1      -7.807   0.092 -35.242  1.00  0.00     0.007 C 
ENDBRANCH  32  33
ENDBRANCH  27  32
ENDBRANCH  25  26
ENDBRANCH  24  25
ENDBRANCH  23  24
ENDBRANCH  21  22
ENDBRANCH   2  21
TORSDOF 11
ENDMDL
MODEL 4
REMARK VINA RESULT:      -7.7      2.187      8.904
REMARK  11 active torsions:
REMARK  status: ('A' for Active; 'I' for Inactive)
REMARK    1  A    between atoms: O_2  and  C_3 
REMARK    2  A    between atoms: C_5  and  C_6 
REMARK    3  A    between atoms: C_10  and  C_11 
REMARK       I    between atoms: C_11  and  N_12 
REMARK    4  A    between atoms: N_12  and  C_13 
REMARK    5  A    between atoms: C_13  and  C_14 
REMARK    6  A    between atoms: C_15  and  C_16 
REMARK    7  A    between atoms: C_16  and  O_17 
REMARK    8  A    between atoms: O_17  and  C_18 
REMARK    9  A    between atoms: C_19  and  C_20 
REMARK   10  A    between atoms: C_20  and  C_21 
REMARK   11  A    between atoms: C_29  and  O_30 
ROOT
HETATM    1  C   UNL     1      -7.135   4.700 -33.284  1.00  0.00     0.270 C 
HETATM    2  N   UNL     1      -6.551   5.482 -32.320  1.00  0.00    -0.345 N 
HETATM    3  O   UNL     1      -7.792   5.169 -34.208  1.00  0.00    -0.266 OA
HETATM    4  H   UNL     1      -6.059   5.050 -31.552  1.00  0.00     0.163 HD
ENDROOT
BRANCH   1   5
HETATM    5  C   UNL     1      -6.944   3.283 -33.132  1.00  0.00     0.120 A 
HETATM    6  N   UNL     1      -7.457   2.606 -32.059  1.00  0.00    -0.272 N 
HETATM    7  N   UNL     1      -7.134   1.305 -32.018  1.00  0.00    -0.174 NA
HETATM    8  H   UNL     1      -8.015   2.997 -31.306  1.00  0.00     0.189 HD
HETATM    9  C   UNL     1      -6.414   1.110 -33.132  1.00  0.00     0.092 A 
HETATM   10  C   UNL     1      -6.278   2.321 -33.864  1.00  0.00     0.071 A 
BRANCH   9  11
HETATM   11  C   UNL     1      -5.799  -0.176 -33.439  1.00  0.00     0.030 A 
HETATM   12  C   UNL     1      -6.578  -1.149 -34.089  1.00  0.00     0.053 A 
HETATM   13  C   UNL     1      -6.043  -2.391 -34.436  1.00  0.00     0.069 A 
HETATM   14  C   UNL     1      -4.715  -2.672 -34.120  1.00  0.00     0.039 A 
HETATM   15  C   UNL     1      -3.930  -1.716 -33.465  1.00  0.00     0.040 A 
HETATM   16  C   UNL     1      -4.460  -0.463 -33.133  1.00  0.00     0.081 A 
BRANCH  13  17
HETATM   17  O   UNL     1      -6.919  -3.233 -35.063  1.00  0.00    -0.356 OA
HETATM   18  C   UNL     1      -6.468  -4.557 -35.318  1.00  0.00     0.210 C 
ENDBRANCH  13  17
BRANCH  16  19
HETATM   19  O   UNL     1      -3.735   0.463 -32.426  1.00  0.00    -0.355 OA
HETATM   20  C   UNL     1      -3.226  -0.017 -31.185  1.00  0.00     0.210 C 
ENDBRANCH  16  19
ENDBRANCH   9  11
ENDBRANCH   1   5
BRANCH   2  21
HETATM   21  C   UNL     1      -6.785   6.901 -32.260  1.00  0.00     0.217 C 
BRANCH  21  22
HETATM   22  C   UNL     1      -5.559   7.593 -31.855  1.00  0.00    -0.085 C 
HETATM   23  C   UNL     1      -4.584   8.189 -31.486  1.00  0.00    -0.078 C 
BRANCH  23  24
HETATM   24  C   UNL     1      -3.433   8.953 -30.983  1.00  0.00     0.269 C 
BRANCH  24  25
HETATM   25  O   UNL     1      -2.293   8.787 -31.834  1.00  0.00    -0.339 OA
BRANCH  25  26
HETATM   26  C   UNL     1      -1.511   7.685 -31.598  1.00  0.00     0.076 A 
HETATM   27  C   UNL     1      -1.401   6.747 -32.638  1.00  0.00    -0.021 A 
HETATM   28  C   UNL     1      -0.598   5.608 -32.451  1.00  0.00     0.010 A 
HETATM   29  C   UNL     1       0.108   5.420 -31.264  1.00  0.00     0.001 A 
HETATM   30  C   UNL     1       0.019   6.367 -30.250  1.00  0.00     0.003 A 
HETATM   31  C   UNL     1      -0.784   7.497 -30.417  1.00  0.00     0.037 A 
BRANCH  27  32
HETATM   32  C   UNL     1      -2.162   6.900 -33.938  1.00  0.00     0.067 C 
BRANCH  32  33
HETATM   33  C   UNL     1      -2.562   5.573 -34.521  1.00  0.00    -0.032 C 
HETATM   34  C   UNL     1      -3.781   5.292 -35.002  1.00  0.00     0.007 C 
ENDBRANCH  32  33
ENDBRANCH  27  32
ENDBRANCH  25  26
ENDBRANCH  24  25
ENDBRANCH  23  24
ENDBRANCH  21  22
ENDBRANCH   2  21
TORSDOF 11
ENDMDL
MODEL 5
REMARK VINA RESULT:      -7.7      2.328      4.328
REMARK  11 active torsions:
REMARK  status: ('A' for Active; 'I' for Inactive)
REMARK    1  A    between atoms: O_2  and  C_3 
REMARK    2  A    between atoms: C_5  and  C_6 
REMARK    3  A    between atoms: C_10  and  C_11 
REMARK       I    between atoms: C_11  and  N_12 
REMARK    4  A    between atoms: N_12  and  C_13 
REMARK    5  A    between atoms: C_13  and  C_14 
REMARK    6  A    between atoms: C_15  and  C_16 
REMARK    7  A    between atoms: C_16  and  O_17 
REMARK    8  A    between atoms: O_17  and  C_18 
REMARK    9  A    between atoms: C_19  and  C_20 
REMARK   10  A    between atoms: C_20  and  C_21 
REMARK   11  A    between atoms: C_29  and  O_30 
ROOT
HETATM    1  C   UNL     1      -3.940   5.545 -34.253  1.00  0.00     0.270 C 
HETATM    2  N   UNL     1      -4.978   4.923 -33.606  1.00  0.00    -0.345 N 
HETATM    3  O   UNL     1      -3.744   5.425 -35.458  1.00  0.00    -0.266 OA
HETATM    4  H   UNL     1      -5.073   5.013 -32.606  1.00  0.00     0.163 HD
ENDROOT
BRANCH   1   5
HETATM    5  C   UNL     1      -3.078   6.339 -33.419  1.00  0.00     0.120 A 
HETATM    6  N   UNL     1      -2.186   7.225 -33.957  1.00  0.00    -0.272 N 
HETATM    7  N   UNL     1      -1.401   7.837 -33.057  1.00  0.00    -0.174 NA
HETATM    8  H   UNL     1      -2.053   7.428 -34.943  1.00  0.00     0.189 HD
HETATM    9  C   UNL     1      -1.824   7.364 -31.877  1.00  0.00     0.092 A 
HETATM   10  C   UNL     1      -2.880   6.428 -32.056  1.00  0.00     0.071 A 
BRANCH   9  11
HETATM   11  C   UNL     1      -1.176   7.727 -30.621  1.00  0.00     0.030 A 
HETATM   12  C   UNL     1      -1.801   8.683 -29.802  1.00  0.00     0.053 A 
HETATM   13  C   UNL     1      -1.249   9.056 -28.576  1.00  0.00     0.069 A 
HETATM   14  C   UNL     1      -0.050   8.477 -28.164  1.00  0.00     0.039 A 
HETATM   15  C   UNL     1       0.588   7.530 -28.975  1.00  0.00     0.040 A 
HETATM   16  C   UNL     1       0.026   7.141 -30.196  1.00  0.00     0.081 A 
BRANCH  13  17
HETATM   17  O   UNL     1      -1.968   9.996 -27.889  1.00  0.00    -0.356 OA
HETATM   18  C   UNL     1      -2.038  11.296 -28.460  1.00  0.00     0.210 C 
ENDBRANCH  13  17
BRANCH  16  19
HETATM   19  O   UNL     1       0.667   6.271 -31.041  1.00  0.00    -0.355 OA
HETATM   20  C   UNL     1       0.824   4.956 -30.517  1.00  0.00     0.210 C 
ENDBRANCH  16  19
ENDBRANCH   9  11
ENDBRANCH   1   5
BRANCH   2  21
HETATM   21  C   UNL     1      -5.828   3.979 -34.284  1.00  0.00     0.217 C 
BRANCH  21  22
HETATM   22  C   UNL     1      -6.517   3.135 -33.306  1.00  0.00    -0.085 C 
HETATM   23  C   UNL     1      -7.129   2.449 -32.532  1.00  0.00    -0.078 C 
BRANCH  23  24
HETATM   24  C   UNL     1      -7.940   1.620 -31.629  1.00  0.00     0.269 C 
BRANCH  24  25
HETATM   25  O   UNL     1      -7.239   0.428 -31.257  1.00  0.00    -0.339 OA
BRANCH  25  26
HETATM   26  C   UNL     1      -6.710  -0.315 -32.282  1.00  0.00     0.076 A 
HETATM   27  C   UNL     1      -5.342  -0.626 -32.204  1.00  0.00    -0.021 A 
HETATM   28  C   UNL     1      -4.756  -1.398 -33.223  1.00  0.00     0.010 A 
HETATM   29  C   UNL     1      -5.522  -1.878 -34.284  1.00  0.00     0.001 A 
HETATM   30  C   UNL     1      -6.882  -1.592 -34.340  1.00  0.00     0.003 A 
HETATM   31  C   UNL     1      -7.475  -0.817 -33.342  1.00  0.00     0.037 A 
BRANCH  27  32
HETATM   32  C   UNL     1      -4.468  -0.112 -31.080  1.00  0.00     0.067 C 
BRANCH  32  33
HETATM   33  C   UNL     1      -3.336   0.740 -31.586  1.00  0.00    -0.032 C 
HETATM   34  C   UNL     1      -3.418   2.059 -31.805  1.00  0.00     0.007 C 
ENDBRANCH  32  33
ENDBRANCH  27  32
ENDBRANCH  25  26
ENDBRANCH  24  25
ENDBRANCH  23  24
ENDBRANCH  21  22
ENDBRANCH   2  21
TORSDOF 11
ENDMDL
MODEL 6
REMARK VINA RESULT:      -7.6      2.447      9.011
REMARK  11 active torsions:
REMARK  status: ('A' for Active; 'I' for Inactive)
REMARK    1  A    between atoms: O_2  and  C_3 
REMARK    2  A    between atoms: C_5  and  C_6 
REMARK    3  A    between atoms: C_10  and  C_11 
REMARK       I    between atoms: C_11  and  N_12 
REMARK    4  A    between atoms: N_12  and  C_13 
REMARK    5  A    between atoms: C_13  and  C_14 
REMARK    6  A    between atoms: C_15  and  C_16 
REMARK    7  A    between atoms: C_16  and  O_17 
REMARK    8  A    between atoms: O_17  and  C_18 
REMARK    9  A    between atoms: C_19  and  C_20 
REMARK   10  A    between atoms: C_20  and  C_21 
REMARK   11  A    between atoms: C_29  and  O_30 
ROOT
HETATM    1  C   UNL     1      -6.355   4.319 -29.673  1.00  0.00     0.270 C 
HETATM    2  N   UNL     1      -5.531   4.490 -28.590  1.00  0.00    -0.345 N 
HETATM    3  O   UNL     1      -7.010   5.237 -30.157  1.00  0.00    -0.266 OA
HETATM    4  H   UNL     1      -5.048   3.696 -28.196  1.00  0.00     0.163 HD
ENDROOT
BRANCH   1   5
HETATM    5  C   UNL     1      -6.419   2.982 -30.198  1.00  0.00     0.120 A 
HETATM    6  N   UNL     1      -6.448   1.893 -29.371  1.00  0.00    -0.272 N 
HETATM    7  N   UNL     1      -6.434   0.712 -30.007  1.00  0.00    -0.174 NA
HETATM    8  H   UNL     1      -6.451   1.903 -28.355  1.00  0.00     0.189 HD
HETATM    9  C   UNL     1      -6.438   1.040 -31.307  1.00  0.00     0.092 A 
HETATM   10  C   UNL     1      -6.437   2.452 -31.472  1.00  0.00     0.071 A 
BRANCH   9  11
HETATM   11  C   UNL     1      -6.352   0.032 -32.358  1.00  0.00     0.030 A 
HETATM   12  C   UNL     1      -5.217  -0.795 -32.396  1.00  0.00     0.053 A 
HETATM   13  C   UNL     1      -5.084  -1.797 -33.359  1.00  0.00     0.069 A 
HETATM   14  C   UNL     1      -6.092  -1.968 -34.306  1.00  0.00     0.039 A 
HETATM   15  C   UNL     1      -7.224  -1.145 -34.286  1.00  0.00     0.040 A 
HETATM   16  C   UNL     1      -7.367  -0.153 -33.309  1.00  0.00     0.081 A 
BRANCH  13  17
HETATM   17  O   UNL     1      -3.927  -2.521 -33.272  1.00  0.00    -0.356 OA
HETATM   18  C   UNL     1      -3.178  -2.395 -32.070  1.00  0.00     0.210 C 
ENDBRANCH  13  17
BRANCH  16  19
HETATM   19  O   UNL     1      -8.431   0.714 -33.312  1.00  0.00    -0.355 OA
HETATM   20  C   UNL     1      -9.629   0.171 -32.765  1.00  0.00     0.210 C 
ENDBRANCH  16  19
ENDBRANCH   9  11
ENDBRANCH   1   5
BRANCH   2  21
HETATM   21  C   UNL     1      -5.485   5.735 -27.870  1.00  0.00     0.217 C 
BRANCH  21  22
HETATM   22  C   UNL     1      -4.465   6.611 -28.451  1.00  0.00    -0.085 C 
HETATM   23  C   UNL     1      -3.669   7.359 -28.950  1.00  0.00    -0.078 C 
BRANCH  23  24
HETATM   24  C   UNL     1      -2.753   8.315 -29.589  1.00  0.00     0.269 C 
BRANCH  24  25
HETATM   25  O   UNL     1      -1.423   8.175 -29.076  1.00  0.00    -0.339 OA
BRANCH  25  26
HETATM   26  C   UNL     1      -0.674   7.149 -29.591  1.00  0.00     0.076 A 
HETATM   27  C   UNL     1       0.047   6.364 -28.675  1.00  0.00    -0.021 A 
HETATM   28  C   UNL     1       0.819   5.290 -29.154  1.00  0.00     0.010 A 
HETATM   29  C   UNL     1       0.848   4.982 -30.513  1.00  0.00     0.001 A 
HETATM   30  C   UNL     1       0.109   5.744 -31.410  1.00  0.00     0.003 A 
HETATM   31  C   UNL     1      -0.652   6.821 -30.952  1.00  0.00     0.037 A 
BRANCH  27  32
HETATM   32  C   UNL     1       0.058   6.671 -27.194  1.00  0.00     0.067 C 
BRANCH  32  33
HETATM   33  C   UNL     1       1.290   7.428 -26.780  1.00  0.00    -0.032 C 
HETATM   34  C   UNL     1       1.669   8.604 -27.300  1.00  0.00     0.007 C 
ENDBRANCH  32  33
ENDBRANCH  27  32
ENDBRANCH  25  26
ENDBRANCH  24  25
ENDBRANCH  23  24
ENDBRANCH  21  22
ENDBRANCH   2  21
TORSDOF 11
ENDMDL
MODEL 7
REMARK VINA RESULT:      -7.6      3.549      6.365
REMARK  11 active torsions:
REMARK  status: ('A' for Active; 'I' for Inactive)
REMARK    1  A    between atoms: O_2  and  C_3 
REMARK    2  A    between atoms: C_5  and  C_6 
REMARK    3  A    between atoms: C_10  and  C_11 
REMARK       I    between atoms: C_11  and  N_12 
REMARK    4  A    between atoms: N_12  and  C_13 
REMARK    5  A    between atoms: C_13  and  C_14 
REMARK    6  A    between atoms: C_15  and  C_16 
REMARK    7  A    between atoms: C_16  and  O_17 
REMARK    8  A    between atoms: O_17  and  C_18 
REMARK    9  A    between atoms: C_19  and  C_20 
REMARK   10  A    between atoms: C_20  and  C_21 
REMARK   11  A    between atoms: C_29  and  O_30 
ROOT
HETATM    1  C   UNL     1      -0.052   5.340 -30.757  1.00  0.00     0.270 C 
HETATM    2  N   UNL     1      -1.300   5.477 -31.309  1.00  0.00    -0.345 N 
HETATM    3  O   UNL     1       0.837   4.681 -31.285  1.00  0.00    -0.266 OA
HETATM    4  H   UNL     1      -2.014   5.991 -30.815  1.00  0.00     0.163 HD
ENDROOT
BRANCH   1   5
HETATM    5  C   UNL     1       0.145   6.009 -29.498  1.00  0.00     0.120 A 
HETATM    6  N   UNL     1      -0.322   5.476 -28.328  1.00  0.00    -0.272 N 
HETATM    7  N   UNL     1      -0.126   6.248 -27.250  1.00  0.00    -0.174 NA
HETATM    8  H   UNL     1      -0.811   4.593 -28.217  1.00  0.00     0.189 HD
HETATM    9  C   UNL     1       0.535   7.314 -27.725  1.00  0.00     0.092 A 
HETATM   10  C   UNL     1       0.734   7.201 -29.128  1.00  0.00     0.071 A 
BRANCH   9  11
HETATM   11  C   UNL     1       0.884   8.448 -26.876  1.00  0.00     0.030 A 
HETATM   12  C   UNL     1       2.000   8.328 -26.031  1.00  0.00     0.053 A 
HETATM   13  C   UNL     1       2.405   9.385 -25.214  1.00  0.00     0.069 A 
HETATM   14  C   UNL     1       1.680  10.575 -25.230  1.00  0.00     0.039 A 
HETATM   15  C   UNL     1       0.561  10.705 -26.061  1.00  0.00     0.040 A 
HETATM   16  C   UNL     1       0.165   9.653 -26.895  1.00  0.00     0.081 A 
BRANCH  13  17
HETATM   17  O   UNL     1       3.507   9.122 -24.446  1.00  0.00    -0.356 OA
HETATM   18  C   UNL     1       3.888  10.117 -23.506  1.00  0.00     0.210 C 
ENDBRANCH  13  17
BRANCH  16  19
HETATM   19  O   UNL     1      -0.970   9.728 -27.663  1.00  0.00    -0.355 OA
HETATM   20  C   UNL     1      -2.154  10.028 -26.929  1.00  0.00     0.210 C 
ENDBRANCH  16  19
ENDBRANCH   9  11
ENDBRANCH   1   5
BRANCH   2  21
HETATM   21  C   UNL     1      -1.686   4.742 -32.485  1.00  0.00     0.217 C 
BRANCH  21  22
HETATM   22  C   UNL     1      -2.687   3.732 -32.136  1.00  0.00    -0.085 C 
HETATM   23  C   UNL     1      -3.488   2.870 -31.890  1.00  0.00    -0.078 C 
BRANCH  23  24
HETATM   24  C   UNL     1      -4.435   1.774 -31.643  1.00  0.00     0.269 C 
BRANCH  24  25
HETATM   25  O   UNL     1      -5.242   1.520 -32.798  1.00  0.00    -0.339 OA
BRANCH  25  26
HETATM   26  C   UNL     1      -5.245   0.232 -33.270  1.00  0.00     0.076 A 
HETATM   27  C   UNL     1      -6.190  -0.080 -34.263  1.00  0.00    -0.021 A 
HETATM   28  C   UNL     1      -6.224  -1.383 -34.789  1.00  0.00     0.010 A 
HETATM   29  C   UNL     1      -5.316  -2.350 -34.360  1.00  0.00     0.001 A 
HETATM   30  C   UNL     1      -4.365  -2.027 -33.399  1.00  0.00     0.003 A 
HETATM   31  C   UNL     1      -4.327  -0.740 -32.858  1.00  0.00     0.037 A 
BRANCH  27  32
HETATM   32  C   UNL     1      -7.205   0.932 -34.747  1.00  0.00     0.067 C 
BRANCH  32  33
HETATM   33  C   UNL     1      -8.616   0.522 -34.421  1.00  0.00    -0.032 C 
HETATM   34  C   UNL     1      -9.077   0.309 -33.182  1.00  0.00     0.007 C 
ENDBRANCH  32  33
ENDBRANCH  27  32
ENDBRANCH  25  26
ENDBRANCH  24  25
ENDBRANCH  23  24
ENDBRANCH  21  22
ENDBRANCH   2  21
TORSDOF 11
ENDMDL
MODEL 8
REMARK VINA RESULT:      -7.6      1.902      8.315
REMARK  11 active torsions:
REMARK  status: ('A' for Active; 'I' for Inactive)
REMARK    1  A    between atoms: O_2  and  C_3 
REMARK    2  A    between atoms: C_5  and  C_6 
REMARK    3  A    between atoms: C_10  and  C_11 
REMARK       I    between atoms: C_11  and  N_12 
REMARK    4  A    between atoms: N_12  and  C_13 
REMARK    5  A    between atoms: C_13  and  C_14 
REMARK    6  A    between atoms: C_15  and  C_16 
REMARK    7  A    between atoms: C_16  and  O_17 
REMARK    8  A    between atoms: O_17  and  C_18 
REMARK    9  A    between atoms: C_19  and  C_20 
REMARK   10  A    between atoms: C_20  and  C_21 
REMARK   11  A    between atoms: C_29  and  O_30 
ROOT
HETATM    1  C   UNL     1      -6.808   3.799 -29.782  1.00  0.00     0.270 C 
HETATM    2  N   UNL     1      -5.708   4.203 -29.069  1.00  0.00    -0.345 N 
HETATM    3  O   UNL     1      -7.793   4.514 -29.940  1.00  0.00    -0.266 OA
HETATM    4  H   UNL     1      -4.941   3.564 -28.925  1.00  0.00     0.163 HD
ENDROOT
BRANCH   1   5
HETATM    5  C   UNL     1      -6.743   2.467 -30.321  1.00  0.00     0.120 A 
HETATM    6  N   UNL     1      -6.547   1.381 -29.513  1.00  0.00    -0.272 N 
HETATM    7  N   UNL     1      -6.436   0.216 -30.168  1.00  0.00    -0.174 NA
HETATM    8  H   UNL     1      -6.454   1.387 -28.502  1.00  0.00     0.189 HD
HETATM    9  C   UNL     1      -6.608   0.545 -31.456  1.00  0.00     0.092 A 
HETATM   10  C   UNL     1      -6.812   1.945 -31.597  1.00  0.00     0.071 A 
BRANCH   9  11
HETATM   11  C   UNL     1      -6.489  -0.437 -32.527  1.00  0.00     0.030 A 
HETATM   12  C   UNL     1      -5.280  -1.143 -32.652  1.00  0.00     0.053 A 
HETATM   13  C   UNL     1      -5.109  -2.116 -33.638  1.00  0.00     0.069 A 
HETATM   14  C   UNL     1      -6.154  -2.381 -34.521  1.00  0.00     0.039 A 
HETATM   15  C   UNL     1      -7.361  -1.679 -34.415  1.00  0.00     0.040 A 
HETATM   16  C   UNL     1      -7.540  -0.716 -33.414  1.00  0.00     0.081 A 
BRANCH  13  17
HETATM   17  O   UNL     1      -3.881  -2.719 -33.638  1.00  0.00    -0.356 OA
HETATM   18  C   UNL     1      -3.835  -4.085 -34.029  1.00  0.00     0.210 C 
ENDBRANCH  13  17
BRANCH  16  19
HETATM   19  O   UNL     1      -8.684   0.037 -33.334  1.00  0.00    -0.355 OA
HETATM   20  C   UNL     1      -8.914   0.874 -34.464  1.00  0.00     0.210 C 
ENDBRANCH  16  19
ENDBRANCH   9  11
ENDBRANCH   1   5
BRANCH   2  21
HETATM   21  C   UNL     1      -5.696   5.448 -28.347  1.00  0.00     0.217 C 
BRANCH  21  22
HETATM   22  C   UNL     1      -4.618   6.304 -28.846  1.00  0.00    -0.085 C 
HETATM   23  C   UNL     1      -3.707   6.961 -29.275  1.00  0.00    -0.078 C 
BRANCH  23  24
HETATM   24  C   UNL     1      -2.563   7.700 -29.826  1.00  0.00     0.269 C 
BRANCH  24  25
HETATM   25  O   UNL     1      -1.601   6.807 -30.398  1.00  0.00    -0.339 OA
BRANCH  25  26
HETATM   26  C   UNL     1      -1.700   6.586 -31.748  1.00  0.00     0.076 A 
HETATM   27  C   UNL     1      -2.008   5.277 -32.158  1.00  0.00    -0.021 A 
HETATM   28  C   UNL     1      -2.135   5.002 -33.531  1.00  0.00     0.010 A 
HETATM   29  C   UNL     1      -1.991   6.015 -34.478  1.00  0.00     0.001 A 
HETATM   30  C   UNL     1      -1.717   7.313 -34.065  1.00  0.00     0.003 A 
HETATM   31  C   UNL     1      -1.575   7.599 -32.705  1.00  0.00     0.037 A 
BRANCH  27  32
HETATM   32  C   UNL     1      -2.157   4.143 -31.167  1.00  0.00     0.067 C 
BRANCH  32  33
HETATM   33  C   UNL     1      -3.307   3.236 -31.511  1.00  0.00    -0.032 C 
HETATM   34  C   UNL     1      -3.217   1.905 -31.624  1.00  0.00     0.007 C 
ENDBRANCH  32  33
ENDBRANCH  27  32
ENDBRANCH  25  26
ENDBRANCH  24  25
ENDBRANCH  23  24
ENDBRANCH  21  22
ENDBRANCH   2  21
TORSDOF 11
ENDMDL
MODEL 9
REMARK VINA RESULT:      -7.5      3.719      6.934
REMARK  11 active torsions:
REMARK  status: ('A' for Active; 'I' for Inactive)
REMARK    1  A    between atoms: O_2  and  C_3 
REMARK    2  A    between atoms: C_5  and  C_6 
REMARK    3  A    between atoms: C_10  and  C_11 
REMARK       I    between atoms: C_11  and  N_12 
REMARK    4  A    between atoms: N_12  and  C_13 
REMARK    5  A    between atoms: C_13  and  C_14 
REMARK    6  A    between atoms: C_15  and  C_16 
REMARK    7  A    between atoms: C_16  and  O_17 
REMARK    8  A    between atoms: O_17  and  C_18 
REMARK    9  A    between atoms: C_19  and  C_20 
REMARK   10  A    between atoms: C_20  and  C_21 
REMARK   11  A    between atoms: C_29  and  O_30 
ROOT
HETATM    1  C   UNL     1      -6.693   3.310 -30.881  1.00  0.00     0.270 C 
HETATM    2  N   UNL     1      -5.711   2.625 -31.550  1.00  0.00    -0.345 N 
HETATM    3  O   UNL     1      -6.571   3.672 -29.716  1.00  0.00    -0.266 OA
HETATM    4  H   UNL     1      -5.874   2.306 -32.494  1.00  0.00     0.163 HD
ENDROOT
BRANCH   1   5
HETATM    5  C   UNL     1      -7.894   3.563 -31.633  1.00  0.00     0.120 A 
HETATM    6  N   UNL     1      -8.943   4.251 -31.088  1.00  0.00    -0.272 N 
HETATM    7  N   UNL     1     -10.018   4.344 -31.884  1.00  0.00    -0.174 NA
HETATM    8  H   UNL     1      -8.984   4.657 -30.158  1.00  0.00     0.189 HD
HETATM    9  C   UNL     1      -9.645   3.726 -33.014  1.00  0.00     0.092 A 
HETATM   10  C   UNL     1      -8.317   3.229 -32.903  1.00  0.00     0.071 A 
BRANCH   9  11
HETATM   11  C   UNL     1     -10.563   3.537 -34.131  1.00  0.00     0.030 A 
HETATM   12  C   UNL     1     -11.403   2.410 -34.120  1.00  0.00     0.053 A 
HETATM   13  C   UNL     1     -12.323   2.184 -35.144  1.00  0.00     0.069 A 
HETATM   14  C   UNL     1     -12.400   3.088 -36.202  1.00  0.00     0.039 A 
HETATM   15  C   UNL     1     -11.563   4.210 -36.231  1.00  0.00     0.040 A 
HETATM   16  C   UNL     1     -10.653   4.448 -35.195  1.00  0.00     0.081 A 
BRANCH  13  17
HETATM   17  O   UNL     1     -13.071   1.048 -34.998  1.00  0.00    -0.356 OA
HETATM   18  C   UNL     1     -13.487   0.717 -33.680  1.00  0.00     0.210 C 
ENDBRANCH  13  17
BRANCH  16  19
HETATM   19  O   UNL     1      -9.772   5.499 -35.236  1.00  0.00    -0.355 OA
HETATM   20  C   UNL     1     -10.391   6.777 -35.347  1.00  0.00     0.210 C 
ENDBRANCH  16  19
ENDBRANCH   9  11
ENDBRANCH   1   5
BRANCH   2  21
HETATM   21  C   UNL     1      -4.521   2.171 -30.879  1.00  0.00     0.217 C 
BRANCH  21  22
HETATM   22  C   UNL     1      -4.175   0.822 -31.333  1.00  0.00    -0.085 C 
HETATM   23  C   UNL     1      -3.842  -0.265 -31.722  1.00  0.00    -0.078 C 
BRANCH  23  24
HETATM   24  C   UNL     1      -3.367  -1.565 -32.215  1.00  0.00     0.269 C 
BRANCH  24  25
HETATM   25  O   UNL     1      -3.604  -1.700 -33.621  1.00  0.00    -0.339 OA
BRANCH  25  26
HETATM   26  C   UNL     1      -4.480  -2.685 -34.001  1.00  0.00     0.076 A 
HETATM   27  C   UNL     1      -5.736  -2.271 -34.477  1.00  0.00    -0.021 A 
HETATM   28  C   UNL     1      -6.664  -3.243 -34.893  1.00  0.00     0.010 A 
HETATM   29  C   UNL     1      -6.339  -4.598 -34.865  1.00  0.00     0.001 A 
HETATM   30  C   UNL     1      -5.084  -4.998 -34.421  1.00  0.00     0.003 A 
HETATM   31  C   UNL     1      -4.156  -4.046 -33.994  1.00  0.00     0.037 A 
BRANCH  27  32
HETATM   32  C   UNL     1      -6.139  -0.813 -34.509  1.00  0.00     0.067 C 
BRANCH  32  33
HETATM   33  C   UNL     1      -7.443  -0.568 -33.800  1.00  0.00    -0.032 C 
HETATM   34  C   UNL     1      -7.555  -0.289 -32.494  1.00  0.00     0.007 C 
ENDBRANCH  32  33
ENDBRANCH  27  32
ENDBRANCH  25  26
ENDBRANCH  24  25
ENDBRANCH  23  24
ENDBRANCH  21  22
ENDBRANCH   2  21
TORSDOF 11
ENDMDL
MODEL 10
REMARK VINA RESULT:      -7.5      3.924      6.792
REMARK  11 active torsions:
REMARK  status: ('A' for Active; 'I' for Inactive)
REMARK    1  A    between atoms: O_2  and  C_3 
REMARK    2  A    between atoms: C_5  and  C_6 
REMARK    3  A    between atoms: C_10  and  C_11 
REMARK       I    between atoms: C_11  and  N_12 
REMARK    4  A    between atoms: N_12  and  C_13 
REMARK    5  A    between atoms: C_13  and  C_14 
REMARK    6  A    between atoms: C_15  and  C_16 
REMARK    7  A    between atoms: C_16  and  O_17 
REMARK    8  A    between atoms: O_17  and  C_18 
REMARK    9  A    between atoms: C_19  and  C_20 
REMARK   10  A    between atoms: C_20  and  C_21 
REMARK   11  A    between atoms: C_29  and  O_30 
ROOT
HETATM    1  C   UNL     1      -0.367   6.381 -30.488  1.00  0.00     0.270 C 
HETATM    2  N   UNL     1      -1.130   5.260 -30.693  1.00  0.00    -0.345 N 
HETATM    3  O   UNL     1       0.053   7.074 -31.410  1.00  0.00    -0.266 OA
HETATM    4  H   UNL     1      -1.413   4.694 -29.907  1.00  0.00     0.163 HD
ENDROOT
BRANCH   1   5
HETATM    5  C   UNL     1      -0.070   6.685 -29.114  1.00  0.00     0.120 A 
HETATM    6  N   UNL     1      -0.378   5.811 -28.108  1.00  0.00    -0.272 N 
HETATM    7  N   UNL     1      -0.108   6.266 -26.876  1.00  0.00    -0.174 NA
HETATM    8  H   UNL     1      -0.804   4.895 -28.211  1.00  0.00     0.189 HD
HETATM    9  C   UNL     1       0.439   7.472 -27.083  1.00  0.00     0.092 A 
HETATM   10  C   UNL     1       0.490   7.772 -28.473  1.00  0.00     0.071 A 
BRANCH   9  11
HETATM   11  C   UNL     1       0.817   8.349 -25.981  1.00  0.00     0.030 A 
HETATM   12  C   UNL     1       2.175   8.422 -25.625  1.00  0.00     0.053 A 
HETATM   13  C   UNL     1       2.608   9.262 -24.597  1.00  0.00     0.069 A 
HETATM   14  C   UNL     1       1.674  10.032 -23.907  1.00  0.00     0.039 A 
HETATM   15  C   UNL     1       0.317   9.962 -24.246  1.00  0.00     0.040 A 
HETATM   16  C   UNL     1      -0.117   9.134 -25.288  1.00  0.00     0.081 A 
BRANCH  13  17
HETATM   17  O   UNL     1       3.955   9.228 -24.363  1.00  0.00    -0.356 OA
HETATM   18  C   UNL     1       4.427   9.920 -23.215  1.00  0.00     0.210 C 
ENDBRANCH  13  17
BRANCH  16  19
HETATM   19  O   UNL     1      -1.447   8.992 -25.591  1.00  0.00    -0.355 OA
HETATM   20  C   UNL     1      -2.305   8.955 -24.454  1.00  0.00     0.210 C 
ENDBRANCH  16  19
ENDBRANCH   9  11
ENDBRANCH   1   5
BRANCH   2  21
HETATM   21  C   UNL     1      -1.376   4.750 -32.017  1.00  0.00     0.217 C 
BRANCH  21  22
HETATM   22  C   UNL     1      -2.711   4.151 -32.081  1.00  0.00    -0.085 C 
HETATM   23  C   UNL     1      -3.790   3.633 -32.180  1.00  0.00    -0.078 C 
BRANCH  23  24
HETATM   24  C   UNL     1      -5.085   2.961 -32.361  1.00  0.00     0.269 C 
BRANCH  24  25
HETATM   25  O   UNL     1      -4.988   1.566 -32.056  1.00  0.00    -0.339 OA
BRANCH  25  26
HETATM   26  C   UNL     1      -5.510   0.700 -32.984  1.00  0.00     0.076 A 
HETATM   27  C   UNL     1      -5.192  -0.661 -32.835  1.00  0.00    -0.021 A 
HETATM   28  C   UNL     1      -5.714  -1.590 -33.752  1.00  0.00     0.010 A 
HETATM   29  C   UNL     1      -6.561  -1.179 -34.780  1.00  0.00     0.001 A 
HETATM   30  C   UNL     1      -6.896   0.165 -34.904  1.00  0.00     0.003 A 
HETATM   31  C   UNL     1      -6.375   1.101 -34.008  1.00  0.00     0.037 A 
BRANCH  27  32
HETATM   32  C   UNL     1      -4.263  -1.151 -31.745  1.00  0.00     0.067 C 
BRANCH  32  33
HETATM   33  C   UNL     1      -3.214  -2.090 -32.273  1.00  0.00    -0.032 C 
HETATM   34  C   UNL     1      -3.030  -3.344 -31.839  1.00  0.00     0.007 C 
ENDBRANCH  32  33
ENDBRANCH  27  32
ENDBRANCH  25  26
ENDBRANCH  24  25
ENDBRANCH  23  24
ENDBRANCH  21  22
ENDBRANCH   2  21
TORSDOF 11
ENDMDL
