MODEL 1
REMARK VINA RESULT:      -9.9      0.000      0.000
REMARK  3 active torsions:
REMARK  status: ('A' for Active; 'I' for Inactive)
REMARK    1  A    between atoms: N_12  and  C_13 
REMARK    2  A    between atoms: C_13  and  C_14 
REMARK       I    between atoms: C_14  and  N_15 
REMARK    3  A    between atoms: N_15  and  C_16 
ROOT
HETATM    1  C   UNL     1      -3.840  -5.377 -34.074  1.00  0.00     0.048 C 
HETATM    2  C   UNL     1      -4.674  -4.134 -34.189  1.00  0.00    -0.061 A 
HETATM    3  C   UNL     1      -4.229  -2.923 -33.630  1.00  0.00     0.021 A 
HETATM    4  C   UNL     1      -5.026  -1.765 -33.744  1.00  0.00     0.005 A 
HETATM    5  C   UNL     1      -6.255  -1.856 -34.405  1.00  0.00     0.044 A 
HETATM    6  N   UNL     1      -6.829  -0.601 -34.390  1.00  0.00    -0.350 N 
HETATM    7  H   UNL     1      -7.719  -0.355 -34.805  1.00  0.00     0.166 HD
HETATM    8  C   UNL     1      -5.998   0.272 -33.750  1.00  0.00     0.116 A 
HETATM    9  C   UNL     1      -4.886  -0.415 -33.334  1.00  0.00     0.028 A 
HETATM   10  C   UNL     1      -6.181   1.678 -33.538  1.00  0.00     0.291 A 
HETATM   11  O   UNL     1      -7.174   2.284 -33.923  1.00  0.00    -0.264 OA
HETATM   12  N   UNL     1      -5.109   2.269 -32.839  1.00  0.00    -0.224 N 
HETATM   13  N   UNL     1      -3.959   1.574 -32.409  1.00  0.00    -0.180 NA
HETATM   14  C   UNL     1      -3.852   0.297 -32.639  1.00  0.00     0.153 A 
HETATM   15  C   UNL     1      -6.727  -3.053 -34.954  1.00  0.00     0.031 A 
HETATM   16  C   UNL     1      -5.915  -4.187 -34.832  1.00  0.00     0.009 A 
ENDROOT
BRANCH  12  17
HETATM   17  C   UNL     1      -5.068   3.716 -32.704  1.00  0.00     0.258 C 
BRANCH  17  18
HETATM   18  C   UNL     1      -4.073   4.520 -31.839  1.00  0.00     0.244 C 
HETATM   19  N   UNL     1      -2.817   4.934 -32.298  1.00  0.00    -0.321 N 
HETATM   20  C   UNL     1      -2.314   4.627 -33.631  1.00  0.00     0.159 C 
HETATM   21  O   UNL     1      -4.464   4.748 -30.681  1.00  0.00    -0.271 OA
BRANCH  19  22
HETATM   22  C   UNL     1      -1.914   5.645 -31.423  1.00  0.00     0.037 A 
HETATM   23  C   UNL     1      -0.885   4.987 -30.733  1.00  0.00     0.037 A 
HETATM   24  C   UNL     1      -0.003   5.670 -29.871  1.00  0.00    -0.054 A 
HETATM   25  C   UNL     1       1.076   4.893 -29.170  1.00  0.00     0.049 C 
HETATM   26  C   UNL     1      -0.167   7.051 -29.672  1.00  0.00    -0.056 A 
HETATM   27  C   UNL     1       0.760   7.844 -28.792  1.00  0.00     0.049 C 
HETATM   28  C   UNL     1      -1.186   7.718 -30.364  1.00  0.00     0.009 A 
HETATM   29  C   UNL     1      -2.048   7.024 -31.221  1.00  0.00     0.030 A 
ENDBRANCH  19  22
ENDBRANCH  17  18
ENDBRANCH  12  17
TORSDOF 3
ENDMDL
MODEL 2
REMARK VINA RESULT:      -9.1      2.606      9.880
REMARK  3 active torsions:
REMARK  status: ('A' for Active; 'I' for Inactive)
REMARK    1  A    between atoms: N_12  and  C_13 
REMARK    2  A    between atoms: C_13  and  C_14 
REMARK       I    between atoms: C_14  and  N_15 
REMARK    3  A    between atoms: N_15  and  C_16 
ROOT
HETATM    1  C   UNL     1       2.259   8.580 -25.570  1.00  0.00     0.048 C 
HETATM    2  C   UNL     1       1.201   8.562 -26.635  1.00  0.00    -0.061 A 
HETATM    3  C   UNL     1       1.150   7.515 -27.571  1.00  0.00     0.021 A 
HETATM    4  C   UNL     1       0.152   7.515 -28.567  1.00  0.00     0.005 A 
HETATM    5  C   UNL     1      -0.763   8.574 -28.604  1.00  0.00     0.044 A 
HETATM    6  N   UNL     1      -1.632   8.336 -29.650  1.00  0.00    -0.350 N 
HETATM    7  H   UNL     1      -2.410   8.925 -29.914  1.00  0.00     0.166 HD
HETATM    8  C   UNL     1      -1.297   7.162 -30.262  1.00  0.00     0.116 A 
HETATM    9  C   UNL     1      -0.200   6.640 -29.626  1.00  0.00     0.028 A 
HETATM   10  C   UNL     1      -1.950   6.519 -31.365  1.00  0.00     0.291 A 
HETATM   11  O   UNL     1      -2.935   6.991 -31.920  1.00  0.00    -0.264 OA
HETATM   12  N   UNL     1      -1.331   5.309 -31.735  1.00  0.00    -0.224 N 
HETATM   13  N   UNL     1      -0.205   4.759 -31.086  1.00  0.00    -0.180 NA
HETATM   14  C   UNL     1       0.337   5.392 -30.086  1.00  0.00     0.153 A 
HETATM   15  C   UNL     1      -0.722   9.634 -27.694  1.00  0.00     0.031 A 
HETATM   16  C   UNL     1       0.276   9.609 -26.712  1.00  0.00     0.009 A 
ENDROOT
BRANCH  12  17
HETATM   17  C   UNL     1      -1.980   4.457 -32.718  1.00  0.00     0.258 C 
BRANCH  17  18
HETATM   18  C   UNL     1      -3.202   3.545 -32.465  1.00  0.00     0.244 C 
HETATM   19  N   UNL     1      -4.438   3.728 -33.095  1.00  0.00    -0.321 N 
HETATM   20  C   UNL     1      -4.704   4.811 -34.034  1.00  0.00     0.159 C 
HETATM   21  O   UNL     1      -3.010   2.647 -31.628  1.00  0.00    -0.271 OA
BRANCH  19  22
HETATM   22  C   UNL     1      -5.555   2.867 -32.781  1.00  0.00     0.037 A 
HETATM   23  C   UNL     1      -5.778   1.667 -33.471  1.00  0.00     0.037 A 
HETATM   24  C   UNL     1      -6.868   0.823 -33.177  1.00  0.00    -0.054 A 
HETATM   25  C   UNL     1      -7.036  -0.449 -33.961  1.00  0.00     0.049 C 
HETATM   26  C   UNL     1      -7.782   1.200 -32.179  1.00  0.00    -0.056 A 
HETATM   27  C   UNL     1      -8.946   0.330 -31.795  1.00  0.00     0.049 C 
HETATM   28  C   UNL     1      -7.562   2.393 -31.478  1.00  0.00     0.009 A 
HETATM   29  C   UNL     1      -6.470   3.215 -31.779  1.00  0.00     0.030 A 
ENDBRANCH  19  22
ENDBRANCH  17  18
ENDBRANCH  12  17
TORSDOF 3
ENDMDL
MODEL 3
REMARK VINA RESULT:      -8.6      1.768      3.072
REMARK  3 active torsions:
REMARK  status: ('A' for Active; 'I' for Inactive)
REMARK    1  A    between atoms: N_12  and  C_13 
REMARK    2  A    between atoms: C_13  and  C_14 
REMARK       I    between atoms: C_14  and  N_15 
REMARK    3  A    between atoms: N_15  and  C_16 
ROOT
HETATM    1  C   UNL     1      -5.034  -2.824 -34.284  1.00  0.00     0.048 C 
HETATM    2  C   UNL     1      -5.624  -1.499 -33.898  1.00  0.00    -0.061 A 
HETATM    3  C   UNL     1      -4.801  -0.464 -33.422  1.00  0.00     0.021 A 
HETATM    4  C   UNL     1      -5.372   0.774 -33.061  1.00  0.00     0.005 A 
HETATM    5  C   UNL     1      -6.757   0.935 -33.174  1.00  0.00     0.044 A 
HETATM    6  N   UNL     1      -7.060   2.221 -32.774  1.00  0.00    -0.350 N 
HETATM    7  H   UNL     1      -7.985   2.631 -32.761  1.00  0.00     0.166 HD
HETATM    8  C   UNL     1      -5.912   2.871 -32.422  1.00  0.00     0.116 A 
HETATM    9  C   UNL     1      -4.859   2.005 -32.579  1.00  0.00     0.028 A 
HETATM   10  C   UNL     1      -5.758   4.227 -31.982  1.00  0.00     0.291 A 
HETATM   11  O   UNL     1      -6.705   4.995 -31.855  1.00  0.00    -0.264 OA
HETATM   12  N   UNL     1      -4.418   4.564 -31.709  1.00  0.00    -0.224 N 
HETATM   13  N   UNL     1      -3.327   3.684 -31.869  1.00  0.00    -0.180 NA
HETATM   14  C   UNL     1      -3.535   2.465 -32.278  1.00  0.00     0.153 A 
HETATM   15  C   UNL     1      -7.599  -0.085 -33.629  1.00  0.00     0.031 A 
HETATM   16  C   UNL     1      -7.007  -1.303 -33.986  1.00  0.00     0.009 A 
ENDROOT
BRANCH  12  17
HETATM   17  C   UNL     1      -4.084   5.950 -31.425  1.00  0.00     0.258 C 
BRANCH  17  18
HETATM   18  C   UNL     1      -3.106   6.444 -30.335  1.00  0.00     0.244 C 
HETATM   19  N   UNL     1      -1.739   6.637 -30.563  1.00  0.00    -0.321 N 
HETATM   20  C   UNL     1      -1.096   6.370 -31.844  1.00  0.00     0.159 C 
HETATM   21  O   UNL     1      -3.627   6.629 -29.222  1.00  0.00    -0.271 OA
BRANCH  19  22
HETATM   22  C   UNL     1      -0.870   7.059 -29.488  1.00  0.00     0.037 A 
HETATM   23  C   UNL     1      -0.989   8.325 -28.897  1.00  0.00     0.037 A 
HETATM   24  C   UNL     1      -0.141   8.749 -27.854  1.00  0.00    -0.054 A 
HETATM   25  C   UNL     1      -0.335  10.121 -27.271  1.00  0.00     0.049 C 
HETATM   26  C   UNL     1       0.875   7.891 -27.400  1.00  0.00    -0.056 A 
HETATM   27  C   UNL     1       1.790   8.270 -26.269  1.00  0.00     0.049 C 
HETATM   28  C   UNL     1       0.994   6.621 -27.977  1.00  0.00     0.009 A 
HETATM   29  C   UNL     1       0.140   6.215 -29.009  1.00  0.00     0.030 A 
ENDBRANCH  19  22
ENDBRANCH  17  18
ENDBRANCH  12  17
TORSDOF 3
ENDMDL
MODEL 4
REMARK VINA RESULT:      -8.6      2.473     10.168
REMARK  3 active torsions:
REMARK  status: ('A' for Active; 'I' for Inactive)
REMARK    1  A    between atoms: N_12  and  C_13 
REMARK    2  A    between atoms: C_13  and  C_14 
REMARK       I    between atoms: C_14  and  N_15 
REMARK    3  A    between atoms: N_15  and  C_16 
ROOT
HETATM    1  C   UNL     1      -0.791  11.007 -26.247  1.00  0.00     0.048 C 
HETATM    2  C   UNL     1      -0.391   9.859 -27.127  1.00  0.00    -0.061 A 
HETATM    3  C   UNL     1      -1.347   9.203 -27.921  1.00  0.00     0.021 A 
HETATM    4  C   UNL     1      -0.956   8.123 -28.740  1.00  0.00     0.005 A 
HETATM    5  C   UNL     1       0.384   7.722 -28.730  1.00  0.00     0.044 A 
HETATM    6  N   UNL     1       0.509   6.667 -29.611  1.00  0.00    -0.350 N 
HETATM    7  H   UNL     1       1.368   6.176 -29.825  1.00  0.00     0.166 HD
HETATM    8  C   UNL     1      -0.704   6.402 -30.178  1.00  0.00     0.116 A 
HETATM    9  C   UNL     1      -1.626   7.273 -29.656  1.00  0.00     0.028 A 
HETATM   10  C   UNL     1      -1.024   5.416 -31.169  1.00  0.00     0.291 A 
HETATM   11  O   UNL     1      -0.190   4.648 -31.636  1.00  0.00    -0.264 OA
HETATM   12  N   UNL     1      -2.386   5.427 -31.530  1.00  0.00    -0.224 N 
HETATM   13  N   UNL     1      -3.343   6.320 -31.003  1.00  0.00    -0.180 NA
HETATM   14  C   UNL     1      -2.985   7.197 -30.109  1.00  0.00     0.153 A 
HETATM   15  C   UNL     1       1.350   8.347 -27.935  1.00  0.00     0.031 A 
HETATM   16  C   UNL     1       0.937   9.420 -27.135  1.00  0.00     0.009 A 
ENDROOT
BRANCH  12  17
HETATM   17  C   UNL     1      -2.825   4.608 -32.648  1.00  0.00     0.258 C 
BRANCH  17  18
HETATM   18  C   UNL     1      -4.173   3.860 -32.752  1.00  0.00     0.244 C 
HETATM   19  N   UNL     1      -4.404   2.611 -32.165  1.00  0.00    -0.321 N 
HETATM   20  C   UNL     1      -3.389   1.880 -31.416  1.00  0.00     0.159 C 
HETATM   21  O   UNL     1      -5.035   4.444 -33.430  1.00  0.00    -0.271 OA
BRANCH  19  22
HETATM   22  C   UNL     1      -5.674   1.943 -32.337  1.00  0.00     0.037 A 
HETATM   23  C   UNL     1      -5.899   1.048 -33.394  1.00  0.00     0.037 A 
HETATM   24  C   UNL     1      -7.136   0.397 -33.575  1.00  0.00    -0.054 A 
HETATM   25  C   UNL     1      -7.296  -0.551 -34.731  1.00  0.00     0.049 C 
HETATM   26  C   UNL     1      -8.192   0.666 -32.688  1.00  0.00    -0.056 A 
HETATM   27  C   UNL     1      -9.525  -0.020 -32.807  1.00  0.00     0.049 C 
HETATM   28  C   UNL     1      -7.973   1.551 -31.625  1.00  0.00     0.009 A 
HETATM   29  C   UNL     1      -6.736   2.183 -31.457  1.00  0.00     0.030 A 
ENDBRANCH  19  22
ENDBRANCH  17  18
ENDBRANCH  12  17
TORSDOF 3
ENDMDL
MODEL 5
REMARK VINA RESULT:      -8.5      1.830      2.636
REMARK  3 active torsions:
REMARK  status: ('A' for Active; 'I' for Inactive)
REMARK    1  A    between atoms: N_12  and  C_13 
REMARK    2  A    between atoms: C_13  and  C_14 
REMARK       I    between atoms: C_14  and  N_15 
REMARK    3  A    between atoms: N_15  and  C_16 
ROOT
HETATM    1  C   UNL     1      -5.228  -2.959 -34.121  1.00  0.00     0.048 C 
HETATM    2  C   UNL     1      -5.790  -1.574 -34.251  1.00  0.00    -0.061 A 
HETATM    3  C   UNL     1      -5.151  -0.485 -33.633  1.00  0.00     0.021 A 
HETATM    4  C   UNL     1      -5.694   0.810 -33.762  1.00  0.00     0.005 A 
HETATM    5  C   UNL     1      -6.872   0.976 -34.498  1.00  0.00     0.044 A 
HETATM    6  N   UNL     1      -7.186   2.320 -34.482  1.00  0.00    -0.350 N 
HETATM    7  H   UNL     1      -7.980   2.745 -34.943  1.00  0.00     0.166 HD
HETATM    8  C   UNL     1      -6.241   3.000 -33.769  1.00  0.00     0.116 A 
HETATM    9  C   UNL     1      -5.316   2.099 -33.306  1.00  0.00     0.028 A 
HETATM   10  C   UNL     1      -6.155   4.411 -33.529  1.00  0.00     0.291 A 
HETATM   11  O   UNL     1      -6.983   5.209 -33.956  1.00  0.00    -0.264 OA
HETATM   12  N   UNL     1      -5.036   4.766 -32.750  1.00  0.00    -0.224 N 
HETATM   13  N   UNL     1      -4.076   3.849 -32.271  1.00  0.00    -0.180 NA
HETATM   14  C   UNL     1      -4.210   2.579 -32.531  1.00  0.00     0.153 A 
HETATM   15  C   UNL     1      -7.535  -0.094 -35.108  1.00  0.00     0.031 A 
HETATM   16  C   UNL     1      -6.973  -1.369 -34.969  1.00  0.00     0.009 A 
ENDROOT
BRANCH  12  17
HETATM   17  C   UNL     1      -4.718   6.173 -32.573  1.00  0.00     0.258 C 
BRANCH  17  18
HETATM   18  C   UNL     1      -3.926   6.784 -31.396  1.00  0.00     0.244 C 
HETATM   19  N   UNL     1      -2.725   7.483 -31.560  1.00  0.00    -0.321 N 
HETATM   20  C   UNL     1      -2.089   7.684 -32.857  1.00  0.00     0.159 C 
HETATM   21  O   UNL     1      -4.426   6.579 -30.277  1.00  0.00    -0.271 OA
BRANCH  19  22
HETATM   22  C   UNL     1      -2.009   7.992 -30.413  1.00  0.00     0.037 A 
HETATM   23  C   UNL     1      -1.007   7.244 -29.778  1.00  0.00     0.037 A 
HETATM   24  C   UNL     1      -0.308   7.728 -28.654  1.00  0.00    -0.054 A 
HETATM   25  C   UNL     1       0.756   6.866 -28.032  1.00  0.00     0.049 C 
HETATM   26  C   UNL     1      -0.635   8.990 -28.129  1.00  0.00    -0.056 A 
HETATM   27  C   UNL     1       0.095   9.577 -26.953  1.00  0.00     0.049 C 
HETATM   28  C   UNL     1      -1.628   9.747 -28.763  1.00  0.00     0.009 A 
HETATM   29  C   UNL     1      -2.308   9.253 -29.882  1.00  0.00     0.030 A 
ENDBRANCH  19  22
ENDBRANCH  17  18
ENDBRANCH  12  17
TORSDOF 3
ENDMDL
MODEL 6
REMARK VINA RESULT:      -8.4      2.634     10.170
REMARK  3 active torsions:
REMARK  status: ('A' for Active; 'I' for Inactive)
REMARK    1  A    between atoms: N_12  and  C_13 
REMARK    2  A    between atoms: C_13  and  C_14 
REMARK       I    between atoms: C_14  and  N_15 
REMARK    3  A    between atoms: N_15  and  C_16 
ROOT
HETATM    1  C   UNL     1       2.581   8.583 -25.248  1.00  0.00     0.048 C 
HETATM    2  C   UNL     1       1.428   8.822 -26.178  1.00  0.00    -0.061 A 
HETATM    3  C   UNL     1       1.296   8.071 -27.359  1.00  0.00     0.021 A 
HETATM    4  C   UNL     1       0.208   8.311 -28.223  1.00  0.00     0.005 A 
HETATM    5  C   UNL     1      -0.713   9.308 -27.886  1.00  0.00     0.044 A 
HETATM    6  N   UNL     1      -1.675   9.337 -28.875  1.00  0.00    -0.350 N 
HETATM    7  H   UNL     1      -2.480   9.951 -28.896  1.00  0.00     0.166 HD
HETATM    8  C   UNL     1      -1.392   8.388 -29.814  1.00  0.00     0.116 A 
HETATM    9  C   UNL     1      -0.236   7.747 -29.446  1.00  0.00     0.028 A 
HETATM   10  C   UNL     1      -2.141   8.050 -30.989  1.00  0.00     0.291 A 
HETATM   11  O   UNL     1      -3.178   8.623 -31.303  1.00  0.00    -0.264 OA
HETATM   12  N   UNL     1      -1.552   7.008 -31.732  1.00  0.00    -0.224 N 
HETATM   13  N   UNL     1      -0.365   6.339 -31.362  1.00  0.00    -0.180 NA
HETATM   14  C   UNL     1       0.265   6.691 -30.278  1.00  0.00     0.153 A 
HETATM   15  C   UNL     1      -0.594  10.080 -26.725  1.00  0.00     0.031 A 
HETATM   16  C   UNL     1       0.492   9.819 -25.881  1.00  0.00     0.009 A 
ENDROOT
BRANCH  12  17
HETATM   17  C   UNL     1      -2.285   6.437 -32.849  1.00  0.00     0.258 C 
BRANCH  17  18
HETATM   18  C   UNL     1      -2.760   4.972 -32.971  1.00  0.00     0.244 C 
HETATM   19  N   UNL     1      -3.777   4.428 -32.179  1.00  0.00    -0.321 N 
HETATM   20  C   UNL     1      -4.473   5.182 -31.143  1.00  0.00     0.159 C 
HETATM   21  O   UNL     1      -2.143   4.299 -33.814  1.00  0.00    -0.271 OA
BRANCH  19  22
HETATM   22  C   UNL     1      -4.144   3.037 -32.311  1.00  0.00     0.037 A 
HETATM   23  C   UNL     1      -5.239   2.634 -33.091  1.00  0.00     0.037 A 
HETATM   24  C   UNL     1      -5.610   1.281 -33.221  1.00  0.00    -0.054 A 
HETATM   25  C   UNL     1      -6.795   0.930 -34.078  1.00  0.00     0.049 C 
HETATM   26  C   UNL     1      -4.881   0.297 -32.532  1.00  0.00    -0.056 A 
HETATM   27  C   UNL     1      -5.205  -1.166 -32.655  1.00  0.00     0.049 C 
HETATM   28  C   UNL     1      -3.780   0.689 -31.759  1.00  0.00     0.009 A 
HETATM   29  C   UNL     1      -3.423   2.037 -31.646  1.00  0.00     0.030 A 
ENDBRANCH  19  22
ENDBRANCH  17  18
ENDBRANCH  12  17
TORSDOF 3
ENDMDL
MODEL 7
REMARK VINA RESULT:      -8.0      2.221      9.877
REMARK  3 active torsions:
REMARK  status: ('A' for Active; 'I' for Inactive)
REMARK    1  A    between atoms: N_12  and  C_13 
REMARK    2  A    between atoms: C_13  and  C_14 
REMARK       I    between atoms: C_14  and  N_15 
REMARK    3  A    between atoms: N_15  and  C_16 
ROOT
HETATM    1  C   UNL     1       1.691   8.713 -27.198  1.00  0.00     0.048 C 
HETATM    2  C   UNL     1       0.294   8.861 -27.727  1.00  0.00    -0.061 A 
HETATM    3  C   UNL     1      -0.136   8.099 -28.826  1.00  0.00     0.021 A 
HETATM    4  C   UNL     1      -1.451   8.252 -29.313  1.00  0.00     0.005 A 
HETATM    5  C   UNL     1      -2.296   9.178 -28.691  1.00  0.00     0.044 A 
HETATM    6  N   UNL     1      -3.514   9.131 -29.339  1.00  0.00    -0.350 N 
HETATM    7  H   UNL     1      -4.329   9.681 -29.101  1.00  0.00     0.166 HD
HETATM    8  C   UNL     1      -3.462   8.203 -30.339  1.00  0.00     0.116 A 
HETATM    9  C   UNL     1      -2.205   7.653 -30.354  1.00  0.00     0.028 A 
HETATM   10  C   UNL     1      -4.507   7.805 -31.236  1.00  0.00     0.291 A 
HETATM   11  O   UNL     1      -5.629   8.297 -31.207  1.00  0.00    -0.264 OA
HETATM   12  N   UNL     1      -4.097   6.809 -32.145  1.00  0.00    -0.224 N 
HETATM   13  N   UNL     1      -2.809   6.233 -32.168  1.00  0.00    -0.180 NA
HETATM   14  C   UNL     1      -1.906   6.636 -31.320  1.00  0.00     0.153 A 
HETATM   15  C   UNL     1      -1.885   9.960 -27.606  1.00  0.00     0.031 A 
HETATM   16  C   UNL     1      -0.577   9.785 -27.139  1.00  0.00     0.009 A 
ENDROOT
BRANCH  12  17
HETATM   17  C   UNL     1      -5.093   6.180 -32.997  1.00  0.00     0.258 C 
BRANCH  17  18
HETATM   18  C   UNL     1      -5.132   4.690 -33.402  1.00  0.00     0.244 C 
HETATM   19  N   UNL     1      -5.726   3.697 -32.614  1.00  0.00    -0.321 N 
HETATM   20  C   UNL     1      -6.347   3.967 -31.323  1.00  0.00     0.159 C 
HETATM   21  O   UNL     1      -4.563   4.433 -34.476  1.00  0.00    -0.271 OA
BRANCH  19  22
HETATM   22  C   UNL     1      -5.690   2.314 -33.029  1.00  0.00     0.037 A 
HETATM   23  C   UNL     1      -6.671   1.770 -33.871  1.00  0.00     0.037 A 
HETATM   24  C   UNL     1      -6.649   0.420 -34.275  1.00  0.00    -0.054 A 
HETATM   25  C   UNL     1      -7.737  -0.086 -35.182  1.00  0.00     0.049 C 
HETATM   26  C   UNL     1      -5.628  -0.423 -33.805  1.00  0.00    -0.056 A 
HETATM   27  C   UNL     1      -5.530  -1.864 -34.225  1.00  0.00     0.049 C 
HETATM   28  C   UNL     1      -4.639   0.114 -32.972  1.00  0.00     0.009 A 
HETATM   29  C   UNL     1      -4.674   1.458 -32.586  1.00  0.00     0.030 A 
ENDBRANCH  19  22
ENDBRANCH  17  18
ENDBRANCH  12  17
TORSDOF 3
ENDMDL
MODEL 8
REMARK VINA RESULT:      -8.0      3.978      5.243
REMARK  3 active torsions:
REMARK  status: ('A' for Active; 'I' for Inactive)
REMARK    1  A    between atoms: N_12  and  C_13 
REMARK    2  A    between atoms: C_13  and  C_14 
REMARK       I    between atoms: C_14  and  N_15 
REMARK    3  A    between atoms: N_15  and  C_16 
ROOT
HETATM    1  C   UNL     1      -3.335  -4.918 -33.992  1.00  0.00     0.048 C 
HETATM    2  C   UNL     1      -4.455  -3.935 -34.169  1.00  0.00    -0.061 A 
HETATM    3  C   UNL     1      -4.347  -2.631 -33.655  1.00  0.00     0.021 A 
HETATM    4  C   UNL     1      -5.410  -1.720 -33.827  1.00  0.00     0.005 A 
HETATM    5  C   UNL     1      -6.559  -2.147 -34.501  1.00  0.00     0.044 A 
HETATM    6  N   UNL     1      -7.434  -1.080 -34.546  1.00  0.00    -0.350 N 
HETATM    7  H   UNL     1      -8.346  -1.085 -34.984  1.00  0.00     0.166 HD
HETATM    8  C   UNL     1      -6.869  -0.001 -33.931  1.00  0.00     0.116 A 
HETATM    9  C   UNL     1      -5.629  -0.366 -33.471  1.00  0.00     0.028 A 
HETATM   10  C   UNL     1      -7.409   1.318 -33.779  1.00  0.00     0.291 A 
HETATM   11  O   UNL     1      -8.515   1.636 -34.202  1.00  0.00    -0.264 OA
HETATM   12  N   UNL     1      -6.541   2.188 -33.089  1.00  0.00    -0.224 N 
HETATM   13  N   UNL     1      -5.263   1.826 -32.614  1.00  0.00    -0.180 NA
HETATM   14  C   UNL     1      -4.828   0.611 -32.791  1.00  0.00     0.153 A 
HETATM   15  C   UNL     1      -6.696  -3.443 -35.008  1.00  0.00     0.031 A 
HETATM   16  C   UNL     1      -5.625  -4.327 -34.827  1.00  0.00     0.009 A 
ENDROOT
BRANCH  12  17
HETATM   17  C   UNL     1      -6.874   3.602 -33.013  1.00  0.00     0.258 C 
BRANCH  17  18
HETATM   18  C   UNL     1      -7.567   4.309 -31.828  1.00  0.00     0.244 C 
HETATM   19  N   UNL     1      -7.497   5.690 -31.613  1.00  0.00    -0.321 N 
HETATM   20  C   UNL     1      -6.743   6.596 -32.472  1.00  0.00     0.159 C 
HETATM   21  O   UNL     1      -8.173   3.547 -31.056  1.00  0.00    -0.271 OA
BRANCH  19  22
HETATM   22  C   UNL     1      -8.132   6.285 -30.459  1.00  0.00     0.037 A 
HETATM   23  C   UNL     1      -9.384   6.912 -30.548  1.00  0.00     0.037 A 
HETATM   24  C   UNL     1     -10.008   7.502 -29.431  1.00  0.00    -0.054 A 
HETATM   25  C   UNL     1     -11.353   8.152 -29.608  1.00  0.00     0.049 C 
HETATM   26  C   UNL     1      -9.353   7.488 -28.188  1.00  0.00    -0.056 A 
HETATM   27  C   UNL     1      -9.980   8.071 -26.951  1.00  0.00     0.049 C 
HETATM   28  C   UNL     1      -8.107   6.856 -28.088  1.00  0.00     0.009 A 
HETATM   29  C   UNL     1      -7.505   6.270 -29.208  1.00  0.00     0.030 A 
ENDBRANCH  19  22
ENDBRANCH  17  18
ENDBRANCH  12  17
TORSDOF 3
ENDMDL
MODEL 9
REMARK VINA RESULT:      -7.9      3.537     10.314
REMARK  3 active torsions:
REMARK  status: ('A' for Active; 'I' for Inactive)
REMARK    1  A    between atoms: N_12  and  C_13 
REMARK    2  A    between atoms: C_13  and  C_14 
REMARK       I    between atoms: C_14  and  N_15 
REMARK    3  A    between atoms: N_15  and  C_16 
ROOT
HETATM    1  C   UNL     1      -0.665  11.369 -26.333  1.00  0.00     0.048 C 
HETATM    2  C   UNL     1      -0.250  10.151 -27.104  1.00  0.00    -0.061 A 
HETATM    3  C   UNL     1      -1.188   9.437 -27.869  1.00  0.00     0.021 A 
HETATM    4  C   UNL     1      -0.782   8.292 -28.585  1.00  0.00     0.005 A 
HETATM    5  C   UNL     1       0.554   7.885 -28.503  1.00  0.00     0.044 A 
HETATM    6  N   UNL     1       0.695   6.762 -29.292  1.00  0.00    -0.350 N 
HETATM    7  H   UNL     1       1.556   6.250 -29.440  1.00  0.00     0.166 HD
HETATM    8  C   UNL     1      -0.503   6.456 -29.869  1.00  0.00     0.116 A 
HETATM    9  C   UNL     1      -1.433   7.373 -29.447  1.00  0.00     0.028 A 
HETATM   10  C   UNL     1      -0.803   5.395 -30.785  1.00  0.00     0.291 A 
HETATM   11  O   UNL     1       0.038   4.587 -31.163  1.00  0.00    -0.264 OA
HETATM   12  N   UNL     1      -2.154   5.383 -31.184  1.00  0.00    -0.224 N 
HETATM   13  N   UNL     1      -3.119   6.321 -30.759  1.00  0.00    -0.180 NA
HETATM   14  C   UNL     1      -2.779   7.266 -29.930  1.00  0.00     0.153 A 
HETATM   15  C   UNL     1       1.502   8.569 -27.736  1.00  0.00     0.031 A 
HETATM   16  C   UNL     1       1.075   9.705 -27.038  1.00  0.00     0.009 A 
ENDROOT
BRANCH  12  17
HETATM   17  C   UNL     1      -2.569   4.477 -32.243  1.00  0.00     0.258 C 
BRANCH  17  18
HETATM   18  C   UNL     1      -4.000   3.946 -32.476  1.00  0.00     0.244 C 
HETATM   19  N   UNL     1      -4.744   4.226 -33.628  1.00  0.00    -0.321 N 
HETATM   20  C   UNL     1      -4.251   5.067 -34.712  1.00  0.00     0.159 C 
HETATM   21  O   UNL     1      -4.457   3.269 -31.539  1.00  0.00    -0.271 OA
BRANCH  19  22
HETATM   22  C   UNL     1      -6.096   3.735 -33.765  1.00  0.00     0.037 A 
HETATM   23  C   UNL     1      -7.202   4.596 -33.704  1.00  0.00     0.037 A 
HETATM   24  C   UNL     1      -8.525   4.126 -33.830  1.00  0.00    -0.054 A 
HETATM   25  C   UNL     1      -9.658   5.113 -33.756  1.00  0.00     0.049 C 
HETATM   26  C   UNL     1      -8.756   2.750 -33.998  1.00  0.00    -0.056 A 
HETATM   27  C   UNL     1     -10.140   2.190 -34.170  1.00  0.00     0.049 C 
HETATM   28  C   UNL     1      -7.656   1.886 -34.070  1.00  0.00     0.009 A 
HETATM   29  C   UNL     1      -6.349   2.371 -33.949  1.00  0.00     0.030 A 
ENDBRANCH  19  22
ENDBRANCH  17  18
ENDBRANCH  12  17
TORSDOF 3
ENDMDL
MODEL 10
REMARK VINA RESULT:      -7.8      3.661     10.044
REMARK  3 active torsions:
REMARK  status: ('A' for Active; 'I' for Inactive)
REMARK    1  A    between atoms: N_12  and  C_13 
REMARK    2  A    between atoms: C_13  and  C_14 
REMARK       I    between atoms: C_14  and  N_15 
REMARK    3  A    between atoms: N_15  and  C_16 
ROOT
HETATM    1  C   UNL     1       2.445   8.526 -25.503  1.00  0.00     0.048 C 
HETATM    2  C   UNL     1       1.319   8.728 -26.473  1.00  0.00    -0.061 A 
HETATM    3  C   UNL     1       1.202   7.910 -27.611  1.00  0.00     0.021 A 
HETATM    4  C   UNL     1       0.139   8.116 -28.515  1.00  0.00     0.005 A 
HETATM    5  C   UNL     1      -0.772   9.146 -28.259  1.00  0.00     0.044 A 
HETATM    6  N   UNL     1      -1.710   9.132 -29.272  1.00  0.00    -0.350 N 
HETATM    7  H   UNL     1      -2.503   9.756 -29.349  1.00  0.00     0.166 HD
HETATM    8  C   UNL     1      -1.421   8.125 -30.146  1.00  0.00     0.116 A 
HETATM    9  C   UNL     1      -0.285   7.488 -29.713  1.00  0.00     0.028 A 
HETATM   10  C   UNL     1      -2.148   7.730 -31.317  1.00  0.00     0.291 A 
HETATM   11  O   UNL     1      -3.167   8.300 -31.690  1.00  0.00    -0.264 OA
HETATM   12  N   UNL     1      -1.559   6.636 -31.983  1.00  0.00    -0.224 N 
HETATM   13  N   UNL     1      -0.394   5.971 -31.546  1.00  0.00    -0.180 NA
HETATM   14  C   UNL     1       0.216   6.377 -30.469  1.00  0.00     0.153 A 
HETATM   15  C   UNL     1      -0.667   9.983 -27.144  1.00  0.00     0.031 A 
HETATM   16  C   UNL     1       0.394   9.756 -26.259  1.00  0.00     0.009 A 
ENDROOT
BRANCH  12  17
HETATM   17  C   UNL     1      -2.276   6.012 -33.083  1.00  0.00     0.258 C 
BRANCH  17  18
HETATM   18  C   UNL     1      -3.675   5.363 -33.004  1.00  0.00     0.244 C 
HETATM   19  N   UNL     1      -3.934   4.182 -32.300  1.00  0.00    -0.321 N 
HETATM   20  C   UNL     1      -2.905   3.433 -31.590  1.00  0.00     0.159 C 
HETATM   21  O   UNL     1      -4.557   5.960 -33.646  1.00  0.00    -0.271 OA
BRANCH  19  22
HETATM   22  C   UNL     1      -5.258   3.602 -32.302  1.00  0.00     0.037 A 
HETATM   23  C   UNL     1      -6.203   3.918 -31.315  1.00  0.00     0.037 A 
HETATM   24  C   UNL     1      -7.494   3.353 -31.304  1.00  0.00    -0.054 A 
HETATM   25  C   UNL     1      -8.451   3.746 -30.213  1.00  0.00     0.049 C 
HETATM   26  C   UNL     1      -7.848   2.423 -32.297  1.00  0.00    -0.056 A 
HETATM   27  C   UNL     1      -9.219   1.810 -32.360  1.00  0.00     0.049 C 
HETATM   28  C   UNL     1      -6.914   2.110 -33.292  1.00  0.00     0.009 A 
HETATM   29  C   UNL     1      -5.638   2.685 -33.290  1.00  0.00     0.030 A 
ENDBRANCH  19  22
ENDBRANCH  17  18
ENDBRANCH  12  17
TORSDOF 3
ENDMDL
