MODEL 1
REMARK VINA RESULT:      -9.8      0.000      0.000
REMARK  7 active torsions:
REMARK  status: ('A' for Active; 'I' for Inactive)
REMARK    1  A    between atoms: C_2  and  C_3 
REMARK    2  A    between atoms: C_8  and  N_9 
REMARK    3  A    between atoms: N_9  and  C_10 
REMARK    4  A    between atoms: C_10  and  C_11 
REMARK       I    between atoms: C_11  and  N_12 
REMARK    5  A    between atoms: N_12  and  C_13 
REMARK    6  A    between atoms: C_24  and  N_25 
REMARK    7  A    between atoms: N_25  and  C_26 
ROOT
HETATM    1  N   UNL     1      -6.382   0.415 -34.426  1.00  0.00    -0.282 NA
HETATM    2  H   UNL     1      -5.724   1.007 -34.938  1.00  0.00     0.128 HD
ENDROOT
BRANCH   1   3
HETATM    3  C   UNL     1      -5.706  -0.813 -34.186  1.00  0.00     0.036 A 
HETATM    4  C   UNL     1      -6.157  -2.051 -34.665  1.00  0.00     0.042 A 
HETATM    5  C   UNL     1      -5.437  -3.232 -34.422  1.00  0.00     0.049 A 
HETATM    6  C   UNL     1      -4.247  -3.158 -33.693  1.00  0.00     0.018 A 
HETATM    7  C   UNL     1      -3.784  -1.931 -33.211  1.00  0.00     0.032 A 
HETATM    8  C   UNL     1      -4.484  -0.747 -33.451  1.00  0.00     0.049 A 
BRANCH   5   9
HETATM    9  C   UNL     1      -5.952  -4.547 -34.952  1.00  0.00     0.417 C 
HETATM   10  F   UNL     1      -7.173  -4.893 -34.459  1.00  0.00    -0.166 F 
HETATM   11  F   UNL     1      -6.079  -4.552 -36.307  1.00  0.00    -0.166 F 
HETATM   12  F   UNL     1      -5.121  -5.583 -34.651  1.00  0.00    -0.166 F 
ENDBRANCH   5   9
BRANCH   8  13
HETATM   13  N   UNL     1      -4.105   0.492 -32.925  1.00  0.00    -0.384 N 
HETATM   14  H   UNL     1      -3.122   0.665 -33.131  1.00  0.00     0.160 HD
BRANCH  13  15
HETATM   15  C   UNL     1      -4.534   1.058 -31.645  1.00  0.00     0.081 C 
HETATM   16  C   UNL     1      -5.579   0.211 -30.910  1.00  0.00     0.025 C 
HETATM   17  C   UNL     1      -5.942   0.828 -29.560  1.00  0.00     0.002 C 
HETATM   18  C   UNL     1      -6.377   2.285 -29.707  1.00  0.00     0.000 C 
HETATM   19  C   UNL     1      -5.313   3.122 -30.414  1.00  0.00     0.002 C 
HETATM   20  C   UNL     1      -4.936   2.531 -31.771  1.00  0.00     0.025 C 
ENDBRANCH  13  15
ENDBRANCH   8  13
ENDBRANCH   1   3
BRANCH   1  21
HETATM   21  C   UNL     1      -7.687   0.410 -35.126  1.00  0.00     0.195 C 
BRANCH  21  22
HETATM   22  C   UNL     1      -8.871   0.771 -34.212  1.00  0.00     0.235 C 
HETATM   23  N   UNL     1      -9.946   1.292 -34.907  1.00  0.00    -0.326 N 
HETATM   24  H   UNL     1      -9.773   1.395 -35.907  1.00  0.00     0.169 HD
HETATM   25  O   UNL     1      -8.814   0.556 -33.004  1.00  0.00    -0.272 OA
BRANCH  23  26
HETATM   26  C   UNL     1     -11.153   1.800 -34.400  1.00  0.00     0.037 A 
HETATM   27  C   UNL     1     -12.141   0.999 -33.815  1.00  0.00     0.061 A 
HETATM   28  C   UNL     1     -13.259   1.640 -33.332  1.00  0.00     0.065 A 
HETATM   29  C   UNL     1     -13.428   3.019 -33.418  1.00  0.00     0.063 A 
HETATM   30  N   UNL     1     -14.377   1.113 -32.691  1.00  0.00    -0.306 N 
HETATM   31  N   UNL     1     -14.648   3.341 -32.836  1.00  0.00    -0.307 N 
HETATM   32  C   UNL     1     -12.485   3.834 -33.993  1.00  0.00     0.034 A 
HETATM   33  C   UNL     1     -15.250   2.162 -32.373  1.00  0.00     0.325 A 
HETATM   34  H   UNL     1     -15.057   4.255 -32.735  1.00  0.00     0.170 HD
HETATM   35  O   UNL     1     -16.323   2.071 -31.803  1.00  0.00    -0.247 OA
HETATM   36  C   UNL     1     -11.333   3.207 -34.484  1.00  0.00     0.032 A 
HETATM   37  H   UNL     1     -14.549   0.147 -32.469  1.00  0.00     0.170 HD
ENDBRANCH  23  26
ENDBRANCH  21  22
ENDBRANCH   1  21
TORSDOF 7
ENDMDL
MODEL 2
REMARK VINA RESULT:      -9.8      4.547      7.948
REMARK  7 active torsions:
REMARK  status: ('A' for Active; 'I' for Inactive)
REMARK    1  A    between atoms: C_2  and  C_3 
REMARK    2  A    between atoms: C_8  and  N_9 
REMARK    3  A    between atoms: N_9  and  C_10 
REMARK    4  A    between atoms: C_10  and  C_11 
REMARK       I    between atoms: C_11  and  N_12 
REMARK    5  A    between atoms: N_12  and  C_13 
REMARK    6  A    between atoms: C_24  and  N_25 
REMARK    7  A    between atoms: N_25  and  C_26 
ROOT
HETATM    1  N   UNL     1      -6.232  -0.761 -31.473  1.00  0.00    -0.282 NA
HETATM    2  H   UNL     1      -5.497  -1.382 -31.819  1.00  0.00     0.128 HD
ENDROOT
BRANCH   1   3
HETATM    3  C   UNL     1      -6.982  -0.362 -32.614  1.00  0.00     0.036 A 
HETATM    4  C   UNL     1      -8.294   0.128 -32.544  1.00  0.00     0.042 A 
HETATM    5  C   UNL     1      -8.982   0.534 -33.699  1.00  0.00     0.049 A 
HETATM    6  C   UNL     1      -8.334   0.449 -34.934  1.00  0.00     0.018 A 
HETATM    7  C   UNL     1      -7.026  -0.034 -35.019  1.00  0.00     0.032 A 
HETATM    8  C   UNL     1      -6.325  -0.434 -33.879  1.00  0.00     0.049 A 
BRANCH   5   9
HETATM    9  C   UNL     1     -10.393   1.055 -33.588  1.00  0.00     0.417 C 
HETATM   10  F   UNL     1     -10.521   2.104 -32.729  1.00  0.00    -0.166 F 
HETATM   11  F   UNL     1     -10.888   1.484 -34.780  1.00  0.00    -0.166 F 
HETATM   12  F   UNL     1     -11.260   0.103 -33.144  1.00  0.00    -0.166 F 
ENDBRANCH   5   9
BRANCH   8  13
HETATM   13  N   UNL     1      -5.046  -0.998 -33.919  1.00  0.00    -0.384 N 
HETATM   14  H   UNL     1      -4.382  -0.315 -34.281  1.00  0.00     0.160 HD
BRANCH  13  15
HETATM   15  C   UNL     1      -4.717  -2.375 -34.292  1.00  0.00     0.081 C 
HETATM   16  C   UNL     1      -5.927  -3.205 -34.733  1.00  0.00     0.025 C 
HETATM   17  C   UNL     1      -5.508  -4.612 -35.160  1.00  0.00     0.002 C 
HETATM   18  C   UNL     1      -4.693  -5.309 -34.072  1.00  0.00     0.000 C 
HETATM   19  C   UNL     1      -3.475  -4.483 -33.663  1.00  0.00     0.002 C 
HETATM   20  C   UNL     1      -3.867  -3.073 -33.225  1.00  0.00     0.025 C 
ENDBRANCH  13  15
ENDBRANCH   8  13
ENDBRANCH   1   3
BRANCH   1  21
HETATM   21  C   UNL     1      -5.631   0.268 -30.593  1.00  0.00     0.195 C 
BRANCH  21  22
HETATM   22  C   UNL     1      -4.656   1.204 -31.327  1.00  0.00     0.235 C 
HETATM   23  N   UNL     1      -5.207   2.441 -31.604  1.00  0.00    -0.326 N 
HETATM   24  H   UNL     1      -6.182   2.527 -31.319  1.00  0.00     0.169 HD
HETATM   25  O   UNL     1      -3.510   0.840 -31.577  1.00  0.00    -0.272 OA
BRANCH  23  26
HETATM   26  C   UNL     1      -4.645   3.508 -32.325  1.00  0.00     0.037 A 
HETATM   27  C   UNL     1      -3.613   4.314 -31.830  1.00  0.00     0.061 A 
HETATM   28  C   UNL     1      -3.139   5.303 -32.662  1.00  0.00     0.065 A 
HETATM   29  C   UNL     1      -3.653   5.519 -33.937  1.00  0.00     0.063 A 
HETATM   30  N   UNL     1      -2.121   6.228 -32.450  1.00  0.00    -0.306 N 
HETATM   31  N   UNL     1      -2.956   6.576 -34.509  1.00  0.00    -0.307 N 
HETATM   32  C   UNL     1      -4.669   4.755 -34.452  1.00  0.00     0.034 A 
HETATM   33  C   UNL     1      -1.992   7.027 -33.593  1.00  0.00     0.325 A 
HETATM   34  H   UNL     1      -3.084   6.971 -35.425  1.00  0.00     0.170 HD
HETATM   35  O   UNL     1      -1.199   7.935 -33.765  1.00  0.00    -0.247 OA
HETATM   36  C   UNL     1      -5.163   3.734 -33.628  1.00  0.00     0.032 A 
HETATM   37  H   UNL     1      -1.547   6.321 -31.628  1.00  0.00     0.170 HD
ENDBRANCH  23  26
ENDBRANCH  21  22
ENDBRANCH   1  21
TORSDOF 7
ENDMDL
MODEL 3
REMARK VINA RESULT:      -9.8      4.594      6.120
REMARK  7 active torsions:
REMARK  status: ('A' for Active; 'I' for Inactive)
REMARK    1  A    between atoms: C_2  and  C_3 
REMARK    2  A    between atoms: C_8  and  N_9 
REMARK    3  A    between atoms: N_9  and  C_10 
REMARK    4  A    between atoms: C_10  and  C_11 
REMARK       I    between atoms: C_11  and  N_12 
REMARK    5  A    between atoms: N_12  and  C_13 
REMARK    6  A    between atoms: C_24  and  N_25 
REMARK    7  A    between atoms: N_25  and  C_26 
ROOT
HETATM    1  N   UNL     1      -6.389   4.728 -34.221  1.00  0.00    -0.282 NA
HETATM    2  H   UNL     1      -6.776   3.792 -34.362  1.00  0.00     0.128 HD
ENDROOT
BRANCH   1   3
HETATM    3  C   UNL     1      -5.043   4.543 -33.801  1.00  0.00     0.036 A 
HETATM    4  C   UNL     1      -4.014   5.454 -34.076  1.00  0.00     0.042 A 
HETATM    5  C   UNL     1      -2.706   5.236 -33.615  1.00  0.00     0.049 A 
HETATM    6  C   UNL     1      -2.438   4.089 -32.863  1.00  0.00     0.018 A 
HETATM    7  C   UNL     1      -3.454   3.173 -32.578  1.00  0.00     0.032 A 
HETATM    8  C   UNL     1      -4.762   3.380 -33.022  1.00  0.00     0.049 A 
BRANCH   5   9
HETATM    9  C   UNL     1      -1.623   6.237 -33.931  1.00  0.00     0.417 C 
HETATM   10  F   UNL     1      -2.097   7.477 -34.234  1.00  0.00    -0.166 F 
HETATM   11  F   UNL     1      -0.752   6.410 -32.900  1.00  0.00    -0.166 F 
HETATM   12  F   UNL     1      -0.866   5.857 -34.998  1.00  0.00    -0.166 F 
ENDBRANCH   5   9
BRANCH   8  13
HETATM   13  N   UNL     1      -5.795   2.456 -32.832  1.00  0.00    -0.384 N 
HETATM   14  H   UNL     1      -6.109   2.489 -31.863  1.00  0.00     0.160 HD
BRANCH  13  15
HETATM   15  C   UNL     1      -5.881   1.118 -33.421  1.00  0.00     0.081 C 
HETATM   16  C   UNL     1      -6.773   1.045 -34.665  1.00  0.00     0.025 C 
HETATM   17  C   UNL     1      -6.776  -0.363 -35.261  1.00  0.00     0.002 C 
HETATM   18  C   UNL     1      -7.150  -1.413 -34.217  1.00  0.00     0.000 C 
HETATM   19  C   UNL     1      -6.235  -1.347 -32.996  1.00  0.00     0.002 C 
HETATM   20  C   UNL     1      -6.219   0.049 -32.376  1.00  0.00     0.025 C 
ENDBRANCH  13  15
ENDBRANCH   8  13
ENDBRANCH   1   3
BRANCH   1  21
HETATM   21  C   UNL     1      -7.317   5.521 -33.382  1.00  0.00     0.195 C 
BRANCH  21  22
HETATM   22  C   UNL     1      -8.584   4.748 -32.977  1.00  0.00     0.235 C 
HETATM   23  N   UNL     1      -8.855   3.685 -33.819  1.00  0.00    -0.326 N 
HETATM   24  H   UNL     1      -8.201   3.604 -34.597  1.00  0.00     0.169 HD
HETATM   25  O   UNL     1      -9.220   5.071 -31.978  1.00  0.00    -0.272 OA
BRANCH  23  26
HETATM   26  C   UNL     1      -9.959   2.817 -33.805  1.00  0.00     0.037 A 
HETATM   27  C   UNL     1     -11.218   3.162 -34.313  1.00  0.00     0.061 A 
HETATM   28  C   UNL     1     -12.198   2.198 -34.261  1.00  0.00     0.065 A 
HETATM   29  C   UNL     1     -11.977   0.933 -33.723  1.00  0.00     0.063 A 
HETATM   30  N   UNL     1     -13.517   2.249 -34.703  1.00  0.00    -0.306 N 
HETATM   31  N   UNL     1     -13.157   0.208 -33.830  1.00  0.00    -0.307 N 
HETATM   32  C   UNL     1     -10.760   0.563 -33.209  1.00  0.00     0.034 A 
HETATM   33  C   UNL     1     -14.127   1.015 -34.444  1.00  0.00     0.325 A 
HETATM   34  H   UNL     1     -13.322  -0.741 -33.539  1.00  0.00     0.170 HD
HETATM   35  O   UNL     1     -15.275   0.699 -34.703  1.00  0.00    -0.247 OA
HETATM   36  C   UNL     1      -9.742   1.524 -33.258  1.00  0.00     0.032 A 
HETATM   37  H   UNL     1     -13.978   3.025 -35.150  1.00  0.00     0.170 HD
ENDBRANCH  23  26
ENDBRANCH  21  22
ENDBRANCH   1  21
TORSDOF 7
ENDMDL
MODEL 4
REMARK VINA RESULT:      -9.7      4.013      7.632
REMARK  7 active torsions:
REMARK  status: ('A' for Active; 'I' for Inactive)
REMARK    1  A    between atoms: C_2  and  C_3 
REMARK    2  A    between atoms: C_8  and  N_9 
REMARK    3  A    between atoms: N_9  and  C_10 
REMARK    4  A    between atoms: C_10  and  C_11 
REMARK       I    between atoms: C_11  and  N_12 
REMARK    5  A    between atoms: N_12  and  C_13 
REMARK    6  A    between atoms: C_24  and  N_25 
REMARK    7  A    between atoms: N_25  and  C_26 
ROOT
HETATM    1  N   UNL     1      -4.904   0.288 -33.474  1.00  0.00    -0.282 NA
HETATM    2  H   UNL     1      -5.719   0.814 -33.797  1.00  0.00     0.128 HD
ENDROOT
BRANCH   1   3
HETATM    3  C   UNL     1      -5.105  -1.056 -33.897  1.00  0.00     0.036 A 
HETATM    4  C   UNL     1      -4.281  -2.121 -33.509  1.00  0.00     0.042 A 
HETATM    5  C   UNL     1      -4.540  -3.434 -33.935  1.00  0.00     0.049 A 
HETATM    6  C   UNL     1      -5.647  -3.672 -34.753  1.00  0.00     0.018 A 
HETATM    7  C   UNL     1      -6.480  -2.620 -35.146  1.00  0.00     0.032 A 
HETATM    8  C   UNL     1      -6.240  -1.310 -34.724  1.00  0.00     0.049 A 
BRANCH   5   9
HETATM    9  C   UNL     1      -3.631  -4.556 -33.499  1.00  0.00     0.417 C 
HETATM   10  F   UNL     1      -2.746  -4.945 -34.459  1.00  0.00    -0.166 F 
HETATM   11  F   UNL     1      -2.883  -4.233 -32.409  1.00  0.00    -0.166 F 
HETATM   12  F   UNL     1      -4.325  -5.677 -33.157  1.00  0.00    -0.166 F 
ENDBRANCH   5   9
BRANCH   8  13
HETATM   13  N   UNL     1      -6.996  -0.214 -35.152  1.00  0.00    -0.384 N 
HETATM   14  H   UNL     1      -6.373   0.550 -35.412  1.00  0.00     0.160 HD
BRANCH  13  15
HETATM   15  C   UNL     1      -8.262   0.244 -34.577  1.00  0.00     0.081 C 
HETATM   16  C   UNL     1      -8.406   1.769 -34.528  1.00  0.00     0.025 C 
HETATM   17  C   UNL     1      -9.769   2.178 -33.969  1.00  0.00     0.002 C 
HETATM   18  C   UNL     1     -10.038   1.527 -32.614  1.00  0.00     0.000 C 
HETATM   19  C   UNL     1      -9.919   0.007 -32.685  1.00  0.00     0.002 C 
HETATM   20  C   UNL     1      -8.563  -0.431 -33.234  1.00  0.00     0.025 C 
ENDBRANCH  13  15
ENDBRANCH   8  13
ENDBRANCH   1   3
BRANCH   1  21
HETATM   21  C   UNL     1      -4.668   0.578 -32.041  1.00  0.00     0.195 C 
BRANCH  21  22
HETATM   22  C   UNL     1      -3.734   1.778 -31.808  1.00  0.00     0.235 C 
HETATM   23  N   UNL     1      -4.118   2.901 -32.517  1.00  0.00    -0.326 N 
HETATM   24  H   UNL     1      -4.930   2.749 -33.113  1.00  0.00     0.169 HD
HETATM   25  O   UNL     1      -2.787   1.690 -31.031  1.00  0.00    -0.272 OA
BRANCH  23  26
HETATM   26  C   UNL     1      -3.465   4.142 -32.611  1.00  0.00     0.037 A 
HETATM   27  C   UNL     1      -3.874   5.283 -31.911  1.00  0.00     0.061 A 
HETATM   28  C   UNL     1      -3.119   6.421 -32.076  1.00  0.00     0.065 A 
HETATM   29  C   UNL     1      -2.001   6.465 -32.905  1.00  0.00     0.063 A 
HETATM   30  N   UNL     1      -3.271   7.679 -31.500  1.00  0.00    -0.306 N 
HETATM   31  N   UNL     1      -1.468   7.746 -32.843  1.00  0.00    -0.307 N 
HETATM   32  C   UNL     1      -1.577   5.369 -33.613  1.00  0.00     0.034 A 
HETATM   33  C   UNL     1      -2.248   8.515 -31.966  1.00  0.00     0.325 A 
HETATM   34  H   UNL     1      -0.656   8.096 -33.321  1.00  0.00     0.170 HD
HETATM   35  O   UNL     1      -2.066   9.682 -31.667  1.00  0.00    -0.247 OA
HETATM   36  C   UNL     1      -2.323   4.194 -33.454  1.00  0.00     0.032 A 
HETATM   37  H   UNL     1      -3.980   7.964 -30.845  1.00  0.00     0.170 HD
ENDBRANCH  23  26
ENDBRANCH  21  22
ENDBRANCH   1  21
TORSDOF 7
ENDMDL
MODEL 5
REMARK VINA RESULT:      -9.5      3.537      7.815
REMARK  7 active torsions:
REMARK  status: ('A' for Active; 'I' for Inactive)
REMARK    1  A    between atoms: C_2  and  C_3 
REMARK    2  A    between atoms: C_8  and  N_9 
REMARK    3  A    between atoms: N_9  and  C_10 
REMARK    4  A    between atoms: C_10  and  C_11 
REMARK       I    between atoms: C_11  and  N_12 
REMARK    5  A    between atoms: N_12  and  C_13 
REMARK    6  A    between atoms: C_24  and  N_25 
REMARK    7  A    between atoms: N_25  and  C_26 
ROOT
HETATM    1  N   UNL     1      -7.516   0.540 -31.198  1.00  0.00    -0.282 NA
HETATM    2  H   UNL     1      -7.840  -0.258 -30.646  1.00  0.00     0.128 HD
ENDROOT
BRANCH   1   3
HETATM    3  C   UNL     1      -7.326   0.054 -32.522  1.00  0.00     0.036 A 
HETATM    4  C   UNL     1      -6.479  -1.017 -32.838  1.00  0.00     0.042 A 
HETATM    5  C   UNL     1      -6.347  -1.474 -34.159  1.00  0.00     0.049 A 
HETATM    6  C   UNL     1      -7.084  -0.846 -35.167  1.00  0.00     0.018 A 
HETATM    7  C   UNL     1      -7.934   0.222 -34.866  1.00  0.00     0.032 A 
HETATM    8  C   UNL     1      -8.083   0.682 -33.556  1.00  0.00     0.049 A 
BRANCH   5   9
HETATM    9  C   UNL     1      -5.426  -2.628 -34.465  1.00  0.00     0.417 C 
HETATM   10  F   UNL     1      -4.297  -2.642 -33.705  1.00  0.00    -0.166 F 
HETATM   11  F   UNL     1      -6.021  -3.838 -34.274  1.00  0.00    -0.166 F 
HETATM   12  F   UNL     1      -5.004  -2.621 -35.760  1.00  0.00    -0.166 F 
ENDBRANCH   5   9
BRANCH   8  13
HETATM   13  N   UNL     1      -8.858   1.795 -33.215  1.00  0.00    -0.384 N 
HETATM   14  H   UNL     1      -8.551   2.163 -32.315  1.00  0.00     0.160 HD
BRANCH  13  15
HETATM   15  C   UNL     1     -10.296   1.952 -33.442  1.00  0.00     0.081 C 
HETATM   16  C   UNL     1     -11.068   0.629 -33.474  1.00  0.00     0.025 C 
HETATM   17  C   UNL     1     -12.567   0.867 -33.659  1.00  0.00     0.002 C 
HETATM   18  C   UNL     1     -12.851   1.732 -34.884  1.00  0.00     0.000 C 
HETATM   19  C   UNL     1     -12.097   3.059 -34.824  1.00  0.00     0.002 C 
HETATM   20  C   UNL     1     -10.594   2.851 -34.647  1.00  0.00     0.025 C 
ENDBRANCH  13  15
ENDBRANCH   8  13
ENDBRANCH   1   3
BRANCH   1  21
HETATM   21  C   UNL     1      -6.397   1.204 -30.491  1.00  0.00     0.195 C 
BRANCH  21  22
HETATM   22  C   UNL     1      -5.989   2.546 -31.124  1.00  0.00     0.235 C 
HETATM   23  N   UNL     1      -4.620   2.683 -31.255  1.00  0.00    -0.326 N 
HETATM   24  H   UNL     1      -4.094   1.897 -30.875  1.00  0.00     0.169 HD
HETATM   25  O   UNL     1      -6.844   3.350 -31.488  1.00  0.00    -0.272 OA
BRANCH  23  26
HETATM   26  C   UNL     1      -3.891   3.794 -31.710  1.00  0.00     0.037 A 
HETATM   27  C   UNL     1      -4.056   5.087 -31.197  1.00  0.00     0.061 A 
HETATM   28  C   UNL     1      -3.249   6.072 -31.718  1.00  0.00     0.065 A 
HETATM   29  C   UNL     1      -2.312   5.824 -32.717  1.00  0.00     0.063 A 
HETATM   30  N   UNL     1      -3.177   7.424 -31.393  1.00  0.00    -0.306 N 
HETATM   31  N   UNL     1      -1.666   7.019 -33.009  1.00  0.00    -0.307 N 
HETATM   32  C   UNL     1      -2.129   4.572 -33.248  1.00  0.00     0.034 A 
HETATM   33  C   UNL     1      -2.193   8.027 -32.186  1.00  0.00     0.325 A 
HETATM   34  H   UNL     1      -0.933   7.172 -33.680  1.00  0.00     0.170 HD
HETATM   35  O   UNL     1      -1.855   9.197 -32.168  1.00  0.00    -0.247 OA
HETATM   36  C   UNL     1      -2.932   3.548 -32.728  1.00  0.00     0.032 A 
HETATM   37  H   UNL     1      -3.720   7.911 -30.698  1.00  0.00     0.170 HD
ENDBRANCH  23  26
ENDBRANCH  21  22
ENDBRANCH   1  21
TORSDOF 7
ENDMDL
MODEL 6
REMARK VINA RESULT:      -9.3      4.684      8.984
REMARK  7 active torsions:
REMARK  status: ('A' for Active; 'I' for Inactive)
REMARK    1  A    between atoms: C_2  and  C_3 
REMARK    2  A    between atoms: C_8  and  N_9 
REMARK    3  A    between atoms: N_9  and  C_10 
REMARK    4  A    between atoms: C_10  and  C_11 
REMARK       I    between atoms: C_11  and  N_12 
REMARK    5  A    between atoms: N_12  and  C_13 
REMARK    6  A    between atoms: C_24  and  N_25 
REMARK    7  A    between atoms: N_25  and  C_26 
ROOT
HETATM    1  N   UNL     1      -7.130   2.204 -34.363  1.00  0.00    -0.282 NA
HETATM    2  H   UNL     1      -7.159   2.267 -35.383  1.00  0.00     0.128 HD
ENDROOT
BRANCH   1   3
HETATM    3  C   UNL     1      -8.363   1.616 -33.966  1.00  0.00     0.036 A 
HETATM    4  C   UNL     1      -9.615   2.092 -34.380  1.00  0.00     0.042 A 
HETATM    5  C   UNL     1     -10.803   1.458 -33.980  1.00  0.00     0.049 A 
HETATM    6  C   UNL     1     -10.722   0.329 -33.160  1.00  0.00     0.018 A 
HETATM    7  C   UNL     1      -9.481  -0.158 -32.742  1.00  0.00     0.032 A 
HETATM    8  C   UNL     1      -8.291   0.456 -33.138  1.00  0.00     0.049 A 
BRANCH   5   9
HETATM    9  C   UNL     1     -12.133   1.998 -34.443  1.00  0.00     0.417 C 
HETATM   10  F   UNL     1     -12.888   1.085 -35.116  1.00  0.00    -0.166 F 
HETATM   11  F   UNL     1     -12.907   2.438 -33.414  1.00  0.00    -0.166 F 
HETATM   12  F   UNL     1     -11.993   3.059 -35.285  1.00  0.00    -0.166 F 
ENDBRANCH   5   9
BRANCH   8  13
HETATM   13  N   UNL     1      -7.030   0.055 -32.684  1.00  0.00    -0.384 N 
HETATM   14  H   UNL     1      -6.420   0.868 -32.608  1.00  0.00     0.160 HD
BRANCH  13  15
HETATM   15  C   UNL     1      -6.319  -1.167 -33.065  1.00  0.00     0.081 C 
HETATM   16  C   UNL     1      -4.799  -1.082 -32.888  1.00  0.00     0.025 C 
HETATM   17  C   UNL     1      -4.125  -2.405 -33.251  1.00  0.00     0.002 C 
HETATM   18  C   UNL     1      -4.519  -2.871 -34.650  1.00  0.00     0.000 C 
HETATM   19  C   UNL     1      -6.035  -2.979 -34.802  1.00  0.00     0.002 C 
HETATM   20  C   UNL     1      -6.735  -1.667 -34.453  1.00  0.00     0.025 C 
ENDBRANCH  13  15
ENDBRANCH   8  13
ENDBRANCH   1   3
BRANCH   1  21
HETATM   21  C   UNL     1      -6.726   3.513 -33.800  1.00  0.00     0.195 C 
BRANCH  21  22
HETATM   22  C   UNL     1      -5.367   3.475 -33.082  1.00  0.00     0.235 C 
HETATM   23  N   UNL     1      -4.769   4.718 -32.999  1.00  0.00    -0.326 N 
HETATM   24  H   UNL     1      -5.298   5.456 -33.461  1.00  0.00     0.169 HD
HETATM   25  O   UNL     1      -4.935   2.422 -32.620  1.00  0.00    -0.272 OA
BRANCH  23  26
HETATM   26  C   UNL     1      -3.502   5.048 -32.489  1.00  0.00     0.037 A 
HETATM   27  C   UNL     1      -3.292   5.501 -31.180  1.00  0.00     0.061 A 
HETATM   28  C   UNL     1      -1.992   5.755 -30.809  1.00  0.00     0.065 A 
HETATM   29  C   UNL     1      -0.918   5.588 -31.679  1.00  0.00     0.063 A 
HETATM   30  N   UNL     1      -1.487   6.187 -29.586  1.00  0.00    -0.306 N 
HETATM   31  N   UNL     1       0.245   5.921 -30.996  1.00  0.00    -0.307 N 
HETATM   32  C   UNL     1      -1.087   5.155 -32.970  1.00  0.00     0.034 A 
HETATM   33  C   UNL     1      -0.093   6.293 -29.686  1.00  0.00     0.325 A 
HETATM   34  H   UNL     1       1.188   5.899 -31.344  1.00  0.00     0.170 HD
HETATM   35  O   UNL     1       0.678   6.637 -28.808  1.00  0.00    -0.247 OA
HETATM   36  C   UNL     1      -2.401   4.880 -33.370  1.00  0.00     0.032 A 
HETATM   37  H   UNL     1      -2.010   6.387 -28.749  1.00  0.00     0.170 HD
ENDBRANCH  23  26
ENDBRANCH  21  22
ENDBRANCH   1  21
TORSDOF 7
ENDMDL
MODEL 7
REMARK VINA RESULT:      -9.2      1.545      2.389
REMARK  7 active torsions:
REMARK  status: ('A' for Active; 'I' for Inactive)
REMARK    1  A    between atoms: C_2  and  C_3 
REMARK    2  A    between atoms: C_8  and  N_9 
REMARK    3  A    between atoms: N_9  and  C_10 
REMARK    4  A    between atoms: C_10  and  C_11 
REMARK       I    between atoms: C_11  and  N_12 
REMARK    5  A    between atoms: N_12  and  C_13 
REMARK    6  A    between atoms: C_24  and  N_25 
REMARK    7  A    between atoms: N_25  and  C_26 
ROOT
HETATM    1  N   UNL     1      -7.440   0.900 -33.516  1.00  0.00    -0.282 NA
HETATM    2  H   UNL     1      -6.947   1.775 -33.706  1.00  0.00     0.128 HD
ENDROOT
BRANCH   1   3
HETATM    3  C   UNL     1      -6.449  -0.120 -33.504  1.00  0.00     0.036 A 
HETATM    4  C   UNL     1      -6.624  -1.377 -34.101  1.00  0.00     0.042 A 
HETATM    5  C   UNL     1      -5.602  -2.340 -34.083  1.00  0.00     0.049 A 
HETATM    6  C   UNL     1      -4.390  -2.026 -33.462  1.00  0.00     0.018 A 
HETATM    7  C   UNL     1      -4.200  -0.776 -32.865  1.00  0.00     0.032 A 
HETATM    8  C   UNL     1      -5.203   0.195 -32.882  1.00  0.00     0.049 A 
BRANCH   5   9
HETATM    9  C   UNL     1      -5.825  -3.682 -34.733  1.00  0.00     0.417 C 
HETATM   10  F   UNL     1      -4.980  -4.652 -34.286  1.00  0.00    -0.166 F 
HETATM   11  F   UNL     1      -7.083  -4.159 -34.533  1.00  0.00    -0.166 F 
HETATM   12  F   UNL     1      -5.655  -3.634 -36.084  1.00  0.00    -0.166 F 
ENDBRANCH   5   9
BRANCH   8  13
HETATM   13  N   UNL     1      -5.092   1.428 -32.233  1.00  0.00    -0.384 N 
HETATM   14  H   UNL     1      -6.005   1.715 -31.882  1.00  0.00     0.160 HD
BRANCH  13  15
HETATM   15  C   UNL     1      -4.255   2.555 -32.649  1.00  0.00     0.081 C 
HETATM   16  C   UNL     1      -3.243   3.003 -31.589  1.00  0.00     0.025 C 
HETATM   17  C   UNL     1      -2.367   4.144 -32.107  1.00  0.00     0.002 C 
HETATM   18  C   UNL     1      -3.209   5.305 -32.631  1.00  0.00     0.000 C 
HETATM   19  C   UNL     1      -4.191   4.848 -33.708  1.00  0.00     0.002 C 
HETATM   20  C   UNL     1      -5.086   3.712 -33.214  1.00  0.00     0.025 C 
ENDBRANCH  13  15
ENDBRANCH   8  13
ENDBRANCH   1   3
BRANCH   1  21
HETATM   21  C   UNL     1      -8.602   0.783 -34.428  1.00  0.00     0.195 C 
BRANCH  21  22
HETATM   22  C   UNL     1      -9.948   0.686 -33.689  1.00  0.00     0.235 C 
HETATM   23  N   UNL     1     -10.965   1.361 -34.338  1.00  0.00    -0.326 N 
HETATM   24  H   UNL     1     -10.658   1.851 -35.178  1.00  0.00     0.169 HD
HETATM   25  O   UNL     1     -10.047   0.029 -32.656  1.00  0.00    -0.272 OA
BRANCH  23  26
HETATM   26  C   UNL     1     -12.293   1.555 -33.921  1.00  0.00     0.037 A 
HETATM   27  C   UNL     1     -12.716   2.675 -33.196  1.00  0.00     0.061 A 
HETATM   28  C   UNL     1     -14.054   2.746 -32.882  1.00  0.00     0.065 A 
HETATM   29  C   UNL     1     -14.963   1.757 -33.248  1.00  0.00     0.063 A 
HETATM   30  N   UNL     1     -14.754   3.737 -32.199  1.00  0.00    -0.306 N 
HETATM   31  N   UNL     1     -16.219   2.135 -32.789  1.00  0.00    -0.307 N 
HETATM   32  C   UNL     1     -14.582   0.642 -33.951  1.00  0.00     0.034 A 
HETATM   33  C   UNL     1     -16.105   3.372 -32.135  1.00  0.00     0.325 A 
HETATM   34  H   UNL     1     -17.087   1.638 -32.898  1.00  0.00     0.170 HD
HETATM   35  O   UNL     1     -17.009   4.003 -31.617  1.00  0.00    -0.247 OA
HETATM   36  C   UNL     1     -13.226   0.550 -34.291  1.00  0.00     0.032 A 
HETATM   37  H   UNL     1     -14.380   4.589 -31.816  1.00  0.00     0.170 HD
ENDBRANCH  23  26
ENDBRANCH  21  22
ENDBRANCH   1  21
TORSDOF 7
ENDMDL
MODEL 8
REMARK VINA RESULT:      -9.2      2.877      3.709
REMARK  7 active torsions:
REMARK  status: ('A' for Active; 'I' for Inactive)
REMARK    1  A    between atoms: C_2  and  C_3 
REMARK    2  A    between atoms: C_8  and  N_9 
REMARK    3  A    between atoms: N_9  and  C_10 
REMARK    4  A    between atoms: C_10  and  C_11 
REMARK       I    between atoms: C_11  and  N_12 
REMARK    5  A    between atoms: N_12  and  C_13 
REMARK    6  A    between atoms: C_24  and  N_25 
REMARK    7  A    between atoms: N_25  and  C_26 
ROOT
HETATM    1  N   UNL     1      -6.139   3.377 -32.602  1.00  0.00    -0.282 NA
HETATM    2  H   UNL     1      -5.534   3.946 -32.006  1.00  0.00     0.128 HD
ENDROOT
BRANCH   1   3
HETATM    3  C   UNL     1      -5.477   2.128 -32.762  1.00  0.00     0.036 A 
HETATM    4  C   UNL     1      -6.056   1.021 -33.398  1.00  0.00     0.042 A 
HETATM    5  C   UNL     1      -5.349  -0.182 -33.553  1.00  0.00     0.049 A 
HETATM    6  C   UNL     1      -4.041  -0.263 -33.066  1.00  0.00     0.018 A 
HETATM    7  C   UNL     1      -3.449   0.834 -32.433  1.00  0.00     0.032 A 
HETATM    8  C   UNL     1      -4.137   2.039 -32.278  1.00  0.00     0.049 A 
BRANCH   5   9
HETATM    9  C   UNL     1      -6.003  -1.354 -34.241  1.00  0.00     0.417 C 
HETATM   10  F   UNL     1      -6.550  -1.042 -35.448  1.00  0.00    -0.166 F 
HETATM   11  F   UNL     1      -5.134  -2.375 -34.476  1.00  0.00    -0.166 F 
HETATM   12  F   UNL     1      -7.014  -1.886 -33.500  1.00  0.00    -0.166 F 
ENDBRANCH   5   9
BRANCH   8  13
HETATM   13  N   UNL     1      -3.619   3.137 -31.584  1.00  0.00    -0.384 N 
HETATM   14  H   UNL     1      -4.375   3.627 -31.106  1.00  0.00     0.160 HD
BRANCH  13  15
HETATM   15  C   UNL     1      -2.554   4.030 -32.044  1.00  0.00     0.081 C 
HETATM   16  C   UNL     1      -2.406   5.304 -31.204  1.00  0.00     0.025 C 
HETATM   17  C   UNL     1      -1.244   6.163 -31.702  1.00  0.00     0.002 C 
HETATM   18  C   UNL     1      -1.367   6.464 -33.194  1.00  0.00     0.000 C 
HETATM   19  C   UNL     1      -1.484   5.185 -34.020  1.00  0.00     0.002 C 
HETATM   20  C   UNL     1      -2.644   4.309 -33.548  1.00  0.00     0.025 C 
ENDBRANCH  13  15
ENDBRANCH   8  13
ENDBRANCH   1   3
BRANCH   1  21
HETATM   21  C   UNL     1      -6.528   4.160 -33.798  1.00  0.00     0.195 C 
BRANCH  21  22
HETATM   22  C   UNL     1      -8.050   4.314 -33.956  1.00  0.00     0.235 C 
HETATM   23  N   UNL     1      -8.755   3.257 -33.413  1.00  0.00    -0.326 N 
HETATM   24  H   UNL     1      -8.160   2.523 -33.032  1.00  0.00     0.169 HD
HETATM   25  O   UNL     1      -8.524   5.316 -34.486  1.00  0.00    -0.272 OA
BRANCH  23  26
HETATM   26  C   UNL     1     -10.140   3.021 -33.443  1.00  0.00     0.037 A 
HETATM   27  C   UNL     1     -10.737   2.037 -34.241  1.00  0.00     0.061 A 
HETATM   28  C   UNL     1     -12.103   1.898 -34.143  1.00  0.00     0.065 A 
HETATM   29  C   UNL     1     -12.879   2.694 -33.305  1.00  0.00     0.063 A 
HETATM   30  N   UNL     1     -12.952   1.005 -34.790  1.00  0.00    -0.306 N 
HETATM   31  N   UNL     1     -14.203   2.295 -33.436  1.00  0.00    -0.307 N 
HETATM   32  C   UNL     1     -12.329   3.672 -32.516  1.00  0.00     0.034 A 
HETATM   33  C   UNL     1     -14.264   1.238 -34.358  1.00  0.00     0.325 A 
HETATM   34  H   UNL     1     -15.006   2.668 -32.960  1.00  0.00     0.170 HD
HETATM   35  O   UNL     1     -15.266   0.639 -34.708  1.00  0.00    -0.247 OA
HETATM   36  C   UNL     1     -10.939   3.828 -32.589  1.00  0.00     0.032 A 
HETATM   37  H   UNL     1     -12.693   0.292 -35.452  1.00  0.00     0.170 HD
ENDBRANCH  23  26
ENDBRANCH  21  22
ENDBRANCH   1  21
TORSDOF 7
ENDMDL
MODEL 9
REMARK VINA RESULT:      -9.0      2.798      4.869
REMARK  7 active torsions:
REMARK  status: ('A' for Active; 'I' for Inactive)
REMARK    1  A    between atoms: C_2  and  C_3 
REMARK    2  A    between atoms: C_8  and  N_9 
REMARK    3  A    between atoms: N_9  and  C_10 
REMARK    4  A    between atoms: C_10  and  C_11 
REMARK       I    between atoms: C_11  and  N_12 
REMARK    5  A    between atoms: N_12  and  C_13 
REMARK    6  A    between atoms: C_24  and  N_25 
REMARK    7  A    between atoms: N_25  and  C_26 
ROOT
HETATM    1  N   UNL     1      -4.254   0.370 -32.670  1.00  0.00    -0.282 NA
HETATM    2  H   UNL     1      -4.924   1.074 -32.989  1.00  0.00     0.128 HD
ENDROOT
BRANCH   1   3
HETATM    3  C   UNL     1      -4.619  -0.846 -33.313  1.00  0.00     0.036 A 
HETATM    4  C   UNL     1      -3.920  -2.049 -33.147  1.00  0.00     0.042 A 
HETATM    5  C   UNL     1      -4.338  -3.228 -33.785  1.00  0.00     0.049 A 
HETATM    6  C   UNL     1      -5.478  -3.189 -34.593  1.00  0.00     0.018 A 
HETATM    7  C   UNL     1      -6.187  -1.998 -34.766  1.00  0.00     0.032 A 
HETATM    8  C   UNL     1      -5.789  -0.819 -34.131  1.00  0.00     0.049 A 
BRANCH   5   9
HETATM    9  C   UNL     1      -3.562  -4.505 -33.585  1.00  0.00     0.417 C 
HETATM   10  F   UNL     1      -4.349  -5.594 -33.369  1.00  0.00    -0.166 F 
HETATM   11  F   UNL     1      -2.779  -4.815 -34.655  1.00  0.00    -0.166 F 
HETATM   12  F   UNL     1      -2.721  -4.434 -32.516  1.00  0.00    -0.166 F 
ENDBRANCH   5   9
BRANCH   8  13
HETATM   13  N   UNL     1      -6.416   0.414 -34.334  1.00  0.00    -0.384 N 
HETATM   14  H   UNL     1      -5.720   1.158 -34.324  1.00  0.00     0.160 HD
BRANCH  13  15
HETATM   15  C   UNL     1      -7.710   0.829 -33.788  1.00  0.00     0.081 C 
HETATM   16  C   UNL     1      -8.177  -0.008 -32.592  1.00  0.00     0.025 C 
HETATM   17  C   UNL     1      -9.504   0.510 -32.038  1.00  0.00     0.002 C 
HETATM   18  C   UNL     1     -10.569   0.605 -33.128  1.00  0.00     0.000 C 
HETATM   19  C   UNL     1     -10.101   1.465 -34.300  1.00  0.00     0.002 C 
HETATM   20  C   UNL     1      -8.778   0.965 -34.879  1.00  0.00     0.025 C 
ENDBRANCH  13  15
ENDBRANCH   8  13
ENDBRANCH   1   3
BRANCH   1  21
HETATM   21  C   UNL     1      -4.157   0.418 -31.193  1.00  0.00     0.195 C 
BRANCH  21  22
HETATM   22  C   UNL     1      -5.350   1.126 -30.527  1.00  0.00     0.235 C 
HETATM   23  N   UNL     1      -5.612   2.366 -31.078  1.00  0.00    -0.326 N 
HETATM   24  H   UNL     1      -4.953   2.636 -31.807  1.00  0.00     0.169 HD
HETATM   25  O   UNL     1      -5.982   0.574 -29.631  1.00  0.00    -0.272 OA
BRANCH  23  26
HETATM   26  C   UNL     1      -6.563   3.319 -30.676  1.00  0.00     0.037 A 
HETATM   27  C   UNL     1      -7.765   3.544 -31.358  1.00  0.00     0.061 A 
HETATM   28  C   UNL     1      -8.615   4.488 -30.829  1.00  0.00     0.065 A 
HETATM   29  C   UNL     1      -8.313   5.208 -29.676  1.00  0.00     0.063 A 
HETATM   30  N   UNL     1      -9.868   4.901 -31.273  1.00  0.00    -0.306 N 
HETATM   31  N   UNL     1      -9.374   6.064 -29.412  1.00  0.00    -0.307 N 
HETATM   32  C   UNL     1      -7.141   5.020 -28.988  1.00  0.00     0.034 A 
HETATM   33  C   UNL     1     -10.356   5.881 -30.398  1.00  0.00     0.325 A 
HETATM   34  H   UNL     1      -9.464   6.711 -28.647  1.00  0.00     0.170 HD
HETATM   35  O   UNL     1     -11.424   6.462 -30.474  1.00  0.00    -0.247 OA
HETATM   36  C   UNL     1      -6.262   4.057 -29.500  1.00  0.00     0.032 A 
HETATM   37  H   UNL     1     -10.370   4.561 -32.076  1.00  0.00     0.170 HD
ENDBRANCH  23  26
ENDBRANCH  21  22
ENDBRANCH   1  21
TORSDOF 7
ENDMDL
MODEL 10
REMARK VINA RESULT:      -9.0      3.611      7.921
REMARK  7 active torsions:
REMARK  status: ('A' for Active; 'I' for Inactive)
REMARK    1  A    between atoms: C_2  and  C_3 
REMARK    2  A    between atoms: C_8  and  N_9 
REMARK    3  A    between atoms: N_9  and  C_10 
REMARK    4  A    between atoms: C_10  and  C_11 
REMARK       I    between atoms: C_11  and  N_12 
REMARK    5  A    between atoms: N_12  and  C_13 
REMARK    6  A    between atoms: C_24  and  N_25 
REMARK    7  A    between atoms: N_25  and  C_26 
ROOT
HETATM    1  N   UNL     1      -8.938   1.431 -30.799  1.00  0.00    -0.282 NA
HETATM    2  H   UNL     1      -8.668   1.053 -29.888  1.00  0.00     0.128 HD
ENDROOT
BRANCH   1   3
HETATM    3  C   UNL     1      -8.290   0.622 -31.773  1.00  0.00     0.036 A 
HETATM    4  C   UNL     1      -6.936   0.264 -31.705  1.00  0.00     0.042 A 
HETATM    5  C   UNL     1      -6.351  -0.559 -32.680  1.00  0.00     0.049 A 
HETATM    6  C   UNL     1      -7.145  -1.031 -33.729  1.00  0.00     0.018 A 
HETATM    7  C   UNL     1      -8.497  -0.685 -33.809  1.00  0.00     0.032 A 
HETATM    8  C   UNL     1      -9.095   0.127 -32.843  1.00  0.00     0.049 A 
BRANCH   5   9
HETATM    9  C   UNL     1      -4.891  -0.924 -32.577  1.00  0.00     0.417 C 
HETATM   10  F   UNL     1      -4.618  -2.200 -32.964  1.00  0.00    -0.166 F 
HETATM   11  F   UNL     1      -4.096  -0.123 -33.338  1.00  0.00    -0.166 F 
HETATM   12  F   UNL     1      -4.422  -0.812 -31.303  1.00  0.00    -0.166 F 
ENDBRANCH   5   9
BRANCH   8  13
HETATM   13  N   UNL     1     -10.421   0.565 -32.919  1.00  0.00    -0.384 N 
HETATM   14  H   UNL     1     -11.044  -0.169 -32.585  1.00  0.00     0.160 HD
BRANCH  13  15
HETATM   15  C   UNL     1     -11.006   1.375 -33.990  1.00  0.00     0.081 C 
HETATM   16  C   UNL     1     -10.423   2.789 -34.088  1.00  0.00     0.025 C 
HETATM   17  C   UNL     1     -11.036   3.560 -35.257  1.00  0.00     0.002 C 
HETATM   18  C   UNL     1     -12.562   3.565 -35.188  1.00  0.00     0.000 C 
HETATM   19  C   UNL     1     -13.128   2.149 -35.120  1.00  0.00     0.002 C 
HETATM   20  C   UNL     1     -12.538   1.357 -33.955  1.00  0.00     0.025 C 
ENDBRANCH  13  15
ENDBRANCH   8  13
ENDBRANCH   1   3
BRANCH   1  21
HETATM   21  C   UNL     1      -8.727   2.898 -30.804  1.00  0.00     0.195 C 
BRANCH  21  22
HETATM   22  C   UNL     1      -7.242   3.299 -30.771  1.00  0.00     0.235 C 
HETATM   23  N   UNL     1      -6.747   3.626 -32.020  1.00  0.00    -0.326 N 
HETATM   24  H   UNL     1      -7.427   3.511 -32.770  1.00  0.00     0.169 HD
HETATM   25  O   UNL     1      -6.630   3.340 -29.707  1.00  0.00    -0.272 OA
BRANCH  23  26
HETATM   26  C   UNL     1      -5.430   3.958 -32.380  1.00  0.00     0.037 A 
HETATM   27  C   UNL     1      -5.063   5.209 -32.889  1.00  0.00     0.061 A 
HETATM   28  C   UNL     1      -3.729   5.402 -33.168  1.00  0.00     0.065 A 
HETATM   29  C   UNL     1      -2.771   4.411 -32.972  1.00  0.00     0.063 A 
HETATM   30  N   UNL     1      -3.079   6.532 -33.655  1.00  0.00    -0.306 N 
HETATM   31  N   UNL     1      -1.535   4.927 -33.342  1.00  0.00    -0.307 N 
HETATM   32  C   UNL     1      -3.097   3.171 -32.484  1.00  0.00     0.034 A 
HETATM   33  C   UNL     1      -1.711   6.253 -33.767  1.00  0.00     0.325 A 
HETATM   34  H   UNL     1      -0.644   4.463 -33.312  1.00  0.00     0.170 HD
HETATM   35  O   UNL     1      -0.839   7.011 -34.153  1.00  0.00    -0.247 OA
HETATM   36  C   UNL     1      -4.447   2.952 -32.182  1.00  0.00     0.032 A 
HETATM   37  H   UNL     1      -3.495   7.420 -33.886  1.00  0.00     0.170 HD
ENDBRANCH  23  26
ENDBRANCH  21  22
ENDBRANCH   1  21
TORSDOF 7
ENDMDL
