MODEL 1
REMARK VINA RESULT:      -7.6      0.000      0.000
REMARK  9 active torsions:
REMARK  status: ('A' for Active; 'I' for Inactive)
REMARK    1  A    between atoms: C_2  and  C_3 
REMARK    2  A    between atoms: C_3  and  N_4 
REMARK    3  A    between atoms: C_7  and  C_8 
REMARK       I    between atoms: C_8  and  N_9 
REMARK    4  A    between atoms: N_9  and  C_10 
REMARK    5  A    between atoms: C_10  and  C_11 
REMARK    6  A    between atoms: C_13  and  O_14 
REMARK    7  A    between atoms: O_14  and  C_15 
REMARK    8  A    between atoms: C_15  and  C_16 
REMARK       I    between atoms: C_16  and  N_17 
REMARK    9  A    between atoms: C_23  and  C_24 
ROOT
HETATM    1  C   UNL     1      -5.660   1.225 -29.860  1.00  0.00     0.255 C 
HETATM    2  N   UNL     1      -5.342   2.553 -29.745  1.00  0.00    -0.353 N 
HETATM    3  O   UNL     1      -5.389   0.484 -28.917  1.00  0.00    -0.268 OA
HETATM    4  H   UNL     1      -4.906   2.777 -28.860  1.00  0.00     0.163 HD
ENDROOT
BRANCH   2   5
HETATM    5  C   UNL     1      -5.538   3.644 -30.679  1.00  0.00     0.161 C 
BRANCH   5   6
HETATM    6  C   UNL     1      -4.251   4.082 -31.341  1.00  0.00    -0.038 A 
HETATM    7  C   UNL     1      -3.429   5.084 -30.800  1.00  0.00     0.045 A 
HETATM    8  C   UNL     1      -2.229   5.458 -31.416  1.00  0.00     0.070 A 
HETATM    9  C   UNL     1      -1.832   4.815 -32.586  1.00  0.00     0.037 A 
HETATM   10  C   UNL     1      -2.630   3.806 -33.130  1.00  0.00     0.003 A 
HETATM   11  C   UNL     1      -3.826   3.439 -32.512  1.00  0.00     0.009 A 
BRANCH   8  12
HETATM   12  O   UNL     1      -1.548   6.454 -30.771  1.00  0.00    -0.342 OA
BRANCH  12  13
HETATM   13  C   UNL     1      -0.128   6.337 -30.716  1.00  0.00     0.278 C 
BRANCH  13  14
HETATM   14  C   UNL     1       0.297   5.320 -29.658  1.00  0.00     0.239 C 
HETATM   15  N   UNL     1      -0.025   5.626 -28.368  1.00  0.00    -0.368 N 
HETATM   16  H   UNL     1      -0.597   6.436 -28.160  1.00  0.00     0.159 HD
HETATM   17  H   UNL     1       0.203   4.968 -27.636  1.00  0.00     0.159 HD
HETATM   18  O   UNL     1       0.907   4.290 -29.930  1.00  0.00    -0.271 OA
ENDBRANCH  13  14
ENDBRANCH  12  13
ENDBRANCH   8  12
ENDBRANCH   5   6
ENDBRANCH   2   5
BRANCH   1  19
HETATM   19  C   UNL     1      -6.262   0.752 -31.088  1.00  0.00     0.075 A 
HETATM   20  C   UNL     1      -7.640   0.797 -31.409  1.00  0.00     0.158 A 
HETATM   21  N   UNL     1      -7.920   0.268 -32.596  1.00  0.00    -0.183 NA
HETATM   22  N   UNL     1      -6.713  -0.069 -33.092  1.00  0.00    -0.268 N 
HETATM   23  C   UNL     1      -5.674   0.198 -32.222  1.00  0.00     0.052 A 
BRANCH  22  24
HETATM   24  C   UNL     1      -6.626  -0.651 -34.432  1.00  0.00     0.106 C 
HETATM   25  C   UNL     1      -7.579   0.001 -35.443  1.00  0.00     0.034 C 
BRANCH  24  26
HETATM   26  C   UNL     1      -6.762  -2.187 -34.408  1.00  0.00     0.022 C 
HETATM   27  C   UNL     1      -5.534  -2.953 -34.880  1.00  0.00     0.007 C 
ENDBRANCH  24  26
ENDBRANCH  22  24
BRANCH  23  28
HETATM   28  C   UNL     1      -4.208  -0.125 -32.523  1.00  0.00     0.038 A 
HETATM   29  C   UNL     1      -3.171  -0.099 -31.427  1.00  0.00     0.011 A 
HETATM   30  C   UNL     1      -3.585  -1.406 -32.018  1.00  0.00     0.011 A 
ENDBRANCH  23  28
ENDBRANCH   1  19
TORSDOF 9
ENDMDL
MODEL 2
REMARK VINA RESULT:      -7.5      2.717      7.100
REMARK  9 active torsions:
REMARK  status: ('A' for Active; 'I' for Inactive)
REMARK    1  A    between atoms: C_2  and  C_3 
REMARK    2  A    between atoms: C_3  and  N_4 
REMARK    3  A    between atoms: C_7  and  C_8 
REMARK       I    between atoms: C_8  and  N_9 
REMARK    4  A    between atoms: N_9  and  C_10 
REMARK    5  A    between atoms: C_10  and  C_11 
REMARK    6  A    between atoms: C_13  and  O_14 
REMARK    7  A    between atoms: O_14  and  C_15 
REMARK    8  A    between atoms: C_15  and  C_16 
REMARK       I    between atoms: C_16  and  N_17 
REMARK    9  A    between atoms: C_23  and  C_24 
ROOT
HETATM    1  C   UNL     1      -5.963   0.917 -29.798  1.00  0.00     0.255 C 
HETATM    2  N   UNL     1      -7.182   0.580 -30.325  1.00  0.00    -0.353 N 
HETATM    3  O   UNL     1      -5.540   0.254 -28.853  1.00  0.00    -0.268 OA
HETATM    4  H   UNL     1      -7.607  -0.209 -29.857  1.00  0.00     0.163 HD
ENDROOT
BRANCH   2   5
HETATM    5  C   UNL     1      -7.920   1.173 -31.422  1.00  0.00     0.161 C 
BRANCH   5   6
HETATM    6  C   UNL     1      -7.525   0.603 -32.766  1.00  0.00    -0.038 A 
HETATM    7  C   UNL     1      -7.327  -0.772 -32.972  1.00  0.00     0.045 A 
HETATM    8  C   UNL     1      -6.986  -1.282 -34.229  1.00  0.00     0.070 A 
HETATM    9  C   UNL     1      -6.849  -0.409 -35.306  1.00  0.00     0.037 A 
HETATM   10  C   UNL     1      -7.057   0.960 -35.124  1.00  0.00     0.003 A 
HETATM   11  C   UNL     1      -7.396   1.462 -33.866  1.00  0.00     0.009 A 
BRANCH   8  12
HETATM   12  O   UNL     1      -6.820  -2.639 -34.264  1.00  0.00    -0.342 OA
BRANCH  12  13
HETATM   13  C   UNL     1      -5.490  -3.125 -34.434  1.00  0.00     0.278 C 
BRANCH  13  14
HETATM   14  C   UNL     1      -5.491  -4.616 -34.769  1.00  0.00     0.239 C 
HETATM   15  N   UNL     1      -4.457  -5.346 -34.259  1.00  0.00    -0.368 N 
HETATM   16  H   UNL     1      -3.796  -4.922 -33.620  1.00  0.00     0.159 HD
HETATM   17  H   UNL     1      -4.433  -6.343 -34.423  1.00  0.00     0.159 HD
HETATM   18  O   UNL     1      -6.353  -5.142 -35.468  1.00  0.00    -0.271 OA
ENDBRANCH  13  14
ENDBRANCH  12  13
ENDBRANCH   8  12
ENDBRANCH   5   6
ENDBRANCH   2   5
BRANCH   1  19
HETATM   19  C   UNL     1      -5.249   2.050 -30.350  1.00  0.00     0.075 A 
HETATM   20  C   UNL     1      -5.535   3.413 -30.102  1.00  0.00     0.158 A 
HETATM   21  N   UNL     1      -4.735   4.246 -30.761  1.00  0.00    -0.183 NA
HETATM   22  N   UNL     1      -3.873   3.429 -31.396  1.00  0.00    -0.268 N 
HETATM   23  C   UNL     1      -4.137   2.089 -31.186  1.00  0.00     0.052 A 
BRANCH  22  24
HETATM   24  C   UNL     1      -2.797   4.009 -32.201  1.00  0.00     0.106 C 
HETATM   25  C   UNL     1      -1.727   4.724 -31.365  1.00  0.00     0.034 C 
BRANCH  24  26
HETATM   26  C   UNL     1      -3.337   4.898 -33.340  1.00  0.00     0.022 C 
HETATM   27  C   UNL     1      -4.594   4.379 -34.025  1.00  0.00     0.007 C 
ENDBRANCH  24  26
ENDBRANCH  22  24
BRANCH  23  28
HETATM   28  C   UNL     1      -3.332   0.954 -31.824  1.00  0.00     0.038 A 
HETATM   29  C   UNL     1      -3.824  -0.472 -31.758  1.00  0.00     0.011 A 
HETATM   30  C   UNL     1      -3.843   0.253 -33.062  1.00  0.00     0.011 A 
ENDBRANCH  23  28
ENDBRANCH   1  19
TORSDOF 9
ENDMDL
MODEL 3
REMARK VINA RESULT:      -7.4      3.247      6.425
REMARK  9 active torsions:
REMARK  status: ('A' for Active; 'I' for Inactive)
REMARK    1  A    between atoms: C_2  and  C_3 
REMARK    2  A    between atoms: C_3  and  N_4 
REMARK    3  A    between atoms: C_7  and  C_8 
REMARK       I    between atoms: C_8  and  N_9 
REMARK    4  A    between atoms: N_9  and  C_10 
REMARK    5  A    between atoms: C_10  and  C_11 
REMARK    6  A    between atoms: C_13  and  O_14 
REMARK    7  A    between atoms: O_14  and  C_15 
REMARK    8  A    between atoms: C_15  and  C_16 
REMARK       I    between atoms: C_16  and  N_17 
REMARK    9  A    between atoms: C_23  and  C_24 
ROOT
HETATM    1  C   UNL     1      -6.120   3.119 -30.052  1.00  0.00     0.255 C 
HETATM    2  N   UNL     1      -5.532   2.003 -29.516  1.00  0.00    -0.353 N 
HETATM    3  O   UNL     1      -5.703   4.219 -29.693  1.00  0.00    -0.268 OA
HETATM    4  H   UNL     1      -4.791   2.225 -28.863  1.00  0.00     0.163 HD
ENDROOT
BRANCH   2   5
HETATM    5  C   UNL     1      -5.810   0.600 -29.747  1.00  0.00     0.161 C 
BRANCH   5   6
HETATM    6  C   UNL     1      -5.153   0.075 -31.003  1.00  0.00    -0.038 A 
HETATM    7  C   UNL     1      -5.820  -0.772 -31.904  1.00  0.00     0.045 A 
HETATM    8  C   UNL     1      -5.202  -1.228 -33.074  1.00  0.00     0.070 A 
HETATM    9  C   UNL     1      -3.901  -0.823 -33.361  1.00  0.00     0.037 A 
HETATM   10  C   UNL     1      -3.228   0.031 -32.485  1.00  0.00     0.003 A 
HETATM   11  C   UNL     1      -3.849   0.481 -31.319  1.00  0.00     0.009 A 
BRANCH   8  12
HETATM   12  O   UNL     1      -5.979  -2.052 -33.840  1.00  0.00    -0.342 OA
BRANCH  12  13
HETATM   13  C   UNL     1      -5.321  -2.801 -34.859  1.00  0.00     0.278 C 
BRANCH  13  14
HETATM   14  C   UNL     1      -5.665  -4.286 -34.755  1.00  0.00     0.239 C 
HETATM   15  N   UNL     1      -6.829  -4.675 -35.351  1.00  0.00    -0.368 N 
HETATM   16  H   UNL     1      -7.365  -4.019 -35.907  1.00  0.00     0.159 HD
HETATM   17  H   UNL     1      -7.082  -5.653 -35.341  1.00  0.00     0.159 HD
HETATM   18  O   UNL     1      -4.958  -5.095 -34.160  1.00  0.00    -0.271 OA
ENDBRANCH  13  14
ENDBRANCH  12  13
ENDBRANCH   8  12
ENDBRANCH   5   6
ENDBRANCH   2   5
BRANCH   1  19
HETATM   19  C   UNL     1      -7.219   2.956 -30.980  1.00  0.00     0.075 A 
HETATM   20  C   UNL     1      -8.593   2.933 -30.646  1.00  0.00     0.158 A 
HETATM   21  N   UNL     1      -9.387   2.742 -31.695  1.00  0.00    -0.183 NA
HETATM   22  N   UNL     1      -8.535   2.703 -32.739  1.00  0.00    -0.268 N 
HETATM   23  C   UNL     1      -7.210   2.824 -32.366  1.00  0.00     0.052 A 
BRANCH  22  24
HETATM   24  C   UNL     1      -9.068   2.547 -34.093  1.00  0.00     0.106 C 
HETATM   25  C   UNL     1     -10.273   3.453 -34.383  1.00  0.00     0.034 C 
BRANCH  24  26
HETATM   26  C   UNL     1      -9.352   1.071 -34.439  1.00  0.00     0.022 C 
HETATM   27  C   UNL     1      -8.166   0.298 -34.999  1.00  0.00     0.007 C 
ENDBRANCH  24  26
ENDBRANCH  22  24
BRANCH  23  28
HETATM   28  C   UNL     1      -6.041   2.772 -33.353  1.00  0.00     0.038 A 
HETATM   29  C   UNL     1      -5.768   3.925 -34.287  1.00  0.00     0.011 A 
HETATM   30  C   UNL     1      -4.832   3.656 -33.157  1.00  0.00     0.011 A 
ENDBRANCH  23  28
ENDBRANCH   1  19
TORSDOF 9
ENDMDL
MODEL 4
REMARK VINA RESULT:      -7.3      1.853      2.427
REMARK  9 active torsions:
REMARK  status: ('A' for Active; 'I' for Inactive)
REMARK    1  A    between atoms: C_2  and  C_3 
REMARK    2  A    between atoms: C_3  and  N_4 
REMARK    3  A    between atoms: C_7  and  C_8 
REMARK       I    between atoms: C_8  and  N_9 
REMARK    4  A    between atoms: N_9  and  C_10 
REMARK    5  A    between atoms: C_10  and  C_11 
REMARK    6  A    between atoms: C_13  and  O_14 
REMARK    7  A    between atoms: O_14  and  C_15 
REMARK    8  A    between atoms: C_15  and  C_16 
REMARK       I    between atoms: C_16  and  N_17 
REMARK    9  A    between atoms: C_23  and  C_24 
ROOT
HETATM    1  C   UNL     1      -5.938   0.908 -29.712  1.00  0.00     0.255 C 
HETATM    2  N   UNL     1      -5.855   2.246 -29.424  1.00  0.00    -0.353 N 
HETATM    3  O   UNL     1      -5.585   0.109 -28.847  1.00  0.00    -0.268 OA
HETATM    4  H   UNL     1      -5.501   2.425 -28.494  1.00  0.00     0.163 HD
ENDROOT
BRANCH   2   5
HETATM    5  C   UNL     1      -6.194   3.397 -30.236  1.00  0.00     0.161 C 
BRANCH   5   6
HETATM    6  C   UNL     1      -5.016   4.317 -30.463  1.00  0.00    -0.038 A 
HETATM    7  C   UNL     1      -3.936   3.967 -31.291  1.00  0.00     0.045 A 
HETATM    8  C   UNL     1      -2.866   4.843 -31.508  1.00  0.00     0.070 A 
HETATM    9  C   UNL     1      -2.876   6.096 -30.900  1.00  0.00     0.037 A 
HETATM   10  C   UNL     1      -3.948   6.467 -30.086  1.00  0.00     0.003 A 
HETATM   11  C   UNL     1      -5.011   5.588 -29.872  1.00  0.00     0.009 A 
BRANCH   8  12
HETATM   12  O   UNL     1      -1.891   4.352 -32.331  1.00  0.00    -0.342 OA
BRANCH  12  13
HETATM   13  C   UNL     1      -1.010   5.300 -32.929  1.00  0.00     0.278 C 
BRANCH  13  14
HETATM   14  C   UNL     1      -1.523   5.732 -34.303  1.00  0.00     0.239 C 
HETATM   15  N   UNL     1      -2.156   6.939 -34.354  1.00  0.00    -0.368 N 
HETATM   16  H   UNL     1      -2.186   7.539 -33.538  1.00  0.00     0.159 HD
HETATM   17  H   UNL     1      -2.481   7.285 -35.246  1.00  0.00     0.159 HD
HETATM   18  O   UNL     1      -1.397   5.040 -35.309  1.00  0.00    -0.271 OA
ENDBRANCH  13  14
ENDBRANCH  12  13
ENDBRANCH   8  12
ENDBRANCH   5   6
ENDBRANCH   2   5
BRANCH   1  19
HETATM   19  C   UNL     1      -6.400   0.500 -31.022  1.00  0.00     0.075 A 
HETATM   20  C   UNL     1      -7.750   0.414 -31.438  1.00  0.00     0.158 A 
HETATM   21  N   UNL     1      -7.888  -0.015 -32.688  1.00  0.00    -0.183 NA
HETATM   22  N   UNL     1      -6.621  -0.150 -33.125  1.00  0.00    -0.268 N 
HETATM   23  C   UNL     1      -5.678   0.145 -32.158  1.00  0.00     0.052 A 
BRANCH  22  24
HETATM   24  C   UNL     1      -6.379  -0.571 -34.505  1.00  0.00     0.106 C 
HETATM   25  C   UNL     1      -7.221   0.196 -35.533  1.00  0.00     0.034 C 
BRANCH  24  26
HETATM   26  C   UNL     1      -6.499  -2.099 -34.676  1.00  0.00     0.022 C 
HETATM   27  C   UNL     1      -5.176  -2.852 -34.729  1.00  0.00     0.007 C 
ENDBRANCH  24  26
ENDBRANCH  22  24
BRANCH  23  28
HETATM   28  C   UNL     1      -4.168   0.033 -32.382  1.00  0.00     0.038 A 
HETATM   29  C   UNL     1      -3.204   0.196 -31.232  1.00  0.00     0.011 A 
HETATM   30  C   UNL     1      -3.398  -1.151 -31.843  1.00  0.00     0.011 A 
ENDBRANCH  23  28
ENDBRANCH   1  19
TORSDOF 9
ENDMDL
MODEL 5
REMARK VINA RESULT:      -7.3      3.202      7.957
REMARK  9 active torsions:
REMARK  status: ('A' for Active; 'I' for Inactive)
REMARK    1  A    between atoms: C_2  and  C_3 
REMARK    2  A    between atoms: C_3  and  N_4 
REMARK    3  A    between atoms: C_7  and  C_8 
REMARK       I    between atoms: C_8  and  N_9 
REMARK    4  A    between atoms: N_9  and  C_10 
REMARK    5  A    between atoms: C_10  and  C_11 
REMARK    6  A    between atoms: C_13  and  O_14 
REMARK    7  A    between atoms: O_14  and  C_15 
REMARK    8  A    between atoms: C_15  and  C_16 
REMARK       I    between atoms: C_16  and  N_17 
REMARK    9  A    between atoms: C_23  and  C_24 
ROOT
HETATM    1  C   UNL     1      -4.856   3.008 -30.756  1.00  0.00     0.255 C 
HETATM    2  N   UNL     1      -5.105   1.703 -31.093  1.00  0.00    -0.353 N 
HETATM    3  O   UNL     1      -5.551   3.520 -29.882  1.00  0.00    -0.268 OA
HETATM    4  H   UNL     1      -5.860   1.297 -30.556  1.00  0.00     0.163 HD
ENDROOT
BRANCH   2   5
HETATM    5  C   UNL     1      -4.457   0.852 -32.071  1.00  0.00     0.161 C 
BRANCH   5   6
HETATM    6  C   UNL     1      -5.390   0.430 -33.184  1.00  0.00    -0.038 A 
HETATM    7  C   UNL     1      -5.372  -0.864 -33.731  1.00  0.00     0.045 A 
HETATM    8  C   UNL     1      -6.261  -1.242 -34.744  1.00  0.00     0.070 A 
HETATM    9  C   UNL     1      -7.193  -0.320 -35.214  1.00  0.00     0.037 A 
HETATM   10  C   UNL     1      -7.235   0.966 -34.671  1.00  0.00     0.003 A 
HETATM   11  C   UNL     1      -6.345   1.337 -33.662  1.00  0.00     0.009 A 
BRANCH   8  12
HETATM   12  O   UNL     1      -6.111  -2.531 -35.176  1.00  0.00    -0.342 OA
BRANCH  12  13
HETATM   13  C   UNL     1      -4.957  -3.236 -34.724  1.00  0.00     0.278 C 
BRANCH  13  14
HETATM   14  C   UNL     1      -5.213  -4.742 -34.695  1.00  0.00     0.239 C 
HETATM   15  N   UNL     1      -4.287  -5.494 -34.032  1.00  0.00    -0.368 N 
HETATM   16  H   UNL     1      -3.539  -5.050 -33.515  1.00  0.00     0.159 HD
HETATM   17  H   UNL     1      -4.431  -6.492 -33.955  1.00  0.00     0.159 HD
HETATM   18  O   UNL     1      -6.178  -5.266 -35.244  1.00  0.00    -0.271 OA
ENDBRANCH  13  14
ENDBRANCH  12  13
ENDBRANCH   8  12
ENDBRANCH   5   6
ENDBRANCH   2   5
BRANCH   1  19
HETATM   19  C   UNL     1      -3.820   3.730 -31.464  1.00  0.00     0.075 A 
HETATM   20  C   UNL     1      -2.434   3.681 -31.184  1.00  0.00     0.158 A 
HETATM   21  N   UNL     1      -1.709   4.465 -31.976  1.00  0.00    -0.183 NA
HETATM   22  N   UNL     1      -2.614   4.986 -32.828  1.00  0.00    -0.268 N 
HETATM   23  C   UNL     1      -3.908   4.578 -32.564  1.00  0.00     0.052 A 
BRANCH  22  24
HETATM   24  C   UNL     1      -2.163   5.882 -33.893  1.00  0.00     0.106 C 
HETATM   25  C   UNL     1      -1.529   5.147 -35.081  1.00  0.00     0.034 C 
BRANCH  24  26
HETATM   26  C   UNL     1      -1.260   7.012 -33.358  1.00  0.00     0.022 C 
HETATM   27  C   UNL     1      -1.966   8.056 -32.503  1.00  0.00     0.007 C 
ENDBRANCH  24  26
ENDBRANCH  22  24
BRANCH  23  28
HETATM   28  C   UNL     1      -5.127   5.055 -33.357  1.00  0.00     0.038 A 
HETATM   29  C   UNL     1      -6.520   4.896 -32.799  1.00  0.00     0.011 A 
HETATM   30  C   UNL     1      -5.919   6.258 -32.899  1.00  0.00     0.011 A 
ENDBRANCH  23  28
ENDBRANCH   1  19
TORSDOF 9
ENDMDL
MODEL 6
REMARK VINA RESULT:      -7.3      4.615      8.310
REMARK  9 active torsions:
REMARK  status: ('A' for Active; 'I' for Inactive)
REMARK    1  A    between atoms: C_2  and  C_3 
REMARK    2  A    between atoms: C_3  and  N_4 
REMARK    3  A    between atoms: C_7  and  C_8 
REMARK       I    between atoms: C_8  and  N_9 
REMARK    4  A    between atoms: N_9  and  C_10 
REMARK    5  A    between atoms: C_10  and  C_11 
REMARK    6  A    between atoms: C_13  and  O_14 
REMARK    7  A    between atoms: O_14  and  C_15 
REMARK    8  A    between atoms: C_15  and  C_16 
REMARK       I    between atoms: C_16  and  N_17 
REMARK    9  A    between atoms: C_23  and  C_24 
ROOT
HETATM    1  C   UNL     1      -6.435   2.341 -33.160  1.00  0.00     0.255 C 
HETATM    2  N   UNL     1      -7.563   2.744 -32.495  1.00  0.00    -0.353 N 
HETATM    3  O   UNL     1      -5.512   3.145 -33.270  1.00  0.00    -0.268 OA
HETATM    4  H   UNL     1      -7.500   3.695 -32.155  1.00  0.00     0.163 HD
ENDROOT
BRANCH   2   5
HETATM    5  C   UNL     1      -8.790   2.024 -32.216  1.00  0.00     0.161 C 
BRANCH   5   6
HETATM    6  C   UNL     1      -9.860   2.273 -33.254  1.00  0.00    -0.038 A 
HETATM    7  C   UNL     1     -10.858   1.329 -33.549  1.00  0.00     0.045 A 
HETATM    8  C   UNL     1     -11.855   1.589 -34.496  1.00  0.00     0.070 A 
HETATM    9  C   UNL     1     -11.868   2.817 -35.154  1.00  0.00     0.037 A 
HETATM   10  C   UNL     1     -10.893   3.774 -34.863  1.00  0.00     0.003 A 
HETATM   11  C   UNL     1      -9.901   3.507 -33.918  1.00  0.00     0.009 A 
BRANCH   8  12
HETATM   12  O   UNL     1     -12.745   0.567 -34.675  1.00  0.00    -0.342 OA
BRANCH  12  13
HETATM   13  C   UNL     1     -13.689   0.340 -33.632  1.00  0.00     0.278 C 
BRANCH  13  14
HETATM   14  C   UNL     1     -15.066   0.886 -34.010  1.00  0.00     0.239 C 
HETATM   15  N   UNL     1     -15.533   1.914 -33.245  1.00  0.00    -0.368 N 
HETATM   16  H   UNL     1     -14.945   2.338 -32.538  1.00  0.00     0.159 HD
HETATM   17  H   UNL     1     -16.423   2.333 -33.478  1.00  0.00     0.159 HD
HETATM   18  O   UNL     1     -15.734   0.428 -34.933  1.00  0.00    -0.271 OA
ENDBRANCH  13  14
ENDBRANCH  12  13
ENDBRANCH   8  12
ENDBRANCH   5   6
ENDBRANCH   2   5
BRANCH   1  19
HETATM   19  C   UNL     1      -6.395   1.011 -33.730  1.00  0.00     0.075 A 
HETATM   20  C   UNL     1      -6.841   0.646 -35.022  1.00  0.00     0.158 A 
HETATM   21  N   UNL     1      -6.709  -0.652 -35.277  1.00  0.00    -0.183 NA
HETATM   22  N   UNL     1      -6.113  -1.138 -34.171  1.00  0.00    -0.268 N 
HETATM   23  C   UNL     1      -5.900  -0.178 -33.200  1.00  0.00     0.052 A 
BRANCH  22  24
HETATM   24  C   UNL     1      -5.763  -2.558 -34.110  1.00  0.00     0.106 C 
HETATM   25  C   UNL     1      -4.399  -2.878 -34.735  1.00  0.00     0.034 C 
BRANCH  24  26
HETATM   26  C   UNL     1      -6.886  -3.457 -34.668  1.00  0.00     0.022 C 
HETATM   27  C   UNL     1      -6.415  -4.625 -35.524  1.00  0.00     0.007 C 
ENDBRANCH  24  26
ENDBRANCH  22  24
BRANCH  23  28
HETATM   28  C   UNL     1      -5.276  -0.473 -31.834  1.00  0.00     0.038 A 
HETATM   29  C   UNL     1      -3.827  -0.879 -31.721  1.00  0.00     0.011 A 
HETATM   30  C   UNL     1      -4.254   0.467 -31.238  1.00  0.00     0.011 A 
ENDBRANCH  23  28
ENDBRANCH   1  19
TORSDOF 9
ENDMDL
MODEL 7
REMARK VINA RESULT:      -7.1      1.837      2.518
REMARK  9 active torsions:
REMARK  status: ('A' for Active; 'I' for Inactive)
REMARK    1  A    between atoms: C_2  and  C_3 
REMARK    2  A    between atoms: C_3  and  N_4 
REMARK    3  A    between atoms: C_7  and  C_8 
REMARK       I    between atoms: C_8  and  N_9 
REMARK    4  A    between atoms: N_9  and  C_10 
REMARK    5  A    between atoms: C_10  and  C_11 
REMARK    6  A    between atoms: C_13  and  O_14 
REMARK    7  A    between atoms: O_14  and  C_15 
REMARK    8  A    between atoms: C_15  and  C_16 
REMARK       I    between atoms: C_16  and  N_17 
REMARK    9  A    between atoms: C_23  and  C_24 
ROOT
HETATM    1  C   UNL     1      -5.116   3.274 -30.705  1.00  0.00     0.255 C 
HETATM    2  N   UNL     1      -3.770   3.412 -30.928  1.00  0.00    -0.353 N 
HETATM    3  O   UNL     1      -5.546   3.551 -29.588  1.00  0.00    -0.268 OA
HETATM    4  H   UNL     1      -3.270   3.742 -30.113  1.00  0.00     0.163 HD
ENDROOT
BRANCH   2   5
HETATM    5  C   UNL     1      -2.992   3.164 -32.125  1.00  0.00     0.161 C 
BRANCH   5   6
HETATM    6  C   UNL     1      -2.282   4.401 -32.625  1.00  0.00    -0.038 A 
HETATM    7  C   UNL     1      -1.527   5.230 -31.779  1.00  0.00     0.045 A 
HETATM    8  C   UNL     1      -0.856   6.357 -32.266  1.00  0.00     0.070 A 
HETATM    9  C   UNL     1      -0.927   6.660 -33.624  1.00  0.00     0.037 A 
HETATM   10  C   UNL     1      -1.661   5.839 -34.483  1.00  0.00     0.003 A 
HETATM   11  C   UNL     1      -2.329   4.717 -33.990  1.00  0.00     0.009 A 
BRANCH   8  12
HETATM   12  O   UNL     1      -0.173   7.065 -31.316  1.00  0.00    -0.342 OA
BRANCH  12  13
HETATM   13  C   UNL     1      -0.799   7.211 -30.043  1.00  0.00     0.278 C 
BRANCH  13  14
HETATM   14  C   UNL     1       0.175   6.875 -28.913  1.00  0.00     0.239 C 
HETATM   15  N   UNL     1       0.060   5.628 -28.374  1.00  0.00    -0.368 N 
HETATM   16  H   UNL     1      -0.573   4.949 -28.779  1.00  0.00     0.159 HD
HETATM   17  H   UNL     1       0.704   5.346 -27.648  1.00  0.00     0.159 HD
HETATM   18  O   UNL     1       1.007   7.673 -28.491  1.00  0.00    -0.271 OA
ENDBRANCH  13  14
ENDBRANCH  12  13
ENDBRANCH   8  12
ENDBRANCH   5   6
ENDBRANCH   2   5
BRANCH   1  19
HETATM   19  C   UNL     1      -5.956   2.780 -31.775  1.00  0.00     0.075 A 
HETATM   20  C   UNL     1      -6.619   3.571 -32.744  1.00  0.00     0.158 A 
HETATM   21  N   UNL     1      -7.348   2.857 -33.596  1.00  0.00    -0.183 NA
HETATM   22  N   UNL     1      -7.114   1.582 -33.230  1.00  0.00    -0.268 N 
HETATM   23  C   UNL     1      -6.281   1.475 -32.132  1.00  0.00     0.052 A 
BRANCH  22  24
HETATM   24  C   UNL     1      -7.728   0.493 -33.991  1.00  0.00     0.106 C 
HETATM   25  C   UNL     1      -7.173   0.355 -35.415  1.00  0.00     0.034 C 
BRANCH  24  26
HETATM   26  C   UNL     1      -9.269   0.567 -33.970  1.00  0.00     0.022 C 
HETATM   27  C   UNL     1      -9.929  -0.016 -32.728  1.00  0.00     0.007 C 
ENDBRANCH  24  26
ENDBRANCH  22  24
BRANCH  23  28
HETATM   28  C   UNL     1      -5.889   0.142 -31.490  1.00  0.00     0.038 A 
HETATM   29  C   UNL     1      -5.190  -0.926 -32.295  1.00  0.00     0.011 A 
HETATM   30  C   UNL     1      -4.436  -0.191 -31.239  1.00  0.00     0.011 A 
ENDBRANCH  23  28
ENDBRANCH   1  19
TORSDOF 9
ENDMDL
MODEL 8
REMARK VINA RESULT:      -7.1      3.252      7.501
REMARK  9 active torsions:
REMARK  status: ('A' for Active; 'I' for Inactive)
REMARK    1  A    between atoms: C_2  and  C_3 
REMARK    2  A    between atoms: C_3  and  N_4 
REMARK    3  A    between atoms: C_7  and  C_8 
REMARK       I    between atoms: C_8  and  N_9 
REMARK    4  A    between atoms: N_9  and  C_10 
REMARK    5  A    between atoms: C_10  and  C_11 
REMARK    6  A    between atoms: C_13  and  O_14 
REMARK    7  A    between atoms: O_14  and  C_15 
REMARK    8  A    between atoms: C_15  and  C_16 
REMARK       I    between atoms: C_16  and  N_17 
REMARK    9  A    between atoms: C_23  and  C_24 
ROOT
HETATM    1  C   UNL     1      -7.524   2.619 -30.744  1.00  0.00     0.255 C 
HETATM    2  N   UNL     1      -7.316   1.294 -30.464  1.00  0.00    -0.353 N 
HETATM    3  O   UNL     1      -8.652   2.966 -31.088  1.00  0.00    -0.268 OA
HETATM    4  H   UNL     1      -8.151   0.734 -30.575  1.00  0.00     0.163 HD
ENDROOT
BRANCH   2   5
HETATM    5  C   UNL     1      -6.112   0.607 -30.043  1.00  0.00     0.161 C 
BRANCH   5   6
HETATM    6  C   UNL     1      -5.342   0.016 -31.203  1.00  0.00    -0.038 A 
HETATM    7  C   UNL     1      -5.947  -0.810 -32.164  1.00  0.00     0.045 A 
HETATM    8  C   UNL     1      -5.222  -1.328 -33.245  1.00  0.00     0.070 A 
HETATM    9  C   UNL     1      -3.873  -1.007 -33.378  1.00  0.00     0.037 A 
HETATM   10  C   UNL     1      -3.259  -0.175 -32.439  1.00  0.00     0.003 A 
HETATM   11  C   UNL     1      -3.987   0.337 -31.364  1.00  0.00     0.009 A 
BRANCH   8  12
HETATM   12  O   UNL     1      -5.950  -2.121 -34.087  1.00  0.00    -0.342 OA
BRANCH  12  13
HETATM   13  C   UNL     1      -5.221  -2.986 -34.954  1.00  0.00     0.278 C 
BRANCH  13  14
HETATM   14  C   UNL     1      -5.732  -4.423 -34.850  1.00  0.00     0.239 C 
HETATM   15  N   UNL     1      -7.028  -4.627 -35.225  1.00  0.00    -0.368 N 
HETATM   16  H   UNL     1      -7.568  -3.875 -35.636  1.00  0.00     0.159 HD
HETATM   17  H   UNL     1      -7.402  -5.566 -35.208  1.00  0.00     0.159 HD
HETATM   18  O   UNL     1      -5.039  -5.350 -34.440  1.00  0.00    -0.271 OA
ENDBRANCH  13  14
ENDBRANCH  12  13
ENDBRANCH   8  12
ENDBRANCH   5   6
ENDBRANCH   2   5
BRANCH   1  19
HETATM   19  C   UNL     1      -6.408   3.538 -30.658  1.00  0.00     0.075 A 
HETATM   20  C   UNL     1      -6.081   4.345 -29.543  1.00  0.00     0.158 A 
HETATM   21  N   UNL     1      -5.017   5.116 -29.746  1.00  0.00    -0.183 NA
HETATM   22  N   UNL     1      -4.598   4.769 -30.978  1.00  0.00    -0.268 N 
HETATM   23  C   UNL     1      -5.403   3.820 -31.579  1.00  0.00     0.052 A 
BRANCH  22  24
HETATM   24  C   UNL     1      -3.396   5.394 -31.530  1.00  0.00     0.106 C 
HETATM   25  C   UNL     1      -2.195   4.441 -31.612  1.00  0.00     0.034 C 
BRANCH  24  26
HETATM   26  C   UNL     1      -3.045   6.713 -30.811  1.00  0.00     0.022 C 
HETATM   27  C   UNL     1      -3.116   7.962 -31.679  1.00  0.00     0.007 C 
ENDBRANCH  24  26
ENDBRANCH  22  24
BRANCH  23  28
HETATM   28  C   UNL     1      -5.173   3.282 -32.994  1.00  0.00     0.038 A 
HETATM   29  C   UNL     1      -6.312   2.696 -33.791  1.00  0.00     0.011 A 
HETATM   30  C   UNL     1      -5.734   4.011 -34.193  1.00  0.00     0.011 A 
ENDBRANCH  23  28
ENDBRANCH   1  19
TORSDOF 9
ENDMDL
MODEL 9
REMARK VINA RESULT:      -7.1      3.864      6.716
REMARK  9 active torsions:
REMARK  status: ('A' for Active; 'I' for Inactive)
REMARK    1  A    between atoms: C_2  and  C_3 
REMARK    2  A    between atoms: C_3  and  N_4 
REMARK    3  A    between atoms: C_7  and  C_8 
REMARK       I    between atoms: C_8  and  N_9 
REMARK    4  A    between atoms: N_9  and  C_10 
REMARK    5  A    between atoms: C_10  and  C_11 
REMARK    6  A    between atoms: C_13  and  O_14 
REMARK    7  A    between atoms: O_14  and  C_15 
REMARK    8  A    between atoms: C_15  and  C_16 
REMARK       I    between atoms: C_16  and  N_17 
REMARK    9  A    between atoms: C_23  and  C_24 
ROOT
HETATM    1  C   UNL     1      -5.975   2.446 -32.953  1.00  0.00     0.255 C 
HETATM    2  N   UNL     1      -6.758   2.755 -31.872  1.00  0.00    -0.353 N 
HETATM    3  O   UNL     1      -5.229   3.318 -33.393  1.00  0.00    -0.268 OA
HETATM    4  H   UNL     1      -6.622   3.704 -31.548  1.00  0.00     0.163 HD
ENDROOT
BRANCH   2   5
HETATM    5  C   UNL     1      -7.716   1.942 -31.151  1.00  0.00     0.161 C 
BRANCH   5   6
HETATM    6  C   UNL     1      -8.935   1.605 -31.979  1.00  0.00    -0.038 A 
HETATM    7  C   UNL     1      -9.693   2.588 -32.637  1.00  0.00     0.045 A 
HETATM    8  C   UNL     1     -10.804   2.253 -33.419  1.00  0.00     0.070 A 
HETATM    9  C   UNL     1     -11.161   0.914 -33.561  1.00  0.00     0.037 A 
HETATM   10  C   UNL     1     -10.410  -0.078 -32.927  1.00  0.00     0.003 A 
HETATM   11  C   UNL     1      -9.304   0.263 -32.147  1.00  0.00     0.009 A 
BRANCH   8  12
HETATM   12  O   UNL     1     -11.442   3.323 -33.985  1.00  0.00    -0.342 OA
BRANCH  12  13
HETATM   13  C   UNL     1     -10.924   3.804 -35.223  1.00  0.00     0.278 C 
BRANCH  13  14
HETATM   14  C   UNL     1     -10.491   5.265 -35.104  1.00  0.00     0.239 C 
HETATM   15  N   UNL     1     -11.492   6.175 -34.930  1.00  0.00    -0.368 N 
HETATM   16  H   UNL     1     -12.448   5.868 -34.792  1.00  0.00     0.159 HD
HETATM   17  H   UNL     1     -11.254   7.150 -34.810  1.00  0.00     0.159 HD
HETATM   18  O   UNL     1      -9.318   5.621 -35.175  1.00  0.00    -0.271 OA
ENDBRANCH  13  14
ENDBRANCH  12  13
ENDBRANCH   8  12
ENDBRANCH   5   6
ENDBRANCH   2   5
BRANCH   1  19
HETATM   19  C   UNL     1      -6.084   1.129 -33.545  1.00  0.00     0.075 A 
HETATM   20  C   UNL     1      -6.694   0.823 -34.784  1.00  0.00     0.158 A 
HETATM   21  N   UNL     1      -6.677  -0.475 -35.073  1.00  0.00    -0.183 NA
HETATM   22  N   UNL     1      -5.994  -1.023 -34.049  1.00  0.00    -0.268 N 
HETATM   23  C   UNL     1      -5.613  -0.100 -33.093  1.00  0.00     0.052 A 
BRANCH  22  24
HETATM   24  C   UNL     1      -5.734  -2.463 -34.050  1.00  0.00     0.106 C 
HETATM   25  C   UNL     1      -4.409  -2.843 -34.724  1.00  0.00     0.034 C 
BRANCH  24  26
HETATM   26  C   UNL     1      -6.925  -3.268 -34.609  1.00  0.00     0.022 C 
HETATM   27  C   UNL     1      -6.554  -4.562 -35.321  1.00  0.00     0.007 C 
ENDBRANCH  24  26
ENDBRANCH  22  24
BRANCH  23  28
HETATM   28  C   UNL     1      -4.862  -0.467 -31.810  1.00  0.00     0.038 A 
HETATM   29  C   UNL     1      -3.394  -0.815 -31.849  1.00  0.00     0.011 A 
HETATM   30  C   UNL     1      -3.828   0.472 -31.232  1.00  0.00     0.011 A 
ENDBRANCH  23  28
ENDBRANCH   1  19
TORSDOF 9
ENDMDL
MODEL 10
REMARK VINA RESULT:      -7.0      3.180      8.178
REMARK  9 active torsions:
REMARK  status: ('A' for Active; 'I' for Inactive)
REMARK    1  A    between atoms: C_2  and  C_3 
REMARK    2  A    between atoms: C_3  and  N_4 
REMARK    3  A    between atoms: C_7  and  C_8 
REMARK       I    between atoms: C_8  and  N_9 
REMARK    4  A    between atoms: N_9  and  C_10 
REMARK    5  A    between atoms: C_10  and  C_11 
REMARK    6  A    between atoms: C_13  and  O_14 
REMARK    7  A    between atoms: O_14  and  C_15 
REMARK    8  A    between atoms: C_15  and  C_16 
REMARK       I    between atoms: C_16  and  N_17 
REMARK    9  A    between atoms: C_23  and  C_24 
ROOT
HETATM    1  C   UNL     1      -6.022   4.815 -32.781  1.00  0.00     0.255 C 
HETATM    2  N   UNL     1      -6.278   3.481 -32.967  1.00  0.00    -0.353 N 
HETATM    3  O   UNL     1      -6.839   5.624 -33.216  1.00  0.00    -0.268 OA
HETATM    4  H   UNL     1      -7.146   3.313 -33.459  1.00  0.00     0.163 HD
ENDROOT
BRANCH   2   5
HETATM    5  C   UNL     1      -5.508   2.319 -32.570  1.00  0.00     0.161 C 
BRANCH   5   6
HETATM    6  C   UNL     1      -5.836   1.094 -33.393  1.00  0.00    -0.038 A 
HETATM    7  C   UNL     1      -5.211  -0.146 -33.179  1.00  0.00     0.045 A 
HETATM    8  C   UNL     1      -5.547  -1.275 -33.935  1.00  0.00     0.070 A 
HETATM    9  C   UNL     1      -6.531  -1.172 -34.916  1.00  0.00     0.037 A 
HETATM   10  C   UNL     1      -7.174   0.050 -35.132  1.00  0.00     0.003 A 
HETATM   11  C   UNL     1      -6.833   1.172 -34.374  1.00  0.00     0.009 A 
BRANCH   8  12
HETATM   12  O   UNL     1      -4.844  -2.402 -33.613  1.00  0.00    -0.342 OA
BRANCH  12  13
HETATM   13  C   UNL     1      -4.426  -3.236 -34.691  1.00  0.00     0.278 C 
BRANCH  13  14
HETATM   14  C   UNL     1      -4.866  -4.682 -34.466  1.00  0.00     0.239 C 
HETATM   15  N   UNL     1      -4.004  -5.467 -33.757  1.00  0.00    -0.368 N 
HETATM   16  H   UNL     1      -3.176  -5.068 -33.332  1.00  0.00     0.159 HD
HETATM   17  H   UNL     1      -4.266  -6.422 -33.551  1.00  0.00     0.159 HD
HETATM   18  O   UNL     1      -5.920  -5.135 -34.903  1.00  0.00    -0.271 OA
ENDBRANCH  13  14
ENDBRANCH  12  13
ENDBRANCH   8  12
ENDBRANCH   5   6
ENDBRANCH   2   5
BRANCH   1  19
HETATM   19  C   UNL     1      -4.797   5.208 -32.117  1.00  0.00     0.075 A 
HETATM   20  C   UNL     1      -4.692   5.711 -30.798  1.00  0.00     0.158 A 
HETATM   21  N   UNL     1      -3.445   6.017 -30.451  1.00  0.00    -0.183 NA
HETATM   22  N   UNL     1      -2.714   5.655 -31.523  1.00  0.00    -0.268 N 
HETATM   23  C   UNL     1      -3.480   5.161 -32.562  1.00  0.00     0.052 A 
BRANCH  22  24
HETATM   24  C   UNL     1      -1.259   5.808 -31.484  1.00  0.00     0.106 C 
HETATM   25  C   UNL     1      -0.580   4.910 -30.441  1.00  0.00     0.034 C 
BRANCH  24  26
HETATM   26  C   UNL     1      -0.834   7.284 -31.348  1.00  0.00     0.022 C 
HETATM   27  C   UNL     1      -1.611   8.264 -32.217  1.00  0.00     0.007 C 
ENDBRANCH  24  26
ENDBRANCH  22  24
BRANCH  23  28
HETATM   28  C   UNL     1      -2.901   4.715 -33.908  1.00  0.00     0.038 A 
HETATM   29  C   UNL     1      -3.503   5.199 -35.204  1.00  0.00     0.011 A 
HETATM   30  C   UNL     1      -2.160   5.696 -34.786  1.00  0.00     0.011 A 
ENDBRANCH  23  28
ENDBRANCH   1  19
TORSDOF 9
ENDMDL
