MODEL 1
REMARK VINA RESULT:     -10.3      0.000      0.000
REMARK  4 active torsions:
REMARK  status: ('A' for Active; 'I' for Inactive)
REMARK    1  A    between atoms: C_4  and  C_5 
REMARK    2  A    between atoms: C_5  and  N_6 
REMARK    3  A    between atoms: C_9  and  C_10 
REMARK    4  A    between atoms: C_22  and  C_23 
ROOT
HETATM    1  N   UNL     1      -4.508   3.560 -32.059  1.00  0.00    -0.314 N 
HETATM    2  N   UNL     1      -4.275   2.200 -31.974  1.00  0.00    -0.203 NA
HETATM    3  C   UNL     1      -5.392   1.528 -32.473  1.00  0.00     0.041 C 
HETATM    4  C   UNL     1      -5.571   0.229 -32.756  1.00  0.00     0.044 C 
HETATM    5  C   UNL     1      -6.422   2.576 -32.686  1.00  0.00     0.015 C 
HETATM    6  C   UNL     1      -5.828   3.758 -32.414  1.00  0.00     0.119 C 
HETATM    7  H   UNL     1      -3.365   1.883 -32.322  1.00  0.00     0.153 HD
ENDROOT
BRANCH   4   8
HETATM    8  C   UNL     1      -4.648  -0.858 -32.551  1.00  0.00     0.046 A 
HETATM    9  C   UNL     1      -3.482  -0.867 -31.644  1.00  0.00     0.257 A 
HETATM   10  O   UNL     1      -2.947  -0.040 -30.947  1.00  0.00    -0.267 OA
HETATM   11  N   UNL     1      -2.835  -2.237 -31.735  1.00  0.00    -0.322 N 
HETATM   12  C   UNL     1      -3.518  -2.870 -32.607  1.00  0.00     0.046 A 
HETATM   13  H   UNL     1      -2.015  -2.515 -31.209  1.00  0.00     0.169 HD
HETATM   14  C   UNL     1      -4.643  -2.063 -33.151  1.00  0.00     0.008 A 
HETATM   15  C   UNL     1      -3.308  -4.238 -33.101  1.00  0.00     0.032 A 
HETATM   16  C   UNL     1      -5.499  -2.649 -34.149  1.00  0.00     0.038 A 
HETATM   17  C   UNL     1      -5.257  -3.902 -34.570  1.00  0.00     0.035 A 
HETATM   18  C   UNL     1      -4.158  -4.693 -34.038  1.00  0.00     0.026 A 
HETATM   19 CL   UNL     1      -6.256  -4.625 -35.774  1.00  0.00    -0.084 Cl
ENDBRANCH   4   8
BRANCH   5  20
HETATM   20  C   UNL     1      -7.830   2.450 -33.048  1.00  0.00    -0.005 A 
HETATM   21  C   UNL     1      -8.410   3.306 -33.982  1.00  0.00     0.128 A 
HETATM   22  N   UNL     1      -9.713   3.271 -34.345  1.00  0.00    -0.272 NA
HETATM   23  C   UNL     1     -10.472   2.308 -33.779  1.00  0.00     0.116 A 
HETATM   24  C   UNL     1      -9.991   1.394 -32.856  1.00  0.00     0.020 A 
HETATM   25  C   UNL     1      -8.650   1.472 -32.483  1.00  0.00     0.015 A 
ENDBRANCH   5  20
BRANCH   1  26
HETATM   26  C   UNL     1      -3.641   4.527 -31.393  1.00  0.00     0.181 C 
BRANCH  26  27
HETATM   27  C   UNL     1      -2.799   5.281 -32.400  1.00  0.00    -0.039 A 
HETATM   28  C   UNL     1      -2.508   6.642 -32.208  1.00  0.00     0.009 A 
HETATM   29  C   UNL     1      -1.698   7.331 -33.111  1.00  0.00     0.001 A 
HETATM   30  C   UNL     1      -1.164   6.666 -34.213  1.00  0.00     0.000 A 
HETATM   31  C   UNL     1      -1.441   5.315 -34.414  1.00  0.00     0.001 A 
HETATM   32  C   UNL     1      -2.254   4.625 -33.512  1.00  0.00     0.009 A 
ENDBRANCH  26  27
ENDBRANCH   1  26
TORSDOF 4
ENDMDL
MODEL 2
REMARK VINA RESULT:     -10.0      2.825      3.977
REMARK  4 active torsions:
REMARK  status: ('A' for Active; 'I' for Inactive)
REMARK    1  A    between atoms: C_4  and  C_5 
REMARK    2  A    between atoms: C_5  and  N_6 
REMARK    3  A    between atoms: C_9  and  C_10 
REMARK    4  A    between atoms: C_22  and  C_23 
ROOT
HETATM    1  N   UNL     1      -2.081   4.852 -31.925  1.00  0.00    -0.314 N 
HETATM    2  N   UNL     1      -2.434   3.515 -31.947  1.00  0.00    -0.203 NA
HETATM    3  C   UNL     1      -3.762   3.402 -31.531  1.00  0.00     0.041 C 
HETATM    4  C   UNL     1      -4.594   2.350 -31.552  1.00  0.00     0.044 C 
HETATM    5  C   UNL     1      -4.143   4.755 -31.053  1.00  0.00     0.015 C 
HETATM    6  C   UNL     1      -3.093   5.564 -31.313  1.00  0.00     0.119 C 
HETATM    7  H   UNL     1      -2.183   3.003 -32.799  1.00  0.00     0.153 HD
ENDROOT
BRANCH   4   8
HETATM    8  C   UNL     1      -4.303   1.000 -31.963  1.00  0.00     0.046 A 
HETATM    9  C   UNL     1      -3.183   0.157 -31.499  1.00  0.00     0.257 A 
HETATM   10  O   UNL     1      -2.224   0.341 -30.790  1.00  0.00    -0.267 OA
HETATM   11  N   UNL     1      -3.309  -1.196 -32.176  1.00  0.00    -0.322 N 
HETATM   12  C   UNL     1      -4.324  -1.091 -32.942  1.00  0.00     0.046 A 
HETATM   13  H   UNL     1      -2.670  -1.967 -32.030  1.00  0.00     0.169 HD
HETATM   14  C   UNL     1      -4.971   0.246 -32.858  1.00  0.00     0.008 A 
HETATM   15  C   UNL     1      -4.880  -2.103 -33.850  1.00  0.00     0.032 A 
HETATM   16  C   UNL     1      -6.127   0.511 -33.671  1.00  0.00     0.038 A 
HETATM   17  C   UNL     1      -6.589  -0.450 -34.491  1.00  0.00     0.035 A 
HETATM   18  C   UNL     1      -5.959  -1.759 -34.573  1.00  0.00     0.026 A 
HETATM   19 CL   UNL     1      -7.965  -0.157 -35.487  1.00  0.00    -0.084 Cl
ENDBRANCH   4   8
BRANCH   5  20
HETATM   20  C   UNL     1      -5.352   5.204 -30.370  1.00  0.00    -0.005 A 
HETATM   21  C   UNL     1      -6.320   5.948 -31.039  1.00  0.00     0.128 A 
HETATM   22  N   UNL     1      -7.449   6.425 -30.465  1.00  0.00    -0.272 NA
HETATM   23  C   UNL     1      -7.646   6.113 -29.166  1.00  0.00     0.116 A 
HETATM   24  C   UNL     1      -6.757   5.363 -28.414  1.00  0.00     0.020 A 
HETATM   25  C   UNL     1      -5.591   4.907 -29.026  1.00  0.00     0.015 A 
ENDBRANCH   5  20
BRANCH   1  26
HETATM   26  C   UNL     1      -0.691   5.277 -32.065  1.00  0.00     0.181 C 
BRANCH  26  27
HETATM   27  C   UNL     1      -0.159   5.822 -30.757  1.00  0.00    -0.039 A 
HETATM   28  C   UNL     1      -0.211   7.200 -30.487  1.00  0.00     0.009 A 
HETATM   29  C   UNL     1       0.239   7.702 -29.265  1.00  0.00     0.001 A 
HETATM   30  C   UNL     1       0.739   6.833 -28.297  1.00  0.00     0.000 A 
HETATM   31  C   UNL     1       0.793   5.464 -28.551  1.00  0.00     0.001 A 
HETATM   32  C   UNL     1       0.345   4.959 -29.774  1.00  0.00     0.009 A 
ENDBRANCH  26  27
ENDBRANCH   1  26
TORSDOF 4
ENDMDL
MODEL 3
REMARK VINA RESULT:     -10.0      2.666      6.276
REMARK  4 active torsions:
REMARK  status: ('A' for Active; 'I' for Inactive)
REMARK    1  A    between atoms: C_4  and  C_5 
REMARK    2  A    between atoms: C_5  and  N_6 
REMARK    3  A    between atoms: C_9  and  C_10 
REMARK    4  A    between atoms: C_22  and  C_23 
ROOT
HETATM    1  N   UNL     1      -5.397   2.737 -32.060  1.00  0.00    -0.314 N 
HETATM    2  N   UNL     1      -6.596   2.997 -32.697  1.00  0.00    -0.203 NA
HETATM    3  C   UNL     1      -7.060   1.813 -33.270  1.00  0.00     0.041 C 
HETATM    4  C   UNL     1      -8.243   1.521 -33.832  1.00  0.00     0.044 C 
HETATM    5  C   UNL     1      -5.951   0.837 -33.113  1.00  0.00     0.015 C 
HETATM    6  C   UNL     1      -4.993   1.458 -32.391  1.00  0.00     0.119 C 
HETATM    7  H   UNL     1      -7.281   3.532 -32.153  1.00  0.00     0.153 HD
ENDROOT
BRANCH   4   8
HETATM    8  C   UNL     1      -9.357   2.406 -34.057  1.00  0.00     0.046 A 
HETATM    9  C   UNL     1      -9.293   3.855 -34.337  1.00  0.00     0.257 A 
HETATM   10  O   UNL     1      -8.404   4.671 -34.369  1.00  0.00    -0.267 OA
HETATM   11  N   UNL     1     -10.713   4.352 -34.541  1.00  0.00    -0.322 N 
HETATM   12  C   UNL     1     -11.453   3.331 -34.348  1.00  0.00     0.046 A 
HETATM   13  H   UNL     1     -10.955   5.311 -34.753  1.00  0.00     0.169 HD
HETATM   14  C   UNL     1     -10.670   2.104 -34.035  1.00  0.00     0.008 A 
HETATM   15  C   UNL     1     -12.919   3.255 -34.396  1.00  0.00     0.032 A 
HETATM   16  C   UNL     1     -11.374   0.874 -33.790  1.00  0.00     0.038 A 
HETATM   17  C   UNL     1     -12.717   0.864 -33.839  1.00  0.00     0.035 A 
HETATM   18  C   UNL     1     -13.485   2.061 -34.145  1.00  0.00     0.026 A 
HETATM   19 CL   UNL     1     -13.589  -0.592 -33.535  1.00  0.00    -0.084 Cl
ENDBRANCH   4   8
BRANCH   5  20
HETATM   20  C   UNL     1      -5.802  -0.512 -33.651  1.00  0.00    -0.005 A 
HETATM   21  C   UNL     1      -4.560  -1.142 -33.674  1.00  0.00     0.128 A 
HETATM   22  N   UNL     1      -4.340  -2.376 -34.183  1.00  0.00    -0.272 NA
HETATM   23  C   UNL     1      -5.418  -3.036 -34.658  1.00  0.00     0.116 A 
HETATM   24  C   UNL     1      -6.699  -2.510 -34.664  1.00  0.00     0.020 A 
HETATM   25  C   UNL     1      -6.891  -1.226 -34.156  1.00  0.00     0.015 A 
ENDBRANCH   5  20
BRANCH   1  26
HETATM   26  C   UNL     1      -4.537   3.814 -31.579  1.00  0.00     0.181 C 
BRANCH  26  27
HETATM   27  C   UNL     1      -3.700   4.380 -32.706  1.00  0.00    -0.039 A 
HETATM   28  C   UNL     1      -2.298   4.411 -32.606  1.00  0.00     0.009 A 
HETATM   29  C   UNL     1      -1.520   4.893 -33.659  1.00  0.00     0.001 A 
HETATM   30  C   UNL     1      -2.132   5.341 -34.828  1.00  0.00     0.000 A 
HETATM   31  C   UNL     1      -3.521   5.312 -34.942  1.00  0.00     0.001 A 
HETATM   32  C   UNL     1      -4.301   4.833 -33.888  1.00  0.00     0.009 A 
ENDBRANCH  26  27
ENDBRANCH   1  26
TORSDOF 4
ENDMDL
MODEL 4
REMARK VINA RESULT:      -9.7      2.701      7.584
REMARK  4 active torsions:
REMARK  status: ('A' for Active; 'I' for Inactive)
REMARK    1  A    between atoms: C_4  and  C_5 
REMARK    2  A    between atoms: C_5  and  N_6 
REMARK    3  A    between atoms: C_9  and  C_10 
REMARK    4  A    between atoms: C_22  and  C_23 
ROOT
HETATM    1  N   UNL     1      -8.600   1.549 -32.897  1.00  0.00    -0.314 N 
HETATM    2  N   UNL     1      -7.561   2.246 -32.309  1.00  0.00    -0.203 NA
HETATM    3  C   UNL     1      -6.366   1.585 -32.597  1.00  0.00     0.041 C 
HETATM    4  C   UNL     1      -5.094   1.960 -32.399  1.00  0.00     0.044 C 
HETATM    5  C   UNL     1      -6.766   0.308 -33.240  1.00  0.00     0.015 C 
HETATM    6  C   UNL     1      -8.109   0.353 -33.380  1.00  0.00     0.119 C 
HETATM    7  H   UNL     1      -7.563   3.260 -32.461  1.00  0.00     0.153 HD
ENDROOT
BRANCH   4   8
HETATM    8  C   UNL     1      -4.614   3.157 -31.756  1.00  0.00     0.046 A 
HETATM    9  C   UNL     1      -5.055   3.699 -30.455  1.00  0.00     0.257 A 
HETATM   10  O   UNL     1      -5.915   3.400 -29.663  1.00  0.00    -0.267 OA
HETATM   11  N   UNL     1      -4.242   4.950 -30.174  1.00  0.00    -0.322 N 
HETATM   12  C   UNL     1      -3.499   5.101 -31.200  1.00  0.00     0.046 A 
HETATM   13  H   UNL     1      -4.341   5.517 -29.341  1.00  0.00     0.169 HD
HETATM   14  C   UNL     1      -3.694   4.029 -32.213  1.00  0.00     0.008 A 
HETATM   15  C   UNL     1      -2.529   6.173 -31.464  1.00  0.00     0.032 A 
HETATM   16  C   UNL     1      -2.923   4.072 -33.427  1.00  0.00     0.038 A 
HETATM   17  C   UNL     1      -2.055   5.080 -33.620  1.00  0.00     0.035 A 
HETATM   18  C   UNL     1      -1.862   6.129 -32.631  1.00  0.00     0.026 A 
HETATM   19 CL   UNL     1      -1.129   5.166 -35.071  1.00  0.00    -0.084 Cl
ENDBRANCH   4   8
BRANCH   5  20
HETATM   20  C   UNL     1      -5.959  -0.848 -33.618  1.00  0.00    -0.005 A 
HETATM   21  C   UNL     1      -4.826  -1.201 -32.888  1.00  0.00     0.128 A 
HETATM   22  N   UNL     1      -4.013  -2.238 -33.195  1.00  0.00    -0.272 NA
HETATM   23  C   UNL     1      -4.365  -2.989 -34.260  1.00  0.00     0.116 A 
HETATM   24  C   UNL     1      -5.482  -2.738 -35.041  1.00  0.00     0.020 A 
HETATM   25  C   UNL     1      -6.286  -1.647 -34.715  1.00  0.00     0.015 A 
ENDBRANCH   5  20
BRANCH   1  26
HETATM   26  C   UNL     1      -9.994   1.842 -32.576  1.00  0.00     0.181 C 
BRANCH  26  27
HETATM   27  C   UNL     1     -10.749   2.290 -33.808  1.00  0.00    -0.039 A 
HETATM   28  C   UNL     1     -11.789   1.503 -34.333  1.00  0.00     0.009 A 
HETATM   29  C   UNL     1     -12.515   1.932 -35.443  1.00  0.00     0.001 A 
HETATM   30  C   UNL     1     -12.218   3.156 -36.039  1.00  0.00     0.000 A 
HETATM   31  C   UNL     1     -11.192   3.949 -35.527  1.00  0.00     0.001 A 
HETATM   32  C   UNL     1     -10.461   3.519 -34.417  1.00  0.00     0.009 A 
ENDBRANCH  26  27
ENDBRANCH   1  26
TORSDOF 4
ENDMDL
MODEL 5
REMARK VINA RESULT:      -9.5      3.224      7.952
REMARK  4 active torsions:
REMARK  status: ('A' for Active; 'I' for Inactive)
REMARK    1  A    between atoms: C_4  and  C_5 
REMARK    2  A    between atoms: C_5  and  N_6 
REMARK    3  A    between atoms: C_9  and  C_10 
REMARK    4  A    between atoms: C_22  and  C_23 
ROOT
HETATM    1  N   UNL     1      -6.961   3.195 -32.515  1.00  0.00    -0.314 N 
HETATM    2  N   UNL     1      -5.809   3.947 -32.649  1.00  0.00    -0.203 NA
HETATM    3  C   UNL     1      -4.728   3.078 -32.802  1.00  0.00     0.041 C 
HETATM    4  C   UNL     1      -3.452   3.325 -33.134  1.00  0.00     0.044 C 
HETATM    5  C   UNL     1      -5.274   1.721 -32.547  1.00  0.00     0.015 C 
HETATM    6  C   UNL     1      -6.606   1.868 -32.378  1.00  0.00     0.119 C 
HETATM    7  H   UNL     1      -5.861   4.724 -33.316  1.00  0.00     0.153 HD
ENDROOT
BRANCH   4   8
HETATM    8  C   UNL     1      -2.829   4.604 -33.364  1.00  0.00     0.046 A 
HETATM    9  C   UNL     1      -3.103   5.532 -34.480  1.00  0.00     0.257 A 
HETATM   10  O   UNL     1      -3.781   5.478 -35.477  1.00  0.00    -0.267 OA
HETATM   11  N   UNL     1      -2.238   6.764 -34.281  1.00  0.00    -0.322 N 
HETATM   12  C   UNL     1      -1.551   6.521 -33.235  1.00  0.00     0.046 A 
HETATM   13  H   UNL     1      -2.234   7.562 -34.904  1.00  0.00     0.169 HD
HETATM   14  C   UNL     1      -1.867   5.198 -32.633  1.00  0.00     0.008 A 
HETATM   15  C   UNL     1      -0.531   7.372 -32.606  1.00  0.00     0.032 A 
HETATM   16  C   UNL     1      -1.164   4.788 -31.447  1.00  0.00     0.038 A 
HETATM   17  C   UNL     1      -0.234   5.603 -30.918  1.00  0.00     0.035 A 
HETATM   18  C   UNL     1       0.075   6.898 -31.504  1.00  0.00     0.026 A 
HETATM   19 CL   UNL     1       0.634   5.133 -29.506  1.00  0.00    -0.084 Cl
ENDBRANCH   4   8
BRANCH   5  20
HETATM   20  C   UNL     1      -4.586   0.440 -32.419  1.00  0.00    -0.005 A 
HETATM   21  C   UNL     1      -3.563   0.265 -31.489  1.00  0.00     0.128 A 
HETATM   22  N   UNL     1      -2.860  -0.881 -31.334  1.00  0.00    -0.272 NA
HETATM   23  C   UNL     1      -3.219  -1.921 -32.117  1.00  0.00     0.116 A 
HETATM   24  C   UNL     1      -4.233  -1.861 -33.058  1.00  0.00     0.020 A 
HETATM   25  C   UNL     1      -4.922  -0.659 -33.213  1.00  0.00     0.015 A 
ENDBRANCH   5  20
BRANCH   1  26
HETATM   26  C   UNL     1      -8.222   3.797 -32.091  1.00  0.00     0.181 C 
BRANCH  26  27
HETATM   27  C   UNL     1      -9.364   3.330 -32.967  1.00  0.00    -0.039 A 
HETATM   28  C   UNL     1      -9.694   4.029 -34.140  1.00  0.00     0.009 A 
HETATM   29  C   UNL     1     -10.719   3.578 -34.973  1.00  0.00     0.001 A 
HETATM   30  C   UNL     1     -11.422   2.420 -34.647  1.00  0.00     0.000 A 
HETATM   31  C   UNL     1     -11.102   1.715 -33.488  1.00  0.00     0.001 A 
HETATM   32  C   UNL     1     -10.079   2.166 -32.652  1.00  0.00     0.009 A 
ENDBRANCH  26  27
ENDBRANCH   1  26
TORSDOF 4
ENDMDL
MODEL 6
REMARK VINA RESULT:      -9.5      1.833      5.566
REMARK  4 active torsions:
REMARK  status: ('A' for Active; 'I' for Inactive)
REMARK    1  A    between atoms: C_4  and  C_5 
REMARK    2  A    between atoms: C_5  and  N_6 
REMARK    3  A    between atoms: C_9  and  C_10 
REMARK    4  A    between atoms: C_22  and  C_23 
ROOT
HETATM    1  N   UNL     1      -6.310   3.444 -30.951  1.00  0.00    -0.314 N 
HETATM    2  N   UNL     1      -5.820   2.282 -31.519  1.00  0.00    -0.203 NA
HETATM    3  C   UNL     1      -4.498   2.503 -31.907  1.00  0.00     0.041 C 
HETATM    4  C   UNL     1      -3.562   1.644 -32.337  1.00  0.00     0.044 C 
HETATM    5  C   UNL     1      -4.270   3.959 -31.721  1.00  0.00     0.015 C 
HETATM    6  C   UNL     1      -5.391   4.454 -31.155  1.00  0.00     0.119 C 
HETATM    7  H   UNL     1      -5.997   1.421 -30.992  1.00  0.00     0.153 HD
ENDROOT
BRANCH   4   8
HETATM    8  C   UNL     1      -3.702   0.231 -32.580  1.00  0.00     0.046 A 
HETATM    9  C   UNL     1      -2.805  -0.841 -32.102  1.00  0.00     0.257 A 
HETATM   10  O   UNL     1      -1.752  -0.861 -31.512  1.00  0.00    -0.267 OA
HETATM   11  N   UNL     1      -3.376  -2.167 -32.571  1.00  0.00    -0.322 N 
HETATM   12  C   UNL     1      -4.409  -1.861 -33.253  1.00  0.00     0.046 A 
HETATM   13  H   UNL     1      -2.957  -3.067 -32.375  1.00  0.00     0.169 HD
HETATM   14  C   UNL     1      -4.653  -0.394 -33.300  1.00  0.00     0.008 A 
HETATM   15  C   UNL     1      -5.327  -2.765 -33.960  1.00  0.00     0.032 A 
HETATM   16  C   UNL     1      -5.784   0.099 -34.039  1.00  0.00     0.038 A 
HETATM   17  C   UNL     1      -6.587  -0.773 -34.674  1.00  0.00     0.035 A 
HETATM   18  C   UNL     1      -6.352  -2.208 -34.627  1.00  0.00     0.026 A 
HETATM   19 CL   UNL     1      -7.942  -0.212 -35.578  1.00  0.00    -0.084 Cl
ENDBRANCH   4   8
BRANCH   5  20
HETATM   20  C   UNL     1      -3.130   4.788 -32.101  1.00  0.00    -0.005 A 
HETATM   21  C   UNL     1      -3.225   5.701 -33.148  1.00  0.00     0.128 A 
HETATM   22  N   UNL     1      -2.205   6.480 -33.577  1.00  0.00    -0.272 NA
HETATM   23  C   UNL     1      -1.039   6.374 -32.904  1.00  0.00     0.116 A 
HETATM   24  C   UNL     1      -0.843   5.513 -31.838  1.00  0.00     0.020 A 
HETATM   25  C   UNL     1      -1.905   4.705 -31.435  1.00  0.00     0.015 A 
ENDBRANCH   5  20
BRANCH   1  26
HETATM   26  C   UNL     1      -7.733   3.616 -30.671  1.00  0.00     0.181 C 
BRANCH  26  27
HETATM   27  C   UNL     1      -8.576   2.993 -31.763  1.00  0.00    -0.039 A 
HETATM   28  C   UNL     1      -8.846   3.701 -32.946  1.00  0.00     0.009 A 
HETATM   29  C   UNL     1      -9.587   3.114 -33.973  1.00  0.00     0.001 A 
HETATM   30  C   UNL     1     -10.062   1.812 -33.832  1.00  0.00     0.000 A 
HETATM   31  C   UNL     1      -9.798   1.097 -32.665  1.00  0.00     0.001 A 
HETATM   32  C   UNL     1      -9.058   1.683 -31.636  1.00  0.00     0.009 A 
ENDBRANCH  26  27
ENDBRANCH   1  26
TORSDOF 4
ENDMDL
MODEL 7
REMARK VINA RESULT:      -9.4      2.889      3.838
REMARK  4 active torsions:
REMARK  status: ('A' for Active; 'I' for Inactive)
REMARK    1  A    between atoms: C_4  and  C_5 
REMARK    2  A    between atoms: C_5  and  N_6 
REMARK    3  A    between atoms: C_9  and  C_10 
REMARK    4  A    between atoms: C_22  and  C_23 
ROOT
HETATM    1  N   UNL     1      -4.829   4.979 -34.198  1.00  0.00    -0.314 N 
HETATM    2  N   UNL     1      -5.191   3.645 -34.178  1.00  0.00    -0.203 NA
HETATM    3  C   UNL     1      -6.191   3.472 -33.221  1.00  0.00     0.041 C 
HETATM    4  C   UNL     1      -6.972   2.414 -32.958  1.00  0.00     0.044 C 
HETATM    5  C   UNL     1      -6.279   4.769 -32.503  1.00  0.00     0.015 C 
HETATM    6  C   UNL     1      -5.436   5.615 -33.134  1.00  0.00     0.119 C 
HETATM    7  H   UNL     1      -5.365   3.218 -35.094  1.00  0.00     0.153 HD
ENDROOT
BRANCH   4   8
HETATM    8  C   UNL     1      -6.936   1.112 -33.575  1.00  0.00     0.046 A 
HETATM    9  C   UNL     1      -7.959   0.527 -34.464  1.00  0.00     0.257 A 
HETATM   10  O   UNL     1      -9.055   0.871 -34.833  1.00  0.00    -0.267 OA
HETATM   11  N   UNL     1      -7.468  -0.842 -34.898  1.00  0.00    -0.322 N 
HETATM   12  C   UNL     1      -6.358  -1.005 -34.291  1.00  0.00     0.046 A 
HETATM   13  H   UNL     1      -7.978  -1.460 -35.518  1.00  0.00     0.169 HD
HETATM   14  C   UNL     1      -5.985   0.166 -33.453  1.00  0.00     0.008 A 
HETATM   15  C   UNL     1      -5.466  -2.172 -34.334  1.00  0.00     0.032 A 
HETATM   16  C   UNL     1      -4.756   0.122 -32.705  1.00  0.00     0.038 A 
HETATM   17  C   UNL     1      -3.982  -0.975 -32.775  1.00  0.00     0.035 A 
HETATM   18  C   UNL     1      -4.344  -2.120 -33.596  1.00  0.00     0.026 A 
HETATM   19 CL   UNL     1      -2.512  -1.062 -31.880  1.00  0.00    -0.084 Cl
ENDBRANCH   4   8
BRANCH   5  20
HETATM   20  C   UNL     1      -7.037   5.134 -31.310  1.00  0.00    -0.005 A 
HETATM   21  C   UNL     1      -8.326   5.651 -31.410  1.00  0.00     0.128 A 
HETATM   22  N   UNL     1      -9.077   6.040 -30.353  1.00  0.00    -0.272 NA
HETATM   23  C   UNL     1      -8.533   5.869 -29.129  1.00  0.00     0.116 A 
HETATM   24  C   UNL     1      -7.268   5.346 -28.917  1.00  0.00     0.020 A 
HETATM   25  C   UNL     1      -6.509   4.979 -30.026  1.00  0.00     0.015 A 
ENDBRANCH   5  20
BRANCH   1  26
HETATM   26  C   UNL     1      -3.640   5.437 -34.911  1.00  0.00     0.181 C 
BRANCH  26  27
HETATM   27  C   UNL     1      -2.529   5.782 -33.943  1.00  0.00    -0.039 A 
HETATM   28  C   UNL     1      -2.133   7.118 -33.760  1.00  0.00     0.009 A 
HETATM   29  C   UNL     1      -1.139   7.445 -32.837  1.00  0.00     0.001 A 
HETATM   30  C   UNL     1      -0.534   6.443 -32.081  1.00  0.00     0.000 A 
HETATM   31  C   UNL     1      -0.920   5.114 -32.250  1.00  0.00     0.001 A 
HETATM   32  C   UNL     1      -1.913   4.785 -33.175  1.00  0.00     0.009 A 
ENDBRANCH  26  27
ENDBRANCH   1  26
TORSDOF 4
ENDMDL
MODEL 8
REMARK VINA RESULT:      -9.2      2.986      7.729
REMARK  4 active torsions:
REMARK  status: ('A' for Active; 'I' for Inactive)
REMARK    1  A    between atoms: C_4  and  C_5 
REMARK    2  A    between atoms: C_5  and  N_6 
REMARK    3  A    between atoms: C_9  and  C_10 
REMARK    4  A    between atoms: C_22  and  C_23 
ROOT
HETATM    1  N   UNL     1      -4.993   1.179 -32.069  1.00  0.00    -0.314 N 
HETATM    2  N   UNL     1      -5.924   2.044 -31.525  1.00  0.00    -0.203 NA
HETATM    3  C   UNL     1      -5.616   3.341 -31.936  1.00  0.00     0.041 C 
HETATM    4  C   UNL     1      -6.312   4.482 -31.815  1.00  0.00     0.044 C 
HETATM    5  C   UNL     1      -4.299   3.239 -32.614  1.00  0.00     0.015 C 
HETATM    6  C   UNL     1      -3.987   1.925 -32.651  1.00  0.00     0.119 C 
HETATM    7  H   UNL     1      -6.904   1.761 -31.622  1.00  0.00     0.153 HD
ENDROOT
BRANCH   4   8
HETATM    8  C   UNL     1      -7.573   4.682 -31.147  1.00  0.00     0.046 A 
HETATM    9  C   UNL     1      -7.786   5.330 -29.837  1.00  0.00     0.257 A 
HETATM   10  O   UNL     1      -7.056   5.758 -28.977  1.00  0.00    -0.267 OA
HETATM   11  N   UNL     1      -9.280   5.347 -29.566  1.00  0.00    -0.322 N 
HETATM   12  C   UNL     1      -9.805   4.746 -30.561  1.00  0.00     0.046 A 
HETATM   13  H   UNL     1      -9.702   5.740 -28.735  1.00  0.00     0.169 HD
HETATM   14  C   UNL     1      -8.797   4.306 -31.564  1.00  0.00     0.008 A 
HETATM   15  C   UNL     1     -11.227   4.460 -30.797  1.00  0.00     0.032 A 
HETATM   16  C   UNL     1      -9.245   3.610 -32.740  1.00  0.00     0.038 A 
HETATM   17  C   UNL     1     -10.558   3.367 -32.901  1.00  0.00     0.035 A 
HETATM   18  C   UNL     1     -11.545   3.799 -31.923  1.00  0.00     0.026 A 
HETATM   19 CL   UNL     1     -11.124   2.524 -34.293  1.00  0.00    -0.084 Cl
ENDBRANCH   4   8
BRANCH   5  20
HETATM   20  C   UNL     1      -3.413   4.287 -33.112  1.00  0.00    -0.005 A 
HETATM   21  C   UNL     1      -3.823   5.151 -34.125  1.00  0.00     0.128 A 
HETATM   22  N   UNL     1      -3.049   6.124 -34.658  1.00  0.00    -0.272 NA
HETATM   23  C   UNL     1      -1.815   6.273 -34.129  1.00  0.00     0.116 A 
HETATM   24  C   UNL     1      -1.317   5.482 -33.108  1.00  0.00     0.020 A 
HETATM   25  C   UNL     1      -2.128   4.471 -32.596  1.00  0.00     0.015 A 
ENDBRANCH   5  20
BRANCH   1  26
HETATM   26  C   UNL     1      -4.892  -0.210 -31.629  1.00  0.00     0.181 C 
BRANCH  26  27
HETATM   27  C   UNL     1      -5.219  -1.160 -32.761  1.00  0.00    -0.039 A 
HETATM   28  C   UNL     1      -6.494  -1.149 -33.353  1.00  0.00     0.009 A 
HETATM   29  C   UNL     1      -6.787  -1.994 -34.424  1.00  0.00     0.001 A 
HETATM   30  C   UNL     1      -5.809  -2.853 -34.921  1.00  0.00     0.000 A 
HETATM   31  C   UNL     1      -4.540  -2.871 -34.346  1.00  0.00     0.001 A 
HETATM   32  C   UNL     1      -4.245  -2.028 -33.271  1.00  0.00     0.009 A 
ENDBRANCH  26  27
ENDBRANCH   1  26
TORSDOF 4
ENDMDL
MODEL 9
REMARK VINA RESULT:      -9.2     15.370     17.188
REMARK  4 active torsions:
REMARK  status: ('A' for Active; 'I' for Inactive)
REMARK    1  A    between atoms: C_4  and  C_5 
REMARK    2  A    between atoms: C_5  and  N_6 
REMARK    3  A    between atoms: C_9  and  C_10 
REMARK    4  A    between atoms: C_22  and  C_23 
ROOT
HETATM    1  N   UNL     1      -7.133 -13.013 -37.686  1.00  0.00    -0.314 N 
HETATM    2  N   UNL     1      -5.759 -12.919 -37.812  1.00  0.00    -0.203 NA
HETATM    3  C   UNL     1      -5.169 -13.572 -36.729  1.00  0.00     0.041 C 
HETATM    4  C   UNL     1      -3.888 -13.898 -36.500  1.00  0.00     0.044 C 
HETATM    5  C   UNL     1      -6.288 -13.904 -35.811  1.00  0.00     0.015 C 
HETATM    6  C   UNL     1      -7.424 -13.537 -36.442  1.00  0.00     0.119 C 
HETATM    7  H   UNL     1      -5.381 -13.149 -38.737  1.00  0.00     0.153 HD
ENDROOT
BRANCH   4   8
HETATM    8  C   UNL     1      -2.738 -13.589 -37.312  1.00  0.00     0.046 A 
HETATM    9  C   UNL     1      -2.558 -12.403 -38.174  1.00  0.00     0.257 A 
HETATM   10  O   UNL     1      -3.265 -11.481 -38.502  1.00  0.00    -0.267 OA
HETATM   11  N   UNL     1      -1.178 -12.490 -38.800  1.00  0.00    -0.322 N 
HETATM   12  C   UNL     1      -0.693 -13.593 -38.383  1.00  0.00     0.046 A 
HETATM   13  H   UNL     1      -0.796 -11.799 -39.433  1.00  0.00     0.169 HD
HETATM   14  C   UNL     1      -1.617 -14.318 -37.469  1.00  0.00     0.008 A 
HETATM   15  C   UNL     1       0.613 -14.186 -38.703  1.00  0.00     0.032 A 
HETATM   16  C   UNL     1      -1.203 -15.583 -36.922  1.00  0.00     0.038 A 
HETATM   17  C   UNL     1       0.000 -16.082 -37.255  1.00  0.00     0.035 A 
HETATM   18  C   UNL     1       0.906 -15.374 -38.147  1.00  0.00     0.026 A 
HETATM   19 CL   UNL     1       0.517 -17.601 -36.627  1.00  0.00    -0.084 Cl
ENDBRANCH   4   8
BRANCH   5  20
HETATM   20  C   UNL     1      -6.263 -14.452 -34.458  1.00  0.00    -0.005 A 
HETATM   21  C   UNL     1      -6.847 -15.683 -34.172  1.00  0.00     0.128 A 
HETATM   22  N   UNL     1      -6.891 -16.240 -32.939  1.00  0.00    -0.272 NA
HETATM   23  C   UNL     1      -6.287 -15.555 -31.944  1.00  0.00     0.116 A 
HETATM   24  C   UNL     1      -5.659 -14.333 -32.124  1.00  0.00     0.020 A 
HETATM   25  C   UNL     1      -5.653 -13.773 -33.400  1.00  0.00     0.015 A 
ENDBRANCH   5  20
BRANCH   1  26
HETATM   26  C   UNL     1      -8.032 -12.222 -38.520  1.00  0.00     0.181 C 
BRANCH  26  27
HETATM   27  C   UNL     1      -8.957 -13.118 -39.315  1.00  0.00    -0.039 A 
HETATM   28  C   UNL     1     -10.258 -12.693 -39.636  1.00  0.00     0.009 A 
HETATM   29  C   UNL     1     -11.100 -13.498 -40.404  1.00  0.00     0.001 A 
HETATM   30  C   UNL     1     -10.650 -14.733 -40.868  1.00  0.00     0.000 A 
HETATM   31  C   UNL     1      -9.361 -15.165 -40.560  1.00  0.00     0.001 A 
HETATM   32  C   UNL     1      -8.518 -14.362 -39.788  1.00  0.00     0.009 A 
ENDBRANCH  26  27
ENDBRANCH   1  26
TORSDOF 4
ENDMDL
MODEL 10
REMARK VINA RESULT:      -9.0      2.821      7.722
REMARK  4 active torsions:
REMARK  status: ('A' for Active; 'I' for Inactive)
REMARK    1  A    between atoms: C_4  and  C_5 
REMARK    2  A    between atoms: C_5  and  N_6 
REMARK    3  A    between atoms: C_9  and  C_10 
REMARK    4  A    between atoms: C_22  and  C_23 
ROOT
HETATM    1  N   UNL     1      -3.965  -0.187 -32.565  1.00  0.00    -0.314 N 
HETATM    2  N   UNL     1      -5.270   0.202 -32.805  1.00  0.00    -0.203 NA
HETATM    3  C   UNL     1      -5.306   1.593 -32.910  1.00  0.00     0.041 C 
HETATM    4  C   UNL     1      -6.292   2.412 -33.304  1.00  0.00     0.044 C 
HETATM    5  C   UNL     1      -3.951   2.054 -32.512  1.00  0.00     0.015 C 
HETATM    6  C   UNL     1      -3.210   0.942 -32.315  1.00  0.00     0.119 C 
HETATM    7  H   UNL     1      -5.760  -0.318 -33.540  1.00  0.00     0.153 HD
ENDROOT
BRANCH   4   8
HETATM    8  C   UNL     1      -7.640   2.060 -33.672  1.00  0.00     0.046 A 
HETATM    9  C   UNL     1      -8.048   1.040 -34.659  1.00  0.00     0.257 A 
HETATM   10  O   UNL     1      -7.457   0.334 -35.439  1.00  0.00    -0.267 OA
HETATM   11  N   UNL     1      -9.566   0.997 -34.680  1.00  0.00    -0.322 N 
HETATM   12  C   UNL     1      -9.935   1.901 -33.860  1.00  0.00     0.046 A 
HETATM   13  H   UNL     1     -10.109   0.377 -35.268  1.00  0.00     0.169 HD
HETATM   14  C   UNL     1      -8.788   2.596 -33.216  1.00  0.00     0.008 A 
HETATM   15  C   UNL     1     -11.306   2.302 -33.514  1.00  0.00     0.032 A 
HETATM   16  C   UNL     1      -9.055   3.646 -32.269  1.00  0.00     0.038 A 
HETATM   17  C   UNL     1     -10.329   3.977 -31.995  1.00  0.00     0.035 A 
HETATM   18  C   UNL     1     -11.452   3.298 -32.622  1.00  0.00     0.026 A 
HETATM   19 CL   UNL     1     -10.679   5.239 -30.875  1.00  0.00    -0.084 Cl
ENDBRANCH   4   8
BRANCH   5  20
HETATM   20  C   UNL     1      -3.446   3.405 -32.285  1.00  0.00    -0.005 A 
HETATM   21  C   UNL     1      -3.922   4.181 -31.231  1.00  0.00     0.128 A 
HETATM   22  N   UNL     1      -3.525   5.449 -30.977  1.00  0.00    -0.272 NA
HETATM   23  C   UNL     1      -2.577   5.961 -31.791  1.00  0.00     0.116 A 
HETATM   24  C   UNL     1      -2.023   5.268 -32.854  1.00  0.00     0.020 A 
HETATM   25  C   UNL     1      -2.470   3.972 -33.106  1.00  0.00     0.015 A 
ENDBRANCH   5  20
BRANCH   1  26
HETATM   26  C   UNL     1      -3.637  -1.550 -32.160  1.00  0.00     0.181 C 
BRANCH  26  27
HETATM   27  C   UNL     1      -4.187  -2.554 -33.150  1.00  0.00    -0.039 A 
HETATM   28  C   UNL     1      -3.690  -3.868 -33.183  1.00  0.00     0.009 A 
HETATM   29  C   UNL     1      -4.223  -4.808 -34.065  1.00  0.00     0.001 A 
HETATM   30  C   UNL     1      -5.265  -4.450 -34.918  1.00  0.00     0.000 A 
HETATM   31  C   UNL     1      -5.771  -3.151 -34.893  1.00  0.00     0.001 A 
HETATM   32  C   UNL     1      -5.236  -2.208 -34.013  1.00  0.00     0.009 A 
ENDBRANCH  26  27
ENDBRANCH   1  26
TORSDOF 4
ENDMDL
