MODEL 1
REMARK VINA RESULT:      -9.2      0.000      0.000
REMARK  8 active torsions:
REMARK  status: ('A' for Active; 'I' for Inactive)
REMARK    1  A    between atoms: C_4  and  C_5 
REMARK       I    between atoms: C_5  and  N_6 
REMARK    2  A    between atoms: N_6  and  C_7 
REMARK    3  A    between atoms: C_7  and  C_8 
REMARK    4  A    between atoms: C_8  and  C_9 
REMARK       I    between atoms: C_9  and  N_10 
REMARK    5  A    between atoms: N_10  and  N_11 
REMARK       I    between atoms: N_11  and  C_12 
REMARK    6  A    between atoms: C_12  and  C_13 
REMARK    7  A    between atoms: N_15  and  C_16 
REMARK    8  A    between atoms: C_24  and  O_25 
ROOT
HETATM    1  N   UNL     1      -2.902   3.437 -31.196  1.00  0.00    -0.262 N 
HETATM    2  C   UNL     1      -2.349   4.206 -32.206  1.00  0.00     0.293 C 
HETATM    3  O   UNL     1      -2.575   3.977 -33.394  1.00  0.00    -0.264 OA
HETATM    4  H   UNL     1      -2.843   3.761 -30.230  1.00  0.00     0.190 HD
ENDROOT
BRANCH   1   5
HETATM    5  N   UNL     1      -3.884   2.490 -31.525  1.00  0.00    -0.267 N 
HETATM    6  C   UNL     1      -5.094   2.562 -30.861  1.00  0.00     0.237 C 
HETATM    7  O   UNL     1      -5.280   3.283 -29.884  1.00  0.00    -0.272 OA
HETATM    8  H   UNL     1      -3.827   2.115 -32.472  1.00  0.00     0.190 HD
BRANCH   6   9
HETATM    9  C   UNL     1      -6.127   1.607 -31.414  1.00  0.00     0.124 C 
BRANCH   9  10
HETATM   10  C   UNL     1      -5.958   1.430 -32.917  1.00  0.00     0.132 C 
BRANCH  10  11
HETATM   11  N   UNL     1      -6.061   0.041 -33.331  1.00  0.00    -0.356 N 
HETATM   12  C   UNL     1      -4.947  -0.757 -33.486  1.00  0.00     0.251 C 
HETATM   13  O   UNL     1      -3.810  -0.380 -33.225  1.00  0.00    -0.268 OA
HETATM   14  H   UNL     1      -6.984  -0.364 -33.409  1.00  0.00     0.162 HD
BRANCH  12  15
HETATM   15  C   UNL     1      -5.187  -2.149 -33.961  1.00  0.00     0.032 A 
HETATM   16  C   UNL     1      -4.201  -3.141 -33.881  1.00  0.00     0.017 A 
HETATM   17  C   UNL     1      -4.474  -4.437 -34.327  1.00  0.00     0.001 A 
HETATM   18  C   UNL     1      -5.731  -4.747 -34.846  1.00  0.00     0.000 A 
HETATM   19  C   UNL     1      -6.721  -3.768 -34.913  1.00  0.00     0.001 A 
HETATM   20  C   UNL     1      -6.453  -2.472 -34.468  1.00  0.00     0.017 A 
ENDBRANCH  12  15
ENDBRANCH  10  11
ENDBRANCH   9  10
ENDBRANCH   6   9
ENDBRANCH   1   5
BRANCH   2  21
HETATM   21  C   UNL     1      -1.496   5.295 -31.713  1.00  0.00     0.181 A 
HETATM   22  N   UNL     1      -1.192   5.419 -30.403  1.00  0.00    -0.159 NA
HETATM   23  N   UNL     1      -0.375   6.506 -30.324  1.00  0.00    -0.242 N 
HETATM   24  C   UNL     1      -0.184   7.089 -31.558  1.00  0.00     0.158 A 
HETATM   25  C   UNL     1      -0.884   6.329 -32.452  1.00  0.00     0.119 A 
BRANCH  23  26
HETATM   26  C   UNL     1       0.176   6.911 -29.073  1.00  0.00     0.058 A 
HETATM   27  C   UNL     1       0.983   8.059 -29.011  1.00  0.00     0.033 A 
HETATM   28  C   UNL     1       1.524   8.480 -27.792  1.00  0.00     0.026 A 
HETATM   29  C   UNL     1       1.263   7.756 -26.632  1.00  0.00     0.034 A 
HETATM   30 CL   UNL     1       1.925   8.274 -25.131  1.00  0.00    -0.084 Cl
HETATM   31  C   UNL     1       0.467   6.614 -26.680  1.00  0.00     0.026 A 
HETATM   32  C   UNL     1      -0.078   6.188 -27.897  1.00  0.00     0.033 A 
ENDBRANCH  23  26
BRANCH  25  33
HETATM   33  O   UNL     1      -0.941   6.568 -33.770  1.00  0.00    -0.357 OA
HETATM   34  H   UNL     1      -1.488   7.349 -33.964  1.00  0.00     0.218 HD
ENDBRANCH  25  33
ENDBRANCH   2  21
TORSDOF 8
ENDMDL
MODEL 2
REMARK VINA RESULT:      -9.1      3.696     11.000
REMARK  8 active torsions:
REMARK  status: ('A' for Active; 'I' for Inactive)
REMARK    1  A    between atoms: C_4  and  C_5 
REMARK       I    between atoms: C_5  and  N_6 
REMARK    2  A    between atoms: N_6  and  C_7 
REMARK    3  A    between atoms: C_7  and  C_8 
REMARK    4  A    between atoms: C_8  and  C_9 
REMARK       I    between atoms: C_9  and  N_10 
REMARK    5  A    between atoms: N_10  and  N_11 
REMARK       I    between atoms: N_11  and  C_12 
REMARK    6  A    between atoms: C_12  and  C_13 
REMARK    7  A    between atoms: N_15  and  C_16 
REMARK    8  A    between atoms: C_24  and  O_25 
ROOT
HETATM    1  N   UNL     1      -3.075   3.158 -31.169  1.00  0.00    -0.262 N 
HETATM    2  C   UNL     1      -4.431   3.355 -30.963  1.00  0.00     0.293 C 
HETATM    3  O   UNL     1      -4.887   4.454 -30.653  1.00  0.00    -0.264 OA
HETATM    4  H   UNL     1      -2.754   2.290 -31.598  1.00  0.00     0.190 HD
ENDROOT
BRANCH   1   5
HETATM    5  N   UNL     1      -2.226   4.275 -31.203  1.00  0.00    -0.267 N 
HETATM    6  C   UNL     1      -1.856   4.763 -32.442  1.00  0.00     0.237 C 
HETATM    7  O   UNL     1      -2.079   4.166 -33.491  1.00  0.00    -0.272 OA
HETATM    8  H   UNL     1      -2.284   4.891 -30.392  1.00  0.00     0.190 HD
BRANCH   6   9
HETATM    9  C   UNL     1      -1.084   6.060 -32.356  1.00  0.00     0.124 C 
BRANCH   9  10
HETATM   10  C   UNL     1       0.114   5.924 -31.426  1.00  0.00     0.132 C 
BRANCH  10  11
HETATM   11  N   UNL     1       0.207   7.014 -30.472  1.00  0.00    -0.356 N 
HETATM   12  C   UNL     1       0.378   6.789 -29.122  1.00  0.00     0.251 C 
HETATM   13  O   UNL     1       0.529   5.670 -28.642  1.00  0.00    -0.268 OA
HETATM   14  H   UNL     1       0.245   7.958 -30.831  1.00  0.00     0.162 HD
BRANCH  12  15
HETATM   15  C   UNL     1       0.411   7.993 -28.244  1.00  0.00     0.032 A 
HETATM   16  C   UNL     1       1.530   8.313 -27.465  1.00  0.00     0.017 A 
HETATM   17  C   UNL     1       1.521   9.460 -26.666  1.00  0.00     0.001 A 
HETATM   18  C   UNL     1       0.402  10.292 -26.650  1.00  0.00     0.000 A 
HETATM   19  C   UNL     1      -0.707   9.987 -27.437  1.00  0.00     0.001 A 
HETATM   20  C   UNL     1      -0.703   8.843 -28.236  1.00  0.00     0.017 A 
ENDBRANCH  12  15
ENDBRANCH  10  11
ENDBRANCH   9  10
ENDBRANCH   6   9
ENDBRANCH   1   5
BRANCH   2  21
HETATM   21  C   UNL     1      -5.234   2.141 -31.158  1.00  0.00     0.181 A 
HETATM   22  N   UNL     1      -4.979   1.274 -32.161  1.00  0.00    -0.159 NA
HETATM   23  N   UNL     1      -5.892   0.274 -32.016  1.00  0.00    -0.242 N 
HETATM   24  C   UNL     1      -6.740   0.511 -30.956  1.00  0.00     0.158 A 
HETATM   25  C   UNL     1      -6.333   1.690 -30.396  1.00  0.00     0.119 A 
BRANCH  23  26
HETATM   26  C   UNL     1      -5.887  -0.847 -32.896  1.00  0.00     0.058 A 
HETATM   27  C   UNL     1      -7.082  -1.242 -33.520  1.00  0.00     0.033 A 
HETATM   28  C   UNL     1      -7.096  -2.332 -34.396  1.00  0.00     0.026 A 
HETATM   29  C   UNL     1      -5.920  -3.032 -34.652  1.00  0.00     0.034 A 
HETATM   30 CL   UNL     1      -5.936  -4.370 -35.731  1.00  0.00    -0.084 Cl
HETATM   31  C   UNL     1      -4.728  -2.652 -34.037  1.00  0.00     0.026 A 
HETATM   32  C   UNL     1      -4.707  -1.561 -33.160  1.00  0.00     0.033 A 
ENDBRANCH  23  26
BRANCH  25  33
HETATM   33  O   UNL     1      -6.906   2.259 -29.326  1.00  0.00    -0.357 OA
HETATM   34  H   UNL     1      -6.239   2.642 -28.731  1.00  0.00     0.218 HD
ENDBRANCH  25  33
ENDBRANCH   2  21
TORSDOF 8
ENDMDL
MODEL 3
REMARK VINA RESULT:      -9.0      2.051      2.573
REMARK  8 active torsions:
REMARK  status: ('A' for Active; 'I' for Inactive)
REMARK    1  A    between atoms: C_4  and  C_5 
REMARK       I    between atoms: C_5  and  N_6 
REMARK    2  A    between atoms: N_6  and  C_7 
REMARK    3  A    between atoms: C_7  and  C_8 
REMARK    4  A    between atoms: C_8  and  C_9 
REMARK       I    between atoms: C_9  and  N_10 
REMARK    5  A    between atoms: N_10  and  N_11 
REMARK       I    between atoms: N_11  and  C_12 
REMARK    6  A    between atoms: C_12  and  C_13 
REMARK    7  A    between atoms: N_15  and  C_16 
REMARK    8  A    between atoms: C_24  and  O_25 
ROOT
HETATM    1  N   UNL     1      -5.548   3.664 -32.364  1.00  0.00    -0.262 N 
HETATM    2  C   UNL     1      -5.080   4.384 -33.450  1.00  0.00     0.293 C 
HETATM    3  O   UNL     1      -5.664   4.378 -34.533  1.00  0.00    -0.264 OA
HETATM    4  H   UNL     1      -5.148   3.834 -31.440  1.00  0.00     0.190 HD
ENDROOT
BRANCH   1   5
HETATM    5  N   UNL     1      -6.812   3.060 -32.444  1.00  0.00    -0.267 N 
HETATM    6  C   UNL     1      -6.917   1.737 -32.060  1.00  0.00     0.237 C 
HETATM    7  O   UNL     1      -5.941   1.025 -31.833  1.00  0.00    -0.272 OA
HETATM    8  H   UNL     1      -7.605   3.696 -32.358  1.00  0.00     0.190 HD
BRANCH   6   9
HETATM    9  C   UNL     1      -8.346   1.245 -32.027  1.00  0.00     0.124 C 
BRANCH   9  10
HETATM   10  C   UNL     1      -8.671   0.425 -33.268  1.00  0.00     0.132 C 
BRANCH  10  11
HETATM   11  N   UNL     1      -7.844  -0.763 -33.385  1.00  0.00    -0.356 N 
HETATM   12  C   UNL     1      -6.968  -0.942 -34.435  1.00  0.00     0.251 C 
HETATM   13  O   UNL     1      -6.776  -0.094 -35.300  1.00  0.00    -0.268 OA
HETATM   14  H   UNL     1      -7.849  -1.423 -32.619  1.00  0.00     0.162 HD
BRANCH  12  15
HETATM   15  C   UNL     1      -6.214  -2.227 -34.462  1.00  0.00     0.032 A 
HETATM   16  C   UNL     1      -4.858  -2.298 -34.117  1.00  0.00     0.017 A 
HETATM   17  C   UNL     1      -4.193  -3.527 -34.144  1.00  0.00     0.001 A 
HETATM   18  C   UNL     1      -4.880  -4.686 -34.507  1.00  0.00     0.000 A 
HETATM   19  C   UNL     1      -6.233  -4.623 -34.835  1.00  0.00     0.001 A 
HETATM   20  C   UNL     1      -6.901  -3.397 -34.809  1.00  0.00     0.017 A 
ENDBRANCH  12  15
ENDBRANCH  10  11
ENDBRANCH   9  10
ENDBRANCH   6   9
ENDBRANCH   1   5
BRANCH   2  21
HETATM   21  C   UNL     1      -3.851   5.137 -33.169  1.00  0.00     0.181 A 
HETATM   22  N   UNL     1      -3.359   5.248 -31.917  1.00  0.00    -0.159 NA
HETATM   23  N   UNL     1      -2.217   5.980 -32.041  1.00  0.00    -0.242 N 
HETATM   24  C   UNL     1      -1.997   6.360 -33.348  1.00  0.00     0.158 A 
HETATM   25  C   UNL     1      -3.023   5.828 -34.078  1.00  0.00     0.119 A 
BRANCH  23  26
HETATM   26  C   UNL     1      -1.406   6.261 -30.903  1.00  0.00     0.058 A 
HETATM   27  C   UNL     1      -0.360   5.386 -30.566  1.00  0.00     0.033 A 
HETATM   28  C   UNL     1       0.455   5.649 -29.460  1.00  0.00     0.026 A 
HETATM   29  C   UNL     1       0.227   6.785 -28.686  1.00  0.00     0.034 A 
HETATM   30 CL   UNL     1       1.230   7.111 -27.328  1.00  0.00    -0.084 Cl
HETATM   31  C   UNL     1      -0.809   7.659 -29.008  1.00  0.00     0.026 A 
HETATM   32  C   UNL     1      -1.627   7.401 -30.114  1.00  0.00     0.033 A 
ENDBRANCH  23  26
BRANCH  25  33
HETATM   33  O   UNL     1      -3.162   5.968 -35.404  1.00  0.00    -0.357 OA
HETATM   34  H   UNL     1      -3.932   6.519 -35.622  1.00  0.00     0.218 HD
ENDBRANCH  25  33
ENDBRANCH   2  21
TORSDOF 8
ENDMDL
MODEL 4
REMARK VINA RESULT:      -8.8      3.824     10.512
REMARK  8 active torsions:
REMARK  status: ('A' for Active; 'I' for Inactive)
REMARK    1  A    between atoms: C_4  and  C_5 
REMARK       I    between atoms: C_5  and  N_6 
REMARK    2  A    between atoms: N_6  and  C_7 
REMARK    3  A    between atoms: C_7  and  C_8 
REMARK    4  A    between atoms: C_8  and  C_9 
REMARK       I    between atoms: C_9  and  N_10 
REMARK    5  A    between atoms: N_10  and  N_11 
REMARK       I    between atoms: N_11  and  C_12 
REMARK    6  A    between atoms: C_12  and  C_13 
REMARK    7  A    between atoms: N_15  and  C_16 
REMARK    8  A    between atoms: C_24  and  O_25 
ROOT
HETATM    1  N   UNL     1      -3.157   3.516 -32.842  1.00  0.00    -0.262 N 
HETATM    2  C   UNL     1      -3.965   3.420 -31.721  1.00  0.00     0.293 C 
HETATM    3  O   UNL     1      -3.977   4.291 -30.852  1.00  0.00    -0.264 OA
HETATM    4  H   UNL     1      -3.304   2.875 -33.622  1.00  0.00     0.190 HD
ENDROOT
BRANCH   1   5
HETATM    5  N   UNL     1      -2.473   4.717 -33.082  1.00  0.00    -0.267 N 
HETATM    6  C   UNL     1      -3.092   5.660 -33.881  1.00  0.00     0.237 C 
HETATM    7  O   UNL     1      -4.109   5.427 -34.528  1.00  0.00    -0.272 OA
HETATM    8  H   UNL     1      -1.814   4.996 -32.355  1.00  0.00     0.190 HD
BRANCH   6   9
HETATM    9  C   UNL     1      -2.341   6.972 -33.931  1.00  0.00     0.124 C 
BRANCH   9  10
HETATM   10  C   UNL     1      -0.914   6.805 -33.428  1.00  0.00     0.132 C 
BRANCH  10  11
HETATM   11  N   UNL     1      -0.686   7.475 -32.160  1.00  0.00    -0.356 N 
HETATM   12  C   UNL     1      -0.581   6.776 -30.975  1.00  0.00     0.251 C 
HETATM   13  O   UNL     1      -0.604   5.552 -30.914  1.00  0.00    -0.268 OA
HETATM   14  H   UNL     1      -0.505   8.469 -32.174  1.00  0.00     0.162 HD
BRANCH  12  15
HETATM   15  C   UNL     1      -0.395   7.587 -29.738  1.00  0.00     0.032 A 
HETATM   16  C   UNL     1       0.788   7.538 -28.990  1.00  0.00     0.017 A 
HETATM   17  C   UNL     1       0.924   8.325 -27.843  1.00  0.00     0.001 A 
HETATM   18  C   UNL     1      -0.115   9.168 -27.447  1.00  0.00     0.000 A 
HETATM   19  C   UNL     1      -1.288   9.233 -28.198  1.00  0.00     0.001 A 
HETATM   20  C   UNL     1      -1.427   8.448 -29.344  1.00  0.00     0.017 A 
ENDBRANCH  12  15
ENDBRANCH  10  11
ENDBRANCH   9  10
ENDBRANCH   6   9
ENDBRANCH   1   5
BRANCH   2  21
HETATM   21  C   UNL     1      -4.785   2.202 -31.693  1.00  0.00     0.181 A 
HETATM   22  N   UNL     1      -4.730   1.287 -32.685  1.00  0.00    -0.159 NA
HETATM   23  N   UNL     1      -5.589   0.299 -32.312  1.00  0.00    -0.242 N 
HETATM   24  C   UNL     1      -6.210   0.589 -31.116  1.00  0.00     0.158 A 
HETATM   25  C   UNL     1      -5.706   1.791 -30.706  1.00  0.00     0.119 A 
BRANCH  23  26
HETATM   26  C   UNL     1      -5.754  -0.864 -33.121  1.00  0.00     0.058 A 
HETATM   27  C   UNL     1      -4.632  -1.644 -33.448  1.00  0.00     0.033 A 
HETATM   28  C   UNL     1      -4.774  -2.794 -34.231  1.00  0.00     0.026 A 
HETATM   29  C   UNL     1      -6.034  -3.169 -34.690  1.00  0.00     0.034 A 
HETATM   30 CL   UNL     1      -6.209  -4.585 -35.650  1.00  0.00    -0.084 Cl
HETATM   31  C   UNL     1      -7.154  -2.403 -34.375  1.00  0.00     0.026 A 
HETATM   32  C   UNL     1      -7.019  -1.251 -33.592  1.00  0.00     0.033 A 
ENDBRANCH  23  26
BRANCH  25  33
HETATM   33  O   UNL     1      -6.058   2.414 -29.572  1.00  0.00    -0.357 OA
HETATM   34  H   UNL     1      -6.681   1.877 -29.054  1.00  0.00     0.218 HD
ENDBRANCH  25  33
ENDBRANCH   2  21
TORSDOF 8
ENDMDL
MODEL 5
REMARK VINA RESULT:      -8.8      1.629      1.833
REMARK  8 active torsions:
REMARK  status: ('A' for Active; 'I' for Inactive)
REMARK    1  A    between atoms: C_4  and  C_5 
REMARK       I    between atoms: C_5  and  N_6 
REMARK    2  A    between atoms: N_6  and  C_7 
REMARK    3  A    between atoms: C_7  and  C_8 
REMARK    4  A    between atoms: C_8  and  C_9 
REMARK       I    between atoms: C_9  and  N_10 
REMARK    5  A    between atoms: N_10  and  N_11 
REMARK       I    between atoms: N_11  and  C_12 
REMARK    6  A    between atoms: C_12  and  C_13 
REMARK    7  A    between atoms: N_15  and  C_16 
REMARK    8  A    between atoms: C_24  and  O_25 
ROOT
HETATM    1  N   UNL     1      -4.319   4.421 -32.321  1.00  0.00    -0.262 N 
HETATM    2  C   UNL     1      -3.033   4.566 -32.812  1.00  0.00     0.293 C 
HETATM    3  O   UNL     1      -2.513   3.713 -33.532  1.00  0.00    -0.264 OA
HETATM    4  H   UNL     1      -4.782   5.219 -31.884  1.00  0.00     0.190 HD
ENDROOT
BRANCH   1   5
HETATM    5  N   UNL     1      -5.113   3.369 -32.801  1.00  0.00    -0.267 N 
HETATM    6  C   UNL     1      -5.991   3.645 -33.832  1.00  0.00     0.237 C 
HETATM    7  O   UNL     1      -6.238   4.786 -34.215  1.00  0.00    -0.272 OA
HETATM    8  H   UNL     1      -4.717   2.436 -32.685  1.00  0.00     0.190 HD
BRANCH   6   9
HETATM    9  C   UNL     1      -6.667   2.407 -34.378  1.00  0.00     0.124 C 
BRANCH   9  10
HETATM   10  C   UNL     1      -7.077   1.467 -33.252  1.00  0.00     0.132 C 
BRANCH  10  11
HETATM   11  N   UNL     1      -6.871   0.069 -33.588  1.00  0.00    -0.356 N 
HETATM   12  C   UNL     1      -5.613  -0.495 -33.619  1.00  0.00     0.251 C 
HETATM   13  O   UNL     1      -4.596   0.114 -33.305  1.00  0.00    -0.268 OA
HETATM   14  H   UNL     1      -7.687  -0.517 -33.704  1.00  0.00     0.162 HD
BRANCH  12  15
HETATM   15  C   UNL     1      -5.536  -1.927 -34.026  1.00  0.00     0.032 A 
HETATM   16  C   UNL     1      -4.366  -2.681 -33.866  1.00  0.00     0.017 A 
HETATM   17  C   UNL     1      -4.342  -4.025 -34.250  1.00  0.00     0.001 A 
HETATM   18  C   UNL     1      -5.485  -4.620 -34.784  1.00  0.00     0.000 A 
HETATM   19  C   UNL     1      -6.657  -3.878 -34.930  1.00  0.00     0.001 A 
HETATM   20  C   UNL     1      -6.685  -2.535 -34.547  1.00  0.00     0.017 A 
ENDBRANCH  12  15
ENDBRANCH  10  11
ENDBRANCH   9  10
ENDBRANCH   6   9
ENDBRANCH   1   5
BRANCH   2  21
HETATM   21  C   UNL     1      -2.383   5.815 -32.395  1.00  0.00     0.181 A 
HETATM   22  N   UNL     1      -2.001   6.022 -31.116  1.00  0.00    -0.159 NA
HETATM   23  N   UNL     1      -1.423   7.255 -31.108  1.00  0.00    -0.242 N 
HETATM   24  C   UNL     1      -1.461   7.843 -32.354  1.00  0.00     0.158 A 
HETATM   25  C   UNL     1      -2.063   6.940 -33.184  1.00  0.00     0.119 A 
BRANCH  23  26
HETATM   26  C   UNL     1      -0.862   7.786 -29.909  1.00  0.00     0.058 A 
HETATM   27  C   UNL     1       0.404   7.351 -29.485  1.00  0.00     0.033 A 
HETATM   28  C   UNL     1       0.977   7.868 -28.319  1.00  0.00     0.026 A 
HETATM   29  C   UNL     1       0.288   8.820 -27.572  1.00  0.00     0.034 A 
HETATM   30 CL   UNL     1       0.992   9.459 -26.139  1.00  0.00    -0.084 Cl
HETATM   31  C   UNL     1      -0.970   9.258 -27.980  1.00  0.00     0.026 A 
HETATM   32  C   UNL     1      -1.548   8.745 -29.147  1.00  0.00     0.033 A 
ENDBRANCH  23  26
BRANCH  25  33
HETATM   33  O   UNL     1      -2.280   7.139 -34.492  1.00  0.00    -0.357 OA
HETATM   34  H   UNL     1      -3.178   6.866 -34.746  1.00  0.00     0.218 HD
ENDBRANCH  25  33
ENDBRANCH   2  21
TORSDOF 8
ENDMDL
MODEL 6
REMARK VINA RESULT:      -8.7      4.251     10.629
REMARK  8 active torsions:
REMARK  status: ('A' for Active; 'I' for Inactive)
REMARK    1  A    between atoms: C_4  and  C_5 
REMARK       I    between atoms: C_5  and  N_6 
REMARK    2  A    between atoms: N_6  and  C_7 
REMARK    3  A    between atoms: C_7  and  C_8 
REMARK    4  A    between atoms: C_8  and  C_9 
REMARK       I    between atoms: C_9  and  N_10 
REMARK    5  A    between atoms: N_10  and  N_11 
REMARK       I    between atoms: N_11  and  C_12 
REMARK    6  A    between atoms: C_12  and  C_13 
REMARK    7  A    between atoms: N_15  and  C_16 
REMARK    8  A    between atoms: C_24  and  O_25 
ROOT
HETATM    1  N   UNL     1      -5.103   3.500 -29.358  1.00  0.00    -0.262 N 
HETATM    2  C   UNL     1      -5.889   2.969 -30.367  1.00  0.00     0.293 C 
HETATM    3  O   UNL     1      -7.053   3.328 -30.539  1.00  0.00    -0.264 OA
HETATM    4  H   UNL     1      -4.098   3.317 -29.356  1.00  0.00     0.190 HD
ENDROOT
BRANCH   1   5
HETATM    5  N   UNL     1      -5.583   4.600 -28.632  1.00  0.00    -0.267 N 
HETATM    6  C   UNL     1      -5.138   5.856 -29.000  1.00  0.00     0.237 C 
HETATM    7  O   UNL     1      -4.218   6.035 -29.793  1.00  0.00    -0.272 OA
HETATM    8  H   UNL     1      -6.501   4.473 -28.205  1.00  0.00     0.190 HD
BRANCH   6   9
HETATM    9  C   UNL     1      -5.848   6.970 -28.265  1.00  0.00     0.124 C 
BRANCH   9  10
HETATM   10  C   UNL     1      -5.007   7.482 -27.103  1.00  0.00     0.132 C 
BRANCH  10  11
HETATM   11  N   UNL     1      -3.624   7.719 -27.477  1.00  0.00    -0.356 N 
HETATM   12  C   UNL     1      -2.574   7.162 -26.777  1.00  0.00     0.251 C 
HETATM   13  O   UNL     1      -2.729   6.383 -25.843  1.00  0.00    -0.268 OA
HETATM   14  H   UNL     1      -3.443   8.227 -28.332  1.00  0.00     0.162 HD
BRANCH  12  15
HETATM   15  C   UNL     1      -1.202   7.523 -27.235  1.00  0.00     0.032 A 
HETATM   16  C   UNL     1      -0.830   7.459 -28.584  1.00  0.00     0.017 A 
HETATM   17  C   UNL     1       0.464   7.819 -28.971  1.00  0.00     0.001 A 
HETATM   18  C   UNL     1       1.384   8.250 -28.015  1.00  0.00     0.000 A 
HETATM   19  C   UNL     1       1.014   8.331 -26.674  1.00  0.00     0.001 A 
HETATM   20  C   UNL     1      -0.278   7.973 -26.284  1.00  0.00     0.017 A 
ENDBRANCH  12  15
ENDBRANCH  10  11
ENDBRANCH   9  10
ENDBRANCH   6   9
ENDBRANCH   1   5
BRANCH   2  21
HETATM   21  C   UNL     1      -5.194   1.966 -31.184  1.00  0.00     0.181 A 
HETATM   22  N   UNL     1      -5.856   0.940 -31.761  1.00  0.00    -0.159 NA
HETATM   23  N   UNL     1      -4.911   0.242 -32.449  1.00  0.00    -0.242 N 
HETATM   24  C   UNL     1      -3.657   0.791 -32.289  1.00  0.00     0.158 A 
HETATM   25  C   UNL     1      -3.820   1.890 -31.493  1.00  0.00     0.119 A 
BRANCH  23  26
HETATM   26  C   UNL     1      -5.270  -0.902 -33.221  1.00  0.00     0.058 A 
HETATM   27  C   UNL     1      -4.285  -1.840 -33.569  1.00  0.00     0.033 A 
HETATM   28  C   UNL     1      -4.619  -2.974 -34.316  1.00  0.00     0.026 A 
HETATM   29  C   UNL     1      -5.936  -3.175 -34.719  1.00  0.00     0.034 A 
HETATM   30 CL   UNL     1      -6.349  -4.571 -35.634  1.00  0.00    -0.084 Cl
HETATM   31  C   UNL     1      -6.923  -2.251 -34.382  1.00  0.00     0.026 A 
HETATM   32  C   UNL     1      -6.595  -1.114 -33.634  1.00  0.00     0.033 A 
ENDBRANCH  23  26
BRANCH  25  33
HETATM   33  O   UNL     1      -2.826   2.705 -31.113  1.00  0.00    -0.357 OA
HETATM   34  H   UNL     1      -2.734   3.458 -31.721  1.00  0.00     0.218 HD
ENDBRANCH  25  33
ENDBRANCH   2  21
TORSDOF 8
ENDMDL
MODEL 7
REMARK VINA RESULT:      -8.6      1.799      2.150
REMARK  8 active torsions:
REMARK  status: ('A' for Active; 'I' for Inactive)
REMARK    1  A    between atoms: C_4  and  C_5 
REMARK       I    between atoms: C_5  and  N_6 
REMARK    2  A    between atoms: N_6  and  C_7 
REMARK    3  A    between atoms: C_7  and  C_8 
REMARK    4  A    between atoms: C_8  and  C_9 
REMARK       I    between atoms: C_9  and  N_10 
REMARK    5  A    between atoms: N_10  and  N_11 
REMARK       I    between atoms: N_11  and  C_12 
REMARK    6  A    between atoms: C_12  and  C_13 
REMARK    7  A    between atoms: N_15  and  C_16 
REMARK    8  A    between atoms: C_24  and  O_25 
ROOT
HETATM    1  N   UNL     1      -3.927   4.181 -30.828  1.00  0.00    -0.262 N 
HETATM    2  C   UNL     1      -3.784   5.556 -30.909  1.00  0.00     0.293 C 
HETATM    3  O   UNL     1      -4.711   6.286 -31.257  1.00  0.00    -0.264 OA
HETATM    4  H   UNL     1      -3.204   3.627 -30.367  1.00  0.00     0.190 HD
ENDROOT
BRANCH   1   5
HETATM    5  N   UNL     1      -5.207   3.624 -30.969  1.00  0.00    -0.267 N 
HETATM    6  C   UNL     1      -5.338   2.509 -31.777  1.00  0.00     0.237 C 
HETATM    7  O   UNL     1      -4.439   2.103 -32.509  1.00  0.00    -0.272 OA
HETATM    8  H   UNL     1      -5.839   3.779 -30.184  1.00  0.00     0.190 HD
BRANCH   6   9
HETATM    9  C   UNL     1      -6.720   1.899 -31.719  1.00  0.00     0.124 C 
BRANCH   9  10
HETATM   10  C   UNL     1      -7.096   1.271 -33.054  1.00  0.00     0.132 C 
BRANCH  10  11
HETATM   11  N   UNL     1      -6.567  -0.073 -33.208  1.00  0.00    -0.356 N 
HETATM   12  C   UNL     1      -6.586  -0.730 -34.421  1.00  0.00     0.251 C 
HETATM   13  O   UNL     1      -6.985  -0.211 -35.458  1.00  0.00    -0.268 OA
HETATM   14  H   UNL     1      -6.086  -0.487 -32.421  1.00  0.00     0.162 HD
BRANCH  12  15
HETATM   15  C   UNL     1      -6.055  -2.122 -34.432  1.00  0.00     0.032 A 
HETATM   16  C   UNL     1      -6.841  -3.212 -34.826  1.00  0.00     0.017 A 
HETATM   17  C   UNL     1      -6.298  -4.500 -34.834  1.00  0.00     0.001 A 
HETATM   18  C   UNL     1      -4.970  -4.701 -34.457  1.00  0.00     0.000 A 
HETATM   19  C   UNL     1      -4.179  -3.617 -34.080  1.00  0.00     0.001 A 
HETATM   20  C   UNL     1      -4.717  -2.329 -34.071  1.00  0.00     0.017 A 
ENDBRANCH  12  15
ENDBRANCH  10  11
ENDBRANCH   9  10
ENDBRANCH   6   9
ENDBRANCH   1   5
BRANCH   2  21
HETATM   21  C   UNL     1      -2.443   6.027 -30.539  1.00  0.00     0.181 A 
HETATM   22  N   UNL     1      -2.263   7.010 -29.631  1.00  0.00    -0.159 NA
HETATM   23  N   UNL     1      -0.913   7.161 -29.525  1.00  0.00    -0.242 N 
HETATM   24  C   UNL     1      -0.239   6.310 -30.374  1.00  0.00     0.158 A 
HETATM   25  C   UNL     1      -1.195   5.579 -31.021  1.00  0.00     0.119 A 
BRANCH  23  26
HETATM   26  C   UNL     1      -0.357   8.103 -28.611  1.00  0.00     0.058 A 
HETATM   27  C   UNL     1       1.008   8.029 -28.286  1.00  0.00     0.033 A 
HETATM   28  C   UNL     1       1.576   8.951 -27.401  1.00  0.00     0.026 A 
HETATM   29  C   UNL     1       0.784   9.948 -26.836  1.00  0.00     0.034 A 
HETATM   30 CL   UNL     1       1.481  11.083 -25.749  1.00  0.00    -0.084 Cl
HETATM   31  C   UNL     1      -0.572  10.029 -27.147  1.00  0.00     0.026 A 
HETATM   32  C   UNL     1      -1.146   9.110 -28.033  1.00  0.00     0.033 A 
ENDBRANCH  23  26
BRANCH  25  33
HETATM   33  O   UNL     1      -0.937   4.629 -31.931  1.00  0.00    -0.357 OA
HETATM   34  H   UNL     1      -0.528   5.006 -32.729  1.00  0.00     0.218 HD
ENDBRANCH  25  33
ENDBRANCH   2  21
TORSDOF 8
ENDMDL
MODEL 8
REMARK VINA RESULT:      -8.5      4.208      9.845
REMARK  8 active torsions:
REMARK  status: ('A' for Active; 'I' for Inactive)
REMARK    1  A    between atoms: C_4  and  C_5 
REMARK       I    between atoms: C_5  and  N_6 
REMARK    2  A    between atoms: N_6  and  C_7 
REMARK    3  A    between atoms: C_7  and  C_8 
REMARK    4  A    between atoms: C_8  and  C_9 
REMARK       I    between atoms: C_9  and  N_10 
REMARK    5  A    between atoms: N_10  and  N_11 
REMARK       I    between atoms: N_11  and  C_12 
REMARK    6  A    between atoms: C_12  and  C_13 
REMARK    7  A    between atoms: N_15  and  C_16 
REMARK    8  A    between atoms: C_24  and  O_25 
ROOT
HETATM    1  N   UNL     1      -5.596   5.100 -31.878  1.00  0.00    -0.262 N 
HETATM    2  C   UNL     1      -5.548   4.345 -33.038  1.00  0.00     0.293 C 
HETATM    3  O   UNL     1      -5.825   4.826 -34.136  1.00  0.00    -0.264 OA
HETATM    4  H   UNL     1      -5.189   4.726 -31.019  1.00  0.00     0.190 HD
ENDROOT
BRANCH   1   5
HETATM    5  N   UNL     1      -5.786   6.486 -31.978  1.00  0.00    -0.267 N 
HETATM    6  C   UNL     1      -5.534   7.253 -30.856  1.00  0.00     0.237 C 
HETATM    7  O   UNL     1      -5.335   6.769 -29.745  1.00  0.00    -0.272 OA
HETATM    8  H   UNL     1      -5.673   6.875 -32.915  1.00  0.00     0.190 HD
BRANCH   6   9
HETATM    9  C   UNL     1      -5.608   8.738 -31.129  1.00  0.00     0.124 C 
BRANCH   9  10
HETATM   10  C   UNL     1      -4.235   9.386 -31.003  1.00  0.00     0.132 C 
BRANCH  10  11
HETATM   11  N   UNL     1      -3.212   8.450 -30.572  1.00  0.00    -0.356 N 
HETATM   12  C   UNL     1      -2.072   8.222 -31.314  1.00  0.00     0.251 C 
HETATM   13  O   UNL     1      -1.810   8.833 -32.344  1.00  0.00    -0.268 OA
HETATM   14  H   UNL     1      -3.305   8.035 -29.655  1.00  0.00     0.162 HD
BRANCH  12  15
HETATM   15  C   UNL     1      -1.125   7.201 -30.783  1.00  0.00     0.032 A 
HETATM   16  C   UNL     1      -0.372   6.377 -31.629  1.00  0.00     0.017 A 
HETATM   17  C   UNL     1       0.514   5.442 -31.088  1.00  0.00     0.001 A 
HETATM   18  C   UNL     1       0.656   5.333 -29.704  1.00  0.00     0.000 A 
HETATM   19  C   UNL     1      -0.079   6.162 -28.858  1.00  0.00     0.001 A 
HETATM   20  C   UNL     1      -0.965   7.098 -29.395  1.00  0.00     0.017 A 
ENDBRANCH  12  15
ENDBRANCH  10  11
ENDBRANCH   9  10
ENDBRANCH   6   9
ENDBRANCH   1   5
BRANCH   2  21
HETATM   21  C   UNL     1      -5.138   2.953 -32.814  1.00  0.00     0.181 A 
HETATM   22  N   UNL     1      -5.701   1.930 -33.492  1.00  0.00    -0.159 NA
HETATM   23  N   UNL     1      -5.065   0.811 -33.051  1.00  0.00    -0.242 N 
HETATM   24  C   UNL     1      -4.131   1.105 -32.081  1.00  0.00     0.158 A 
HETATM   25  C   UNL     1      -4.160   2.463 -31.923  1.00  0.00     0.119 A 
BRANCH  23  26
HETATM   26  C   UNL     1      -5.386  -0.469 -33.592  1.00  0.00     0.058 A 
HETATM   27  C   UNL     1      -6.701  -0.732 -34.012  1.00  0.00     0.033 A 
HETATM   28  C   UNL     1      -7.035  -1.976 -34.556  1.00  0.00     0.026 A 
HETATM   29  C   UNL     1      -6.059  -2.962 -34.683  1.00  0.00     0.034 A 
HETATM   30 CL   UNL     1      -6.467  -4.491 -35.355  1.00  0.00    -0.084 Cl
HETATM   31  C   UNL     1      -4.752  -2.714 -34.268  1.00  0.00     0.026 A 
HETATM   32  C   UNL     1      -4.412  -1.470 -33.723  1.00  0.00     0.033 A 
ENDBRANCH  23  26
BRANCH  25  33
HETATM   33  O   UNL     1      -3.384   3.144 -31.069  1.00  0.00    -0.357 OA
HETATM   34  H   UNL     1      -3.536   2.860 -30.151  1.00  0.00     0.218 HD
ENDBRANCH  25  33
ENDBRANCH   2  21
TORSDOF 8
ENDMDL
MODEL 9
REMARK VINA RESULT:      -8.4      1.701      1.920
REMARK  8 active torsions:
REMARK  status: ('A' for Active; 'I' for Inactive)
REMARK    1  A    between atoms: C_4  and  C_5 
REMARK       I    between atoms: C_5  and  N_6 
REMARK    2  A    between atoms: N_6  and  C_7 
REMARK    3  A    between atoms: C_7  and  C_8 
REMARK    4  A    between atoms: C_8  and  C_9 
REMARK       I    between atoms: C_9  and  N_10 
REMARK    5  A    between atoms: N_10  and  N_11 
REMARK       I    between atoms: N_11  and  C_12 
REMARK    6  A    between atoms: C_12  and  C_13 
REMARK    7  A    between atoms: N_15  and  C_16 
REMARK    8  A    between atoms: C_24  and  O_25 
ROOT
HETATM    1  N   UNL     1      -3.703   5.334 -32.546  1.00  0.00    -0.262 N 
HETATM    2  C   UNL     1      -3.573   5.921 -31.299  1.00  0.00     0.293 C 
HETATM    3  O   UNL     1      -4.547   6.335 -30.672  1.00  0.00    -0.264 OA
HETATM    4  H   UNL     1      -2.907   4.841 -32.954  1.00  0.00     0.190 HD
ENDROOT
BRANCH   1   5
HETATM    5  N   UNL     1      -4.988   5.041 -33.026  1.00  0.00    -0.267 N 
HETATM    6  C   UNL     1      -5.376   3.714 -33.055  1.00  0.00     0.237 C 
HETATM    7  O   UNL     1      -4.599   2.784 -32.860  1.00  0.00    -0.272 OA
HETATM    8  H   UNL     1      -5.675   5.786 -32.914  1.00  0.00     0.190 HD
BRANCH   6   9
HETATM    9  C   UNL     1      -6.830   3.535 -33.428  1.00  0.00     0.124 C 
BRANCH   9  10
HETATM   10  C   UNL     1      -7.417   2.298 -32.761  1.00  0.00     0.132 C 
BRANCH  10  11
HETATM   11  N   UNL     1      -7.013   1.066 -33.414  1.00  0.00    -0.356 N 
HETATM   12  C   UNL     1      -6.573  -0.028 -32.699  1.00  0.00     0.251 C 
HETATM   13  O   UNL     1      -6.553  -0.065 -31.474  1.00  0.00    -0.268 OA
HETATM   14  H   UNL     1      -7.157   0.988 -34.412  1.00  0.00     0.162 HD
BRANCH  12  15
HETATM   15  C   UNL     1      -6.143  -1.214 -33.494  1.00  0.00     0.032 A 
HETATM   16  C   UNL     1      -4.794  -1.561 -33.637  1.00  0.00     0.017 A 
HETATM   17  C   UNL     1      -4.437  -2.689 -34.381  1.00  0.00     0.001 A 
HETATM   18  C   UNL     1      -5.424  -3.475 -34.975  1.00  0.00     0.000 A 
HETATM   19  C   UNL     1      -6.769  -3.144 -34.822  1.00  0.00     0.001 A 
HETATM   20  C   UNL     1      -7.130  -2.018 -34.079  1.00  0.00     0.017 A 
ENDBRANCH  12  15
ENDBRANCH  10  11
ENDBRANCH   9  10
ENDBRANCH   6   9
ENDBRANCH   1   5
BRANCH   2  21
HETATM   21  C   UNL     1      -2.185   5.983 -30.823  1.00  0.00     0.181 A 
HETATM   22  N   UNL     1      -1.847   6.671 -29.711  1.00  0.00    -0.159 NA
HETATM   23  N   UNL     1      -0.505   6.487 -29.567  1.00  0.00    -0.242 N 
HETATM   24  C   UNL     1       0.016   5.721 -30.587  1.00  0.00     0.158 A 
HETATM   25  C   UNL     1      -1.039   5.388 -31.391  1.00  0.00     0.119 A 
BRANCH  23  26
HETATM   26  C   UNL     1       0.190   7.050 -28.457  1.00  0.00     0.058 A 
HETATM   27  C   UNL     1       1.058   8.135 -28.662  1.00  0.00     0.033 A 
HETATM   28  C   UNL     1       1.741   8.710 -27.585  1.00  0.00     0.026 A 
HETATM   29  C   UNL     1       1.560   8.203 -26.300  1.00  0.00     0.034 A 
HETATM   30 CL   UNL     1       2.396   8.910 -24.974  1.00  0.00    -0.084 Cl
HETATM   31  C   UNL     1       0.704   7.125 -26.084  1.00  0.00     0.026 A 
HETATM   32  C   UNL     1       0.018   6.546 -27.158  1.00  0.00     0.033 A 
ENDBRANCH  23  26
BRANCH  25  33
HETATM   33  O   UNL     1      -0.942   4.634 -32.495  1.00  0.00    -0.357 OA
HETATM   34  H   UNL     1      -0.854   5.185 -33.292  1.00  0.00     0.218 HD
ENDBRANCH  25  33
ENDBRANCH   2  21
TORSDOF 8
ENDMDL
MODEL 10
REMARK VINA RESULT:      -8.0      6.835     10.029
REMARK  8 active torsions:
REMARK  status: ('A' for Active; 'I' for Inactive)
REMARK    1  A    between atoms: C_4  and  C_5 
REMARK       I    between atoms: C_5  and  N_6 
REMARK    2  A    between atoms: N_6  and  C_7 
REMARK    3  A    between atoms: C_7  and  C_8 
REMARK    4  A    between atoms: C_8  and  C_9 
REMARK       I    between atoms: C_9  and  N_10 
REMARK    5  A    between atoms: N_10  and  N_11 
REMARK       I    between atoms: N_11  and  C_12 
REMARK    6  A    between atoms: C_12  and  C_13 
REMARK    7  A    between atoms: N_15  and  C_16 
REMARK    8  A    between atoms: C_24  and  O_25 
ROOT
HETATM    1  N   UNL     1      -8.646   1.930 -31.504  1.00  0.00    -0.262 N 
HETATM    2  C   UNL     1      -8.827   2.205 -32.849  1.00  0.00     0.293 C 
HETATM    3  O   UNL     1      -8.007   1.859 -33.699  1.00  0.00    -0.264 OA
HETATM    4  H   UNL     1      -9.422   2.066 -30.856  1.00  0.00     0.190 HD
ENDROOT
BRANCH   1   5
HETATM    5  N   UNL     1      -7.596   1.081 -31.122  1.00  0.00    -0.267 N 
HETATM    6  C   UNL     1      -6.513   1.649 -30.477  1.00  0.00     0.237 C 
HETATM    7  O   UNL     1      -6.344   2.862 -30.393  1.00  0.00    -0.272 OA
HETATM    8  H   UNL     1      -7.862   0.112 -30.947  1.00  0.00     0.190 HD
BRANCH   6   9
HETATM    9  C   UNL     1      -5.529   0.622 -29.965  1.00  0.00     0.124 C 
BRANCH   9  10
HETATM   10  C   UNL     1      -4.396   0.405 -30.959  1.00  0.00     0.132 C 
BRANCH  10  11
HETATM   11  N   UNL     1      -4.567  -0.805 -31.745  1.00  0.00    -0.356 N 
HETATM   12  C   UNL     1      -5.125  -0.783 -33.006  1.00  0.00     0.251 C 
HETATM   13  O   UNL     1      -5.453   0.252 -33.576  1.00  0.00    -0.268 OA
HETATM   14  H   UNL     1      -4.172  -1.663 -31.386  1.00  0.00     0.162 HD
BRANCH  12  15
HETATM   15  C   UNL     1      -5.286  -2.100 -33.685  1.00  0.00     0.032 A 
HETATM   16  C   UNL     1      -4.282  -3.076 -33.658  1.00  0.00     0.017 A 
HETATM   17  C   UNL     1      -4.481  -4.302 -34.298  1.00  0.00     0.001 A 
HETATM   18  C   UNL     1      -5.683  -4.559 -34.958  1.00  0.00     0.000 A 
HETATM   19  C   UNL     1      -6.691  -3.597 -34.974  1.00  0.00     0.001 A 
HETATM   20  C   UNL     1      -6.497  -2.371 -34.335  1.00  0.00     0.017 A 
ENDBRANCH  12  15
ENDBRANCH  10  11
ENDBRANCH   9  10
ENDBRANCH   6   9
ENDBRANCH   1   5
BRANCH   2  21
HETATM   21  C   UNL     1     -10.073   2.927 -33.137  1.00  0.00     0.181 A 
HETATM   22  N   UNL     1     -11.267   2.492 -32.680  1.00  0.00    -0.159 NA
HETATM   23  N   UNL     1     -12.175   3.410 -33.111  1.00  0.00    -0.242 N 
HETATM   24  C   UNL     1     -11.579   4.401 -33.861  1.00  0.00     0.158 A 
HETATM   25  C   UNL     1     -10.243   4.113 -33.882  1.00  0.00     0.119 A 
BRANCH  23  26
HETATM   26  C   UNL     1     -13.554   3.283 -32.771  1.00  0.00     0.058 A 
HETATM   27  C   UNL     1     -14.187   2.036 -32.902  1.00  0.00     0.033 A 
HETATM   28  C   UNL     1     -15.536   1.887 -32.563  1.00  0.00     0.026 A 
HETATM   29  C   UNL     1     -16.257   2.982 -32.093  1.00  0.00     0.034 A 
HETATM   30 CL   UNL     1     -17.914   2.800 -31.672  1.00  0.00    -0.084 Cl
HETATM   31  C   UNL     1     -15.641   4.225 -31.960  1.00  0.00     0.026 A 
HETATM   32  C   UNL     1     -14.291   4.379 -32.298  1.00  0.00     0.033 A 
ENDBRANCH  23  26
BRANCH  25  33
HETATM   33  O   UNL     1      -9.317   4.853 -34.508  1.00  0.00    -0.357 OA
HETATM   34  H   UNL     1      -8.504   4.343 -34.665  1.00  0.00     0.218 HD
ENDBRANCH  25  33
ENDBRANCH   2  21
TORSDOF 8
ENDMDL
