MODEL 1
REMARK VINA RESULT:      -9.4      0.000      0.000
REMARK  3 active torsions:
REMARK  status: ('A' for Active; 'I' for Inactive)
REMARK    1  A    between atoms: C_3  and  C_4 
REMARK    2  A    between atoms: C_8  and  C_9 
REMARK       I    between atoms: C_9  and  N_10 
REMARK    3  A    between atoms: N_10  and  C_11 
ROOT
HETATM    1  C   UNL     1      -3.169   3.945 -31.627  1.00  0.00     0.064 A 
HETATM    2  N   UNL     1      -4.099   4.001 -30.621  1.00  0.00    -0.277 N 
HETATM    3  H   UNL     1      -4.243   4.762 -29.964  1.00  0.00     0.189 HD
HETATM    4  N   UNL     1      -4.868   2.902 -30.506  1.00  0.00    -0.169 NA
HETATM    5  C   UNL     1      -4.410   2.086 -31.477  1.00  0.00     0.147 A 
HETATM    6  C   UNL     1      -3.367   2.707 -32.207  1.00  0.00     0.071 A 
ENDROOT
BRANCH   5   7
HETATM    7  C   UNL     1      -4.957   0.734 -31.690  1.00  0.00     0.276 C 
HETATM    8  N   UNL     1      -4.723   0.281 -32.973  1.00  0.00    -0.322 N 
HETATM    9  H   UNL     1      -4.192   0.939 -33.540  1.00  0.00     0.169 HD
HETATM   10  O   UNL     1      -5.546   0.135 -30.796  1.00  0.00    -0.266 OA
BRANCH   8  11
HETATM   11  C   UNL     1      -5.141  -0.920 -33.568  1.00  0.00     0.035 A 
HETATM   12  C   UNL     1      -4.401  -2.106 -33.516  1.00  0.00     0.039 A 
HETATM   13  C   UNL     1      -4.920  -3.241 -34.120  1.00  0.00    -0.024 A 
HETATM   14  C   UNL     1      -6.145  -3.223 -34.766  1.00  0.00    -0.026 A 
HETATM   15  C   UNL     1      -4.355  -4.612 -34.175  1.00  0.00     0.207 C 
HETATM   16  C   UNL     1      -6.448  -4.581 -35.279  1.00  0.00     0.207 C 
HETATM   17  C   UNL     1      -6.897  -2.065 -34.832  1.00  0.00     0.012 A 
HETATM   18  O   UNL     1      -5.233  -5.338 -35.069  1.00  0.00    -0.382 OA
HETATM   19  C   UNL     1      -6.386  -0.910 -34.229  1.00  0.00     0.030 A 
ENDBRANCH   8  11
ENDBRANCH   5   7
BRANCH   1  20
HETATM   20  C   UNL     1      -2.228   5.024 -31.954  1.00  0.00     0.014 A 
HETATM   21  C   UNL     1      -1.213   5.320 -31.025  1.00  0.00     0.015 A 
HETATM   22  C   UNL     1      -0.286   6.338 -31.260  1.00  0.00     0.001 A 
HETATM   23  C   UNL     1      -0.357   7.087 -32.430  1.00  0.00     0.002 A 
HETATM   24  C   UNL     1      -1.353   6.815 -33.365  1.00  0.00     0.025 A 
HETATM   25  C   UNL     1      -2.283   5.792 -33.134  1.00  0.00     0.046 A 
HETATM   26 CL   UNL     1      -3.493   5.558 -34.352  1.00  0.00    -0.083 Cl
ENDBRANCH   1  20
TORSDOF 3
ENDMDL
MODEL 2
REMARK VINA RESULT:      -8.6      3.038      8.995
REMARK  3 active torsions:
REMARK  status: ('A' for Active; 'I' for Inactive)
REMARK    1  A    between atoms: C_3  and  C_4 
REMARK    2  A    between atoms: C_8  and  C_9 
REMARK       I    between atoms: C_9  and  N_10 
REMARK    3  A    between atoms: N_10  and  C_11 
ROOT
HETATM    1  C   UNL     1      -5.206  -1.337 -33.132  1.00  0.00     0.064 A 
HETATM    2  N   UNL     1      -6.160  -0.765 -32.331  1.00  0.00    -0.277 N 
HETATM    3  H   UNL     1      -7.100  -1.110 -32.159  1.00  0.00     0.189 HD
HETATM    4  N   UNL     1      -5.784   0.388 -31.746  1.00  0.00    -0.169 NA
HETATM    5  C   UNL     1      -4.528   0.582 -32.197  1.00  0.00     0.147 A 
HETATM    6  C   UNL     1      -4.126  -0.479 -33.046  1.00  0.00     0.071 A 
ENDROOT
BRANCH   5   7
HETATM    7  C   UNL     1      -3.735   1.769 -31.828  1.00  0.00     0.276 C 
HETATM    8  N   UNL     1      -4.261   2.926 -32.370  1.00  0.00    -0.322 N 
HETATM    9  H   UNL     1      -5.114   2.767 -32.902  1.00  0.00     0.169 HD
HETATM   10  O   UNL     1      -2.734   1.676 -31.126  1.00  0.00    -0.266 OA
BRANCH   8  11
HETATM   11  C   UNL     1      -3.757   4.234 -32.296  1.00  0.00     0.035 A 
HETATM   12  C   UNL     1      -3.061   4.853 -33.338  1.00  0.00     0.039 A 
HETATM   13  C   UNL     1      -2.628   6.160 -33.165  1.00  0.00    -0.024 A 
HETATM   14  C   UNL     1      -2.870   6.854 -31.992  1.00  0.00    -0.026 A 
HETATM   15  C   UNL     1      -1.908   7.040 -34.118  1.00  0.00     0.207 C 
HETATM   16  C   UNL     1      -2.322   8.227 -32.113  1.00  0.00     0.207 C 
HETATM   17  C   UNL     1      -3.556   6.266 -30.946  1.00  0.00     0.012 A 
HETATM   18  O   UNL     1      -1.570   8.219 -33.349  1.00  0.00    -0.382 OA
HETATM   19  C   UNL     1      -3.998   4.948 -31.104  1.00  0.00     0.030 A 
ENDBRANCH   8  11
ENDBRANCH   5   7
BRANCH   1  20
HETATM   20  C   UNL     1      -5.378  -2.599 -33.863  1.00  0.00     0.014 A 
HETATM   21  C   UNL     1      -6.443  -2.694 -34.777  1.00  0.00     0.015 A 
HETATM   22  C   UNL     1      -6.677  -3.865 -35.503  1.00  0.00     0.001 A 
HETATM   23  C   UNL     1      -5.852  -4.970 -35.326  1.00  0.00     0.002 A 
HETATM   24  C   UNL     1      -4.790  -4.902 -34.427  1.00  0.00     0.025 A 
HETATM   25  C   UNL     1      -4.551  -3.729 -33.698  1.00  0.00     0.046 A 
HETATM   26 CL   UNL     1      -3.220  -3.766 -32.589  1.00  0.00    -0.083 Cl
ENDBRANCH   1  20
TORSDOF 3
ENDMDL
MODEL 3
REMARK VINA RESULT:      -8.6      6.029      9.204
REMARK  3 active torsions:
REMARK  status: ('A' for Active; 'I' for Inactive)
REMARK    1  A    between atoms: C_3  and  C_4 
REMARK    2  A    between atoms: C_8  and  C_9 
REMARK       I    between atoms: C_9  and  N_10 
REMARK    3  A    between atoms: N_10  and  C_11 
ROOT
HETATM    1  C   UNL     1      -7.013  -1.040 -34.423  1.00  0.00     0.064 A 
HETATM    2  N   UNL     1      -6.756   0.078 -35.173  1.00  0.00    -0.277 N 
HETATM    3  H   UNL     1      -5.959   0.235 -35.783  1.00  0.00     0.189 HD
HETATM    4  N   UNL     1      -7.666   1.063 -35.043  1.00  0.00    -0.169 NA
HETATM    5  C   UNL     1      -8.552   0.565 -34.157  1.00  0.00     0.147 A 
HETATM    6  C   UNL     1      -8.191  -0.747 -33.763  1.00  0.00     0.071 A 
ENDROOT
BRANCH   5   7
HETATM    7  C   UNL     1      -9.715   1.342 -33.689  1.00  0.00     0.276 C 
HETATM    8  N   UNL     1     -10.888   0.618 -33.786  1.00  0.00    -0.322 N 
HETATM    9  H   UNL     1     -10.747  -0.329 -34.132  1.00  0.00     0.169 HD
HETATM   10  O   UNL     1      -9.594   2.492 -33.281  1.00  0.00    -0.266 OA
BRANCH   8  11
HETATM   11  C   UNL     1     -12.198   1.033 -33.500  1.00  0.00     0.035 A 
HETATM   12  C   UNL     1     -12.518   2.304 -33.014  1.00  0.00     0.039 A 
HETATM   13  C   UNL     1     -13.850   2.614 -32.787  1.00  0.00    -0.024 A 
HETATM   14  C   UNL     1     -14.859   1.698 -33.030  1.00  0.00    -0.026 A 
HETATM   15  C   UNL     1     -14.446   3.887 -32.312  1.00  0.00     0.207 C 
HETATM   16  C   UNL     1     -16.171   2.321 -32.728  1.00  0.00     0.207 C 
HETATM   17  C   UNL     1     -14.572   0.434 -33.511  1.00  0.00     0.012 A 
HETATM   18  O   UNL     1     -15.846   3.584 -32.102  1.00  0.00    -0.382 OA
HETATM   19  C   UNL     1     -13.232   0.105 -33.743  1.00  0.00     0.030 A 
ENDBRANCH   8  11
ENDBRANCH   5   7
BRANCH   1  20
HETATM   20  C   UNL     1      -6.174  -2.246 -34.409  1.00  0.00     0.014 A 
HETATM   21  C   UNL     1      -6.750  -3.457 -34.835  1.00  0.00     0.015 A 
HETATM   22  C   UNL     1      -6.019  -4.648 -34.840  1.00  0.00     0.001 A 
HETATM   23  C   UNL     1      -4.696  -4.654 -34.414  1.00  0.00     0.002 A 
HETATM   24  C   UNL     1      -4.102  -3.468 -33.987  1.00  0.00     0.025 A 
HETATM   25  C   UNL     1      -4.832  -2.271 -33.982  1.00  0.00     0.046 A 
HETATM   26 CL   UNL     1      -4.002  -0.863 -33.405  1.00  0.00    -0.083 Cl
ENDBRANCH   1  20
TORSDOF 3
ENDMDL
MODEL 4
REMARK VINA RESULT:      -8.5      2.922      8.827
REMARK  3 active torsions:
REMARK  status: ('A' for Active; 'I' for Inactive)
REMARK    1  A    between atoms: C_3  and  C_4 
REMARK    2  A    between atoms: C_8  and  C_9 
REMARK       I    between atoms: C_9  and  N_10 
REMARK    3  A    between atoms: N_10  and  C_11 
ROOT
HETATM    1  C   UNL     1      -5.397  -1.053 -33.307  1.00  0.00     0.064 A 
HETATM    2  N   UNL     1      -6.611  -0.560 -32.904  1.00  0.00    -0.277 N 
HETATM    3  H   UNL     1      -7.496  -1.058 -32.881  1.00  0.00     0.189 HD
HETATM    4  N   UNL     1      -6.595   0.733 -32.527  1.00  0.00    -0.169 NA
HETATM    5  C   UNL     1      -5.310   1.103 -32.705  1.00  0.00     0.147 A 
HETATM    6  C   UNL     1      -4.531   0.015 -33.171  1.00  0.00     0.071 A 
ENDROOT
BRANCH   5   7
HETATM    7  C   UNL     1      -4.846   2.478 -32.444  1.00  0.00     0.276 C 
HETATM    8  N   UNL     1      -3.501   2.626 -32.719  1.00  0.00    -0.322 N 
HETATM    9  H   UNL     1      -3.069   1.777 -33.081  1.00  0.00     0.169 HD
HETATM   10  O   UNL     1      -5.609   3.341 -32.025  1.00  0.00    -0.266 OA
BRANCH   8  11
HETATM   11  C   UNL     1      -2.690   3.757 -32.539  1.00  0.00     0.035 A 
HETATM   12  C   UNL     1      -2.256   4.206 -31.287  1.00  0.00     0.039 A 
HETATM   13  C   UNL     1      -1.438   5.324 -31.228  1.00  0.00    -0.024 A 
HETATM   14  C   UNL     1      -1.046   5.997 -32.373  1.00  0.00    -0.026 A 
HETATM   15  C   UNL     1      -0.824   5.971 -30.043  1.00  0.00     0.207 C 
HETATM   16  C   UNL     1      -0.154   7.122 -31.999  1.00  0.00     0.207 C 
HETATM   17  C   UNL     1      -1.460   5.576 -33.623  1.00  0.00     0.012 A 
HETATM   18  O   UNL     1      -0.217   7.182 -30.555  1.00  0.00    -0.382 OA
HETATM   19  C   UNL     1      -2.288   4.450 -33.699  1.00  0.00     0.030 A 
ENDBRANCH   8  11
ENDBRANCH   5   7
BRANCH   1  20
HETATM   20  C   UNL     1      -5.163  -2.433 -33.749  1.00  0.00     0.014 A 
HETATM   21  C   UNL     1      -6.024  -2.971 -34.723  1.00  0.00     0.015 A 
HETATM   22  C   UNL     1      -5.871  -4.280 -35.187  1.00  0.00     0.001 A 
HETATM   23  C   UNL     1      -4.854  -5.083 -34.682  1.00  0.00     0.002 A 
HETATM   24  C   UNL     1      -3.988  -4.575 -33.716  1.00  0.00     0.025 A 
HETATM   25  C   UNL     1      -4.137  -3.261 -33.250  1.00  0.00     0.046 A 
HETATM   26 CL   UNL     1      -3.021  -2.743 -32.030  1.00  0.00    -0.083 Cl
ENDBRANCH   1  20
TORSDOF 3
ENDMDL
MODEL 5
REMARK VINA RESULT:      -8.3      2.900      8.959
REMARK  3 active torsions:
REMARK  status: ('A' for Active; 'I' for Inactive)
REMARK    1  A    between atoms: C_3  and  C_4 
REMARK    2  A    between atoms: C_8  and  C_9 
REMARK       I    between atoms: C_9  and  N_10 
REMARK    3  A    between atoms: N_10  and  C_11 
ROOT
HETATM    1  C   UNL     1      -3.881  -1.265 -32.605  1.00  0.00     0.064 A 
HETATM    2  N   UNL     1      -2.857  -1.215 -31.695  1.00  0.00    -0.277 N 
HETATM    3  H   UNL     1      -2.278  -1.989 -31.383  1.00  0.00     0.189 HD
HETATM    4  N   UNL     1      -2.640   0.002 -31.161  1.00  0.00    -0.169 NA
HETATM    5  C   UNL     1      -3.576   0.780 -31.743  1.00  0.00     0.147 A 
HETATM    6  C   UNL     1      -4.354   0.032 -32.660  1.00  0.00     0.071 A 
ENDROOT
BRANCH   5   7
HETATM    7  C   UNL     1      -3.725   2.209 -31.413  1.00  0.00     0.276 C 
HETATM    8  N   UNL     1      -2.866   2.999 -32.152  1.00  0.00    -0.322 N 
HETATM    9  H   UNL     1      -2.302   2.468 -32.813  1.00  0.00     0.169 HD
HETATM   10  O   UNL     1      -4.529   2.589 -30.569  1.00  0.00    -0.266 OA
BRANCH   8  11
HETATM   11  C   UNL     1      -2.671   4.387 -32.077  1.00  0.00     0.035 A 
HETATM   12  C   UNL     1      -3.682   5.292 -31.738  1.00  0.00     0.039 A 
HETATM   13  C   UNL     1      -3.372   6.642 -31.673  1.00  0.00    -0.024 A 
HETATM   14  C   UNL     1      -2.094   7.106 -31.934  1.00  0.00    -0.026 A 
HETATM   15  C   UNL     1      -4.244   7.785 -31.307  1.00  0.00     0.207 C 
HETATM   16  C   UNL     1      -2.059   8.577 -31.754  1.00  0.00     0.207 C 
HETATM   17  C   UNL     1      -1.076   6.234 -32.272  1.00  0.00     0.012 A 
HETATM   18  O   UNL     1      -3.442   8.961 -31.571  1.00  0.00    -0.382 OA
HETATM   19  C   UNL     1      -1.373   4.868 -32.345  1.00  0.00     0.030 A 
ENDBRANCH   8  11
ENDBRANCH   5   7
BRANCH   1  20
HETATM   20  C   UNL     1      -4.296  -2.475 -33.327  1.00  0.00     0.014 A 
HETATM   21  C   UNL     1      -3.593  -3.668 -33.078  1.00  0.00     0.015 A 
HETATM   22  C   UNL     1      -3.923  -4.857 -33.733  1.00  0.00     0.001 A 
HETATM   23  C   UNL     1      -4.960  -4.877 -34.659  1.00  0.00     0.002 A 
HETATM   24  C   UNL     1      -5.672  -3.709 -34.924  1.00  0.00     0.025 A 
HETATM   25  C   UNL     1      -5.346  -2.515 -34.267  1.00  0.00     0.046 A 
HETATM   26 CL   UNL     1      -6.278  -1.118 -34.694  1.00  0.00    -0.083 Cl
ENDBRANCH   1  20
TORSDOF 3
ENDMDL
MODEL 6
REMARK VINA RESULT:      -8.2      6.023      9.298
REMARK  3 active torsions:
REMARK  status: ('A' for Active; 'I' for Inactive)
REMARK    1  A    between atoms: C_3  and  C_4 
REMARK    2  A    between atoms: C_8  and  C_9 
REMARK       I    between atoms: C_9  and  N_10 
REMARK    3  A    between atoms: N_10  and  C_11 
ROOT
HETATM    1  C   UNL     1      -6.760  -1.334 -34.455  1.00  0.00     0.064 A 
HETATM    2  N   UNL     1      -6.590  -0.324 -35.367  1.00  0.00    -0.277 N 
HETATM    3  H   UNL     1      -5.854  -0.247 -36.063  1.00  0.00     0.189 HD
HETATM    4  N   UNL     1      -7.500   0.665 -35.284  1.00  0.00    -0.169 NA
HETATM    5  C   UNL     1      -8.294   0.287 -34.262  1.00  0.00     0.147 A 
HETATM    6  C   UNL     1      -7.877  -0.960 -33.733  1.00  0.00     0.071 A 
ENDROOT
BRANCH   5   7
HETATM    7  C   UNL     1      -9.422   1.114 -33.795  1.00  0.00     0.276 C 
HETATM    8  N   UNL     1      -9.684   2.159 -34.659  1.00  0.00    -0.322 N 
HETATM    9  H   UNL     1      -9.079   2.163 -35.479  1.00  0.00     0.169 HD
HETATM   10  O   UNL     1     -10.012   0.858 -32.752  1.00  0.00    -0.266 OA
BRANCH   8  11
HETATM   11  C   UNL     1     -10.631   3.187 -34.528  1.00  0.00     0.035 A 
HETATM   12  C   UNL     1     -10.493   4.254 -33.635  1.00  0.00     0.039 A 
HETATM   13  C   UNL     1     -11.480   5.228 -33.605  1.00  0.00    -0.024 A 
HETATM   14  C   UNL     1     -12.588   5.163 -34.433  1.00  0.00    -0.026 A 
HETATM   15  C   UNL     1     -11.551   6.462 -32.784  1.00  0.00     0.207 C 
HETATM   16  C   UNL     1     -13.445   6.351 -34.200  1.00  0.00     0.207 C 
HETATM   17  C   UNL     1     -12.750   4.119 -35.325  1.00  0.00     0.012 A 
HETATM   18  O   UNL     1     -12.869   7.002 -33.043  1.00  0.00    -0.382 OA
HETATM   19  C   UNL     1     -11.763   3.128 -35.366  1.00  0.00     0.030 A 
ENDBRANCH   8  11
ENDBRANCH   5   7
BRANCH   1  20
HETATM   20  C   UNL     1      -5.904  -2.524 -34.359  1.00  0.00     0.014 A 
HETATM   21  C   UNL     1      -6.407  -3.742 -34.853  1.00  0.00     0.015 A 
HETATM   22  C   UNL     1      -5.657  -4.919 -34.788  1.00  0.00     0.001 A 
HETATM   23  C   UNL     1      -4.386  -4.903 -34.223  1.00  0.00     0.002 A 
HETATM   24  C   UNL     1      -3.865  -3.710 -33.727  1.00  0.00     0.025 A 
HETATM   25  C   UNL     1      -4.614  -2.527 -33.792  1.00  0.00     0.046 A 
HETATM   26 CL   UNL     1      -3.878  -1.109 -33.121  1.00  0.00    -0.083 Cl
ENDBRANCH   1  20
TORSDOF 3
ENDMDL
MODEL 7
REMARK VINA RESULT:      -8.1      6.327      8.578
REMARK  3 active torsions:
REMARK  status: ('A' for Active; 'I' for Inactive)
REMARK    1  A    between atoms: C_3  and  C_4 
REMARK    2  A    between atoms: C_8  and  C_9 
REMARK       I    between atoms: C_9  and  N_10 
REMARK    3  A    between atoms: N_10  and  C_11 
ROOT
HETATM    1  C   UNL     1     -12.167   2.753 -33.602  1.00  0.00     0.064 A 
HETATM    2  N   UNL     1     -11.709   3.508 -34.651  1.00  0.00    -0.277 N 
HETATM    3  H   UNL     1     -12.254   4.134 -35.237  1.00  0.00     0.189 HD
HETATM    4  N   UNL     1     -10.398   3.358 -34.919  1.00  0.00    -0.169 NA
HETATM    5  C   UNL     1      -9.984   2.454 -34.008  1.00  0.00     0.147 A 
HETATM    6  C   UNL     1     -11.051   2.069 -33.160  1.00  0.00     0.071 A 
ENDROOT
BRANCH   5   7
HETATM    7  C   UNL     1      -8.595   1.963 -33.964  1.00  0.00     0.276 C 
HETATM    8  N   UNL     1      -8.540   0.591 -33.814  1.00  0.00    -0.322 N 
HETATM    9  H   UNL     1      -9.459   0.153 -33.790  1.00  0.00     0.169 HD
HETATM   10  O   UNL     1      -7.643   2.731 -34.048  1.00  0.00    -0.266 OA
BRANCH   8  11
HETATM   11  C   UNL     1      -7.410  -0.229 -33.669  1.00  0.00     0.035 A 
HETATM   12  C   UNL     1      -7.058  -1.226 -34.583  1.00  0.00     0.039 A 
HETATM   13  C   UNL     1      -5.906  -1.964 -34.353  1.00  0.00    -0.024 A 
HETATM   14  C   UNL     1      -5.107  -1.733 -33.246  1.00  0.00    -0.026 A 
HETATM   15  C   UNL     1      -5.303  -3.039 -35.178  1.00  0.00     0.207 C 
HETATM   16  C   UNL     1      -3.938  -2.644 -33.286  1.00  0.00     0.207 C 
HETATM   17  C   UNL     1      -5.432  -0.753 -32.326  1.00  0.00     0.012 A 
HETATM   18  O   UNL     1      -4.215  -3.555 -34.375  1.00  0.00    -0.382 OA
HETATM   19  C   UNL     1      -6.592  -0.002 -32.543  1.00  0.00     0.030 A 
ENDBRANCH   8  11
ENDBRANCH   5   7
BRANCH   1  20
HETATM   20  C   UNL     1     -13.552   2.756 -33.114  1.00  0.00     0.014 A 
HETATM   21  C   UNL     1     -14.002   3.887 -32.407  1.00  0.00     0.015 A 
HETATM   22  C   UNL     1     -15.303   3.960 -31.903  1.00  0.00     0.001 A 
HETATM   23  C   UNL     1     -16.183   2.900 -32.092  1.00  0.00     0.002 A 
HETATM   24  C   UNL     1     -15.762   1.769 -32.789  1.00  0.00     0.025 A 
HETATM   25  C   UNL     1     -14.459   1.693 -33.298  1.00  0.00     0.046 A 
HETATM   26 CL   UNL     1     -14.036   0.229 -34.123  1.00  0.00    -0.083 Cl
ENDBRANCH   1  20
TORSDOF 3
ENDMDL
MODEL 8
REMARK VINA RESULT:      -8.0      3.183      8.796
REMARK  3 active torsions:
REMARK  status: ('A' for Active; 'I' for Inactive)
REMARK    1  A    between atoms: C_3  and  C_4 
REMARK    2  A    between atoms: C_8  and  C_9 
REMARK       I    between atoms: C_9  and  N_10 
REMARK    3  A    between atoms: N_10  and  C_11 
ROOT
HETATM    1  C   UNL     1      -5.092  -0.826 -32.944  1.00  0.00     0.064 A 
HETATM    2  N   UNL     1      -6.387  -0.553 -32.588  1.00  0.00    -0.277 N 
HETATM    3  H   UNL     1      -7.129  -1.226 -32.416  1.00  0.00     0.189 HD
HETATM    4  N   UNL     1      -6.676   0.759 -32.487  1.00  0.00    -0.169 NA
HETATM    5  C   UNL     1      -5.517   1.369 -32.805  1.00  0.00     0.147 A 
HETATM    6  C   UNL     1      -4.503   0.417 -33.077  1.00  0.00     0.071 A 
ENDROOT
BRANCH   5   7
HETATM    7  C   UNL     1      -5.390   2.837 -32.858  1.00  0.00     0.276 C 
HETATM    8  N   UNL     1      -4.241   3.276 -32.231  1.00  0.00    -0.322 N 
HETATM    9  H   UNL     1      -3.667   2.517 -31.868  1.00  0.00     0.169 HD
HETATM   10  O   UNL     1      -6.241   3.532 -33.403  1.00  0.00    -0.266 OA
BRANCH   8  11
HETATM   11  C   UNL     1      -3.807   4.595 -32.022  1.00  0.00     0.035 A 
HETATM   12  C   UNL     1      -2.997   5.293 -32.922  1.00  0.00     0.039 A 
HETATM   13  C   UNL     1      -2.647   6.602 -32.625  1.00  0.00    -0.024 A 
HETATM   14  C   UNL     1      -3.079   7.223 -31.466  1.00  0.00    -0.026 A 
HETATM   15  C   UNL     1      -1.837   7.557 -33.421  1.00  0.00     0.207 C 
HETATM   16  C   UNL     1      -2.577   8.618 -31.439  1.00  0.00     0.207 C 
HETATM   17  C   UNL     1      -3.881   6.555 -30.558  1.00  0.00     0.012 A 
HETATM   18  O   UNL     1      -1.659   8.702 -32.554  1.00  0.00    -0.382 OA
HETATM   19  C   UNL     1      -4.242   5.233 -30.843  1.00  0.00     0.030 A 
ENDBRANCH   8  11
ENDBRANCH   5   7
BRANCH   1  20
HETATM   20  C   UNL     1      -4.538  -2.177 -33.103  1.00  0.00     0.014 A 
HETATM   21  C   UNL     1      -3.573  -2.610 -32.175  1.00  0.00     0.015 A 
HETATM   22  C   UNL     1      -2.993  -3.877 -32.266  1.00  0.00     0.001 A 
HETATM   23  C   UNL     1      -3.362  -4.740 -33.292  1.00  0.00     0.002 A 
HETATM   24  C   UNL     1      -4.315  -4.336 -34.224  1.00  0.00     0.025 A 
HETATM   25  C   UNL     1      -4.901  -3.065 -34.135  1.00  0.00     0.046 A 
HETATM   26 CL   UNL     1      -6.054  -2.658 -35.363  1.00  0.00    -0.083 Cl
ENDBRANCH   1  20
TORSDOF 3
ENDMDL
MODEL 9
REMARK VINA RESULT:      -7.9      1.813      2.037
REMARK  3 active torsions:
REMARK  status: ('A' for Active; 'I' for Inactive)
REMARK    1  A    between atoms: C_3  and  C_4 
REMARK    2  A    between atoms: C_8  and  C_9 
REMARK       I    between atoms: C_9  and  N_10 
REMARK    3  A    between atoms: N_10  and  C_11 
ROOT
HETATM    1  C   UNL     1      -4.002   4.617 -31.499  1.00  0.00     0.064 A 
HETATM    2  N   UNL     1      -4.266   4.644 -32.844  1.00  0.00    -0.277 N 
HETATM    3  H   UNL     1      -4.114   5.420 -33.481  1.00  0.00     0.189 HD
HETATM    4  N   UNL     1      -4.805   3.511 -33.332  1.00  0.00    -0.169 NA
HETATM    5  C   UNL     1      -4.909   2.712 -32.251  1.00  0.00     0.147 A 
HETATM    6  C   UNL     1      -4.402   3.357 -31.096  1.00  0.00     0.071 A 
ENDROOT
BRANCH   5   7
HETATM    7  C   UNL     1      -5.494   1.361 -32.325  1.00  0.00     0.276 C 
HETATM    8  N   UNL     1      -4.943   0.618 -33.351  1.00  0.00    -0.322 N 
HETATM    9  H   UNL     1      -4.212   1.114 -33.857  1.00  0.00     0.169 HD
HETATM   10  O   UNL     1      -6.369   1.000 -31.545  1.00  0.00    -0.266 OA
BRANCH   8  11
HETATM   11  C   UNL     1      -5.281  -0.677 -33.773  1.00  0.00     0.035 A 
HETATM   12  C   UNL     1      -4.431  -1.779 -33.641  1.00  0.00     0.039 A 
HETATM   13  C   UNL     1      -4.877  -3.019 -34.073  1.00  0.00    -0.024 A 
HETATM   14  C   UNL     1      -6.136  -3.185 -34.626  1.00  0.00    -0.026 A 
HETATM   15  C   UNL     1      -4.190  -4.333 -34.013  1.00  0.00     0.207 C 
HETATM   16  C   UNL     1      -6.341  -4.615 -34.959  1.00  0.00     0.207 C 
HETATM   17  C   UNL     1      -6.996  -2.113 -34.769  1.00  0.00     0.012 A 
HETATM   18  O   UNL     1      -5.049  -5.234 -34.752  1.00  0.00    -0.382 OA
HETATM   19  C   UNL     1      -6.560  -0.854 -34.340  1.00  0.00     0.030 A 
ENDBRANCH   8  11
ENDBRANCH   5   7
BRANCH   1  20
HETATM   20  C   UNL     1      -3.403   5.725 -30.744  1.00  0.00     0.014 A 
HETATM   21  C   UNL     1      -4.228   6.447 -29.861  1.00  0.00     0.015 A 
HETATM   22  C   UNL     1      -3.733   7.520 -29.116  1.00  0.00     0.001 A 
HETATM   23  C   UNL     1      -2.402   7.899 -29.242  1.00  0.00     0.002 A 
HETATM   24  C   UNL     1      -1.564   7.202 -30.110  1.00  0.00     0.025 A 
HETATM   25  C   UNL     1      -2.055   6.123 -30.857  1.00  0.00     0.046 A 
HETATM   26 CL   UNL     1      -0.933   5.347 -31.924  1.00  0.00    -0.083 Cl
ENDBRANCH   1  20
TORSDOF 3
ENDMDL
MODEL 10
REMARK VINA RESULT:      -7.7      5.704      8.549
REMARK  3 active torsions:
REMARK  status: ('A' for Active; 'I' for Inactive)
REMARK    1  A    between atoms: C_3  and  C_4 
REMARK    2  A    between atoms: C_8  and  C_9 
REMARK       I    between atoms: C_9  and  N_10 
REMARK    3  A    between atoms: N_10  and  C_11 
ROOT
HETATM    1  C   UNL     1     -11.599   2.057 -33.751  1.00  0.00     0.064 A 
HETATM    2  N   UNL     1     -10.971   3.143 -34.303  1.00  0.00    -0.277 N 
HETATM    3  H   UNL     1     -11.401   4.020 -34.583  1.00  0.00     0.189 HD
HETATM    4  N   UNL     1      -9.649   2.985 -34.502  1.00  0.00    -0.169 NA
HETATM    5  C   UNL     1      -9.406   1.731 -34.070  1.00  0.00     0.147 A 
HETATM    6  C   UNL     1     -10.590   1.129 -33.578  1.00  0.00     0.071 A 
ENDROOT
BRANCH   5   7
HETATM    7  C   UNL     1      -8.066   1.121 -34.141  1.00  0.00     0.276 C 
HETATM    8  N   UNL     1      -7.501   0.975 -32.889  1.00  0.00    -0.322 N 
HETATM    9  H   UNL     1      -8.113   1.283 -32.135  1.00  0.00     0.169 HD
HETATM   10  O   UNL     1      -7.562   0.809 -35.215  1.00  0.00    -0.266 OA
BRANCH   8  11
HETATM   11  C   UNL     1      -6.224   0.497 -32.555  1.00  0.00     0.035 A 
HETATM   12  C   UNL     1      -5.822  -0.828 -32.744  1.00  0.00     0.039 A 
HETATM   13  C   UNL     1      -4.528  -1.187 -32.399  1.00  0.00    -0.024 A 
HETATM   14  C   UNL     1      -3.636  -0.266 -31.875  1.00  0.00    -0.026 A 
HETATM   15  C   UNL     1      -3.854  -2.502 -32.532  1.00  0.00     0.207 C 
HETATM   16  C   UNL     1      -2.330  -0.928 -31.637  1.00  0.00     0.207 C 
HETATM   17  C   UNL     1      -4.007   1.051 -31.678  1.00  0.00     0.012 A 
HETATM   18  O   UNL     1      -2.581  -2.335 -31.864  1.00  0.00    -0.382 OA
HETATM   19  C   UNL     1      -5.311   1.428 -32.019  1.00  0.00     0.030 A 
ENDBRANCH   8  11
ENDBRANCH   5   7
BRANCH   1  20
HETATM   20  C   UNL     1     -13.031   1.996 -33.429  1.00  0.00     0.014 A 
HETATM   21  C   UNL     1     -13.835   1.100 -34.157  1.00  0.00     0.015 A 
HETATM   22  C   UNL     1     -15.207   0.991 -33.915  1.00  0.00     0.001 A 
HETATM   23  C   UNL     1     -15.806   1.782 -32.941  1.00  0.00     0.002 A 
HETATM   24  C   UNL     1     -15.033   2.678 -32.206  1.00  0.00     0.025 A 
HETATM   25  C   UNL     1     -13.656   2.788 -32.445  1.00  0.00     0.046 A 
HETATM   26 CL   UNL     1     -12.797   3.953 -31.491  1.00  0.00    -0.083 Cl
ENDBRANCH   1  20
TORSDOF 3
ENDMDL
