MODEL 1
REMARK VINA RESULT:      -7.8      0.000      0.000
REMARK  6 active torsions:
REMARK  status: ('A' for Active; 'I' for Inactive)
REMARK    1  A    between atoms: N_4  and  C_5 
REMARK    2  A    between atoms: C_5  and  C_6 
REMARK    3  A    between atoms: C_6  and  C_7 
REMARK    4  A    between atoms: C_7  and  N_8 
REMARK       I    between atoms: N_8  and  C_9 
REMARK       I    between atoms: C_9  and  N_10 
REMARK    5  A    between atoms: N_10  and  C_11 
REMARK    6  A    between atoms: C_12  and  O_13 
ROOT
HETATM    1  N   UNL     1      -4.424   2.375 -30.948  1.00  0.00    -0.343 N 
HETATM    2  C   UNL     1      -3.521   3.092 -31.702  1.00  0.00     0.320 C 
HETATM    3  N   UNL     1      -3.733   4.448 -31.552  1.00  0.00    -0.306 N 
HETATM    4  O   UNL     1      -2.704   2.566 -32.447  1.00  0.00    -0.247 OA
HETATM    5  H   UNL     1      -4.697   2.806 -30.071  1.00  0.00     0.164 HD
HETATM    6  H   UNL     1      -4.716   4.678 -31.554  1.00  0.00     0.171 HD
ENDROOT
BRANCH   1   7
HETATM    7  C   UNL     1      -4.449   0.928 -30.980  1.00  0.00     0.126 C 
BRANCH   7   8
HETATM    8  C   UNL     1      -5.452   0.332 -31.970  1.00  0.00     0.041 C 
BRANCH   8   9
HETATM    9  C   UNL     1      -4.884   0.051 -33.357  1.00  0.00     0.152 C 
BRANCH   9  10
HETATM   10  N   UNL     1      -5.028  -1.335 -33.767  1.00  0.00    -0.272 N 
HETATM   11  N   UNL     1      -4.053  -2.211 -33.442  1.00  0.00    -0.176 NA
HETATM   12  C   UNL     1      -4.458  -3.364 -33.992  1.00  0.00     0.074 A 
HETATM   13  C   UNL     1      -3.623  -4.585 -33.879  1.00  0.00     0.074 C 
HETATM   14  C   UNL     1      -5.705  -3.218 -34.641  1.00  0.00     0.083 A 
HETATM   15  C   UNL     1      -6.060  -1.897 -34.476  1.00  0.00     0.050 A 
HETATM   16 CL   UNL     1      -6.559  -4.437 -35.456  1.00  0.00    -0.080 Cl
HETATM   17  C   UNL     1      -7.250  -1.143 -34.938  1.00  0.00     0.072 C 
ENDBRANCH   9  10
ENDBRANCH   8   9
ENDBRANCH   7   8
ENDBRANCH   1   7
BRANCH   3  18
HETATM   18  C   UNL     1      -2.842   5.414 -32.077  1.00  0.00     0.071 A 
HETATM   19  C   UNL     1      -3.119   6.135 -33.259  1.00  0.00     0.095 A 
HETATM   20  C   UNL     1      -2.209   7.104 -33.697  1.00  0.00     0.041 A 
HETATM   21  C   UNL     1      -1.028   7.336 -32.986  1.00  0.00     0.026 A 
HETATM   22  C   UNL     1      -0.742   6.585 -31.850  1.00  0.00     0.036 A 
HETATM   23 CL   UNL     1       0.724   6.863 -30.991  1.00  0.00    -0.084 Cl
HETATM   24  C   UNL     1      -1.634   5.615 -31.400  1.00  0.00     0.056 A 
BRANCH  19  25
HETATM   25  O   UNL     1      -4.237   5.761 -33.962  1.00  0.00    -0.354 OA
HETATM   26  C   UNL     1      -4.044   5.054 -35.178  1.00  0.00     0.210 C 
ENDBRANCH  19  25
ENDBRANCH   3  18
TORSDOF 6
ENDMDL
MODEL 2
REMARK VINA RESULT:      -7.8      1.507      1.901
REMARK  6 active torsions:
REMARK  status: ('A' for Active; 'I' for Inactive)
REMARK    1  A    between atoms: N_4  and  C_5 
REMARK    2  A    between atoms: C_5  and  C_6 
REMARK    3  A    between atoms: C_6  and  C_7 
REMARK    4  A    between atoms: C_7  and  N_8 
REMARK       I    between atoms: N_8  and  C_9 
REMARK       I    between atoms: C_9  and  N_10 
REMARK    5  A    between atoms: N_10  and  C_11 
REMARK    6  A    between atoms: C_12  and  O_13 
ROOT
HETATM    1  N   UNL     1      -4.438   2.036 -32.187  1.00  0.00    -0.343 N 
HETATM    2  C   UNL     1      -3.971   3.322 -32.031  1.00  0.00     0.320 C 
HETATM    3  N   UNL     1      -2.652   3.411 -32.431  1.00  0.00    -0.306 N 
HETATM    4  O   UNL     1      -4.637   4.222 -31.535  1.00  0.00    -0.247 OA
HETATM    5  H   UNL     1      -4.057   1.528 -32.979  1.00  0.00     0.164 HD
HETATM    6  H   UNL     1      -2.111   2.616 -32.123  1.00  0.00     0.171 HD
ENDROOT
BRANCH   1   7
HETATM    7  C   UNL     1      -5.779   1.668 -31.782  1.00  0.00     0.126 C 
BRANCH   7   8
HETATM    8  C   UNL     1      -6.306   0.385 -32.427  1.00  0.00     0.041 C 
BRANCH   8   9
HETATM    9  C   UNL     1      -5.736   0.088 -33.810  1.00  0.00     0.152 C 
BRANCH   9  10
HETATM   10  N   UNL     1      -5.391  -1.309 -34.001  1.00  0.00    -0.272 N 
HETATM   11  N   UNL     1      -6.191  -2.074 -34.774  1.00  0.00    -0.176 NA
HETATM   12  C   UNL     1      -5.635  -3.292 -34.711  1.00  0.00     0.074 A 
HETATM   13  C   UNL     1      -6.253  -4.438 -35.420  1.00  0.00     0.074 C 
HETATM   14  C   UNL     1      -4.466  -3.286 -33.917  1.00  0.00     0.083 A 
HETATM   15  C   UNL     1      -4.322  -1.990 -33.473  1.00  0.00     0.050 A 
HETATM   16 CL   UNL     1      -3.471  -4.621 -33.588  1.00  0.00    -0.080 Cl
HETATM   17  C   UNL     1      -3.297  -1.366 -32.601  1.00  0.00     0.072 C 
ENDBRANCH   9  10
ENDBRANCH   8   9
ENDBRANCH   7   8
ENDBRANCH   1   7
BRANCH   3  18
HETATM   18  C   UNL     1      -1.977   4.650 -32.538  1.00  0.00     0.071 A 
HETATM   19  C   UNL     1      -1.965   5.403 -33.732  1.00  0.00     0.095 A 
HETATM   20  C   UNL     1      -1.311   6.641 -33.751  1.00  0.00     0.041 A 
HETATM   21  C   UNL     1      -0.656   7.113 -32.609  1.00  0.00     0.026 A 
HETATM   22  C   UNL     1      -0.633   6.339 -31.453  1.00  0.00     0.036 A 
HETATM   23 CL   UNL     1       0.192   6.917 -30.057  1.00  0.00    -0.084 Cl
HETATM   24  C   UNL     1      -1.277   5.104 -31.415  1.00  0.00     0.056 A 
BRANCH  19  25
HETATM   25  O   UNL     1      -2.524   4.815 -34.839  1.00  0.00    -0.354 OA
HETATM   26  C   UNL     1      -3.811   5.261 -35.242  1.00  0.00     0.210 C 
ENDBRANCH  19  25
ENDBRANCH   3  18
TORSDOF 6
ENDMDL
MODEL 3
REMARK VINA RESULT:      -7.5      5.248      7.170
REMARK  6 active torsions:
REMARK  status: ('A' for Active; 'I' for Inactive)
REMARK    1  A    between atoms: N_4  and  C_5 
REMARK    2  A    between atoms: C_5  and  C_6 
REMARK    3  A    between atoms: C_6  and  C_7 
REMARK    4  A    between atoms: C_7  and  N_8 
REMARK       I    between atoms: N_8  and  C_9 
REMARK       I    between atoms: C_9  and  N_10 
REMARK    5  A    between atoms: N_10  and  C_11 
REMARK    6  A    between atoms: C_12  and  O_13 
ROOT
HETATM    1  N   UNL     1      -7.187   1.513 -32.784  1.00  0.00    -0.343 N 
HETATM    2  C   UNL     1      -8.558   1.627 -32.706  1.00  0.00     0.320 C 
HETATM    3  N   UNL     1      -9.089   1.955 -33.938  1.00  0.00    -0.306 N 
HETATM    4  O   UNL     1      -9.181   1.516 -31.657  1.00  0.00    -0.247 OA
HETATM    5  H   UNL     1      -6.831   1.152 -33.663  1.00  0.00     0.164 HD
HETATM    6  H   UNL     1      -8.531   2.650 -34.414  1.00  0.00     0.171 HD
ENDROOT
BRANCH   1   7
HETATM    7  C   UNL     1      -6.387   1.233 -31.610  1.00  0.00     0.126 C 
BRANCH   7   8
HETATM    8  C   UNL     1      -5.512  -0.016 -31.723  1.00  0.00     0.041 C 
BRANCH   8   9
HETATM    9  C   UNL     1      -4.829  -0.193 -33.076  1.00  0.00     0.152 C 
BRANCH   9  10
HETATM   10  N   UNL     1      -4.923  -1.547 -33.593  1.00  0.00    -0.272 N 
HETATM   11  N   UNL     1      -3.964  -2.437 -33.258  1.00  0.00    -0.176 NA
HETATM   12  C   UNL     1      -4.310  -3.550 -33.919  1.00  0.00     0.074 A 
HETATM   13  C   UNL     1      -3.471  -4.769 -33.830  1.00  0.00     0.074 C 
HETATM   14  C   UNL     1      -5.506  -3.367 -34.651  1.00  0.00     0.083 A 
HETATM   15  C   UNL     1      -5.890  -2.064 -34.420  1.00  0.00     0.050 A 
HETATM   16 CL   UNL     1      -6.278  -4.529 -35.615  1.00  0.00    -0.080 Cl
HETATM   17  C   UNL     1      -7.051  -1.287 -34.917  1.00  0.00     0.072 C 
ENDBRANCH   9  10
ENDBRANCH   8   9
ENDBRANCH   7   8
ENDBRANCH   1   7
BRANCH   3  18
HETATM   18  C   UNL     1     -10.482   1.966 -34.181  1.00  0.00     0.071 A 
HETATM   19  C   UNL     1     -11.136   3.060 -34.789  1.00  0.00     0.095 A 
HETATM   20  C   UNL     1     -12.512   2.982 -35.035  1.00  0.00     0.041 A 
HETATM   21  C   UNL     1     -13.234   1.846 -34.659  1.00  0.00     0.026 A 
HETATM   22  C   UNL     1     -12.588   0.795 -34.015  1.00  0.00     0.036 A 
HETATM   23 CL   UNL     1     -13.488  -0.593 -33.537  1.00  0.00    -0.084 Cl
HETATM   24  C   UNL     1     -11.220   0.854 -33.760  1.00  0.00     0.056 A 
BRANCH  19  25
HETATM   25  O   UNL     1     -10.380   4.183 -35.015  1.00  0.00    -0.354 OA
HETATM   26  C   UNL     1     -10.452   5.228 -34.056  1.00  0.00     0.210 C 
ENDBRANCH  19  25
ENDBRANCH   3  18
TORSDOF 6
ENDMDL
MODEL 4
REMARK VINA RESULT:      -7.4      5.550      8.930
REMARK  6 active torsions:
REMARK  status: ('A' for Active; 'I' for Inactive)
REMARK    1  A    between atoms: N_4  and  C_5 
REMARK    2  A    between atoms: C_5  and  C_6 
REMARK    3  A    between atoms: C_6  and  C_7 
REMARK    4  A    between atoms: C_7  and  N_8 
REMARK       I    between atoms: N_8  and  C_9 
REMARK       I    between atoms: C_9  and  N_10 
REMARK    5  A    between atoms: N_10  and  C_11 
REMARK    6  A    between atoms: C_12  and  O_13 
ROOT
HETATM    1  N   UNL     1      -8.405   1.769 -33.259  1.00  0.00    -0.343 N 
HETATM    2  C   UNL     1      -7.406   1.010 -33.829  1.00  0.00     0.320 C 
HETATM    3  N   UNL     1      -7.130  -0.095 -33.047  1.00  0.00    -0.306 N 
HETATM    4  O   UNL     1      -6.817   1.338 -34.851  1.00  0.00    -0.247 OA
HETATM    5  H   UNL     1      -9.115   1.246 -32.757  1.00  0.00     0.164 HD
HETATM    6  H   UNL     1      -7.118   0.134 -32.064  1.00  0.00     0.171 HD
ENDROOT
BRANCH   1   7
HETATM    7  C   UNL     1      -8.837   3.015 -33.856  1.00  0.00     0.126 C 
BRANCH   7   8
HETATM    8  C   UNL     1     -10.224   2.962 -34.499  1.00  0.00     0.041 C 
BRANCH   8   9
HETATM    9  C   UNL     1     -11.095   1.798 -34.037  1.00  0.00     0.152 C 
BRANCH   9  10
HETATM   10  N   UNL     1     -12.301   2.222 -33.348  1.00  0.00    -0.272 N 
HETATM   11  N   UNL     1     -12.241   3.304 -32.542  1.00  0.00    -0.176 NA
HETATM   12  C   UNL     1     -13.478   3.400 -32.035  1.00  0.00     0.074 A 
HETATM   13  C   UNL     1     -13.810   4.467 -31.061  1.00  0.00     0.074 C 
HETATM   14  C   UNL     1     -14.326   2.391 -32.546  1.00  0.00     0.083 A 
HETATM   15  C   UNL     1     -13.545   1.644 -33.401  1.00  0.00     0.050 A 
HETATM   16 CL   UNL     1     -15.962   2.166 -32.158  1.00  0.00    -0.080 Cl
HETATM   17  C   UNL     1     -13.866   0.452 -34.223  1.00  0.00     0.072 C 
ENDBRANCH   9  10
ENDBRANCH   8   9
ENDBRANCH   7   8
ENDBRANCH   1   7
BRANCH   3  18
HETATM   18  C   UNL     1      -6.270  -1.131 -33.482  1.00  0.00     0.071 A 
HETATM   19  C   UNL     1      -4.886  -1.132 -33.200  1.00  0.00     0.095 A 
HETATM   20  C   UNL     1      -4.104  -2.212 -33.628  1.00  0.00     0.041 A 
HETATM   21  C   UNL     1      -4.682  -3.262 -34.347  1.00  0.00     0.026 A 
HETATM   22  C   UNL     1      -6.037  -3.225 -34.662  1.00  0.00     0.036 A 
HETATM   23 CL   UNL     1      -6.737  -4.513 -35.565  1.00  0.00    -0.084 Cl
HETATM   24  C   UNL     1      -6.831  -2.159 -34.247  1.00  0.00     0.056 A 
BRANCH  19  25
HETATM   25  O   UNL     1      -4.377  -0.009 -32.599  1.00  0.00    -0.354 OA
HETATM   26  C   UNL     1      -3.882  -0.138 -31.275  1.00  0.00     0.210 C 
ENDBRANCH  19  25
ENDBRANCH   3  18
TORSDOF 6
ENDMDL
MODEL 5
REMARK VINA RESULT:      -7.4      2.930      7.902
REMARK  6 active torsions:
REMARK  status: ('A' for Active; 'I' for Inactive)
REMARK    1  A    between atoms: N_4  and  C_5 
REMARK    2  A    between atoms: C_5  and  C_6 
REMARK    3  A    between atoms: C_6  and  C_7 
REMARK    4  A    between atoms: C_7  and  N_8 
REMARK       I    between atoms: N_8  and  C_9 
REMARK       I    between atoms: C_9  and  N_10 
REMARK    5  A    between atoms: N_10  and  C_11 
REMARK    6  A    between atoms: C_12  and  O_13 
ROOT
HETATM    1  N   UNL     1      -8.673   1.606 -33.402  1.00  0.00    -0.343 N 
HETATM    2  C   UNL     1      -7.698   0.862 -34.031  1.00  0.00     0.320 C 
HETATM    3  N   UNL     1      -7.149  -0.056 -33.158  1.00  0.00    -0.306 N 
HETATM    4  O   UNL     1      -7.343   1.064 -35.185  1.00  0.00    -0.247 OA
HETATM    5  H   UNL     1      -9.210   1.110 -32.698  1.00  0.00     0.164 HD
HETATM    6  H   UNL     1      -6.996   0.341 -32.242  1.00  0.00     0.171 HD
ENDROOT
BRANCH   1   7
HETATM    7  C   UNL     1      -9.360   2.679 -34.088  1.00  0.00     0.126 C 
BRANCH   7   8
HETATM    8  C   UNL     1      -8.771   4.069 -33.841  1.00  0.00     0.041 C 
BRANCH   8   9
HETATM    9  C   UNL     1      -7.888   4.174 -32.602  1.00  0.00     0.152 C 
BRANCH   9  10
HETATM   10  N   UNL     1      -6.470   4.229 -32.911  1.00  0.00    -0.272 N 
HETATM   11  N   UNL     1      -6.082   4.793 -34.075  1.00  0.00    -0.176 NA
HETATM   12  C   UNL     1      -4.750   4.647 -34.077  1.00  0.00     0.074 A 
HETATM   13  C   UNL     1      -3.944   5.123 -35.227  1.00  0.00     0.074 C 
HETATM   14  C   UNL     1      -4.296   4.013 -32.898  1.00  0.00     0.083 A 
HETATM   15  C   UNL     1      -5.427   3.758 -32.153  1.00  0.00     0.050 A 
HETATM   16 CL   UNL     1      -2.685   3.646 -32.514  1.00  0.00    -0.080 Cl
HETATM   17  C   UNL     1      -5.596   3.107 -30.831  1.00  0.00     0.072 C 
ENDBRANCH   9  10
ENDBRANCH   8   9
ENDBRANCH   7   8
ENDBRANCH   1   7
BRANCH   3  18
HETATM   18  C   UNL     1      -6.250  -1.061 -33.586  1.00  0.00     0.071 A 
HETATM   19  C   UNL     1      -4.854  -0.956 -33.400  1.00  0.00     0.095 A 
HETATM   20  C   UNL     1      -4.029  -2.009 -33.814  1.00  0.00     0.041 A 
HETATM   21  C   UNL     1      -4.579  -3.138 -34.427  1.00  0.00     0.026 A 
HETATM   22  C   UNL     1      -5.951  -3.209 -34.650  1.00  0.00     0.036 A 
HETATM   23 CL   UNL     1      -6.618  -4.595 -35.423  1.00  0.00    -0.084 Cl
HETATM   24  C   UNL     1      -6.788  -2.171 -34.247  1.00  0.00     0.056 A 
BRANCH  19  25
HETATM   25  O   UNL     1      -4.385   0.235 -32.905  1.00  0.00    -0.354 OA
HETATM   26  C   UNL     1      -3.787   0.222 -31.617  1.00  0.00     0.210 C 
ENDBRANCH  19  25
ENDBRANCH   3  18
TORSDOF 6
ENDMDL
MODEL 6
REMARK VINA RESULT:      -7.4      1.772      2.139
REMARK  6 active torsions:
REMARK  status: ('A' for Active; 'I' for Inactive)
REMARK    1  A    between atoms: N_4  and  C_5 
REMARK    2  A    between atoms: C_5  and  C_6 
REMARK    3  A    between atoms: C_6  and  C_7 
REMARK    4  A    between atoms: C_7  and  N_8 
REMARK       I    between atoms: N_8  and  C_9 
REMARK       I    between atoms: C_9  and  N_10 
REMARK    5  A    between atoms: N_10  and  C_11 
REMARK    6  A    between atoms: C_12  and  O_13 
ROOT
HETATM    1  N   UNL     1      -4.766   1.889 -30.713  1.00  0.00    -0.343 N 
HETATM    2  C   UNL     1      -4.580   3.074 -31.391  1.00  0.00     0.320 C 
HETATM    3  N   UNL     1      -3.396   3.672 -31.006  1.00  0.00    -0.306 N 
HETATM    4  O   UNL     1      -5.406   3.540 -32.166  1.00  0.00    -0.247 OA
HETATM    5  H   UNL     1      -3.920   1.372 -30.503  1.00  0.00     0.164 HD
HETATM    6  H   UNL     1      -3.250   3.610 -30.009  1.00  0.00     0.171 HD
ENDROOT
BRANCH   1   7
HETATM    7  C   UNL     1      -5.966   1.099 -30.895  1.00  0.00     0.126 C 
BRANCH   7   8
HETATM    8  C   UNL     1      -5.720  -0.312 -31.434  1.00  0.00     0.041 C 
BRANCH   8   9
HETATM    9  C   UNL     1      -4.927  -0.365 -32.736  1.00  0.00     0.152 C 
BRANCH   9  10
HETATM   10  N   UNL     1      -4.967  -1.667 -33.379  1.00  0.00    -0.272 N 
HETATM   11  N   UNL     1      -3.973  -2.545 -33.126  1.00  0.00    -0.176 NA
HETATM   12  C   UNL     1      -4.274  -3.604 -33.889  1.00  0.00     0.074 A 
HETATM   13  C   UNL     1      -3.386  -4.791 -33.912  1.00  0.00     0.074 C 
HETATM   14  C   UNL     1      -5.476  -3.401 -34.605  1.00  0.00     0.083 A 
HETATM   15  C   UNL     1      -5.912  -2.142 -34.253  1.00  0.00     0.050 A 
HETATM   16 CL   UNL     1      -6.202  -4.498 -35.677  1.00  0.00    -0.080 Cl
HETATM   17  C   UNL     1      -7.104  -1.369 -34.679  1.00  0.00     0.072 C 
ENDBRANCH   9  10
ENDBRANCH   8   9
ENDBRANCH   7   8
ENDBRANCH   1   7
BRANCH   3  18
HETATM   18  C   UNL     1      -2.876   4.810 -31.667  1.00  0.00     0.071 A 
HETATM   19  C   UNL     1      -2.988   6.112 -31.132  1.00  0.00     0.095 A 
HETATM   20  C   UNL     1      -2.412   7.185 -31.823  1.00  0.00     0.041 A 
HETATM   21  C   UNL     1      -1.758   6.973 -33.039  1.00  0.00     0.026 A 
HETATM   22  C   UNL     1      -1.697   5.693 -33.581  1.00  0.00     0.036 A 
HETATM   23 CL   UNL     1      -0.906   5.443 -35.090  1.00  0.00    -0.084 Cl
HETATM   24  C   UNL     1      -2.265   4.613 -32.910  1.00  0.00     0.056 A 
BRANCH  19  25
HETATM   25  O   UNL     1      -3.750   6.251 -29.999  1.00  0.00    -0.354 OA
HETATM   26  C   UNL     1      -3.955   7.564 -29.500  1.00  0.00     0.210 C 
ENDBRANCH  19  25
ENDBRANCH   3  18
TORSDOF 6
ENDMDL
MODEL 7
REMARK VINA RESULT:      -7.3      3.095      7.923
REMARK  6 active torsions:
REMARK  status: ('A' for Active; 'I' for Inactive)
REMARK    1  A    between atoms: N_4  and  C_5 
REMARK    2  A    between atoms: C_5  and  C_6 
REMARK    3  A    between atoms: C_6  and  C_7 
REMARK    4  A    between atoms: C_7  and  N_8 
REMARK       I    between atoms: N_8  and  C_9 
REMARK       I    between atoms: C_9  and  N_10 
REMARK    5  A    between atoms: N_10  and  C_11 
REMARK    6  A    between atoms: C_12  and  O_13 
ROOT
HETATM    1  N   UNL     1      -9.019   1.313 -33.509  1.00  0.00    -0.343 N 
HETATM    2  C   UNL     1      -7.934   0.655 -34.047  1.00  0.00     0.320 C 
HETATM    3  N   UNL     1      -7.517  -0.359 -33.206  1.00  0.00    -0.306 N 
HETATM    4  O   UNL     1      -7.395   0.994 -35.092  1.00  0.00    -0.247 OA
HETATM    5  H   UNL     1      -9.655   0.734 -32.970  1.00  0.00     0.164 HD
HETATM    6  H   UNL     1      -7.530  -0.074 -32.238  1.00  0.00     0.171 HD
ENDROOT
BRANCH   1   7
HETATM    7  C   UNL     1      -9.608   2.457 -34.172  1.00  0.00     0.126 C 
BRANCH   7   8
HETATM    8  C   UNL     1      -9.355   3.794 -33.473  1.00  0.00     0.041 C 
BRANCH   8   9
HETATM    9  C   UNL     1      -8.024   4.452 -33.825  1.00  0.00     0.152 C 
BRANCH   9  10
HETATM   10  N   UNL     1      -6.926   4.014 -32.982  1.00  0.00    -0.272 N 
HETATM   11  N   UNL     1      -7.211   3.408 -31.809  1.00  0.00    -0.176 NA
HETATM   12  C   UNL     1      -6.010   3.175 -31.264  1.00  0.00     0.074 A 
HETATM   13  C   UNL     1      -5.901   2.537 -29.930  1.00  0.00     0.074 C 
HETATM   14  C   UNL     1      -4.964   3.612 -32.109  1.00  0.00     0.083 A 
HETATM   15  C   UNL     1      -5.581   4.145 -33.221  1.00  0.00     0.050 A 
HETATM   16 CL   UNL     1      -3.302   3.498 -31.789  1.00  0.00    -0.080 Cl
HETATM   17  C   UNL     1      -5.017   4.766 -34.444  1.00  0.00     0.072 C 
ENDBRANCH   9  10
ENDBRANCH   8   9
ENDBRANCH   7   8
ENDBRANCH   1   7
BRANCH   3  18
HETATM   18  C   UNL     1      -6.534  -1.301 -33.590  1.00  0.00     0.071 A 
HETATM   19  C   UNL     1      -5.176  -1.167 -33.226  1.00  0.00     0.095 A 
HETATM   20  C   UNL     1      -4.266  -2.161 -33.608  1.00  0.00     0.041 A 
HETATM   21  C   UNL     1      -4.693  -3.257 -34.363  1.00  0.00     0.026 A 
HETATM   22  C   UNL     1      -6.024  -3.353 -34.758  1.00  0.00     0.036 A 
HETATM   23 CL   UNL     1      -6.537  -4.696 -35.704  1.00  0.00    -0.084 Cl
HETATM   24  C   UNL     1      -6.943  -2.374 -34.389  1.00  0.00     0.056 A 
BRANCH  19  25
HETATM   25  O   UNL     1      -4.818  -0.004 -32.593  1.00  0.00    -0.354 OA
HETATM   26  C   UNL     1      -4.019  -0.110 -31.424  1.00  0.00     0.210 C 
ENDBRANCH  19  25
ENDBRANCH   3  18
TORSDOF 6
ENDMDL
MODEL 8
REMARK VINA RESULT:      -7.3      5.266      7.259
REMARK  6 active torsions:
REMARK  status: ('A' for Active; 'I' for Inactive)
REMARK    1  A    between atoms: N_4  and  C_5 
REMARK    2  A    between atoms: C_5  and  C_6 
REMARK    3  A    between atoms: C_6  and  C_7 
REMARK    4  A    between atoms: C_7  and  N_8 
REMARK       I    between atoms: N_8  and  C_9 
REMARK       I    between atoms: C_9  and  N_10 
REMARK    5  A    between atoms: N_10  and  C_11 
REMARK    6  A    between atoms: C_12  and  O_13 
ROOT
HETATM    1  N   UNL     1      -8.316   0.543 -31.331  1.00  0.00    -0.343 N 
HETATM    2  C   UNL     1      -8.962   0.778 -32.525  1.00  0.00     0.320 C 
HETATM    3  N   UNL     1     -10.078   1.566 -32.326  1.00  0.00    -0.306 N 
HETATM    4  O   UNL     1      -8.608   0.281 -33.587  1.00  0.00    -0.247 OA
HETATM    5  H   UNL     1      -8.353   1.304 -30.660  1.00  0.00     0.164 HD
HETATM    6  H   UNL     1     -10.589   1.293 -31.499  1.00  0.00     0.171 HD
ENDROOT
BRANCH   1   7
HETATM    7  C   UNL     1      -7.148  -0.309 -31.262  1.00  0.00     0.126 C 
BRANCH   7   8
HETATM    8  C   UNL     1      -5.819   0.421 -31.469  1.00  0.00     0.041 C 
BRANCH   8   9
HETATM    9  C   UNL     1      -5.256   0.326 -32.884  1.00  0.00     0.152 C 
BRANCH   9  10
HETATM   10  N   UNL     1      -5.010  -1.039 -33.314  1.00  0.00    -0.272 N 
HETATM   11  N   UNL     1      -5.851  -1.597 -34.212  1.00  0.00    -0.176 NA
HETATM   12  C   UNL     1      -5.386  -2.845 -34.358  1.00  0.00     0.074 A 
HETATM   13  C   UNL     1      -6.073  -3.802 -35.259  1.00  0.00     0.074 C 
HETATM   14  C   UNL     1      -4.233  -3.065 -33.570  1.00  0.00     0.083 A 
HETATM   15  C   UNL     1      -4.003  -1.879 -32.907  1.00  0.00     0.050 A 
HETATM   16 CL   UNL     1      -3.344  -4.506 -33.474  1.00  0.00    -0.080 Cl
HETATM   17  C   UNL     1      -2.951  -1.494 -31.936  1.00  0.00     0.072 C 
ENDBRANCH   9  10
ENDBRANCH   8   9
ENDBRANCH   7   8
ENDBRANCH   1   7
BRANCH   3  18
HETATM   18  C   UNL     1     -10.826   2.101 -33.402  1.00  0.00     0.071 A 
HETATM   19  C   UNL     1     -11.929   1.423 -33.967  1.00  0.00     0.095 A 
HETATM   20  C   UNL     1     -12.646   2.033 -35.003  1.00  0.00     0.041 A 
HETATM   21  C   UNL     1     -12.260   3.285 -35.489  1.00  0.00     0.026 A 
HETATM   22  C   UNL     1     -11.141   3.921 -34.958  1.00  0.00     0.036 A 
HETATM   23 CL   UNL     1     -10.660   5.454 -35.576  1.00  0.00    -0.084 Cl
HETATM   24  C   UNL     1     -10.414   3.330 -33.928  1.00  0.00     0.056 A 
BRANCH  19  25
HETATM   25  O   UNL     1     -12.166   0.148 -33.517  1.00  0.00    -0.354 OA
HETATM   26  C   UNL     1     -13.502  -0.330 -33.571  1.00  0.00     0.210 C 
ENDBRANCH  19  25
ENDBRANCH   3  18
TORSDOF 6
ENDMDL
MODEL 9
REMARK VINA RESULT:      -7.1      4.527      7.870
REMARK  6 active torsions:
REMARK  status: ('A' for Active; 'I' for Inactive)
REMARK    1  A    between atoms: N_4  and  C_5 
REMARK    2  A    between atoms: C_5  and  C_6 
REMARK    3  A    between atoms: C_6  and  C_7 
REMARK    4  A    between atoms: C_7  and  N_8 
REMARK       I    between atoms: N_8  and  C_9 
REMARK       I    between atoms: C_9  and  N_10 
REMARK    5  A    between atoms: N_10  and  C_11 
REMARK    6  A    between atoms: C_12  and  O_13 
ROOT
HETATM    1  N   UNL     1      -4.777   1.521 -31.802  1.00  0.00    -0.343 N 
HETATM    2  C   UNL     1      -5.297   0.267 -32.038  1.00  0.00     0.320 C 
HETATM    3  N   UNL     1      -5.023  -0.135 -33.331  1.00  0.00    -0.306 N 
HETATM    4  O   UNL     1      -5.966  -0.347 -31.217  1.00  0.00    -0.247 OA
HETATM    5  H   UNL     1      -3.907   1.728 -32.281  1.00  0.00     0.164 HD
HETATM    6  H   UNL     1      -5.146   0.617 -33.993  1.00  0.00     0.171 HD
ENDROOT
BRANCH   1   7
HETATM    7  C   UNL     1      -4.981   2.193 -30.536  1.00  0.00     0.126 C 
BRANCH   7   8
HETATM    8  C   UNL     1      -6.030   3.306 -30.570  1.00  0.00     0.041 C 
BRANCH   8   9
HETATM    9  C   UNL     1      -7.326   2.980 -29.834  1.00  0.00     0.152 C 
BRANCH   9  10
HETATM   10  N   UNL     1      -8.480   2.897 -30.712  1.00  0.00    -0.272 N 
HETATM   11  N   UNL     1      -8.655   1.779 -31.448  1.00  0.00    -0.176 NA
HETATM   12  C   UNL     1      -9.757   2.033 -32.167  1.00  0.00     0.074 A 
HETATM   13  C   UNL     1     -10.267   1.036 -33.139  1.00  0.00     0.074 C 
HETATM   14  C   UNL     1     -10.292   3.306 -31.862  1.00  0.00     0.083 A 
HETATM   15  C   UNL     1      -9.453   3.846 -30.911  1.00  0.00     0.050 A 
HETATM   16 CL   UNL     1     -11.678   4.002 -32.550  1.00  0.00    -0.080 Cl
HETATM   17  C   UNL     1      -9.485   5.153 -30.212  1.00  0.00     0.072 C 
ENDBRANCH   9  10
ENDBRANCH   8   9
ENDBRANCH   7   8
ENDBRANCH   1   7
BRANCH   3  18
HETATM   18  C   UNL     1      -5.290  -1.448 -33.786  1.00  0.00     0.071 A 
HETATM   19  C   UNL     1      -6.532  -1.814 -34.351  1.00  0.00     0.095 A 
HETATM   20  C   UNL     1      -6.710  -3.122 -34.817  1.00  0.00     0.041 A 
HETATM   21  C   UNL     1      -5.681  -4.061 -34.699  1.00  0.00     0.026 A 
HETATM   22  C   UNL     1      -4.480  -3.702 -34.094  1.00  0.00     0.036 A 
HETATM   23 CL   UNL     1      -3.224  -4.869 -33.935  1.00  0.00    -0.084 Cl
HETATM   24  C   UNL     1      -4.284  -2.406 -33.624  1.00  0.00     0.056 A 
BRANCH  19  25
HETATM   25  O   UNL     1      -7.527  -0.870 -34.318  1.00  0.00    -0.354 OA
HETATM   26  C   UNL     1      -7.615   0.033 -35.410  1.00  0.00     0.210 C 
ENDBRANCH  19  25
ENDBRANCH   3  18
TORSDOF 6
ENDMDL
MODEL 10
REMARK VINA RESULT:      -7.1      4.108      7.396
REMARK  6 active torsions:
REMARK  status: ('A' for Active; 'I' for Inactive)
REMARK    1  A    between atoms: N_4  and  C_5 
REMARK    2  A    between atoms: C_5  and  C_6 
REMARK    3  A    between atoms: C_6  and  C_7 
REMARK    4  A    between atoms: C_7  and  N_8 
REMARK       I    between atoms: N_8  and  C_9 
REMARK       I    between atoms: C_9  and  N_10 
REMARK    5  A    between atoms: N_10  and  C_11 
REMARK    6  A    between atoms: C_12  and  O_13 
ROOT
HETATM    1  N   UNL     1      -8.598   0.858 -34.784  1.00  0.00    -0.343 N 
HETATM    2  C   UNL     1      -7.876  -0.087 -34.089  1.00  0.00     0.320 C 
HETATM    3  N   UNL     1      -6.681  -0.351 -34.729  1.00  0.00    -0.306 N 
HETATM    4  O   UNL     1      -8.298  -0.648 -33.086  1.00  0.00    -0.247 OA
HETATM    5  H   UNL     1      -8.045   1.567 -35.255  1.00  0.00     0.164 HD
HETATM    6  H   UNL     1      -6.795  -0.411 -35.730  1.00  0.00     0.171 HD
ENDROOT
BRANCH   1   7
HETATM    7  C   UNL     1      -9.918   1.265 -34.351  1.00  0.00     0.126 C 
BRANCH   7   8
HETATM    8  C   UNL     1      -9.930   2.153 -33.105  1.00  0.00     0.041 C 
BRANCH   8   9
HETATM    9  C   UNL     1      -8.908   3.285 -33.122  1.00  0.00     0.152 C 
BRANCH   9  10
HETATM   10  N   UNL     1      -7.651   2.933 -32.484  1.00  0.00    -0.272 N 
HETATM   11  N   UNL     1      -7.682   2.184 -31.360  1.00  0.00    -0.176 NA
HETATM   12  C   UNL     1      -6.394   2.078 -31.007  1.00  0.00     0.074 A 
HETATM   13  C   UNL     1      -6.010   1.338 -29.780  1.00  0.00     0.074 C 
HETATM   14  C   UNL     1      -5.548   2.738 -31.926  1.00  0.00     0.083 A 
HETATM   15  C   UNL     1      -6.383   3.279 -32.880  1.00  0.00     0.050 A 
HETATM   16 CL   UNL     1      -3.857   2.836 -31.840  1.00  0.00    -0.080 Cl
HETATM   17  C   UNL     1      -6.089   4.088 -34.088  1.00  0.00     0.072 C 
ENDBRANCH   9  10
ENDBRANCH   8   9
ENDBRANCH   7   8
ENDBRANCH   1   7
BRANCH   3  18
HETATM   18  C   UNL     1      -5.673  -1.153 -34.143  1.00  0.00     0.071 A 
HETATM   19  C   UNL     1      -5.505  -2.516 -34.472  1.00  0.00     0.095 A 
HETATM   20  C   UNL     1      -4.460  -3.237 -33.882  1.00  0.00     0.041 A 
HETATM   21  C   UNL     1      -3.609  -2.621 -32.960  1.00  0.00     0.026 A 
HETATM   22  C   UNL     1      -3.815  -1.291 -32.606  1.00  0.00     0.036 A 
HETATM   23 CL   UNL     1      -2.775  -0.545 -31.454  1.00  0.00    -0.084 Cl
HETATM   24  C   UNL     1      -4.850  -0.558 -33.180  1.00  0.00     0.056 A 
BRANCH  19  25
HETATM   25  O   UNL     1      -6.455  -3.075 -35.290  1.00  0.00    -0.354 OA
HETATM   26  C   UNL     1      -6.588  -4.489 -35.274  1.00  0.00     0.210 C 
ENDBRANCH  19  25
ENDBRANCH   3  18
TORSDOF 6
ENDMDL
