MODEL 1
REMARK VINA RESULT:      -9.6      0.000      0.000
REMARK  5 active torsions:
REMARK  status: ('A' for Active; 'I' for Inactive)
REMARK    1  A    between atoms: C_8  and  N_9 
REMARK    2  A    between atoms: C_12  and  N_13 
REMARK    3  A    between atoms: N_13  and  C_15 
REMARK    4  A    between atoms: C_15  and  C_16 
REMARK    5  A    between atoms: C_17  and  C_18 
ROOT
HETATM    1  N   UNL     1      -7.205   1.827 -31.206  1.00  0.00    -0.067 N 
HETATM    2  H   UNL     1      -6.905   2.366 -32.028  1.00  0.00     0.280 HD
HETATM    3  C   UNL     1      -8.458   2.502 -30.689  1.00  0.00     0.270 C 
ENDROOT
BRANCH   1   4
HETATM    4  C   UNL     1      -6.045   1.747 -30.193  1.00  0.00     0.190 C 
HETATM    5  C   UNL     1      -4.833   1.021 -30.800  1.00  0.00     0.048 C 
HETATM    6  C   UNL     1      -4.024   1.894 -31.761  1.00  0.00     0.099 C 
HETATM    7  N   UNL     1      -3.656   3.143 -31.083  1.00  0.00    -0.268 NA
HETATM    8  C   UNL     1      -4.794   3.941 -30.619  1.00  0.00     0.099 C 
HETATM    9  C   UNL     1      -5.605   3.108 -29.630  1.00  0.00     0.048 C 
BRANCH   7  10
HETATM   10  C   UNL     1      -2.637   3.868 -31.721  1.00  0.00     0.109 A 
HETATM   11  N   UNL     1      -1.627   4.374 -30.991  1.00  0.00    -0.224 NA
HETATM   12  C   UNL     1      -0.697   5.135 -31.621  1.00  0.00     0.102 A 
HETATM   13  N   UNL     1      -0.741   5.412 -32.931  1.00  0.00    -0.348 N 
HETATM   14  C   UNL     1       0.400   5.731 -30.798  1.00  0.00     0.091 C 
HETATM   15  C   UNL     1      -1.733   4.919 -33.689  1.00  0.00     0.009 A 
HETATM   16  H   UNL     1      -0.023   6.007 -33.341  1.00  0.00     0.167 HD
HETATM   17  C   UNL     1      -1.772   5.255 -35.145  1.00  0.00     0.068 C 
HETATM   18  C   UNL     1      -2.714   4.130 -33.085  1.00  0.00     0.069 A 
ENDBRANCH   7  10
ENDBRANCH   1   4
BRANCH   1  19
HETATM   19  C   UNL     1      -7.571   0.430 -31.739  1.00  0.00     0.277 C 
BRANCH  19  20
HETATM   20  C   UNL     1      -7.997   0.416 -33.162  1.00  0.00     0.016 A 
HETATM   21  C   UNL     1      -7.480  -0.369 -34.239  1.00  0.00     0.096 A 
HETATM   22  N   UNL     1      -8.053  -0.022 -35.395  1.00  0.00    -0.174 NA
HETATM   23  N   UNL     1      -9.003   0.861 -35.068  1.00  0.00    -0.288 N 
HETATM   24  H   UNL     1      -9.611   1.215 -35.805  1.00  0.00     0.188 HD
HETATM   25  C   UNL     1      -8.988   1.184 -33.743  1.00  0.00     0.120 A 
BRANCH  21  26
HETATM   26  C   UNL     1      -6.429  -1.380 -34.214  1.00  0.00    -0.005 A 
HETATM   27  C   UNL     1      -5.145  -1.073 -33.737  1.00  0.00     0.017 A 
HETATM   28  C   UNL     1      -4.150  -2.054 -33.720  1.00  0.00     0.043 A 
HETATM   29  C   UNL     1      -4.441  -3.338 -34.168  1.00  0.00     0.116 A 
HETATM   30  F   UNL     1      -3.481  -4.271 -34.162  1.00  0.00    -0.206 F 
HETATM   31  C   UNL     1      -5.714  -3.667 -34.618  1.00  0.00     0.043 A 
HETATM   32  C   UNL     1      -6.709  -2.688 -34.638  1.00  0.00     0.017 A 
ENDBRANCH  21  26
ENDBRANCH  19  20
ENDBRANCH   1  19
TORSDOF 5
ENDMDL
MODEL 2
REMARK VINA RESULT:      -9.1      3.083      7.242
REMARK  5 active torsions:
REMARK  status: ('A' for Active; 'I' for Inactive)
REMARK    1  A    between atoms: C_8  and  N_9 
REMARK    2  A    between atoms: C_12  and  N_13 
REMARK    3  A    between atoms: N_13  and  C_15 
REMARK    4  A    between atoms: C_15  and  C_16 
REMARK    5  A    between atoms: C_17  and  C_18 
ROOT
HETATM    1  N   UNL     1      -6.541   3.776 -32.490  1.00  0.00    -0.067 N 
HETATM    2  H   UNL     1      -7.241   3.606 -31.756  1.00  0.00     0.280 HD
HETATM    3  C   UNL     1      -5.807   5.040 -32.091  1.00  0.00     0.270 C 
ENDROOT
BRANCH   1   4
HETATM    4  C   UNL     1      -7.242   3.838 -33.862  1.00  0.00     0.190 C 
HETATM    5  C   UNL     1      -7.739   2.447 -34.290  1.00  0.00     0.048 C 
HETATM    6  C   UNL     1      -9.022   2.018 -33.578  1.00  0.00     0.099 C 
HETATM    7  N   UNL     1     -10.040   3.061 -33.750  1.00  0.00    -0.268 NA
HETATM    8  C   UNL     1      -9.663   4.374 -33.218  1.00  0.00     0.099 C 
HETATM    9  C   UNL     1      -8.400   4.847 -33.934  1.00  0.00     0.048 C 
BRANCH   7  10
HETATM   10  C   UNL     1     -11.348   2.648 -33.450  1.00  0.00     0.109 A 
HETATM   11  N   UNL     1     -12.166   3.476 -32.776  1.00  0.00    -0.224 NA
HETATM   12  C   UNL     1     -13.398   3.024 -32.432  1.00  0.00     0.102 A 
HETATM   13  N   UNL     1     -13.834   1.791 -32.725  1.00  0.00    -0.348 N 
HETATM   14  C   UNL     1     -14.288   3.932 -31.646  1.00  0.00     0.091 C 
HETATM   15  C   UNL     1     -13.045   0.941 -33.400  1.00  0.00     0.009 A 
HETATM   16  H   UNL     1     -14.763   1.504 -32.421  1.00  0.00     0.167 HD
HETATM   17  C   UNL     1     -13.546  -0.435 -33.702  1.00  0.00     0.068 C 
HETATM   18  C   UNL     1     -11.767   1.363 -33.776  1.00  0.00     0.069 A 
ENDBRANCH   7  10
ENDBRANCH   1   4
BRANCH   1  19
HETATM   19  C   UNL     1      -5.568   2.586 -32.418  1.00  0.00     0.277 C 
BRANCH  19  20
HETATM   20  C   UNL     1      -5.841   1.645 -31.302  1.00  0.00     0.016 A 
HETATM   21  C   UNL     1      -5.958   0.222 -31.345  1.00  0.00     0.096 A 
HETATM   22  N   UNL     1      -6.314  -0.261 -30.150  1.00  0.00    -0.174 NA
HETATM   23  N   UNL     1      -6.299   0.792 -29.325  1.00  0.00    -0.288 N 
HETATM   24  H   UNL     1      -6.485   0.637 -28.336  1.00  0.00     0.188 HD
HETATM   25  C   UNL     1      -6.055   1.967 -29.974  1.00  0.00     0.120 A 
BRANCH  21  26
HETATM   26  C   UNL     1      -5.807  -0.677 -32.484  1.00  0.00    -0.005 A 
HETATM   27  C   UNL     1      -4.572  -1.279 -32.767  1.00  0.00     0.017 A 
HETATM   28  C   UNL     1      -4.444  -2.137 -33.862  1.00  0.00     0.043 A 
HETATM   29  C   UNL     1      -5.549  -2.400 -34.663  1.00  0.00     0.116 A 
HETATM   30  F   UNL     1      -5.420  -3.212 -35.719  1.00  0.00    -0.206 F 
HETATM   31  C   UNL     1      -6.786  -1.833 -34.383  1.00  0.00     0.043 A 
HETATM   32  C   UNL     1      -6.917  -0.973 -33.290  1.00  0.00     0.017 A 
ENDBRANCH  21  26
ENDBRANCH  19  20
ENDBRANCH   1  19
TORSDOF 5
ENDMDL
MODEL 3
REMARK VINA RESULT:      -9.1      1.379      2.174
REMARK  5 active torsions:
REMARK  status: ('A' for Active; 'I' for Inactive)
REMARK    1  A    between atoms: C_8  and  N_9 
REMARK    2  A    between atoms: C_12  and  N_13 
REMARK    3  A    between atoms: N_13  and  C_15 
REMARK    4  A    between atoms: C_15  and  C_16 
REMARK    5  A    between atoms: C_17  and  C_18 
ROOT
HETATM    1  N   UNL     1      -6.129   1.454 -31.488  1.00  0.00    -0.067 N 
HETATM    2  H   UNL     1      -6.718   2.285 -31.357  1.00  0.00     0.280 HD
HETATM    3  C   UNL     1      -5.455   1.195 -30.156  1.00  0.00     0.270 C 
ENDROOT
BRANCH   1   4
HETATM    4  C   UNL     1      -5.164   1.690 -32.668  1.00  0.00     0.190 C 
HETATM    5  C   UNL     1      -5.298   3.123 -33.210  1.00  0.00     0.048 C 
HETATM    6  C   UNL     1      -4.597   4.167 -32.339  1.00  0.00     0.099 C 
HETATM    7  N   UNL     1      -3.200   3.765 -32.137  1.00  0.00    -0.268 NA
HETATM    8  C   UNL     1      -3.029   2.464 -31.485  1.00  0.00     0.099 C 
HETATM    9  C   UNL     1      -3.690   1.393 -32.348  1.00  0.00     0.048 C 
BRANCH   7  10
HETATM   10  C   UNL     1      -2.368   4.789 -31.657  1.00  0.00     0.109 A 
HETATM   11  N   UNL     1      -1.260   4.472 -30.964  1.00  0.00    -0.224 NA
HETATM   12  C   UNL     1      -0.514   5.481 -30.446  1.00  0.00     0.102 A 
HETATM   13  N   UNL     1      -0.834   6.774 -30.587  1.00  0.00    -0.348 N 
HETATM   14  C   UNL     1       0.692   5.123 -29.639  1.00  0.00     0.091 C 
HETATM   15  C   UNL     1      -1.930   7.125 -31.277  1.00  0.00     0.009 A 
HETATM   16  H   UNL     1      -0.243   7.485 -30.157  1.00  0.00     0.167 HD
HETATM   17  C   UNL     1      -2.276   8.574 -31.407  1.00  0.00     0.068 C 
HETATM   18  C   UNL     1      -2.729   6.121 -31.828  1.00  0.00     0.069 A 
ENDBRANCH   7  10
ENDBRANCH   1   4
BRANCH   1  19
HETATM   19  C   UNL     1      -7.101   0.300 -31.791  1.00  0.00     0.277 C 
BRANCH  19  20
HETATM   20  C   UNL     1      -7.656   0.320 -33.169  1.00  0.00     0.016 A 
HETATM   21  C   UNL     1      -7.370  -0.559 -34.258  1.00  0.00     0.096 A 
HETATM   22  N   UNL     1      -7.990  -0.154 -35.371  1.00  0.00    -0.174 NA
HETATM   23  N   UNL     1      -8.758   0.874 -34.993  1.00  0.00    -0.288 N 
HETATM   24  H   UNL     1      -9.371   1.303 -35.684  1.00  0.00     0.188 HD
HETATM   25  C   UNL     1      -8.569   1.221 -33.687  1.00  0.00     0.120 A 
BRANCH  21  26
HETATM   26  C   UNL     1      -6.488  -1.721 -34.290  1.00  0.00    -0.005 A 
HETATM   27  C   UNL     1      -6.964  -2.974 -34.705  1.00  0.00     0.017 A 
HETATM   28  C   UNL     1      -6.106  -4.077 -34.730  1.00  0.00     0.043 A 
HETATM   29  C   UNL     1      -4.776  -3.924 -34.354  1.00  0.00     0.116 A 
HETATM   30  F   UNL     1      -3.961  -4.985 -34.367  1.00  0.00    -0.206 F 
HETATM   31  C   UNL     1      -4.282  -2.685 -33.966  1.00  0.00     0.043 A 
HETATM   32  C   UNL     1      -5.137  -1.581 -33.937  1.00  0.00     0.017 A 
ENDBRANCH  21  26
ENDBRANCH  19  20
ENDBRANCH   1  19
TORSDOF 5
ENDMDL
MODEL 4
REMARK VINA RESULT:      -8.8      3.409      7.061
REMARK  5 active torsions:
REMARK  status: ('A' for Active; 'I' for Inactive)
REMARK    1  A    between atoms: C_8  and  N_9 
REMARK    2  A    between atoms: C_12  and  N_13 
REMARK    3  A    between atoms: N_13  and  C_15 
REMARK    4  A    between atoms: C_15  and  C_16 
REMARK    5  A    between atoms: C_17  and  C_18 
ROOT
HETATM    1  N   UNL     1      -6.496   0.809 -32.122  1.00  0.00    -0.067 N 
HETATM    2  H   UNL     1      -7.200   0.286 -32.657  1.00  0.00     0.280 HD
HETATM    3  C   UNL     1      -6.252   0.018 -30.853  1.00  0.00     0.270 C 
ENDROOT
BRANCH   1   4
HETATM    4  C   UNL     1      -6.988   2.253 -31.902  1.00  0.00     0.190 C 
HETATM    5  C   UNL     1      -7.151   2.991 -33.242  1.00  0.00     0.048 C 
HETATM    6  C   UNL     1      -8.422   2.600 -33.996  1.00  0.00     0.099 C 
HETATM    7  N   UNL     1      -9.580   2.773 -33.111  1.00  0.00    -0.268 NA
HETATM    8  C   UNL     1      -9.533   1.969 -31.886  1.00  0.00     0.099 C 
HETATM    9  C   UNL     1      -8.290   2.360 -31.091  1.00  0.00     0.048 C 
BRANCH   7  10
HETATM   10  C   UNL     1     -10.818   2.783 -33.773  1.00  0.00     0.109 A 
HETATM   11  N   UNL     1     -11.223   3.899 -34.404  1.00  0.00    -0.224 NA
HETATM   12  C   UNL     1     -12.455   3.906 -34.971  1.00  0.00     0.102 A 
HETATM   13  N   UNL     1     -13.289   2.859 -34.924  1.00  0.00    -0.348 N 
HETATM   14  C   UNL     1     -12.919   5.164 -35.634  1.00  0.00     0.091 C 
HETATM   15  C   UNL     1     -12.915   1.728 -34.306  1.00  0.00     0.009 A 
HETATM   16  H   UNL     1     -14.211   2.934 -35.352  1.00  0.00     0.167 HD
HETATM   17  C   UNL     1     -13.868   0.578 -34.251  1.00  0.00     0.068 C 
HETATM   18  C   UNL     1     -11.654   1.673 -33.708  1.00  0.00     0.069 A 
ENDBRANCH   7  10
ENDBRANCH   1   4
BRANCH   1  19
HETATM   19  C   UNL     1      -5.220   0.785 -32.983  1.00  0.00     0.277 C 
BRANCH  19  20
HETATM   20  C   UNL     1      -4.137  -0.072 -32.436  1.00  0.00     0.016 A 
HETATM   21  C   UNL     1      -3.909  -1.466 -32.652  1.00  0.00     0.096 A 
HETATM   22  N   UNL     1      -2.891  -1.902 -31.903  1.00  0.00    -0.174 NA
HETATM   23  N   UNL     1      -2.387  -0.808 -31.322  1.00  0.00    -0.288 N 
HETATM   24  H   UNL     1      -1.553  -0.905 -30.745  1.00  0.00     0.188 HD
HETATM   25  C   UNL     1      -3.119   0.313 -31.582  1.00  0.00     0.120 A 
BRANCH  21  26
HETATM   26  C   UNL     1      -4.658  -2.399 -33.487  1.00  0.00    -0.005 A 
HETATM   27  C   UNL     1      -4.156  -3.679 -33.766  1.00  0.00     0.017 A 
HETATM   28  C   UNL     1      -4.886  -4.559 -34.569  1.00  0.00     0.043 A 
HETATM   29  C   UNL     1      -6.118  -4.166 -35.079  1.00  0.00     0.116 A 
HETATM   30  F   UNL     1      -6.809  -5.007 -35.857  1.00  0.00    -0.206 F 
HETATM   31  C   UNL     1      -6.643  -2.912 -34.790  1.00  0.00     0.043 A 
HETATM   32  C   UNL     1      -5.915  -2.029 -33.991  1.00  0.00     0.017 A 
ENDBRANCH  21  26
ENDBRANCH  19  20
ENDBRANCH   1  19
TORSDOF 5
ENDMDL
MODEL 5
REMARK VINA RESULT:      -8.5      2.831      7.089
REMARK  5 active torsions:
REMARK  status: ('A' for Active; 'I' for Inactive)
REMARK    1  A    between atoms: C_8  and  N_9 
REMARK    2  A    between atoms: C_12  and  N_13 
REMARK    3  A    between atoms: N_13  and  C_15 
REMARK    4  A    between atoms: C_15  and  C_16 
REMARK    5  A    between atoms: C_17  and  C_18 
ROOT
HETATM    1  N   UNL     1      -8.475   2.883 -32.414  1.00  0.00    -0.067 N 
HETATM    2  H   UNL     1      -7.921   2.273 -31.801  1.00  0.00     0.280 HD
HETATM    3  C   UNL     1      -9.923   2.686 -32.014  1.00  0.00     0.270 C 
ENDROOT
BRANCH   1   4
HETATM    4  C   UNL     1      -8.159   2.555 -33.887  1.00  0.00     0.190 C 
HETATM    5  C   UNL     1      -6.641   2.552 -34.137  1.00  0.00     0.048 C 
HETATM    6  C   UNL     1      -5.948   1.284 -33.634  1.00  0.00     0.099 C 
HETATM    7  N   UNL     1      -6.619   0.110 -34.206  1.00  0.00    -0.268 NA
HETATM    8  C   UNL     1      -8.040  -0.003 -33.866  1.00  0.00     0.099 C 
HETATM    9  C   UNL     1      -8.768   1.234 -34.384  1.00  0.00     0.048 C 
BRANCH   7  10
HETATM   10  C   UNL     1      -5.884  -1.081 -34.106  1.00  0.00     0.109 A 
HETATM   11  N   UNL     1      -6.241  -2.144 -34.849  1.00  0.00    -0.224 NA
HETATM   12  C   UNL     1      -5.561  -3.306 -34.678  1.00  0.00     0.102 A 
HETATM   13  N   UNL     1      -4.557  -3.445 -33.801  1.00  0.00    -0.348 N 
HETATM   14  C   UNL     1      -5.989  -4.497 -35.474  1.00  0.00     0.091 C 
HETATM   15  C   UNL     1      -4.173  -2.404 -33.048  1.00  0.00     0.009 A 
HETATM   16  H   UNL     1      -4.099  -4.350 -33.705  1.00  0.00     0.167 HD
HETATM   17  C   UNL     1      -3.062  -2.586 -32.064  1.00  0.00     0.068 C 
HETATM   18  C   UNL     1      -4.844  -1.187 -33.189  1.00  0.00     0.069 A 
ENDBRANCH   7  10
ENDBRANCH   1   4
BRANCH   1  19
HETATM   19  C   UNL     1      -8.048   4.320 -32.063  1.00  0.00     0.277 C 
BRANCH  19  20
HETATM   20  C   UNL     1      -7.241   4.427 -30.821  1.00  0.00     0.016 A 
HETATM   21  C   UNL     1      -5.822   4.525 -30.687  1.00  0.00     0.096 A 
HETATM   22  N   UNL     1      -5.464   4.497 -29.400  1.00  0.00    -0.174 NA
HETATM   23  N   UNL     1      -6.612   4.514 -28.714  1.00  0.00    -0.288 N 
HETATM   24  H   UNL     1      -6.570   4.558 -27.697  1.00  0.00     0.188 HD
HETATM   25  C   UNL     1      -7.709   4.438 -29.520  1.00  0.00     0.120 A 
BRANCH  21  26
HETATM   26  C   UNL     1      -4.804   4.582 -31.731  1.00  0.00    -0.005 A 
HETATM   27  C   UNL     1      -3.766   3.638 -31.777  1.00  0.00     0.017 A 
HETATM   28  C   UNL     1      -2.800   3.707 -32.784  1.00  0.00     0.043 A 
HETATM   29  C   UNL     1      -2.878   4.708 -33.746  1.00  0.00     0.116 A 
HETATM   30  F   UNL     1      -1.943   4.778 -34.701  1.00  0.00    -0.206 F 
HETATM   31  C   UNL     1      -3.913   5.634 -33.732  1.00  0.00     0.043 A 
HETATM   32  C   UNL     1      -4.879   5.570 -32.725  1.00  0.00     0.017 A 
ENDBRANCH  21  26
ENDBRANCH  19  20
ENDBRANCH   1  19
TORSDOF 5
ENDMDL
MODEL 6
REMARK VINA RESULT:      -8.5      2.410      3.900
REMARK  5 active torsions:
REMARK  status: ('A' for Active; 'I' for Inactive)
REMARK    1  A    between atoms: C_8  and  N_9 
REMARK    2  A    between atoms: C_12  and  N_13 
REMARK    3  A    between atoms: N_13  and  C_15 
REMARK    4  A    between atoms: C_15  and  C_16 
REMARK    5  A    between atoms: C_17  and  C_18 
ROOT
HETATM    1  N   UNL     1      -4.401   3.269 -32.347  1.00  0.00    -0.067 N 
HETATM    2  H   UNL     1      -4.822   3.674 -31.501  1.00  0.00     0.280 HD
HETATM    3  C   UNL     1      -3.475   2.167 -31.874  1.00  0.00     0.270 C 
ENDROOT
BRANCH   1   4
HETATM    4  C   UNL     1      -3.719   4.382 -33.166  1.00  0.00     0.190 C 
HETATM    5  C   UNL     1      -4.312   5.760 -32.823  1.00  0.00     0.048 C 
HETATM    6  C   UNL     1      -3.800   6.326 -31.499  1.00  0.00     0.099 C 
HETATM    7  N   UNL     1      -2.331   6.328 -31.512  1.00  0.00    -0.268 NA
HETATM    8  C   UNL     1      -1.723   5.007 -31.687  1.00  0.00     0.099 C 
HETATM    9  C   UNL     1      -2.189   4.426 -33.020  1.00  0.00     0.048 C 
BRANCH   7  10
HETATM   10  C   UNL     1      -1.745   7.129 -30.518  1.00  0.00     0.109 A 
HETATM   11  N   UNL     1      -0.784   6.612 -29.732  1.00  0.00    -0.224 NA
HETATM   12  C   UNL     1      -0.288   7.383 -28.732  1.00  0.00     0.102 A 
HETATM   13  N   UNL     1      -0.716   8.628 -28.486  1.00  0.00    -0.348 N 
HETATM   14  C   UNL     1       0.748   6.789 -27.833  1.00  0.00     0.091 C 
HETATM   15  C   UNL     1      -1.671   9.176 -29.254  1.00  0.00     0.009 A 
HETATM   16  H   UNL     1      -0.318   9.149 -27.706  1.00  0.00     0.167 HD
HETATM   17  C   UNL     1      -2.144  10.561 -28.951  1.00  0.00     0.068 C 
HETATM   18  C   UNL     1      -2.211   8.420 -30.297  1.00  0.00     0.069 A 
ENDBRANCH   7  10
ENDBRANCH   1   4
BRANCH   1  19
HETATM   19  C   UNL     1      -5.569   2.642 -33.130  1.00  0.00     0.277 C 
BRANCH  19  20
HETATM   20  C   UNL     1      -6.592   1.988 -32.273  1.00  0.00     0.016 A 
HETATM   21  C   UNL     1      -6.985   0.615 -32.245  1.00  0.00     0.096 A 
HETATM   22  N   UNL     1      -8.013   0.433 -31.411  1.00  0.00    -0.174 NA
HETATM   23  N   UNL     1      -8.199   1.616 -30.816  1.00  0.00    -0.288 N 
HETATM   24  H   UNL     1      -8.907   1.688 -30.087  1.00  0.00     0.188 HD
HETATM   25  C   UNL     1      -7.394   2.594 -31.323  1.00  0.00     0.120 A 
BRANCH  21  26
HETATM   26  C   UNL     1      -6.462  -0.504 -33.022  1.00  0.00    -0.005 A 
HETATM   27  C   UNL     1      -5.145  -0.954 -32.840  1.00  0.00     0.017 A 
HETATM   28  C   UNL     1      -4.661  -2.027 -33.593  1.00  0.00     0.043 A 
HETATM   29  C   UNL     1      -5.494  -2.655 -34.513  1.00  0.00     0.116 A 
HETATM   30  F   UNL     1      -5.022  -3.674 -35.241  1.00  0.00    -0.206 F 
HETATM   31  C   UNL     1      -6.808  -2.240 -34.686  1.00  0.00     0.043 A 
HETATM   32  C   UNL     1      -7.294  -1.166 -33.938  1.00  0.00     0.017 A 
ENDBRANCH  21  26
ENDBRANCH  19  20
ENDBRANCH   1  19
TORSDOF 5
ENDMDL
MODEL 7
REMARK VINA RESULT:      -8.4      2.430      4.098
REMARK  5 active torsions:
REMARK  status: ('A' for Active; 'I' for Inactive)
REMARK    1  A    between atoms: C_8  and  N_9 
REMARK    2  A    between atoms: C_12  and  N_13 
REMARK    3  A    between atoms: N_13  and  C_15 
REMARK    4  A    between atoms: C_15  and  C_16 
REMARK    5  A    between atoms: C_17  and  C_18 
ROOT
HETATM    1  N   UNL     1      -4.410   3.221 -32.366  1.00  0.00    -0.067 N 
HETATM    2  H   UNL     1      -4.803   3.607 -31.499  1.00  0.00     0.280 HD
HETATM    3  C   UNL     1      -3.501   2.082 -31.949  1.00  0.00     0.270 C 
ENDROOT
BRANCH   1   4
HETATM    4  C   UNL     1      -3.717   4.345 -33.161  1.00  0.00     0.190 C 
HETATM    5  C   UNL     1      -4.353   5.711 -32.851  1.00  0.00     0.048 C 
HETATM    6  C   UNL     1      -3.909   6.293 -31.509  1.00  0.00     0.099 C 
HETATM    7  N   UNL     1      -2.442   6.327 -31.459  1.00  0.00    -0.268 NA
HETATM    8  C   UNL     1      -1.799   5.018 -31.602  1.00  0.00     0.099 C 
HETATM    9  C   UNL     1      -2.196   4.422 -32.951  1.00  0.00     0.048 C 
BRANCH   7  10
HETATM   10  C   UNL     1      -1.916   7.144 -30.446  1.00  0.00     0.109 A 
HETATM   11  N   UNL     1      -2.377   8.399 -30.301  1.00  0.00    -0.224 NA
HETATM   12  C   UNL     1      -1.798   9.192 -29.364  1.00  0.00     0.102 A 
HETATM   13  N   UNL     1      -0.787   8.786 -28.584  1.00  0.00    -0.348 N 
HETATM   14  C   UNL     1      -2.284  10.600 -29.235  1.00  0.00     0.091 C 
HETATM   15  C   UNL     1      -0.307   7.539 -28.700  1.00  0.00     0.009 A 
HETATM   16  H   UNL     1      -0.382   9.437 -27.912  1.00  0.00     0.167 HD
HETATM   17  C   UNL     1       0.833   7.113 -27.831  1.00  0.00     0.068 C 
HETATM   18  C   UNL     1      -0.871   6.686 -29.651  1.00  0.00     0.069 A 
ENDBRANCH   7  10
ENDBRANCH   1   4
BRANCH   1  19
HETATM   19  C   UNL     1      -5.607   2.648 -33.146  1.00  0.00     0.277 C 
BRANCH  19  20
HETATM   20  C   UNL     1      -6.634   2.000 -32.290  1.00  0.00     0.016 A 
HETATM   21  C   UNL     1      -7.024   0.626 -32.252  1.00  0.00     0.096 A 
HETATM   22  N   UNL     1      -8.057   0.449 -31.423  1.00  0.00    -0.174 NA
HETATM   23  N   UNL     1      -8.249   1.637 -30.840  1.00  0.00    -0.288 N 
HETATM   24  H   UNL     1      -8.962   1.714 -30.116  1.00  0.00     0.188 HD
HETATM   25  C   UNL     1      -7.443   2.612 -31.350  1.00  0.00     0.120 A 
BRANCH  21  26
HETATM   26  C   UNL     1      -6.494  -0.499 -33.015  1.00  0.00    -0.005 A 
HETATM   27  C   UNL     1      -7.255  -1.106 -34.025  1.00  0.00     0.017 A 
HETATM   28  C   UNL     1      -6.732  -2.183 -34.746  1.00  0.00     0.043 A 
HETATM   29  C   UNL     1      -5.449  -2.641 -34.466  1.00  0.00     0.116 A 
HETATM   30  F   UNL     1      -4.956  -3.680 -35.151  1.00  0.00    -0.206 F 
HETATM   31  C   UNL     1      -4.671  -2.034 -33.489  1.00  0.00     0.043 A 
HETATM   32  C   UNL     1      -5.192  -0.960 -32.764  1.00  0.00     0.017 A 
ENDBRANCH  21  26
ENDBRANCH  19  20
ENDBRANCH   1  19
TORSDOF 5
ENDMDL
MODEL 8
REMARK VINA RESULT:      -8.1      3.303      8.301
REMARK  5 active torsions:
REMARK  status: ('A' for Active; 'I' for Inactive)
REMARK    1  A    between atoms: C_8  and  N_9 
REMARK    2  A    between atoms: C_12  and  N_13 
REMARK    3  A    between atoms: N_13  and  C_15 
REMARK    4  A    between atoms: C_15  and  C_16 
REMARK    5  A    between atoms: C_17  and  C_18 
ROOT
HETATM    1  N   UNL     1      -6.382   1.656 -32.580  1.00  0.00    -0.067 N 
HETATM    2  H   UNL     1      -6.862   2.426 -33.063  1.00  0.00     0.280 HD
HETATM    3  C   UNL     1      -5.211   1.268 -33.460  1.00  0.00     0.270 C 
ENDROOT
BRANCH   1   4
HETATM    4  C   UNL     1      -7.385   0.521 -32.298  1.00  0.00     0.190 C 
HETATM    5  C   UNL     1      -8.500   0.994 -31.349  1.00  0.00     0.048 C 
HETATM    6  C   UNL     1      -9.559   1.852 -32.040  1.00  0.00     0.099 C 
HETATM    7  N   UNL     1     -10.079   1.127 -33.207  1.00  0.00    -0.268 NA
HETATM    8  C   UNL     1      -9.068   0.787 -34.211  1.00  0.00     0.099 C 
HETATM    9  C   UNL     1      -8.009  -0.099 -33.560  1.00  0.00     0.048 C 
BRANCH   7  10
HETATM   10  C   UNL     1     -11.281   1.642 -33.719  1.00  0.00     0.109 A 
HETATM   11  N   UNL     1     -12.397   0.893 -33.669  1.00  0.00    -0.224 NA
HETATM   12  C   UNL     1     -13.526   1.383 -34.239  1.00  0.00     0.102 A 
HETATM   13  N   UNL     1     -13.580   2.572 -34.854  1.00  0.00    -0.348 N 
HETATM   14  C   UNL     1     -14.753   0.529 -34.220  1.00  0.00     0.091 C 
HETATM   15  C   UNL     1     -12.486   3.347 -34.918  1.00  0.00     0.009 A 
HETATM   16  H   UNL     1     -14.454   2.875 -35.281  1.00  0.00     0.167 HD
HETATM   17  C   UNL     1     -12.564   4.662 -35.624  1.00  0.00     0.068 C 
HETATM   18  C   UNL     1     -11.299   2.884 -34.345  1.00  0.00     0.069 A 
ENDBRANCH   7  10
ENDBRANCH   1   4
BRANCH   1  19
HETATM   19  C   UNL     1      -5.846   2.260 -31.270  1.00  0.00     0.277 C 
BRANCH  19  20
HETATM   20  C   UNL     1      -6.160   3.701 -31.093  1.00  0.00     0.016 A 
HETATM   21  C   UNL     1      -5.527   4.831 -31.696  1.00  0.00     0.096 A 
HETATM   22  N   UNL     1      -6.025   5.971 -31.206  1.00  0.00    -0.174 NA
HETATM   23  N   UNL     1      -7.037   5.602 -30.413  1.00  0.00    -0.288 N 
HETATM   24  H   UNL     1      -7.603   6.329 -29.977  1.00  0.00     0.188 HD
HETATM   25  C   UNL     1      -7.139   4.248 -30.284  1.00  0.00     0.120 A 
BRANCH  21  26
HETATM   26  C   UNL     1      -4.435   4.863 -32.662  1.00  0.00    -0.005 A 
HETATM   27  C   UNL     1      -3.129   4.516 -32.285  1.00  0.00     0.017 A 
HETATM   28  C   UNL     1      -2.095   4.552 -33.224  1.00  0.00     0.043 A 
HETATM   29  C   UNL     1      -2.368   4.921 -34.536  1.00  0.00     0.116 A 
HETATM   30  F   UNL     1      -1.373   4.967 -35.430  1.00  0.00    -0.206 F 
HETATM   31  C   UNL     1      -3.660   5.242 -34.934  1.00  0.00     0.043 A 
HETATM   32  C   UNL     1      -4.696   5.209 -33.997  1.00  0.00     0.017 A 
ENDBRANCH  21  26
ENDBRANCH  19  20
ENDBRANCH   1  19
TORSDOF 5
ENDMDL
MODEL 9
REMARK VINA RESULT:      -8.0      4.488      7.441
REMARK  5 active torsions:
REMARK  status: ('A' for Active; 'I' for Inactive)
REMARK    1  A    between atoms: C_8  and  N_9 
REMARK    2  A    between atoms: C_12  and  N_13 
REMARK    3  A    between atoms: N_13  and  C_15 
REMARK    4  A    between atoms: C_15  and  C_16 
REMARK    5  A    between atoms: C_17  and  C_18 
ROOT
HETATM    1  N   UNL     1      -8.596   2.246 -32.285  1.00  0.00    -0.067 N 
HETATM    2  H   UNL     1      -7.942   2.096 -31.506  1.00  0.00     0.280 HD
HETATM    3  C   UNL     1      -9.653   1.167 -32.166  1.00  0.00     0.270 C 
ENDROOT
BRANCH   1   4
HETATM    4  C   UNL     1      -7.817   2.248 -33.615  1.00  0.00     0.190 C 
HETATM    5  C   UNL     1      -6.300   2.182 -33.366  1.00  0.00     0.048 C 
HETATM    6  C   UNL     1      -5.808   0.781 -33.000  1.00  0.00     0.099 C 
HETATM    7  N   UNL     1      -6.255  -0.169 -34.026  1.00  0.00    -0.268 NA
HETATM    8  C   UNL     1      -7.709  -0.246 -34.191  1.00  0.00     0.099 C 
HETATM    9  C   UNL     1      -8.230   1.133 -34.590  1.00  0.00     0.048 C 
BRANCH   7  10
HETATM   10  C   UNL     1      -5.591  -1.406 -33.998  1.00  0.00     0.109 A 
HETATM   11  N   UNL     1      -5.995  -2.394 -34.815  1.00  0.00    -0.224 NA
HETATM   12  C   UNL     1      -5.386  -3.602 -34.714  1.00  0.00     0.102 A 
HETATM   13  N   UNL     1      -4.408  -3.858 -33.835  1.00  0.00    -0.348 N 
HETATM   14  C   UNL     1      -5.868  -4.710 -35.595  1.00  0.00     0.091 C 
HETATM   15  C   UNL     1      -3.978  -2.893 -33.008  1.00  0.00     0.009 A 
HETATM   16  H   UNL     1      -4.004  -4.793 -33.795  1.00  0.00     0.167 HD
HETATM   17  C   UNL     1      -2.897  -3.206 -32.023  1.00  0.00     0.068 C 
HETATM   18  C   UNL     1      -4.575  -1.633 -33.075  1.00  0.00     0.069 A 
ENDBRANCH   7  10
ENDBRANCH   1   4
BRANCH   1  19
HETATM   19  C   UNL     1      -9.245   3.616 -32.022  1.00  0.00     0.277 C 
BRANCH  19  20
HETATM   20  C   UNL     1      -9.549   4.389 -33.253  1.00  0.00     0.016 A 
HETATM   21  C   UNL     1     -10.646   4.233 -34.155  1.00  0.00     0.096 A 
HETATM   22  N   UNL     1     -10.517   5.049 -35.206  1.00  0.00    -0.174 NA
HETATM   23  N   UNL     1      -9.446   5.805 -34.936  1.00  0.00    -0.288 N 
HETATM   24  H   UNL     1      -9.199   6.547 -35.588  1.00  0.00     0.188 HD
HETATM   25  C   UNL     1      -8.809   5.426 -33.791  1.00  0.00     0.120 A 
BRANCH  21  26
HETATM   26  C   UNL     1     -11.767   3.301 -34.083  1.00  0.00    -0.005 A 
HETATM   27  C   UNL     1     -12.783   3.470 -33.131  1.00  0.00     0.017 A 
HETATM   28  C   UNL     1     -13.849   2.568 -33.076  1.00  0.00     0.043 A 
HETATM   29  C   UNL     1     -13.904   1.510 -33.977  1.00  0.00     0.116 A 
HETATM   30  F   UNL     1     -14.920   0.641 -33.912  1.00  0.00    -0.206 F 
HETATM   31  C   UNL     1     -12.920   1.344 -34.944  1.00  0.00     0.043 A 
HETATM   32  C   UNL     1     -11.852   2.242 -34.999  1.00  0.00     0.017 A 
ENDBRANCH  21  26
ENDBRANCH  19  20
ENDBRANCH   1  19
TORSDOF 5
ENDMDL
MODEL 10
REMARK VINA RESULT:      -7.9      2.105      2.589
REMARK  5 active torsions:
REMARK  status: ('A' for Active; 'I' for Inactive)
REMARK    1  A    between atoms: C_8  and  N_9 
REMARK    2  A    between atoms: C_12  and  N_13 
REMARK    3  A    between atoms: N_13  and  C_15 
REMARK    4  A    between atoms: C_15  and  C_16 
REMARK    5  A    between atoms: C_17  and  C_18 
ROOT
HETATM    1  N   UNL     1      -8.396   4.273 -31.605  1.00  0.00    -0.067 N 
HETATM    2  H   UNL     1      -7.802   4.216 -32.441  1.00  0.00     0.280 HD
HETATM    3  C   UNL     1      -9.440   5.331 -31.896  1.00  0.00     0.270 C 
ENDROOT
BRANCH   1   4
HETATM    4  C   UNL     1      -7.517   4.551 -30.369  1.00  0.00     0.190 C 
HETATM    5  C   UNL     1      -6.421   3.482 -30.220  1.00  0.00     0.048 C 
HETATM    6  C   UNL     1      -5.250   3.678 -31.182  1.00  0.00     0.099 C 
HETATM    7  N   UNL     1      -4.732   5.044 -31.038  1.00  0.00    -0.268 NA
HETATM    8  C   UNL     1      -5.710   6.098 -31.318  1.00  0.00     0.099 C 
HETATM    9  C   UNL     1      -6.881   5.951 -30.350  1.00  0.00     0.048 C 
BRANCH   7  10
HETATM   10  C   UNL     1      -3.461   5.243 -31.600  1.00  0.00     0.109 A 
HETATM   11  N   UNL     1      -2.477   5.766 -30.846  1.00  0.00    -0.224 NA
HETATM   12  C   UNL     1      -1.280   6.018 -31.434  1.00  0.00     0.102 A 
HETATM   13  N   UNL     1      -1.036   5.778 -32.730  1.00  0.00    -0.348 N 
HETATM   14  C   UNL     1      -0.204   6.639 -30.604  1.00  0.00     0.091 C 
HETATM   15  C   UNL     1      -1.994   5.253 -33.509  1.00  0.00     0.009 A 
HETATM   16  H   UNL     1      -0.123   6.008 -33.117  1.00  0.00     0.167 HD
HETATM   17  C   UNL     1      -1.705   5.009 -34.955  1.00  0.00     0.068 C 
HETATM   18  C   UNL     1      -3.243   4.976 -32.947  1.00  0.00     0.069 A 
ENDBRANCH   7  10
ENDBRANCH   1   4
BRANCH   1  19
HETATM   19  C   UNL     1      -9.087   2.902 -31.494  1.00  0.00     0.277 C 
BRANCH  19  20
HETATM   20  C   UNL     1      -9.160   2.155 -32.776  1.00  0.00     0.016 A 
HETATM   21  C   UNL     1      -8.234   1.204 -33.306  1.00  0.00     0.096 A 
HETATM   22  N   UNL     1      -8.595   0.827 -34.537  1.00  0.00    -0.174 NA
HETATM   23  N   UNL     1      -9.782   1.405 -34.750  1.00  0.00    -0.288 N 
HETATM   24  H   UNL     1     -10.273   1.200 -35.618  1.00  0.00     0.188 HD
HETATM   25  C   UNL     1     -10.150   2.241 -33.737  1.00  0.00     0.120 A 
BRANCH  21  26
HETATM   26  C   UNL     1      -7.000   0.698 -32.715  1.00  0.00    -0.005 A 
HETATM   27  C   UNL     1      -5.785   0.769 -33.413  1.00  0.00     0.017 A 
HETATM   28  C   UNL     1      -4.612   0.279 -32.832  1.00  0.00     0.043 A 
HETATM   29  C   UNL     1      -4.654  -0.268 -31.554  1.00  0.00     0.116 A 
HETATM   30  F   UNL     1      -3.531  -0.748 -31.006  1.00  0.00    -0.206 F 
HETATM   31  C   UNL     1      -5.843  -0.323 -30.838  1.00  0.00     0.043 A 
HETATM   32  C   UNL     1      -7.017   0.164 -31.417  1.00  0.00     0.017 A 
ENDBRANCH  21  26
ENDBRANCH  19  20
ENDBRANCH   1  19
TORSDOF 5
ENDMDL
