MODEL 1
REMARK VINA RESULT:      -9.7      0.000      0.000
REMARK  6 active torsions:
REMARK  status: ('A' for Active; 'I' for Inactive)
REMARK    1  A    between atoms: C_2  and  O_3 
REMARK    2  A    between atoms: C_2  and  C_4 
REMARK    3  A    between atoms: C_6  and  N_7 
REMARK       I    between atoms: N_7  and  C_8 
REMARK    4  A    between atoms: C_8  and  C_9 
REMARK    5  A    between atoms: C_14  and  C_15 
REMARK    6  A    between atoms: C_23  and  C_24 
ROOT
HETATM    1  C   UNL     1      -4.747   4.233 -31.892  1.00  0.00     0.148 A 
HETATM    2  N   UNL     1      -5.437   3.520 -30.970  1.00  0.00    -0.165 NA
HETATM    3  N   UNL     1      -6.018   2.546 -31.699  1.00  0.00    -0.240 N 
HETATM    4  C   UNL     1      -5.815   2.670 -33.044  1.00  0.00     0.123 A 
HETATM    5  N   UNL     1      -6.387   1.837 -33.936  1.00  0.00    -0.366 N 
HETATM    6  C   UNL     1      -7.174   0.680 -33.541  1.00  0.00     0.118 C 
HETATM    7  C   UNL     1      -7.747   0.833 -32.120  1.00  0.00     0.066 C 
HETATM    8  C   UNL     1      -6.817   1.503 -31.088  1.00  0.00     0.221 C 
HETATM    9  C   UNL     1      -4.971   3.734 -33.203  1.00  0.00     0.089 A 
HETATM   10  H   UNL     1      -6.124   1.869 -34.921  1.00  0.00     0.161 HD
ENDROOT
BRANCH   1  11
HETATM   11  C   UNL     1      -3.889   5.378 -31.540  1.00  0.00     0.276 C 
HETATM   12  N   UNL     1      -2.623   4.988 -31.148  1.00  0.00    -0.322 N 
HETATM   13  H   UNL     1      -2.495   3.979 -31.127  1.00  0.00     0.169 HD
HETATM   14  O   UNL     1      -4.316   6.527 -31.598  1.00  0.00    -0.266 OA
BRANCH  12  15
HETATM   15  C   UNL     1      -1.541   5.805 -30.778  1.00  0.00     0.035 A 
HETATM   16  C   UNL     1      -1.519   6.580 -29.615  1.00  0.00     0.039 A 
HETATM   17  C   UNL     1      -0.415   7.393 -29.297  1.00  0.00    -0.028 A 
HETATM   18  C   UNL     1       0.686   7.398 -30.162  1.00  0.00     0.010 A 
HETATM   19  C   UNL     1       0.674   6.630 -31.326  1.00  0.00     0.003 A 
HETATM   20  C   UNL     1      -0.437   5.843 -31.636  1.00  0.00     0.029 A 
BRANCH  17  21
HETATM   21  C   UNL     1      -0.441   8.214 -28.026  1.00  0.00     0.147 C 
HETATM   22  C   UNL     1       0.965   8.589 -27.571  1.00  0.00     0.044 C 
BRANCH  21  23
HETATM   23  O   UNL     1      -1.201   9.406 -28.215  1.00  0.00    -0.391 OA
HETATM   24  H   UNL     1      -0.902  10.040 -27.542  1.00  0.00     0.210 HD
ENDBRANCH  21  23
ENDBRANCH  17  21
ENDBRANCH  12  15
ENDBRANCH   1  11
BRANCH   8  25
HETATM   25  C   UNL     1      -5.934   0.526 -30.344  1.00  0.00     0.409 C 
HETATM   26  F   UNL     1      -4.647   0.550 -30.736  1.00  0.00    -0.169 F 
HETATM   27  F   UNL     1      -5.956   0.737 -29.008  1.00  0.00    -0.169 F 
HETATM   28  F   UNL     1      -6.384  -0.742 -30.532  1.00  0.00    -0.169 F 
ENDBRANCH   8  25
BRANCH   6  29
HETATM   29  C   UNL     1      -6.444  -0.622 -33.823  1.00  0.00    -0.035 A 
HETATM   30  C   UNL     1      -5.055  -0.767 -33.658  1.00  0.00     0.012 A 
HETATM   31  C   UNL     1      -4.416  -1.970 -33.967  1.00  0.00     0.043 A 
HETATM   32  C   UNL     1      -5.159  -3.033 -34.460  1.00  0.00     0.116 A 
HETATM   33  F   UNL     1      -4.544  -4.182 -34.773  1.00  0.00    -0.206 F 
HETATM   34  C   UNL     1      -6.531  -2.920 -34.638  1.00  0.00     0.043 A 
HETATM   35  C   UNL     1      -7.172  -1.722 -34.315  1.00  0.00     0.012 A 
ENDBRANCH   6  29
TORSDOF 6
ENDMDL
MODEL 2
REMARK VINA RESULT:      -9.5      3.513      4.816
REMARK  6 active torsions:
REMARK  status: ('A' for Active; 'I' for Inactive)
REMARK    1  A    between atoms: C_2  and  O_3 
REMARK    2  A    between atoms: C_2  and  C_4 
REMARK    3  A    between atoms: C_6  and  N_7 
REMARK       I    between atoms: N_7  and  C_8 
REMARK    4  A    between atoms: C_8  and  C_9 
REMARK    5  A    between atoms: C_14  and  C_15 
REMARK    6  A    between atoms: C_23  and  C_24 
ROOT
HETATM    1  C   UNL     1      -5.069   2.142 -31.924  1.00  0.00     0.148 A 
HETATM    2  N   UNL     1      -5.310   1.030 -32.659  1.00  0.00    -0.165 NA
HETATM    3  N   UNL     1      -6.656   0.944 -32.662  1.00  0.00    -0.240 N 
HETATM    4  C   UNL     1      -7.269   1.883 -31.883  1.00  0.00     0.123 A 
HETATM    5  N   UNL     1      -8.604   1.902 -31.699  1.00  0.00    -0.366 N 
HETATM    6  C   UNL     1      -9.507   1.000 -32.394  1.00  0.00     0.118 C 
HETATM    7  C   UNL     1      -8.792  -0.278 -32.868  1.00  0.00     0.066 C 
HETATM    8  C   UNL     1      -7.356  -0.088 -33.399  1.00  0.00     0.221 C 
HETATM    9  C   UNL     1      -6.273   2.694 -31.414  1.00  0.00     0.089 A 
HETATM   10  H   UNL     1      -9.052   2.681 -31.217  1.00  0.00     0.161 HD
ENDROOT
BRANCH   1  11
HETATM   11  C   UNL     1      -3.713   2.675 -31.702  1.00  0.00     0.276 C 
HETATM   12  N   UNL     1      -3.592   3.992 -32.098  1.00  0.00    -0.322 N 
HETATM   13  H   UNL     1      -4.439   4.373 -32.514  1.00  0.00     0.169 HD
HETATM   14  O   UNL     1      -2.830   1.970 -31.224  1.00  0.00    -0.266 OA
BRANCH  12  15
HETATM   15  C   UNL     1      -2.463   4.824 -32.004  1.00  0.00     0.035 A 
HETATM   16  C   UNL     1      -1.460   4.662 -31.044  1.00  0.00     0.039 A 
HETATM   17  C   UNL     1      -0.355   5.532 -30.984  1.00  0.00    -0.028 A 
HETATM   18  C   UNL     1      -0.262   6.563 -31.926  1.00  0.00     0.010 A 
HETATM   19  C   UNL     1      -1.257   6.736 -32.887  1.00  0.00     0.003 A 
HETATM   20  C   UNL     1      -2.356   5.875 -32.921  1.00  0.00     0.029 A 
BRANCH  17  21
HETATM   21  C   UNL     1       0.704   5.313 -29.925  1.00  0.00     0.147 C 
HETATM   22  C   UNL     1       0.388   6.083 -28.648  1.00  0.00     0.044 C 
BRANCH  21  23
HETATM   23  O   UNL     1       0.820   3.926 -29.613  1.00  0.00    -0.391 OA
HETATM   24  H   UNL     1       0.328   3.781 -28.789  1.00  0.00     0.210 HD
ENDBRANCH  21  23
ENDBRANCH  17  21
ENDBRANCH  12  15
ENDBRANCH   1  11
BRANCH   8  25
HETATM   25  C   UNL     1      -7.293   0.184 -34.886  1.00  0.00     0.409 C 
HETATM   26  F   UNL     1      -8.458  -0.019 -35.526  1.00  0.00    -0.169 F 
HETATM   27  F   UNL     1      -6.899   1.451 -35.153  1.00  0.00    -0.169 F 
HETATM   28  F   UNL     1      -6.372  -0.627 -35.468  1.00  0.00    -0.169 F 
ENDBRANCH   8  25
BRANCH   6  29
HETATM   29  C   UNL     1     -10.331   1.725 -33.445  1.00  0.00    -0.035 A 
HETATM   30  C   UNL     1     -11.519   1.196 -33.979  1.00  0.00     0.012 A 
HETATM   31  C   UNL     1     -12.226   1.876 -34.974  1.00  0.00     0.043 A 
HETATM   32  C   UNL     1     -11.741   3.084 -35.453  1.00  0.00     0.116 A 
HETATM   33  F   UNL     1     -12.410   3.728 -36.419  1.00  0.00    -0.206 F 
HETATM   34  C   UNL     1     -10.569   3.631 -34.949  1.00  0.00     0.043 A 
HETATM   35  C   UNL     1      -9.870   2.958 -33.944  1.00  0.00     0.012 A 
ENDBRANCH   6  29
TORSDOF 6
ENDMDL
MODEL 3
REMARK VINA RESULT:      -9.4      3.543      9.664
REMARK  6 active torsions:
REMARK  status: ('A' for Active; 'I' for Inactive)
REMARK    1  A    between atoms: C_2  and  O_3 
REMARK    2  A    between atoms: C_2  and  C_4 
REMARK    3  A    between atoms: C_6  and  N_7 
REMARK       I    between atoms: N_7  and  C_8 
REMARK    4  A    between atoms: C_8  and  C_9 
REMARK    5  A    between atoms: C_14  and  C_15 
REMARK    6  A    between atoms: C_23  and  C_24 
ROOT
HETATM    1  C   UNL     1      -4.919   3.875 -31.403  1.00  0.00     0.148 A 
HETATM    2  N   UNL     1      -4.071   4.470 -32.276  1.00  0.00    -0.165 NA
HETATM    3  N   UNL     1      -3.557   5.493 -31.563  1.00  0.00    -0.240 N 
HETATM    4  C   UNL     1      -4.113   5.636 -30.324  1.00  0.00     0.123 A 
HETATM    5  N   UNL     1      -3.784   6.651 -29.502  1.00  0.00    -0.366 N 
HETATM    6  C   UNL     1      -2.739   7.612 -29.817  1.00  0.00     0.118 C 
HETATM    7  C   UNL     1      -2.479   7.703 -31.332  1.00  0.00     0.066 C 
HETATM    8  C   UNL     1      -2.540   6.371 -32.107  1.00  0.00     0.221 C 
HETATM    9  C   UNL     1      -4.978   4.587 -30.175  1.00  0.00     0.089 A 
HETATM   10  H   UNL     1      -4.116   6.669 -28.538  1.00  0.00     0.161 HD
ENDROOT
BRANCH   1  11
HETATM   11  C   UNL     1      -5.671   2.650 -31.727  1.00  0.00     0.276 C 
HETATM   12  N   UNL     1      -5.519   2.272 -33.046  1.00  0.00    -0.322 N 
HETATM   13  H   UNL     1      -4.949   2.913 -33.593  1.00  0.00     0.169 HD
HETATM   14  O   UNL     1      -6.349   2.083 -30.876  1.00  0.00    -0.266 OA
BRANCH  12  15
HETATM   15  C   UNL     1      -6.059   1.145 -33.691  1.00  0.00     0.035 A 
HETATM   16  C   UNL     1      -5.528  -0.143 -33.575  1.00  0.00     0.039 A 
HETATM   17  C   UNL     1      -6.100  -1.235 -34.252  1.00  0.00    -0.028 A 
HETATM   18  C   UNL     1      -7.238  -1.016 -35.038  1.00  0.00     0.010 A 
HETATM   19  C   UNL     1      -7.776   0.264 -35.162  1.00  0.00     0.003 A 
HETATM   20  C   UNL     1      -7.185   1.341 -34.498  1.00  0.00     0.029 A 
BRANCH  17  21
HETATM   21  C   UNL     1      -5.486  -2.610 -34.093  1.00  0.00     0.147 C 
HETATM   22  C   UNL     1      -6.217  -3.652 -34.931  1.00  0.00     0.044 C 
BRANCH  21  23
HETATM   23  O   UNL     1      -4.111  -2.590 -34.475  1.00  0.00    -0.391 OA
HETATM   24  H   UNL     1      -3.914  -3.459 -34.862  1.00  0.00     0.210 HD
ENDBRANCH  21  23
ENDBRANCH  17  21
ENDBRANCH  12  15
ENDBRANCH   1  11
BRANCH   8  25
HETATM   25  C   UNL     1      -1.209   5.656 -32.187  1.00  0.00     0.409 C 
HETATM   26  F   UNL     1      -0.945   4.880 -31.121  1.00  0.00    -0.169 F 
HETATM   27  F   UNL     1      -1.118   4.878 -33.289  1.00  0.00    -0.169 F 
HETATM   28  F   UNL     1      -0.201   6.561 -32.281  1.00  0.00    -0.169 F 
ENDBRANCH   8  25
BRANCH   6  29
HETATM   29  C   UNL     1      -1.510   7.413 -28.946  1.00  0.00    -0.035 A 
HETATM   30  C   UNL     1      -1.562   6.794 -27.685  1.00  0.00     0.012 A 
HETATM   31  C   UNL     1      -0.415   6.667 -26.898  1.00  0.00     0.043 A 
HETATM   32  C   UNL     1       0.791   7.174 -27.358  1.00  0.00     0.116 A 
HETATM   33  F   UNL     1       1.888   7.067 -26.596  1.00  0.00    -0.206 F 
HETATM   34  C   UNL     1       0.875   7.794 -28.597  1.00  0.00     0.043 A 
HETATM   35  C   UNL     1      -0.268   7.908 -29.391  1.00  0.00     0.012 A 
ENDBRANCH   6  29
TORSDOF 6
ENDMDL
MODEL 4
REMARK VINA RESULT:      -9.3      1.320      1.700
REMARK  6 active torsions:
REMARK  status: ('A' for Active; 'I' for Inactive)
REMARK    1  A    between atoms: C_2  and  O_3 
REMARK    2  A    between atoms: C_2  and  C_4 
REMARK    3  A    between atoms: C_6  and  N_7 
REMARK       I    between atoms: N_7  and  C_8 
REMARK    4  A    between atoms: C_8  and  C_9 
REMARK    5  A    between atoms: C_14  and  C_15 
REMARK    6  A    between atoms: C_23  and  C_24 
ROOT
HETATM    1  C   UNL     1      -3.869   3.854 -31.751  1.00  0.00     0.148 A 
HETATM    2  N   UNL     1      -4.666   3.245 -30.840  1.00  0.00    -0.165 NA
HETATM    3  N   UNL     1      -5.439   2.437 -31.592  1.00  0.00    -0.240 N 
HETATM    4  C   UNL     1      -5.243   2.581 -32.936  1.00  0.00     0.123 A 
HETATM    5  N   UNL     1      -5.982   1.916 -33.845  1.00  0.00    -0.366 N 
HETATM    6  C   UNL     1      -6.970   0.915 -33.475  1.00  0.00     0.118 C 
HETATM    7  C   UNL     1      -7.475   1.110 -32.034  1.00  0.00     0.066 C 
HETATM    8  C   UNL     1      -6.413   1.541 -31.002  1.00  0.00     0.221 C 
HETATM    9  C   UNL     1      -4.212   3.468 -33.074  1.00  0.00     0.089 A 
HETATM   10  H   UNL     1      -5.738   1.942 -34.834  1.00  0.00     0.161 HD
ENDROOT
BRANCH   1  11
HETATM   11  C   UNL     1      -2.798   4.795 -31.376  1.00  0.00     0.276 C 
HETATM   12  N   UNL     1      -3.226   5.747 -30.471  1.00  0.00    -0.322 N 
HETATM   13  H   UNL     1      -4.213   5.674 -30.237  1.00  0.00     0.169 HD
HETATM   14  O   UNL     1      -1.675   4.696 -31.860  1.00  0.00    -0.266 OA
BRANCH  12  15
HETATM   15  C   UNL     1      -2.473   6.772 -29.874  1.00  0.00     0.035 A 
HETATM   16  C   UNL     1      -1.294   6.550 -29.156  1.00  0.00     0.039 A 
HETATM   17  C   UNL     1      -0.584   7.612 -28.566  1.00  0.00    -0.028 A 
HETATM   18  C   UNL     1      -1.068   8.915 -28.729  1.00  0.00     0.010 A 
HETATM   19  C   UNL     1      -2.244   9.149 -29.441  1.00  0.00     0.003 A 
HETATM   20  C   UNL     1      -2.946   8.081 -30.005  1.00  0.00     0.029 A 
BRANCH  17  21
HETATM   21  C   UNL     1       0.687   7.317 -27.798  1.00  0.00     0.147 C 
HETATM   22  C   UNL     1       1.509   8.580 -27.567  1.00  0.00     0.044 C 
BRANCH  21  23
HETATM   23  O   UNL     1       0.384   6.724 -26.537  1.00  0.00    -0.391 OA
HETATM   24  H   UNL     1       1.079   7.004 -25.920  1.00  0.00     0.210 HD
ENDBRANCH  21  23
ENDBRANCH  17  21
ENDBRANCH  12  15
ENDBRANCH   1  11
BRANCH   8  25
HETATM   25  C   UNL     1      -5.722   0.378 -30.324  1.00  0.00     0.409 C 
HETATM   26  F   UNL     1      -6.365  -0.795 -30.468  1.00  0.00    -0.169 F 
HETATM   27  F   UNL     1      -4.459   0.206 -30.776  1.00  0.00    -0.169 F 
HETATM   28  F   UNL     1      -5.616   0.614 -28.991  1.00  0.00    -0.169 F 
ENDBRANCH   8  25
BRANCH   6  29
HETATM   29  C   UNL     1      -6.512  -0.489 -33.832  1.00  0.00    -0.035 A 
HETATM   30  C   UNL     1      -5.159  -0.867 -33.846  1.00  0.00     0.012 A 
HETATM   31  C   UNL     1      -4.776  -2.158 -34.219  1.00  0.00     0.043 A 
HETATM   32  C   UNL     1      -5.744  -3.077 -34.596  1.00  0.00     0.116 A 
HETATM   33  F   UNL     1      -5.377  -4.310 -34.969  1.00  0.00    -0.206 F 
HETATM   34  C   UNL     1      -7.090  -2.733 -34.596  1.00  0.00     0.043 A 
HETATM   35  C   UNL     1      -7.473  -1.447 -34.209  1.00  0.00     0.012 A 
ENDBRANCH   6  29
TORSDOF 6
ENDMDL
MODEL 5
REMARK VINA RESULT:      -9.3      3.888      9.573
REMARK  6 active torsions:
REMARK  status: ('A' for Active; 'I' for Inactive)
REMARK    1  A    between atoms: C_2  and  O_3 
REMARK    2  A    between atoms: C_2  and  C_4 
REMARK    3  A    between atoms: C_6  and  N_7 
REMARK       I    between atoms: N_7  and  C_8 
REMARK    4  A    between atoms: C_8  and  C_9 
REMARK    5  A    between atoms: C_14  and  C_15 
REMARK    6  A    between atoms: C_23  and  C_24 
ROOT
HETATM    1  C   UNL     1      -4.305   3.159 -32.132  1.00  0.00     0.148 A 
HETATM    2  N   UNL     1      -3.652   3.963 -33.007  1.00  0.00    -0.165 NA
HETATM    3  N   UNL     1      -3.379   5.062 -32.276  1.00  0.00    -0.240 N 
HETATM    4  C   UNL     1      -3.914   5.036 -31.020  1.00  0.00     0.123 A 
HETATM    5  N   UNL     1      -3.815   6.081 -30.175  1.00  0.00    -0.366 N 
HETATM    6  C   UNL     1      -3.042   7.273 -30.486  1.00  0.00     0.118 C 
HETATM    7  C   UNL     1      -2.860   7.461 -32.003  1.00  0.00     0.066 C 
HETATM    8  C   UNL     1      -2.621   6.173 -32.817  1.00  0.00     0.221 C 
HETATM    9  C   UNL     1      -4.495   3.806 -30.882  1.00  0.00     0.089 A 
HETATM   10  H   UNL     1      -4.111   5.995 -29.204  1.00  0.00     0.161 HD
ENDROOT
BRANCH   1  11
HETATM   11  C   UNL     1      -4.749   1.797 -32.476  1.00  0.00     0.276 C 
HETATM   12  N   UNL     1      -3.718   0.878 -32.427  1.00  0.00    -0.322 N 
HETATM   13  H   UNL     1      -2.815   1.288 -32.201  1.00  0.00     0.169 HD
HETATM   14  O   UNL     1      -5.917   1.571 -32.775  1.00  0.00    -0.266 OA
BRANCH  12  15
HETATM   15  C   UNL     1      -3.782  -0.507 -32.659  1.00  0.00     0.035 A 
HETATM   16  C   UNL     1      -4.554  -1.088 -33.669  1.00  0.00     0.039 A 
HETATM   17  C   UNL     1      -4.593  -2.483 -33.851  1.00  0.00    -0.028 A 
HETATM   18  C   UNL     1      -3.819  -3.291 -33.009  1.00  0.00     0.010 A 
HETATM   19  C   UNL     1      -3.046  -2.722 -31.998  1.00  0.00     0.003 A 
HETATM   20  C   UNL     1      -3.033  -1.337 -31.819  1.00  0.00     0.029 A 
BRANCH  17  21
HETATM   21  C   UNL     1      -5.447  -3.062 -34.959  1.00  0.00     0.147 C 
HETATM   22  C   UNL     1      -5.627  -4.567 -34.800  1.00  0.00     0.044 C 
BRANCH  21  23
HETATM   23  O   UNL     1      -6.731  -2.440 -34.978  1.00  0.00    -0.391 OA
HETATM   24  H   UNL     1      -7.360  -3.105 -35.304  1.00  0.00     0.210 HD
ENDBRANCH  21  23
ENDBRANCH  17  21
ENDBRANCH  12  15
ENDBRANCH   1  11
BRANCH   8  25
HETATM   25  C   UNL     1      -1.160   5.804 -32.952  1.00  0.00     0.409 C 
HETATM   26  F   UNL     1      -0.778   4.798 -32.144  1.00  0.00    -0.169 F 
HETATM   27  F   UNL     1      -0.841   5.452 -34.218  1.00  0.00    -0.169 F 
HETATM   28  F   UNL     1      -0.381   6.875 -32.650  1.00  0.00    -0.169 F 
ENDBRANCH   8  25
BRANCH   6  29
HETATM   29  C   UNL     1      -1.775   7.358 -29.652  1.00  0.00    -0.035 A 
HETATM   30  C   UNL     1      -1.316   8.560 -29.086  1.00  0.00     0.012 A 
HETATM   31  C   UNL     1      -0.124   8.603 -28.359  1.00  0.00     0.043 A 
HETATM   32  C   UNL     1       0.627   7.447 -28.205  1.00  0.00     0.116 A 
HETATM   33  F   UNL     1       1.779   7.491 -27.522  1.00  0.00    -0.206 F 
HETATM   34  C   UNL     1       0.202   6.244 -28.755  1.00  0.00     0.043 A 
HETATM   35  C   UNL     1      -0.997   6.198 -29.470  1.00  0.00     0.012 A 
ENDBRANCH   6  29
TORSDOF 6
ENDMDL
MODEL 6
REMARK VINA RESULT:      -9.2      3.881      9.891
REMARK  6 active torsions:
REMARK  status: ('A' for Active; 'I' for Inactive)
REMARK    1  A    between atoms: C_2  and  O_3 
REMARK    2  A    between atoms: C_2  and  C_4 
REMARK    3  A    between atoms: C_6  and  N_7 
REMARK       I    between atoms: N_7  and  C_8 
REMARK    4  A    between atoms: C_8  and  C_9 
REMARK    5  A    between atoms: C_14  and  C_15 
REMARK    6  A    between atoms: C_23  and  C_24 
ROOT
HETATM    1  C   UNL     1      -3.216   3.359 -31.651  1.00  0.00     0.148 A 
HETATM    2  N   UNL     1      -2.010   3.852 -32.025  1.00  0.00    -0.165 NA
HETATM    3  N   UNL     1      -2.065   5.141 -31.633  1.00  0.00    -0.240 N 
HETATM    4  C   UNL     1      -3.278   5.511 -31.126  1.00  0.00     0.123 A 
HETATM    5  N   UNL     1      -3.545   6.780 -30.758  1.00  0.00    -0.366 N 
HETATM    6  C   UNL     1      -2.540   7.830 -30.768  1.00  0.00     0.118 C 
HETATM    7  C   UNL     1      -1.386   7.513 -31.736  1.00  0.00     0.066 C 
HETATM    8  C   UNL     1      -0.938   6.038 -31.789  1.00  0.00     0.221 C 
HETATM    9  C   UNL     1      -4.038   4.375 -31.095  1.00  0.00     0.089 A 
HETATM   10  H   UNL     1      -4.410   7.008 -30.269  1.00  0.00     0.161 HD
ENDROOT
BRANCH   1  11
HETATM   11  C   UNL     1      -3.589   1.944 -31.823  1.00  0.00     0.276 C 
HETATM   12  N   UNL     1      -4.665   1.782 -32.673  1.00  0.00    -0.322 N 
HETATM   13  H   UNL     1      -5.053   2.659 -33.014  1.00  0.00     0.169 HD
HETATM   14  O   UNL     1      -2.978   1.056 -31.237  1.00  0.00    -0.266 OA
BRANCH  12  15
HETATM   15  C   UNL     1      -5.266   0.581 -33.089  1.00  0.00     0.035 A 
HETATM   16  C   UNL     1      -4.544  -0.559 -33.456  1.00  0.00     0.039 A 
HETATM   17  C   UNL     1      -5.195  -1.733 -33.879  1.00  0.00    -0.028 A 
HETATM   18  C   UNL     1      -6.594  -1.752 -33.905  1.00  0.00     0.010 A 
HETATM   19  C   UNL     1      -7.324  -0.621 -33.543  1.00  0.00     0.003 A 
HETATM   20  C   UNL     1      -6.663   0.542 -33.143  1.00  0.00     0.029 A 
BRANCH  17  21
HETATM   21  C   UNL     1      -4.367  -2.940 -34.267  1.00  0.00     0.147 C 
HETATM   22  C   UNL     1      -3.618  -3.515 -33.070  1.00  0.00     0.044 C 
BRANCH  21  23
HETATM   23  O   UNL     1      -5.197  -3.957 -34.827  1.00  0.00    -0.391 OA
HETATM   24  H   UNL     1      -4.723  -4.313 -35.596  1.00  0.00     0.210 HD
ENDBRANCH  21  23
ENDBRANCH  17  21
ENDBRANCH  12  15
ENDBRANCH   1  11
BRANCH   8  25
HETATM   25  C   UNL     1       0.151   5.701 -30.794  1.00  0.00     0.409 C 
HETATM   26  F   UNL     1       1.107   4.893 -31.289  1.00  0.00    -0.169 F 
HETATM   27  F   UNL     1       0.762   6.808 -30.316  1.00  0.00    -0.169 F 
HETATM   28  F   UNL     1      -0.384   5.071 -29.716  1.00  0.00    -0.169 F 
ENDBRANCH   8  25
BRANCH   6  29
HETATM   29  C   UNL     1      -2.132   8.233 -29.361  1.00  0.00    -0.035 A 
HETATM   30  C   UNL     1      -1.625   9.507 -29.051  1.00  0.00     0.012 A 
HETATM   31  C   UNL     1      -1.222   9.825 -27.752  1.00  0.00     0.043 A 
HETATM   32  C   UNL     1      -1.310   8.866 -26.754  1.00  0.00     0.116 A 
HETATM   33  F   UNL     1      -0.908   9.165 -25.511  1.00  0.00    -0.206 F 
HETATM   34  C   UNL     1      -1.803   7.597 -27.028  1.00  0.00     0.043 A 
HETATM   35  C   UNL     1      -2.219   7.284 -28.324  1.00  0.00     0.012 A 
ENDBRANCH   6  29
TORSDOF 6
ENDMDL
MODEL 7
REMARK VINA RESULT:      -8.7      3.782      9.866
REMARK  6 active torsions:
REMARK  status: ('A' for Active; 'I' for Inactive)
REMARK    1  A    between atoms: C_2  and  O_3 
REMARK    2  A    between atoms: C_2  and  C_4 
REMARK    3  A    between atoms: C_6  and  N_7 
REMARK       I    between atoms: N_7  and  C_8 
REMARK    4  A    between atoms: C_8  and  C_9 
REMARK    5  A    between atoms: C_14  and  C_15 
REMARK    6  A    between atoms: C_23  and  C_24 
ROOT
HETATM    1  C   UNL     1      -4.708   4.451 -31.214  1.00  0.00     0.148 A 
HETATM    2  N   UNL     1      -3.695   4.853 -32.019  1.00  0.00    -0.165 NA
HETATM    3  N   UNL     1      -3.151   5.886 -31.345  1.00  0.00    -0.240 N 
HETATM    4  C   UNL     1      -3.831   6.221 -30.209  1.00  0.00     0.123 A 
HETATM    5  N   UNL     1      -3.483   7.278 -29.449  1.00  0.00    -0.366 N 
HETATM    6  C   UNL     1      -2.299   8.081 -29.713  1.00  0.00     0.118 C 
HETATM    7  C   UNL     1      -1.851   7.979 -31.182  1.00  0.00     0.066 C 
HETATM    8  C   UNL     1      -1.978   6.585 -31.830  1.00  0.00     0.221 C 
HETATM    9  C   UNL     1      -4.827   5.293 -30.077  1.00  0.00     0.089 A 
HETATM   10  H   UNL     1      -3.924   7.436 -28.544  1.00  0.00     0.161 HD
ENDROOT
BRANCH   1  11
HETATM   11  C   UNL     1      -5.557   3.286 -31.518  1.00  0.00     0.276 C 
HETATM   12  N   UNL     1      -6.154   3.378 -32.760  1.00  0.00    -0.322 N 
HETATM   13  H   UNL     1      -5.946   4.245 -33.250  1.00  0.00     0.169 HD
HETATM   14  O   UNL     1      -5.689   2.373 -30.708  1.00  0.00    -0.266 OA
BRANCH  12  15
HETATM   15  C   UNL     1      -6.994   2.442 -33.388  1.00  0.00     0.035 A 
HETATM   16  C   UNL     1      -8.351   2.294 -33.085  1.00  0.00     0.039 A 
HETATM   17  C   UNL     1      -9.146   1.331 -33.734  1.00  0.00    -0.028 A 
HETATM   18  C   UNL     1      -8.557   0.528 -34.718  1.00  0.00     0.010 A 
HETATM   19  C   UNL     1      -7.205   0.666 -35.027  1.00  0.00     0.003 A 
HETATM   20  C   UNL     1      -6.426   1.614 -34.360  1.00  0.00     0.029 A 
BRANCH  17  21
HETATM   21  C   UNL     1     -10.610   1.211 -33.368  1.00  0.00     0.147 C 
HETATM   22  C   UNL     1     -11.513   1.511 -34.559  1.00  0.00     0.044 C 
BRANCH  21  23
HETATM   23  O   UNL     1     -10.899  -0.100 -32.886  1.00  0.00    -0.391 OA
HETATM   24  H   UNL     1     -10.466  -0.183 -32.021  1.00  0.00     0.210 HD
ENDBRANCH  21  23
ENDBRANCH  17  21
ENDBRANCH  12  15
ENDBRANCH   1  11
BRANCH   8  25
HETATM   25  C   UNL     1      -0.743   5.727 -31.666  1.00  0.00     0.409 C 
HETATM   26  F   UNL     1       0.407   6.424 -31.667  1.00  0.00    -0.169 F 
HETATM   27  F   UNL     1      -0.777   5.001 -30.525  1.00  0.00    -0.169 F 
HETATM   28  F   UNL     1      -0.665   4.828 -32.681  1.00  0.00    -0.169 F 
ENDBRANCH   8  25
BRANCH   6  29
HETATM   29  C   UNL     1      -1.216   7.847 -28.673  1.00  0.00    -0.035 A 
HETATM   30  C   UNL     1      -1.493   7.361 -27.383  1.00  0.00     0.012 A 
HETATM   31  C   UNL     1      -0.473   7.198 -26.442  1.00  0.00     0.043 A 
HETATM   32  C   UNL     1       0.829   7.536 -26.779  1.00  0.00     0.116 A 
HETATM   33  F   UNL     1       1.805   7.396 -25.871  1.00  0.00    -0.206 F 
HETATM   34  C   UNL     1       1.135   8.022 -28.043  1.00  0.00     0.043 A 
HETATM   35  C   UNL     1       0.117   8.171 -28.989  1.00  0.00     0.012 A 
ENDBRANCH   6  29
TORSDOF 6
ENDMDL
MODEL 8
REMARK VINA RESULT:      -8.5      5.512      7.981
REMARK  6 active torsions:
REMARK  status: ('A' for Active; 'I' for Inactive)
REMARK    1  A    between atoms: C_2  and  O_3 
REMARK    2  A    between atoms: C_2  and  C_4 
REMARK    3  A    between atoms: C_6  and  N_7 
REMARK       I    between atoms: N_7  and  C_8 
REMARK    4  A    between atoms: C_8  and  C_9 
REMARK    5  A    between atoms: C_14  and  C_15 
REMARK    6  A    between atoms: C_23  and  C_24 
ROOT
HETATM    1  C   UNL     1      -9.819   3.682 -34.347  1.00  0.00     0.148 A 
HETATM    2  N   UNL     1      -8.655   4.080 -33.778  1.00  0.00    -0.165 NA
HETATM    3  N   UNL     1      -8.194   2.955 -33.194  1.00  0.00    -0.240 N 
HETATM    4  C   UNL     1      -9.054   1.898 -33.277  1.00  0.00     0.123 A 
HETATM    5  N   UNL     1      -8.800   0.716 -32.682  1.00  0.00    -0.366 N 
HETATM    6  C   UNL     1      -7.548   0.434 -31.998  1.00  0.00     0.118 C 
HETATM    7  C   UNL     1      -6.840   1.721 -31.538  1.00  0.00     0.066 C 
HETATM    8  C   UNL     1      -6.917   2.916 -32.510  1.00  0.00     0.221 C 
HETATM    9  C   UNL     1     -10.104   2.324 -34.043  1.00  0.00     0.089 A 
HETATM   10  H   UNL     1      -9.392  -0.094 -32.859  1.00  0.00     0.161 HD
ENDROOT
BRANCH   1  11
HETATM   11  C   UNL     1     -10.656   4.577 -35.165  1.00  0.00     0.276 C 
HETATM   12  N   UNL     1     -10.273   5.900 -35.060  1.00  0.00    -0.322 N 
HETATM   13  H   UNL     1      -9.505   6.053 -34.410  1.00  0.00     0.169 HD
HETATM   14  O   UNL     1     -11.585   4.135 -35.834  1.00  0.00    -0.266 OA
BRANCH  12  15
HETATM   15  C   UNL     1     -10.819   7.014 -35.720  1.00  0.00     0.035 A 
HETATM   16  C   UNL     1     -10.155   7.722 -36.726  1.00  0.00     0.039 A 
HETATM   17  C   UNL     1     -10.742   8.840 -37.346  1.00  0.00    -0.028 A 
HETATM   18  C   UNL     1     -12.029   9.226 -36.953  1.00  0.00     0.010 A 
HETATM   19  C   UNL     1     -12.701   8.529 -35.950  1.00  0.00     0.003 A 
HETATM   20  C   UNL     1     -12.096   7.432 -35.331  1.00  0.00     0.029 A 
BRANCH  17  21
HETATM   21  C   UNL     1      -9.980   9.572 -38.430  1.00  0.00     0.147 C 
HETATM   22  C   UNL     1     -10.920  10.291 -39.390  1.00  0.00     0.044 C 
BRANCH  21  23
HETATM   23  O   UNL     1      -9.086  10.525 -37.856  1.00  0.00    -0.391 OA
HETATM   24  H   UNL     1      -9.632  11.246 -37.504  1.00  0.00     0.210 HD
ENDBRANCH  21  23
ENDBRANCH  17  21
ENDBRANCH  12  15
ENDBRANCH   1  11
BRANCH   8  25
HETATM   25  C   UNL     1      -5.779   2.958 -33.506  1.00  0.00     0.409 C 
HETATM   26  F   UNL     1      -5.450   4.202 -33.902  1.00  0.00    -0.169 F 
HETATM   27  F   UNL     1      -4.659   2.376 -33.022  1.00  0.00    -0.169 F 
HETATM   28  F   UNL     1      -6.113   2.261 -34.623  1.00  0.00    -0.169 F 
ENDBRANCH   8  25
BRANCH   6  29
HETATM   29  C   UNL     1      -6.690  -0.551 -32.775  1.00  0.00    -0.035 A 
HETATM   30  C   UNL     1      -5.337  -0.783 -32.474  1.00  0.00     0.012 A 
HETATM   31  C   UNL     1      -4.572  -1.668 -33.239  1.00  0.00     0.043 A 
HETATM   32  C   UNL     1      -5.150  -2.314 -34.320  1.00  0.00     0.116 A 
HETATM   33  F   UNL     1      -4.413  -3.150 -35.064  1.00  0.00    -0.206 F 
HETATM   34  C   UNL     1      -6.484  -2.104 -34.646  1.00  0.00     0.043 A 
HETATM   35  C   UNL     1      -7.253  -1.231 -33.872  1.00  0.00     0.012 A 
ENDBRANCH   6  29
TORSDOF 6
ENDMDL
MODEL 9
REMARK VINA RESULT:      -8.5      3.790      9.695
REMARK  6 active torsions:
REMARK  status: ('A' for Active; 'I' for Inactive)
REMARK    1  A    between atoms: C_2  and  O_3 
REMARK    2  A    between atoms: C_2  and  C_4 
REMARK    3  A    between atoms: C_6  and  N_7 
REMARK       I    between atoms: N_7  and  C_8 
REMARK    4  A    between atoms: C_8  and  C_9 
REMARK    5  A    between atoms: C_14  and  C_15 
REMARK    6  A    between atoms: C_23  and  C_24 
ROOT
HETATM    1  C   UNL     1      -6.200   5.135 -32.165  1.00  0.00     0.148 A 
HETATM    2  N   UNL     1      -5.212   4.785 -33.025  1.00  0.00    -0.165 NA
HETATM    3  N   UNL     1      -4.269   5.725 -32.814  1.00  0.00    -0.240 N 
HETATM    4  C   UNL     1      -4.652   6.705 -31.944  1.00  0.00     0.123 A 
HETATM    5  N   UNL     1      -3.873   7.771 -31.673  1.00  0.00    -0.366 N 
HETATM    6  C   UNL     1      -2.523   7.911 -32.196  1.00  0.00     0.118 C 
HETATM    7  C   UNL     1      -2.313   7.080 -33.475  1.00  0.00     0.066 C 
HETATM    8  C   UNL     1      -2.991   5.695 -33.497  1.00  0.00     0.221 C 
HETATM    9  C   UNL     1      -5.886   6.339 -31.481  1.00  0.00     0.089 A 
HETATM   10  H   UNL     1      -4.122   8.423 -30.931  1.00  0.00     0.161 HD
ENDROOT
BRANCH   1  11
HETATM   11  C   UNL     1      -7.431   4.342 -31.997  1.00  0.00     0.276 C 
HETATM   12  N   UNL     1      -7.556   3.353 -32.952  1.00  0.00    -0.322 N 
HETATM   13  H   UNL     1      -6.807   3.351 -33.640  1.00  0.00     0.169 HD
HETATM   14  O   UNL     1      -8.222   4.592 -31.093  1.00  0.00    -0.266 OA
BRANCH  12  15
HETATM   15  C   UNL     1      -8.578   2.395 -33.077  1.00  0.00     0.035 A 
HETATM   16  C   UNL     1      -9.673   2.538 -33.934  1.00  0.00     0.039 A 
HETATM   17  C   UNL     1     -10.676   1.554 -34.011  1.00  0.00    -0.028 A 
HETATM   18  C   UNL     1     -10.549   0.403 -33.224  1.00  0.00     0.010 A 
HETATM   19  C   UNL     1      -9.461   0.250 -32.365  1.00  0.00     0.003 A 
HETATM   20  C   UNL     1      -8.484   1.245 -32.287  1.00  0.00     0.029 A 
BRANCH  17  21
HETATM   21  C   UNL     1     -11.842   1.757 -34.954  1.00  0.00     0.147 C 
HETATM   22  C   UNL     1     -13.069   0.969 -34.509  1.00  0.00     0.044 C 
BRANCH  21  23
HETATM   23  O   UNL     1     -12.185   3.140 -35.035  1.00  0.00    -0.391 OA
HETATM   24  H   UNL     1     -13.153   3.194 -34.982  1.00  0.00     0.210 HD
ENDBRANCH  21  23
ENDBRANCH  17  21
ENDBRANCH  12  15
ENDBRANCH   1  11
BRANCH   8  25
HETATM   25  C   UNL     1      -2.121   4.586 -32.946  1.00  0.00     0.409 C 
HETATM   26  F   UNL     1      -2.172   4.470 -31.607  1.00  0.00    -0.169 F 
HETATM   27  F   UNL     1      -2.442   3.382 -33.471  1.00  0.00    -0.169 F 
HETATM   28  F   UNL     1      -0.822   4.807 -33.278  1.00  0.00    -0.169 F 
ENDBRANCH   8  25
BRANCH   6  29
HETATM   29  C   UNL     1      -1.476   7.732 -31.111  1.00  0.00    -0.035 A 
HETATM   30  C   UNL     1      -0.211   7.169 -31.359  1.00  0.00     0.012 A 
HETATM   31  C   UNL     1       0.709   6.985 -30.324  1.00  0.00     0.043 A 
HETATM   32  C   UNL     1       0.367   7.347 -29.030  1.00  0.00     0.116 A 
HETATM   33  F   UNL     1       1.243   7.154 -28.035  1.00  0.00    -0.206 F 
HETATM   34  C   UNL     1      -0.876   7.901 -28.751  1.00  0.00     0.043 A 
HETATM   35  C   UNL     1      -1.791   8.099 -29.788  1.00  0.00     0.012 A 
ENDBRANCH   6  29
TORSDOF 6
ENDMDL
MODEL 10
REMARK VINA RESULT:      -8.4      3.848      9.894
REMARK  6 active torsions:
REMARK  status: ('A' for Active; 'I' for Inactive)
REMARK    1  A    between atoms: C_2  and  O_3 
REMARK    2  A    between atoms: C_2  and  C_4 
REMARK    3  A    between atoms: C_6  and  N_7 
REMARK       I    between atoms: N_7  and  C_8 
REMARK    4  A    between atoms: C_8  and  C_9 
REMARK    5  A    between atoms: C_14  and  C_15 
REMARK    6  A    between atoms: C_23  and  C_24 
ROOT
HETATM    1  C   UNL     1      -3.165   3.677 -31.481  1.00  0.00     0.148 A 
HETATM    2  N   UNL     1      -1.933   4.142 -31.802  1.00  0.00    -0.165 NA
HETATM    3  N   UNL     1      -1.943   5.403 -31.324  1.00  0.00    -0.240 N 
HETATM    4  C   UNL     1      -3.149   5.790 -30.813  1.00  0.00     0.123 A 
HETATM    5  N   UNL     1      -3.371   7.041 -30.365  1.00  0.00    -0.366 N 
HETATM    6  C   UNL     1      -2.324   8.047 -30.288  1.00  0.00     0.118 C 
HETATM    7  C   UNL     1      -1.166   7.746 -31.256  1.00  0.00     0.066 C 
HETATM    8  C   UNL     1      -0.777   6.261 -31.401  1.00  0.00     0.221 C 
HETATM    9  C   UNL     1      -3.955   4.687 -30.871  1.00  0.00     0.089 A 
HETATM   10  H   UNL     1      -4.235   7.273 -29.875  1.00  0.00     0.161 HD
ENDROOT
BRANCH   1  11
HETATM   11  C   UNL     1      -3.593   2.293 -31.754  1.00  0.00     0.276 C 
HETATM   12  N   UNL     1      -4.747   2.237 -32.510  1.00  0.00    -0.322 N 
HETATM   13  H   UNL     1      -5.139   3.151 -32.726  1.00  0.00     0.169 HD
HETATM   14  O   UNL     1      -2.956   1.339 -31.317  1.00  0.00    -0.266 OA
BRANCH  12  15
HETATM   15  C   UNL     1      -5.416   1.095 -32.983  1.00  0.00     0.035 A 
HETATM   16  C   UNL     1      -6.793   1.047 -33.219  1.00  0.00     0.039 A 
HETATM   17  C   UNL     1      -7.417  -0.127 -33.681  1.00  0.00    -0.028 A 
HETATM   18  C   UNL     1      -6.626  -1.255 -33.927  1.00  0.00     0.010 A 
HETATM   19  C   UNL     1      -5.252  -1.219 -33.694  1.00  0.00     0.003 A 
HETATM   20  C   UNL     1      -4.651  -0.051 -33.218  1.00  0.00     0.029 A 
BRANCH  17  21
HETATM   21  C   UNL     1      -8.912  -0.127 -33.919  1.00  0.00     0.147 C 
HETATM   22  C   UNL     1      -9.688   0.062 -32.621  1.00  0.00     0.044 C 
BRANCH  21  23
HETATM   23  O   UNL     1      -9.274   0.911 -34.830  1.00  0.00    -0.391 OA
HETATM   24  H   UNL     1      -9.497   0.481 -35.672  1.00  0.00     0.210 HD
ENDBRANCH  21  23
ENDBRANCH  17  21
ENDBRANCH  12  15
ENDBRANCH   1  11
BRANCH   8  25
HETATM   25  C   UNL     1       0.278   5.812 -30.415  1.00  0.00     0.409 C 
HETATM   26  F   UNL     1      -0.225   5.263 -29.294  1.00  0.00    -0.169 F 
HETATM   27  F   UNL     1       1.132   4.915 -30.959  1.00  0.00    -0.169 F 
HETATM   28  F   UNL     1       1.037   6.872 -30.033  1.00  0.00    -0.169 F 
ENDBRANCH   8  25
BRANCH   6  29
HETATM   29  C   UNL     1      -1.926   8.337 -28.850  1.00  0.00    -0.035 A 
HETATM   30  C   UNL     1      -0.770   9.063 -28.513  1.00  0.00     0.012 A 
HETATM   31  C   UNL     1      -0.418   9.274 -27.178  1.00  0.00     0.043 A 
HETATM   32  C   UNL     1      -1.210   8.747 -26.169  1.00  0.00     0.116 A 
HETATM   33  F   UNL     1      -0.864   8.935 -24.888  1.00  0.00    -0.206 F 
HETATM   34  C   UNL     1      -2.356   8.023 -26.469  1.00  0.00     0.043 A 
HETATM   35  C   UNL     1      -2.717   7.824 -27.804  1.00  0.00     0.012 A 
ENDBRANCH   6  29
TORSDOF 6
ENDMDL
