MODEL 1
REMARK VINA RESULT:      -8.1      0.000      0.000
REMARK  5 active torsions:
REMARK  status: ('A' for Active; 'I' for Inactive)
REMARK    1  A    between atoms: C_8  and  N_9 
REMARK       I    between atoms: N_9  and  C_10 
REMARK    2  A    between atoms: C_10  and  C_11 
REMARK    3  A    between atoms: C_11  and  N_12 
REMARK    4  A    between atoms: N_12  and  C_13 
REMARK    5  A    between atoms: C_13  and  C_14 
ROOT
HETATM    1  C   UNL     1      -3.302   2.316 -31.287  1.00  0.00     0.372 C 
ENDROOT
BRANCH   1   2
HETATM    2  C   UNL     1      -3.333   3.792 -31.704  1.00  0.00     0.250 C 
HETATM    3  N   UNL     1      -2.309   4.132 -32.560  1.00  0.00    -0.322 N 
HETATM    4  H   UNL     1      -1.715   3.360 -32.847  1.00  0.00     0.169 HD
HETATM    5  O   UNL     1      -4.246   4.517 -31.325  1.00  0.00    -0.271 OA
BRANCH   3   6
HETATM    6  C   UNL     1      -2.040   5.381 -33.091  1.00  0.00     0.085 A 
HETATM    7  C   UNL     1      -2.657   5.833 -34.242  1.00  0.00     0.052 A 
HETATM    8  C   UNL     1      -3.672   5.236 -35.141  1.00  0.00     0.072 C 
HETATM    9  N   UNL     1      -2.157   7.085 -34.467  1.00  0.00    -0.280 N 
HETATM   10  H   UNL     1      -2.386   7.726 -35.219  1.00  0.00     0.189 HD
HETATM   11  N   UNL     1      -1.256   7.478 -33.564  1.00  0.00    -0.177 NA
HETATM   12  C   UNL     1      -1.165   6.444 -32.714  1.00  0.00     0.079 A 
HETATM   13  C   UNL     1      -0.186   6.542 -31.601  1.00  0.00     0.075 C 
ENDBRANCH   3   6
ENDBRANCH   1   2
BRANCH   1  14
HETATM   14  N   UNL     1      -3.637   1.424 -32.420  1.00  0.00     0.100 N 
HETATM   15  H   UNL     1      -2.943   0.670 -32.444  1.00  0.00     0.317 HD
BRANCH  14  16
HETATM   16  C   UNL     1      -4.963   0.803 -32.259  1.00  0.00     0.251 C 
HETATM   17  C   UNL     1      -5.332   0.455 -30.808  1.00  0.00     0.048 C 
BRANCH  16  18
HETATM   18  C   UNL     1      -5.120  -0.433 -33.146  1.00  0.00    -0.002 A 
HETATM   19  C   UNL     1      -4.322  -1.597 -33.058  1.00  0.00     0.064 A 
HETATM   20 CL   UNL     1      -3.003  -1.688 -31.928  1.00  0.00    -0.082 Cl
HETATM   21  C   UNL     1      -4.599  -2.703 -33.885  1.00  0.00     0.056 A 
HETATM   22 CL   UNL     1      -3.670  -4.165 -33.833  1.00  0.00    -0.083 Cl
HETATM   23  C   UNL     1      -5.661  -2.664 -34.791  1.00  0.00     0.026 A 
HETATM   24  C   UNL     1      -6.452  -1.526 -34.887  1.00  0.00     0.002 A 
HETATM   25  C   UNL     1      -6.184  -0.424 -34.076  1.00  0.00     0.011 A 
ENDBRANCH  16  18
ENDBRANCH  14  16
ENDBRANCH   1  14
TORSDOF 5
ENDMDL
MODEL 2
REMARK VINA RESULT:      -8.0      0.544      1.791
REMARK  5 active torsions:
REMARK  status: ('A' for Active; 'I' for Inactive)
REMARK    1  A    between atoms: C_8  and  N_9 
REMARK       I    between atoms: N_9  and  C_10 
REMARK    2  A    between atoms: C_10  and  C_11 
REMARK    3  A    between atoms: C_11  and  N_12 
REMARK    4  A    between atoms: N_12  and  C_13 
REMARK    5  A    between atoms: C_13  and  C_14 
ROOT
HETATM    1  C   UNL     1      -3.512   1.897 -31.271  1.00  0.00     0.372 C 
ENDROOT
BRANCH   1   2
HETATM    2  C   UNL     1      -3.418   3.375 -31.670  1.00  0.00     0.250 C 
HETATM    3  N   UNL     1      -2.426   3.622 -32.594  1.00  0.00    -0.322 N 
HETATM    4  H   UNL     1      -1.936   2.798 -32.928  1.00  0.00     0.169 HD
HETATM    5  O   UNL     1      -4.223   4.184 -31.222  1.00  0.00    -0.271 OA
BRANCH   3   6
HETATM    6  C   UNL     1      -2.066   4.845 -33.130  1.00  0.00     0.085 A 
HETATM    7  C   UNL     1      -1.064   5.619 -32.576  1.00  0.00     0.052 A 
HETATM    8  C   UNL     1      -0.164   5.420 -31.416  1.00  0.00     0.072 C 
HETATM    9  N   UNL     1      -0.984   6.740 -33.353  1.00  0.00    -0.280 N 
HETATM   10  H   UNL     1      -0.355   7.529 -33.254  1.00  0.00     0.189 HD
HETATM   11  N   UNL     1      -1.860   6.764 -34.360  1.00  0.00    -0.177 NA
HETATM   12  C   UNL     1      -2.539   5.614 -34.237  1.00  0.00     0.079 A 
HETATM   13  C   UNL     1      -3.647   5.353 -35.191  1.00  0.00     0.075 C 
ENDBRANCH   3   6
ENDBRANCH   1   2
BRANCH   1  14
HETATM   14  N   UNL     1      -3.755   1.030 -32.446  1.00  0.00     0.100 N 
HETATM   15  H   UNL     1      -3.045   0.290 -32.444  1.00  0.00     0.317 HD
BRANCH  14  16
HETATM   16  C   UNL     1      -5.076   0.380 -32.387  1.00  0.00     0.251 C 
HETATM   17  C   UNL     1      -5.568   0.064 -30.965  1.00  0.00     0.048 C 
BRANCH  16  18
HETATM   18  C   UNL     1      -5.121  -0.885 -33.246  1.00  0.00    -0.002 A 
HETATM   19  C   UNL     1      -4.257  -1.994 -33.098  1.00  0.00     0.064 A 
HETATM   20 CL   UNL     1      -2.980  -1.975 -31.918  1.00  0.00    -0.082 Cl
HETATM   21  C   UNL     1      -4.434  -3.135 -33.905  1.00  0.00     0.056 A 
HETATM   22 CL   UNL     1      -3.419  -4.534 -33.780  1.00  0.00    -0.083 Cl
HETATM   23  C   UNL     1      -5.461  -3.184 -34.851  1.00  0.00     0.026 A 
HETATM   24  C   UNL     1      -6.315  -2.100 -35.006  1.00  0.00     0.002 A 
HETATM   25  C   UNL     1      -6.147  -0.965 -34.215  1.00  0.00     0.011 A 
ENDBRANCH  16  18
ENDBRANCH  14  16
ENDBRANCH   1  14
TORSDOF 5
ENDMDL
MODEL 3
REMARK VINA RESULT:      -8.0      1.885      2.218
REMARK  5 active torsions:
REMARK  status: ('A' for Active; 'I' for Inactive)
REMARK    1  A    between atoms: C_8  and  N_9 
REMARK       I    between atoms: N_9  and  C_10 
REMARK    2  A    between atoms: C_10  and  C_11 
REMARK    3  A    between atoms: C_11  and  N_12 
REMARK    4  A    between atoms: N_12  and  C_13 
REMARK    5  A    between atoms: C_13  and  C_14 
ROOT
HETATM    1  C   UNL     1      -3.366   2.357 -31.218  1.00  0.00     0.372 C 
ENDROOT
BRANCH   1   2
HETATM    2  C   UNL     1      -3.385   3.816 -31.693  1.00  0.00     0.250 C 
HETATM    3  N   UNL     1      -2.333   4.125 -32.527  1.00  0.00    -0.322 N 
HETATM    4  H   UNL     1      -1.729   3.345 -32.763  1.00  0.00     0.169 HD
HETATM    5  O   UNL     1      -4.312   4.553 -31.374  1.00  0.00    -0.271 OA
BRANCH   3   6
HETATM    6  C   UNL     1      -2.049   5.354 -33.096  1.00  0.00     0.085 A 
HETATM    7  C   UNL     1      -2.665   5.781 -34.257  1.00  0.00     0.052 A 
HETATM    8  C   UNL     1      -3.695   5.172 -35.132  1.00  0.00     0.072 C 
HETATM    9  N   UNL     1      -2.149   7.017 -34.522  1.00  0.00    -0.280 N 
HETATM   10  H   UNL     1      -2.372   7.639 -35.292  1.00  0.00     0.189 HD
HETATM   11  N   UNL     1      -1.236   7.423 -33.637  1.00  0.00    -0.177 NA
HETATM   12  C   UNL     1      -1.155   6.414 -32.757  1.00  0.00     0.079 A 
HETATM   13  C   UNL     1      -0.168   6.531 -31.652  1.00  0.00     0.075 C 
ENDBRANCH   3   6
ENDBRANCH   1   2
BRANCH   1  14
HETATM   14  N   UNL     1      -3.489   1.415 -32.353  1.00  0.00     0.100 N 
HETATM   15  H   UNL     1      -2.572   1.345 -32.806  1.00  0.00     0.317 HD
BRANCH  14  16
HETATM   16  C   UNL     1      -3.868   0.062 -31.907  1.00  0.00     0.251 C 
HETATM   17  C   UNL     1      -2.725  -0.964 -31.942  1.00  0.00     0.048 C 
BRANCH  16  18
HETATM   18  C   UNL     1      -5.071  -0.472 -32.686  1.00  0.00    -0.002 A 
HETATM   19  C   UNL     1      -6.412  -0.075 -32.474  1.00  0.00     0.064 A 
HETATM   20 CL   UNL     1      -6.817   1.052 -31.214  1.00  0.00    -0.082 Cl
HETATM   21  C   UNL     1      -7.434  -0.587 -33.297  1.00  0.00     0.056 A 
HETATM   22 CL   UNL     1      -9.099  -0.146 -33.102  1.00  0.00    -0.083 Cl
HETATM   23  C   UNL     1      -7.136  -1.482 -34.327  1.00  0.00     0.026 A 
HETATM   24  C   UNL     1      -5.823  -1.880 -34.544  1.00  0.00     0.002 A 
HETATM   25  C   UNL     1      -4.804  -1.382 -33.733  1.00  0.00     0.011 A 
ENDBRANCH  16  18
ENDBRANCH  14  16
ENDBRANCH   1  14
TORSDOF 5
ENDMDL
MODEL 4
REMARK VINA RESULT:      -8.0      1.404      2.503
REMARK  5 active torsions:
REMARK  status: ('A' for Active; 'I' for Inactive)
REMARK    1  A    between atoms: C_8  and  N_9 
REMARK       I    between atoms: N_9  and  C_10 
REMARK    2  A    between atoms: C_10  and  C_11 
REMARK    3  A    between atoms: C_11  and  N_12 
REMARK    4  A    between atoms: N_12  and  C_13 
REMARK    5  A    between atoms: C_13  and  C_14 
ROOT
HETATM    1  C   UNL     1      -3.620   1.916 -31.270  1.00  0.00     0.372 C 
ENDROOT
BRANCH   1   2
HETATM    2  C   UNL     1      -3.469   3.395 -31.648  1.00  0.00     0.250 C 
HETATM    3  N   UNL     1      -2.522   3.608 -32.625  1.00  0.00    -0.322 N 
HETATM    4  H   UNL     1      -2.100   2.767 -33.005  1.00  0.00     0.169 HD
HETATM    5  O   UNL     1      -4.200   4.236 -31.136  1.00  0.00    -0.271 OA
BRANCH   3   6
HETATM    6  C   UNL     1      -2.129   4.822 -33.161  1.00  0.00     0.085 A 
HETATM    7  C   UNL     1      -1.120   5.577 -32.594  1.00  0.00     0.052 A 
HETATM    8  C   UNL     1      -0.241   5.363 -31.420  1.00  0.00     0.072 C 
HETATM    9  N   UNL     1      -1.004   6.693 -33.374  1.00  0.00    -0.280 N 
HETATM   10  H   UNL     1      -0.361   7.469 -33.267  1.00  0.00     0.189 HD
HETATM   11  N   UNL     1      -1.865   6.732 -34.393  1.00  0.00    -0.177 NA
HETATM   12  C   UNL     1      -2.570   5.596 -34.277  1.00  0.00     0.079 A 
HETATM   13  C   UNL     1      -3.668   5.355 -35.247  1.00  0.00     0.075 C 
ENDBRANCH   3   6
ENDBRANCH   1   2
BRANCH   1  14
HETATM   14  N   UNL     1      -3.553   1.041 -32.462  1.00  0.00     0.100 N 
HETATM   15  H   UNL     1      -2.852   0.315 -32.282  1.00  0.00     0.317 HD
BRANCH  14  16
HETATM   16  C   UNL     1      -4.837   0.365 -32.721  1.00  0.00     0.251 C 
HETATM   17  C   UNL     1      -5.877   0.521 -31.600  1.00  0.00     0.048 C 
BRANCH  16  18
HETATM   18  C   UNL     1      -4.640  -1.117 -33.045  1.00  0.00    -0.002 A 
HETATM   19  C   UNL     1      -5.360  -1.831 -34.030  1.00  0.00     0.064 A 
HETATM   20 CL   UNL     1      -6.624  -1.061 -34.942  1.00  0.00    -0.082 Cl
HETATM   21  C   UNL     1      -5.048  -3.181 -34.287  1.00  0.00     0.056 A 
HETATM   22 CL   UNL     1      -5.882  -4.121 -35.480  1.00  0.00    -0.083 Cl
HETATM   23  C   UNL     1      -4.027  -3.821 -33.581  1.00  0.00     0.026 A 
HETATM   24  C   UNL     1      -3.313  -3.130 -32.611  1.00  0.00     0.002 A 
HETATM   25  C   UNL     1      -3.616  -1.795 -32.345  1.00  0.00     0.011 A 
ENDBRANCH  16  18
ENDBRANCH  14  16
ENDBRANCH   1  14
TORSDOF 5
ENDMDL
MODEL 5
REMARK VINA RESULT:      -7.6      5.837      7.329
REMARK  5 active torsions:
REMARK  status: ('A' for Active; 'I' for Inactive)
REMARK    1  A    between atoms: C_8  and  N_9 
REMARK       I    between atoms: N_9  and  C_10 
REMARK    2  A    between atoms: C_10  and  C_11 
REMARK    3  A    between atoms: C_11  and  N_12 
REMARK    4  A    between atoms: N_12  and  C_13 
REMARK    5  A    between atoms: C_13  and  C_14 
ROOT
HETATM    1  C   UNL     1      -8.302   0.917 -32.855  1.00  0.00     0.372 C 
ENDROOT
BRANCH   1   2
HETATM    2  C   UNL     1      -9.832   1.023 -32.886  1.00  0.00     0.250 C 
HETATM    3  N   UNL     1     -10.279   2.311 -33.085  1.00  0.00    -0.322 N 
HETATM    4  H   UNL     1      -9.550   2.999 -33.244  1.00  0.00     0.169 HD
HETATM    5  O   UNL     1     -10.518   0.011 -32.801  1.00  0.00    -0.271 OA
BRANCH   3   6
HETATM    6  C   UNL     1     -11.593   2.744 -33.131  1.00  0.00     0.085 A 
HETATM    7  C   UNL     1     -12.420   2.454 -34.200  1.00  0.00     0.052 A 
HETATM    8  C   UNL     1     -12.217   1.683 -35.449  1.00  0.00     0.072 C 
HETATM    9  N   UNL     1     -13.623   3.032 -33.910  1.00  0.00    -0.280 N 
HETATM   10  H   UNL     1     -14.474   3.022 -34.461  1.00  0.00     0.189 HD
HETATM   11  N   UNL     1     -13.642   3.686 -32.746  1.00  0.00    -0.177 NA
HETATM   12  C   UNL     1     -12.404   3.527 -32.255  1.00  0.00     0.079 A 
HETATM   13  C   UNL     1     -12.074   4.193 -30.969  1.00  0.00     0.075 C 
ENDBRANCH   3   6
ENDBRANCH   1   2
BRANCH   1  14
HETATM   14  N   UNL     1      -7.848  -0.467 -33.117  1.00  0.00     0.100 N 
HETATM   15  H   UNL     1      -8.624  -0.977 -33.551  1.00  0.00     0.317 HD
BRANCH  14  16
HETATM   16  C   UNL     1      -6.711  -0.506 -34.055  1.00  0.00     0.251 C 
HETATM   17  C   UNL     1      -6.976   0.179 -35.405  1.00  0.00     0.048 C 
BRANCH  16  18
HETATM   18  C   UNL     1      -6.217  -1.935 -34.284  1.00  0.00    -0.002 A 
HETATM   19  C   UNL     1      -4.955  -2.428 -33.876  1.00  0.00     0.064 A 
HETATM   20 CL   UNL     1      -3.797  -1.382 -33.109  1.00  0.00    -0.082 Cl
HETATM   21  C   UNL     1      -4.631  -3.783 -34.083  1.00  0.00     0.056 A 
HETATM   22 CL   UNL     1      -3.109  -4.462 -33.609  1.00  0.00    -0.083 Cl
HETATM   23  C   UNL     1      -5.548  -4.649 -34.683  1.00  0.00     0.026 A 
HETATM   24  C   UNL     1      -6.789  -4.177 -35.088  1.00  0.00     0.002 A 
HETATM   25  C   UNL     1      -7.119  -2.836 -34.891  1.00  0.00     0.011 A 
ENDBRANCH  16  18
ENDBRANCH  14  16
ENDBRANCH   1  14
TORSDOF 5
ENDMDL
MODEL 6
REMARK VINA RESULT:      -7.5      2.540      2.921
REMARK  5 active torsions:
REMARK  status: ('A' for Active; 'I' for Inactive)
REMARK    1  A    between atoms: C_8  and  N_9 
REMARK       I    between atoms: N_9  and  C_10 
REMARK    2  A    between atoms: C_10  and  C_11 
REMARK    3  A    between atoms: C_11  and  N_12 
REMARK    4  A    between atoms: N_12  and  C_13 
REMARK    5  A    between atoms: C_13  and  C_14 
ROOT
HETATM    1  C   UNL     1      -3.289   2.236 -31.336  1.00  0.00     0.372 C 
ENDROOT
BRANCH   1   2
HETATM    2  C   UNL     1      -3.285   3.731 -31.681  1.00  0.00     0.250 C 
HETATM    3  N   UNL     1      -2.343   4.064 -32.628  1.00  0.00    -0.322 N 
HETATM    4  H   UNL     1      -1.825   3.280 -33.012  1.00  0.00     0.169 HD
HETATM    5  O   UNL     1      -4.113   4.479 -31.172  1.00  0.00    -0.271 OA
BRANCH   3   6
HETATM    6  C   UNL     1      -2.066   5.324 -33.129  1.00  0.00     0.085 A 
HETATM    7  C   UNL     1      -2.681   5.808 -34.267  1.00  0.00     0.052 A 
HETATM    8  C   UNL     1      -3.701   5.239 -35.179  1.00  0.00     0.072 C 
HETATM    9  N   UNL     1      -2.174   7.062 -34.462  1.00  0.00    -0.280 N 
HETATM   10  H   UNL     1      -2.399   7.722 -35.198  1.00  0.00     0.189 HD
HETATM   11  N   UNL     1      -1.269   7.427 -33.552  1.00  0.00    -0.177 NA
HETATM   12  C   UNL     1      -1.183   6.372 -32.727  1.00  0.00     0.079 A 
HETATM   13  C   UNL     1      -0.202   6.436 -31.613  1.00  0.00     0.075 C 
ENDBRANCH   3   6
ENDBRANCH   1   2
BRANCH   1  14
HETATM   14  N   UNL     1      -4.129   1.463 -32.279  1.00  0.00     0.100 N 
HETATM   15  H   UNL     1      -3.723   0.526 -32.367  1.00  0.00     0.317 HD
BRANCH  14  16
HETATM   16  C   UNL     1      -5.508   1.305 -31.786  1.00  0.00     0.251 C 
HETATM   17  C   UNL     1      -5.648   0.370 -30.574  1.00  0.00     0.048 C 
BRANCH  16  18
HETATM   18  C   UNL     1      -6.459   0.862 -32.898  1.00  0.00    -0.002 A 
HETATM   19  C   UNL     1      -7.811   1.259 -33.012  1.00  0.00     0.064 A 
HETATM   20 CL   UNL     1      -8.544   2.274 -31.805  1.00  0.00    -0.082 Cl
HETATM   21  C   UNL     1      -8.577   0.839 -34.117  1.00  0.00     0.056 A 
HETATM   22 CL   UNL     1     -10.237   1.287 -34.328  1.00  0.00    -0.083 Cl
HETATM   23  C   UNL     1      -8.010   0.036 -35.109  1.00  0.00     0.026 A 
HETATM   24  C   UNL     1      -6.683  -0.361 -35.009  1.00  0.00     0.002 A 
HETATM   25  C   UNL     1      -5.917   0.046 -33.917  1.00  0.00     0.011 A 
ENDBRANCH  16  18
ENDBRANCH  14  16
ENDBRANCH   1  14
TORSDOF 5
ENDMDL
MODEL 7
REMARK VINA RESULT:      -7.4      4.863      7.089
REMARK  5 active torsions:
REMARK  status: ('A' for Active; 'I' for Inactive)
REMARK    1  A    between atoms: C_8  and  N_9 
REMARK       I    between atoms: N_9  and  C_10 
REMARK    2  A    between atoms: C_10  and  C_11 
REMARK    3  A    between atoms: C_11  and  N_12 
REMARK    4  A    between atoms: N_12  and  C_13 
REMARK    5  A    between atoms: C_13  and  C_14 
ROOT
HETATM    1  C   UNL     1      -7.934   1.473 -32.357  1.00  0.00     0.372 C 
ENDROOT
BRANCH   1   2
HETATM    2  C   UNL     1      -8.878   1.566 -33.563  1.00  0.00     0.250 C 
HETATM    3  N   UNL     1     -10.180   1.841 -33.208  1.00  0.00    -0.322 N 
HETATM    4  H   UNL     1     -10.330   2.004 -32.217  1.00  0.00     0.169 HD
HETATM    5  O   UNL     1      -8.432   1.460 -34.700  1.00  0.00    -0.271 OA
BRANCH   3   6
HETATM    6  C   UNL     1     -11.272   1.956 -34.050  1.00  0.00     0.085 A 
HETATM    7  C   UNL     1     -12.260   0.991 -34.101  1.00  0.00     0.052 A 
HETATM    8  C   UNL     1     -12.462  -0.282 -33.369  1.00  0.00     0.072 C 
HETATM    9  N   UNL     1     -13.163   1.429 -35.027  1.00  0.00    -0.280 N 
HETATM   10  H   UNL     1     -14.024   0.983 -35.325  1.00  0.00     0.189 HD
HETATM   11  N   UNL     1     -12.838   2.593 -35.592  1.00  0.00    -0.177 NA
HETATM   12  C   UNL     1     -11.676   2.931 -35.011  1.00  0.00     0.079 A 
HETATM   13  C   UNL     1     -11.006   4.176 -35.467  1.00  0.00     0.075 C 
ENDBRANCH   3   6
ENDBRANCH   1   2
BRANCH   1  14
HETATM   14  N   UNL     1      -7.512   0.077 -32.103  1.00  0.00     0.100 N 
HETATM   15  H   UNL     1      -8.038  -0.532 -32.738  1.00  0.00     0.317 HD
BRANCH  14  16
HETATM   16  C   UNL     1      -6.079  -0.124 -32.382  1.00  0.00     0.251 C 
HETATM   17  C   UNL     1      -5.363   1.106 -32.963  1.00  0.00     0.048 C 
BRANCH  16  18
HETATM   18  C   UNL     1      -5.843  -1.337 -33.283  1.00  0.00    -0.002 A 
HETATM   19  C   UNL     1      -4.725  -2.199 -33.201  1.00  0.00     0.064 A 
HETATM   20 CL   UNL     1      -3.447  -1.893 -32.063  1.00  0.00    -0.082 Cl
HETATM   21  C   UNL     1      -4.645  -3.326 -34.041  1.00  0.00     0.056 A 
HETATM   22 CL   UNL     1      -3.310  -4.431 -33.998  1.00  0.00    -0.083 Cl
HETATM   23  C   UNL     1      -5.664  -3.606 -34.954  1.00  0.00     0.026 A 
HETATM   24  C   UNL     1      -6.766  -2.767 -35.044  1.00  0.00     0.002 A 
HETATM   25  C   UNL     1      -6.855  -1.646 -34.219  1.00  0.00     0.011 A 
ENDBRANCH  16  18
ENDBRANCH  14  16
ENDBRANCH   1  14
TORSDOF 5
ENDMDL
MODEL 8
REMARK VINA RESULT:      -7.3      3.984      5.567
REMARK  5 active torsions:
REMARK  status: ('A' for Active; 'I' for Inactive)
REMARK    1  A    between atoms: C_8  and  N_9 
REMARK       I    between atoms: N_9  and  C_10 
REMARK    2  A    between atoms: C_10  and  C_11 
REMARK    3  A    between atoms: C_11  and  N_12 
REMARK    4  A    between atoms: N_12  and  C_13 
REMARK    5  A    between atoms: C_13  and  C_14 
ROOT
HETATM    1  C   UNL     1      -5.419   1.913 -30.766  1.00  0.00     0.372 C 
ENDROOT
BRANCH   1   2
HETATM    2  C   UNL     1      -6.625   2.579 -31.440  1.00  0.00     0.250 C 
HETATM    3  N   UNL     1      -7.817   1.953 -31.153  1.00  0.00    -0.322 N 
HETATM    4  H   UNL     1      -7.750   1.183 -30.494  1.00  0.00     0.169 HD
HETATM    5  O   UNL     1      -6.471   3.602 -32.099  1.00  0.00    -0.271 OA
BRANCH   3   6
HETATM    6  C   UNL     1      -9.074   2.286 -31.626  1.00  0.00     0.085 A 
HETATM    7  C   UNL     1      -9.780   1.452 -32.472  1.00  0.00     0.052 A 
HETATM    8  C   UNL     1      -9.484   0.119 -33.049  1.00  0.00     0.072 C 
HETATM    9  N   UNL     1     -10.959   2.092 -32.731  1.00  0.00    -0.280 N 
HETATM   10  H   UNL     1     -11.730   1.777 -33.309  1.00  0.00     0.189 HD
HETATM   11  N   UNL     1     -11.072   3.280 -32.134  1.00  0.00    -0.177 NA
HETATM   12  C   UNL     1      -9.923   3.421 -31.455  1.00  0.00     0.079 A 
HETATM   13  C   UNL     1      -9.705   4.688 -30.710  1.00  0.00     0.075 C 
ENDBRANCH   3   6
ENDBRANCH   1   2
BRANCH   1  14
HETATM   14  N   UNL     1      -5.451   0.441 -30.925  1.00  0.00     0.100 N 
HETATM   15  H   UNL     1      -6.274   0.203 -31.488  1.00  0.00     0.317 HD
BRANCH  14  16
HETATM   16  C   UNL     1      -4.264  -0.062 -31.639  1.00  0.00     0.251 C 
HETATM   17  C   UNL     1      -3.341   1.036 -32.193  1.00  0.00     0.048 C 
BRANCH  16  18
HETATM   18  C   UNL     1      -4.647  -1.033 -32.756  1.00  0.00    -0.002 A 
HETATM   19  C   UNL     1      -4.112  -2.333 -32.914  1.00  0.00     0.064 A 
HETATM   20 CL   UNL     1      -2.878  -2.925 -31.841  1.00  0.00    -0.082 Cl
HETATM   21  C   UNL     1      -4.587  -3.167 -33.945  1.00  0.00     0.056 A 
HETATM   22 CL   UNL     1      -3.985  -4.772 -34.201  1.00  0.00    -0.083 Cl
HETATM   23  C   UNL     1      -5.588  -2.724 -34.813  1.00  0.00     0.026 A 
HETATM   24  C   UNL     1      -6.121  -1.450 -34.667  1.00  0.00     0.002 A 
HETATM   25  C   UNL     1      -5.655  -0.615 -33.653  1.00  0.00     0.011 A 
ENDBRANCH  16  18
ENDBRANCH  14  16
ENDBRANCH   1  14
TORSDOF 5
ENDMDL
MODEL 9
REMARK VINA RESULT:      -7.1      7.021      9.169
REMARK  5 active torsions:
REMARK  status: ('A' for Active; 'I' for Inactive)
REMARK    1  A    between atoms: C_8  and  N_9 
REMARK       I    between atoms: N_9  and  C_10 
REMARK    2  A    between atoms: C_10  and  C_11 
REMARK    3  A    between atoms: C_11  and  N_12 
REMARK    4  A    between atoms: N_12  and  C_13 
REMARK    5  A    between atoms: C_13  and  C_14 
ROOT
HETATM    1  C   UNL     1     -10.405   2.811 -33.189  1.00  0.00     0.372 C 
ENDROOT
BRANCH   1   2
HETATM    2  C   UNL     1     -11.882   3.028 -33.543  1.00  0.00     0.250 C 
HETATM    3  N   UNL     1     -12.744   2.406 -32.667  1.00  0.00    -0.322 N 
HETATM    4  H   UNL     1     -12.297   1.945 -31.880  1.00  0.00     0.169 HD
HETATM    5  O   UNL     1     -12.186   3.749 -34.487  1.00  0.00    -0.271 OA
BRANCH   3   6
HETATM    6  C   UNL     1     -14.126   2.382 -32.725  1.00  0.00     0.085 A 
HETATM    7  C   UNL     1     -14.901   3.302 -32.046  1.00  0.00     0.052 A 
HETATM    8  C   UNL     1     -14.565   4.456 -31.180  1.00  0.00     0.072 C 
HETATM    9  N   UNL     1     -16.198   2.980 -32.328  1.00  0.00    -0.280 N 
HETATM   10  H   UNL     1     -17.043   3.440 -32.010  1.00  0.00     0.189 HD
HETATM   11  N   UNL     1     -16.330   1.917 -33.125  1.00  0.00    -0.177 NA
HETATM   12  C   UNL     1     -15.070   1.531 -33.376  1.00  0.00     0.079 A 
HETATM   13  C   UNL     1     -14.865   0.317 -34.207  1.00  0.00     0.075 C 
ENDBRANCH   3   6
ENDBRANCH   1   2
BRANCH   1  14
HETATM   14  N   UNL     1     -10.170   1.455 -32.644  1.00  0.00     0.100 N 
HETATM   15  H   UNL     1     -10.224   0.789 -33.422  1.00  0.00     0.317 HD
BRANCH  14  16
HETATM   16  C   UNL     1      -8.830   1.327 -32.044  1.00  0.00     0.251 C 
HETATM   17  C   UNL     1      -8.166   2.664 -31.677  1.00  0.00     0.048 C 
BRANCH  16  18
HETATM   18  C   UNL     1      -7.891   0.504 -32.927  1.00  0.00    -0.002 A 
HETATM   19  C   UNL     1      -6.751  -0.192 -32.464  1.00  0.00     0.064 A 
HETATM   20 CL   UNL     1      -6.273  -0.107 -30.794  1.00  0.00    -0.082 Cl
HETATM   21  C   UNL     1      -5.993  -0.973 -33.359  1.00  0.00     0.056 A 
HETATM   22 CL   UNL     1      -4.587  -1.857 -32.867  1.00  0.00    -0.083 Cl
HETATM   23  C   UNL     1      -6.362  -1.071 -34.703  1.00  0.00     0.026 A 
HETATM   24  C   UNL     1      -7.480  -0.392 -35.169  1.00  0.00     0.002 A 
HETATM   25  C   UNL     1      -8.234   0.387 -34.292  1.00  0.00     0.011 A 
ENDBRANCH  16  18
ENDBRANCH  14  16
ENDBRANCH   1  14
TORSDOF 5
ENDMDL
MODEL 10
REMARK VINA RESULT:      -7.0      3.826      8.012
REMARK  5 active torsions:
REMARK  status: ('A' for Active; 'I' for Inactive)
REMARK    1  A    between atoms: C_8  and  N_9 
REMARK       I    between atoms: N_9  and  C_10 
REMARK    2  A    between atoms: C_10  and  C_11 
REMARK    3  A    between atoms: C_11  and  N_12 
REMARK    4  A    between atoms: N_12  and  C_13 
REMARK    5  A    between atoms: C_13  and  C_14 
ROOT
HETATM    1  C   UNL     1      -4.757   3.251 -31.141  1.00  0.00     0.372 C 
ENDROOT
BRANCH   1   2
HETATM    2  C   UNL     1      -5.012   1.752 -31.347  1.00  0.00     0.250 C 
HETATM    3  N   UNL     1      -4.749   1.333 -32.633  1.00  0.00    -0.322 N 
HETATM    4  H   UNL     1      -4.370   2.045 -33.248  1.00  0.00     0.169 HD
HETATM    5  O   UNL     1      -5.349   1.052 -30.399  1.00  0.00    -0.271 OA
BRANCH   3   6
HETATM    6  C   UNL     1      -4.906   0.057 -33.147  1.00  0.00     0.085 A 
HETATM    7  C   UNL     1      -5.866  -0.233 -34.098  1.00  0.00     0.052 A 
HETATM    8  C   UNL     1      -6.875   0.597 -34.794  1.00  0.00     0.072 C 
HETATM    9  N   UNL     1      -5.734  -1.566 -34.366  1.00  0.00    -0.280 N 
HETATM   10  H   UNL     1      -6.266  -2.130 -35.020  1.00  0.00     0.189 HD
HETATM   11  N   UNL     1      -4.777  -2.169 -33.658  1.00  0.00    -0.177 NA
HETATM   12  C   UNL     1      -4.260  -1.192 -32.898  1.00  0.00     0.079 A 
HETATM   13  C   UNL     1      -3.187  -1.551 -31.936  1.00  0.00     0.075 C 
ENDBRANCH   3   6
ENDBRANCH   1   2
BRANCH   1  14
HETATM   14  N   UNL     1      -3.311   3.547 -31.034  1.00  0.00     0.100 N 
HETATM   15  H   UNL     1      -2.795   2.704 -31.305  1.00  0.00     0.317 HD
BRANCH  14  16
HETATM   16  C   UNL     1      -2.901   4.630 -31.945  1.00  0.00     0.251 C 
HETATM   17  C   UNL     1      -2.427   4.155 -33.328  1.00  0.00     0.048 C 
BRANCH  16  18
HETATM   18  C   UNL     1      -1.839   5.530 -31.312  1.00  0.00    -0.002 A 
HETATM   19  C   UNL     1      -2.097   6.523 -30.338  1.00  0.00     0.064 A 
HETATM   20 CL   UNL     1      -3.722   6.854 -29.814  1.00  0.00    -0.082 Cl
HETATM   21  C   UNL     1      -1.030   7.250 -29.776  1.00  0.00     0.056 A 
HETATM   22 CL   UNL     1      -1.265   8.478 -28.577  1.00  0.00    -0.083 Cl
HETATM   23  C   UNL     1       0.287   6.995 -30.167  1.00  0.00     0.026 A 
HETATM   24  C   UNL     1       0.553   6.023 -31.123  1.00  0.00     0.002 A 
HETATM   25  C   UNL     1      -0.497   5.300 -31.688  1.00  0.00     0.011 A 
ENDBRANCH  16  18
ENDBRANCH  14  16
ENDBRANCH   1  14
TORSDOF 5
ENDMDL
