MODEL 1
REMARK VINA RESULT:      -8.5      0.000      0.000
REMARK  9 active torsions:
REMARK  status: ('A' for Active; 'I' for Inactive)
REMARK    1  A    between atoms: C_3  and  N_4 
REMARK    2  A    between atoms: N_4  and  S_5 
REMARK    3  A    between atoms: S_5  and  C_6 
REMARK    4  A    between atoms: C_12  and  C_13 
REMARK       I    between atoms: C_13  and  N_14 
REMARK    5  A    between atoms: N_14  and  C_15 
REMARK    6  A    between atoms: C_15  and  C_16 
REMARK    7  A    between atoms: C_16  and  C_17 
REMARK    8  A    between atoms: C_17  and  O_18 
REMARK    9  A    between atoms: O_18  and  C_19 
ROOT
HETATM    1  C   UNL     1      -4.508   1.389 -32.474  1.00  0.00     0.081 A 
HETATM    2  C   UNL     1      -3.476   2.210 -32.009  1.00  0.00     0.043 A 
HETATM    3  C   UNL     1      -3.555   3.587 -32.230  1.00  0.00     0.043 A 
HETATM    4  C   UNL     1      -4.667   4.155 -32.877  1.00  0.00     0.046 A 
HETATM    5  N   UNL     1      -4.709   5.535 -33.099  1.00  0.00    -0.364 N 
HETATM    6  C   UNL     1      -3.680   6.347 -32.697  1.00  0.00     0.109 A 
HETATM    7  C   UNL     1      -2.559   5.935 -32.079  1.00  0.00     0.098 A 
HETATM    8  C   UNL     1      -2.443   4.476 -31.798  1.00  0.00     0.201 A 
HETATM    9  O   UNL     1      -1.453   3.999 -31.248  1.00  0.00    -0.286 OA
HETATM   10  C   UNL     1      -5.696   3.318 -33.321  1.00  0.00     0.032 A 
HETATM   11  C   UNL     1      -5.621   1.936 -33.119  1.00  0.00     0.027 A 
HETATM   12  H   UNL     1      -5.534   5.957 -33.510  1.00  0.00     0.165 HD
ENDROOT
BRANCH   1  13
HETATM   13  S   UNL     1      -4.411  -0.363 -32.188  1.00  0.00     0.263 S 
HETATM   14  O   UNL     1      -5.669  -0.792 -31.615  1.00  0.00    -0.200 OA
HETATM   15  O   UNL     1      -3.157  -0.612 -31.507  1.00  0.00    -0.200 OA
BRANCH  13  16
HETATM   16  N   UNL     1      -4.241  -0.990 -33.737  1.00  0.00    -0.280 N 
HETATM   17  H   UNL     1      -4.097  -0.284 -34.456  1.00  0.00     0.179 HD
BRANCH  16  18
HETATM   18  C   UNL     1      -4.852  -2.225 -34.091  1.00  0.00     0.048 A 
HETATM   19  C   UNL     1      -6.145  -2.273 -34.634  1.00  0.00    -0.035 A 
HETATM   20  C   UNL     1      -7.006  -1.057 -34.839  1.00  0.00     0.050 C 
HETATM   21  C   UNL     1      -6.697  -3.528 -34.947  1.00  0.00     0.009 A 
HETATM   22  C   UNL     1      -5.970  -4.702 -34.750  1.00  0.00     0.001 A 
HETATM   23  C   UNL     1      -4.684  -4.641 -34.223  1.00  0.00     0.002 A 
HETATM   24  C   UNL     1      -4.130  -3.406 -33.890  1.00  0.00     0.030 A 
ENDBRANCH  16  18
ENDBRANCH  13  16
ENDBRANCH   1  13
BRANCH   7  25
HETATM   25  C   UNL     1      -1.508   6.945 -31.762  1.00  0.00     0.257 C 
HETATM   26  N   UNL     1      -0.736   6.664 -30.665  1.00  0.00    -0.357 N 
HETATM   27  H   UNL     1      -0.940   5.817 -30.131  1.00  0.00     0.162 HD
HETATM   28  O   UNL     1      -1.339   7.940 -32.462  1.00  0.00    -0.267 OA
BRANCH  26  29
HETATM   29  C   UNL     1       0.408   7.464 -30.286  1.00  0.00     0.125 C 
BRANCH  29  30
HETATM   30  C   UNL     1       0.550   7.610 -28.777  1.00  0.00     0.046 C 
BRANCH  30  31
HETATM   31  C   UNL     1      -0.437   8.642 -28.243  1.00  0.00     0.169 C 
BRANCH  31  32
HETATM   32  O   UNL     1      -1.744   8.070 -28.237  1.00  0.00    -0.387 OA
BRANCH  32  33
HETATM   33  C   UNL     1      -2.773   8.984 -28.630  1.00  0.00     0.113 C 
HETATM   34  C   UNL     1      -2.257   9.998 -29.648  1.00  0.00     0.039 C 
HETATM   35  C   UNL     1      -3.898   8.155 -29.239  1.00  0.00     0.039 C 
ENDBRANCH  32  33
ENDBRANCH  31  32
ENDBRANCH  30  31
ENDBRANCH  29  30
ENDBRANCH  26  29
ENDBRANCH   7  25
TORSDOF 9
ENDMDL
MODEL 2
REMARK VINA RESULT:      -8.5      2.224     10.071
REMARK  9 active torsions:
REMARK  status: ('A' for Active; 'I' for Inactive)
REMARK    1  A    between atoms: C_3  and  N_4 
REMARK    2  A    between atoms: N_4  and  S_5 
REMARK    3  A    between atoms: S_5  and  C_6 
REMARK    4  A    between atoms: C_12  and  C_13 
REMARK       I    between atoms: C_13  and  N_14 
REMARK    5  A    between atoms: N_14  and  C_15 
REMARK    6  A    between atoms: C_15  and  C_16 
REMARK    7  A    between atoms: C_16  and  C_17 
REMARK    8  A    between atoms: C_17  and  O_18 
REMARK    9  A    between atoms: O_18  and  C_19 
ROOT
HETATM    1  C   UNL     1      -1.175   5.556 -32.029  1.00  0.00     0.081 A 
HETATM    2  C   UNL     1      -2.091   4.533 -31.771  1.00  0.00     0.043 A 
HETATM    3  C   UNL     1      -3.209   4.401 -32.599  1.00  0.00     0.043 A 
HETATM    4  C   UNL     1      -3.401   5.256 -33.698  1.00  0.00     0.046 A 
HETATM    5  N   UNL     1      -4.539   5.110 -34.498  1.00  0.00    -0.364 N 
HETATM    6  C   UNL     1      -5.475   4.145 -34.227  1.00  0.00     0.109 A 
HETATM    7  C   UNL     1      -5.420   3.273 -33.206  1.00  0.00     0.098 A 
HETATM    8  C   UNL     1      -4.231   3.358 -32.311  1.00  0.00     0.201 A 
HETATM    9  O   UNL     1      -4.093   2.613 -31.344  1.00  0.00    -0.286 OA
HETATM   10  C   UNL     1      -2.465   6.263 -33.949  1.00  0.00     0.032 A 
HETATM   11  C   UNL     1      -1.349   6.415 -33.118  1.00  0.00     0.027 A 
HETATM   12  H   UNL     1      -4.653   5.683 -35.327  1.00  0.00     0.165 HD
ENDROOT
BRANCH   1  13
HETATM   13  S   UNL     1       0.251   5.720 -30.980  1.00  0.00     0.263 S 
HETATM   14  O   UNL     1       0.930   6.948 -31.336  1.00  0.00    -0.200 OA
HETATM   15  O   UNL     1       0.945   4.449 -31.005  1.00  0.00    -0.200 OA
BRANCH  13  16
HETATM   16  N   UNL     1      -0.422   5.861 -29.446  1.00  0.00    -0.280 N 
HETATM   17  H   UNL     1      -1.350   5.450 -29.363  1.00  0.00     0.179 HD
BRANCH  16  18
HETATM   18  C   UNL     1      -0.061   6.939 -28.592  1.00  0.00     0.048 A 
HETATM   19  C   UNL     1      -0.761   8.155 -28.612  1.00  0.00    -0.035 A 
HETATM   20  C   UNL     1      -1.896   8.445 -29.553  1.00  0.00     0.050 C 
HETATM   21  C   UNL     1      -0.341   9.186 -27.752  1.00  0.00     0.009 A 
HETATM   22  C   UNL     1       0.729   9.001 -26.875  1.00  0.00     0.001 A 
HETATM   23  C   UNL     1       1.406   7.786 -26.855  1.00  0.00     0.002 A 
HETATM   24  C   UNL     1       1.015   6.761 -27.714  1.00  0.00     0.030 A 
ENDBRANCH  16  18
ENDBRANCH  13  16
ENDBRANCH   1  13
BRANCH   7  25
HETATM   25  C   UNL     1      -6.555   2.324 -33.017  1.00  0.00     0.257 C 
HETATM   26  N   UNL     1      -6.212   0.997 -32.984  1.00  0.00    -0.357 N 
HETATM   27  H   UNL     1      -5.230   0.746 -33.113  1.00  0.00     0.162 HD
HETATM   28  O   UNL     1      -7.709   2.720 -32.874  1.00  0.00    -0.267 OA
BRANCH  26  29
HETATM   29  C   UNL     1      -7.162  -0.050 -32.683  1.00  0.00     0.125 C 
BRANCH  29  30
HETATM   30  C   UNL     1      -7.927  -0.522 -33.913  1.00  0.00     0.046 C 
BRANCH  30  31
HETATM   31  C   UNL     1      -6.991  -1.227 -34.888  1.00  0.00     0.169 C 
BRANCH  31  32
HETATM   32  O   UNL     1      -6.041  -1.989 -34.147  1.00  0.00    -0.387 OA
BRANCH  32  33
HETATM   33  C   UNL     1      -5.464  -3.067 -34.890  1.00  0.00     0.113 C 
HETATM   34  C   UNL     1      -4.240  -3.640 -34.180  1.00  0.00     0.039 C 
HETATM   35  C   UNL     1      -6.538  -4.140 -35.030  1.00  0.00     0.039 C 
ENDBRANCH  32  33
ENDBRANCH  31  32
ENDBRANCH  30  31
ENDBRANCH  29  30
ENDBRANCH  26  29
ENDBRANCH   7  25
TORSDOF 9
ENDMDL
MODEL 3
REMARK VINA RESULT:      -8.4      1.440      2.000
REMARK  9 active torsions:
REMARK  status: ('A' for Active; 'I' for Inactive)
REMARK    1  A    between atoms: C_3  and  N_4 
REMARK    2  A    between atoms: N_4  and  S_5 
REMARK    3  A    between atoms: S_5  and  C_6 
REMARK    4  A    between atoms: C_12  and  C_13 
REMARK       I    between atoms: C_13  and  N_14 
REMARK    5  A    between atoms: N_14  and  C_15 
REMARK    6  A    between atoms: C_15  and  C_16 
REMARK    7  A    between atoms: C_16  and  C_17 
REMARK    8  A    between atoms: C_17  and  O_18 
REMARK    9  A    between atoms: O_18  and  C_19 
ROOT
HETATM    1  C   UNL     1      -6.435   1.600 -33.249  1.00  0.00     0.081 A 
HETATM    2  C   UNL     1      -5.203   1.882 -32.654  1.00  0.00     0.043 A 
HETATM    3  C   UNL     1      -4.702   3.185 -32.717  1.00  0.00     0.043 A 
HETATM    4  C   UNL     1      -5.434   4.213 -33.337  1.00  0.00     0.046 A 
HETATM    5  N   UNL     1      -4.899   5.503 -33.402  1.00  0.00    -0.364 N 
HETATM    6  C   UNL     1      -3.666   5.784 -32.870  1.00  0.00     0.109 A 
HETATM    7  C   UNL     1      -2.861   4.897 -32.261  1.00  0.00     0.098 A 
HETATM    8  C   UNL     1      -3.365   3.499 -32.144  1.00  0.00     0.201 A 
HETATM    9  O   UNL     1      -2.699   2.612 -31.615  1.00  0.00    -0.286 OA
HETATM   10  C   UNL     1      -6.673   3.913 -33.913  1.00  0.00     0.032 A 
HETATM   11  C   UNL     1      -7.177   2.610 -33.869  1.00  0.00     0.027 A 
HETATM   12  H   UNL     1      -5.447   6.261 -33.793  1.00  0.00     0.165 HD
ENDROOT
BRANCH   1  13
HETATM   13  S   UNL     1      -7.076  -0.056 -33.161  1.00  0.00     0.263 S 
HETATM   14  O   UNL     1      -8.516   0.015 -33.283  1.00  0.00    -0.200 OA
HETATM   15  O   UNL     1      -6.453  -0.691 -32.017  1.00  0.00    -0.200 OA
BRANCH  13  16
HETATM   16  N   UNL     1      -6.419  -0.788 -34.524  1.00  0.00    -0.280 N 
HETATM   17  H   UNL     1      -6.781  -0.423 -35.403  1.00  0.00     0.179 HD
BRANCH  16  18
HETATM   18  C   UNL     1      -5.944  -2.126 -34.471  1.00  0.00     0.048 A 
HETATM   19  C   UNL     1      -4.632  -2.422 -34.068  1.00  0.00    -0.035 A 
HETATM   20  C   UNL     1      -3.615  -1.372 -33.715  1.00  0.00     0.050 C 
HETATM   21  C   UNL     1      -4.220  -3.767 -34.053  1.00  0.00     0.009 A 
HETATM   22  C   UNL     1      -5.099  -4.792 -34.403  1.00  0.00     0.001 A 
HETATM   23  C   UNL     1      -6.401  -4.488 -34.787  1.00  0.00     0.002 A 
HETATM   24  C   UNL     1      -6.819  -3.159 -34.825  1.00  0.00     0.030 A 
ENDBRANCH  16  18
ENDBRANCH  13  16
ENDBRANCH   1  13
BRANCH   7  25
HETATM   25  C   UNL     1      -1.522   5.356 -31.790  1.00  0.00     0.257 C 
HETATM   26  N   UNL     1      -1.254   5.125 -30.466  1.00  0.00    -0.357 N 
HETATM   27  H   UNL     1      -1.979   4.689 -29.893  1.00  0.00     0.162 HD
HETATM   28  O   UNL     1      -0.714   5.876 -32.555  1.00  0.00    -0.267 OA
BRANCH  26  29
HETATM   29  C   UNL     1       0.037   5.388 -29.870  1.00  0.00     0.125 C 
BRANCH  29  30
HETATM   30  C   UNL     1       0.102   6.744 -29.180  1.00  0.00     0.046 C 
BRANCH  30  31
HETATM   31  C   UNL     1      -1.098   6.934 -28.259  1.00  0.00     0.169 C 
BRANCH  31  32
HETATM   32  O   UNL     1      -2.126   7.615 -28.974  1.00  0.00    -0.387 OA
BRANCH  32  33
HETATM   33  C   UNL     1      -1.658   8.745 -29.717  1.00  0.00     0.113 C 
HETATM   34  C   UNL     1      -2.352   8.847 -31.073  1.00  0.00     0.039 C 
HETATM   35  C   UNL     1      -1.956   9.985 -28.881  1.00  0.00     0.039 C 
ENDBRANCH  32  33
ENDBRANCH  31  32
ENDBRANCH  30  31
ENDBRANCH  29  30
ENDBRANCH  26  29
ENDBRANCH   7  25
TORSDOF 9
ENDMDL
MODEL 4
REMARK VINA RESULT:      -8.4      1.823      2.758
REMARK  9 active torsions:
REMARK  status: ('A' for Active; 'I' for Inactive)
REMARK    1  A    between atoms: C_3  and  N_4 
REMARK    2  A    between atoms: N_4  and  S_5 
REMARK    3  A    between atoms: S_5  and  C_6 
REMARK    4  A    between atoms: C_12  and  C_13 
REMARK       I    between atoms: C_13  and  N_14 
REMARK    5  A    between atoms: N_14  and  C_15 
REMARK    6  A    between atoms: C_15  and  C_16 
REMARK    7  A    between atoms: C_16  and  C_17 
REMARK    8  A    between atoms: C_17  and  O_18 
REMARK    9  A    between atoms: O_18  and  C_19 
ROOT
HETATM    1  C   UNL     1      -6.419   1.508 -33.261  1.00  0.00     0.081 A 
HETATM    2  C   UNL     1      -5.248   1.742 -32.536  1.00  0.00     0.043 A 
HETATM    3  C   UNL     1      -4.700   3.028 -32.531  1.00  0.00     0.043 A 
HETATM    4  C   UNL     1      -5.328   4.085 -33.212  1.00  0.00     0.046 A 
HETATM    5  N   UNL     1      -4.746   5.357 -33.204  1.00  0.00    -0.364 N 
HETATM    6  C   UNL     1      -3.568   5.591 -32.541  1.00  0.00     0.109 A 
HETATM    7  C   UNL     1      -2.862   4.672 -31.861  1.00  0.00     0.098 A 
HETATM    8  C   UNL     1      -3.422   3.291 -31.816  1.00  0.00     0.201 A 
HETATM    9  O   UNL     1      -2.846   2.377 -31.230  1.00  0.00    -0.286 OA
HETATM   10  C   UNL     1      -6.508   3.833 -33.919  1.00  0.00     0.032 A 
HETATM   11  C   UNL     1      -7.057   2.547 -33.944  1.00  0.00     0.027 A 
HETATM   12  H   UNL     1      -5.224   6.136 -33.642  1.00  0.00     0.165 HD
ENDROOT
BRANCH   1  13
HETATM   13  S   UNL     1      -7.119  -0.126 -33.261  1.00  0.00     0.263 S 
HETATM   14  O   UNL     1      -8.544  -0.002 -33.486  1.00  0.00    -0.200 OA
HETATM   15  O   UNL     1      -6.605  -0.809 -32.092  1.00  0.00    -0.200 OA
BRANCH  13  16
HETATM   16  N   UNL     1      -6.390  -0.850 -34.590  1.00  0.00    -0.280 N 
HETATM   17  H   UNL     1      -6.704  -0.482 -35.486  1.00  0.00     0.179 HD
BRANCH  16  18
HETATM   18  C   UNL     1      -5.915  -2.188 -34.518  1.00  0.00     0.048 A 
HETATM   19  C   UNL     1      -4.615  -2.481 -34.077  1.00  0.00    -0.035 A 
HETATM   20  C   UNL     1      -3.610  -1.430 -33.700  1.00  0.00     0.050 C 
HETATM   21  C   UNL     1      -4.203  -3.826 -34.045  1.00  0.00     0.009 A 
HETATM   22  C   UNL     1      -5.071  -4.853 -34.415  1.00  0.00     0.001 A 
HETATM   23  C   UNL     1      -6.361  -4.551 -34.838  1.00  0.00     0.002 A 
HETATM   24  C   UNL     1      -6.779  -3.223 -34.894  1.00  0.00     0.030 A 
ENDBRANCH  16  18
ENDBRANCH  13  16
ENDBRANCH   1  13
BRANCH   7  25
HETATM   25  C   UNL     1      -1.566   5.081 -31.247  1.00  0.00     0.257 C 
HETATM   26  N   UNL     1      -1.669   5.840 -30.110  1.00  0.00    -0.357 N 
HETATM   27  H   UNL     1      -2.601   6.094 -29.779  1.00  0.00     0.162 HD
HETATM   28  O   UNL     1      -0.488   4.729 -31.721  1.00  0.00    -0.267 OA
BRANCH  26  29
HETATM   29  C   UNL     1      -0.523   6.218 -29.314  1.00  0.00     0.125 C 
BRANCH  29  30
HETATM   30  C   UNL     1      -0.912   6.902 -28.009  1.00  0.00     0.046 C 
BRANCH  30  31
HETATM   31  C   UNL     1      -0.042   6.401 -26.862  1.00  0.00     0.169 C 
BRANCH  31  32
HETATM   32  O   UNL     1       0.396   7.519 -26.092  1.00  0.00    -0.387 OA
BRANCH  32  33
HETATM   33  C   UNL     1       1.741   7.919 -26.373  1.00  0.00     0.113 C 
HETATM   34  C   UNL     1       1.796   8.910 -27.534  1.00  0.00     0.039 C 
HETATM   35  C   UNL     1       2.289   8.566 -25.106  1.00  0.00     0.039 C 
ENDBRANCH  32  33
ENDBRANCH  31  32
ENDBRANCH  30  31
ENDBRANCH  29  30
ENDBRANCH  26  29
ENDBRANCH   7  25
TORSDOF 9
ENDMDL
MODEL 5
REMARK VINA RESULT:      -8.3      4.126      7.631
REMARK  9 active torsions:
REMARK  status: ('A' for Active; 'I' for Inactive)
REMARK    1  A    between atoms: C_3  and  N_4 
REMARK    2  A    between atoms: N_4  and  S_5 
REMARK    3  A    between atoms: S_5  and  C_6 
REMARK    4  A    between atoms: C_12  and  C_13 
REMARK       I    between atoms: C_13  and  N_14 
REMARK    5  A    between atoms: N_14  and  C_15 
REMARK    6  A    between atoms: C_15  and  C_16 
REMARK    7  A    between atoms: C_16  and  C_17 
REMARK    8  A    between atoms: C_17  and  O_18 
REMARK    9  A    between atoms: O_18  and  C_19 
ROOT
HETATM    1  C   UNL     1      -4.525   1.089 -32.508  1.00  0.00     0.081 A 
HETATM    2  C   UNL     1      -5.786   1.363 -33.042  1.00  0.00     0.043 A 
HETATM    3  C   UNL     1      -6.172   2.694 -33.220  1.00  0.00     0.043 A 
HETATM    4  C   UNL     1      -5.300   3.749 -32.902  1.00  0.00     0.046 A 
HETATM    5  N   UNL     1      -5.721   5.072 -33.073  1.00  0.00    -0.364 N 
HETATM    6  C   UNL     1      -6.976   5.358 -33.547  1.00  0.00     0.109 A 
HETATM    7  C   UNL     1      -7.909   4.449 -33.878  1.00  0.00     0.098 A 
HETATM    8  C   UNL     1      -7.532   3.014 -33.731  1.00  0.00     0.201 A 
HETATM    9  O   UNL     1      -8.319   2.107 -33.996  1.00  0.00    -0.286 OA
HETATM   10  C   UNL     1      -4.035   3.454 -32.383  1.00  0.00     0.032 A 
HETATM   11  C   UNL     1      -3.644   2.126 -32.187  1.00  0.00     0.027 A 
HETATM   12  H   UNL     1      -5.077   5.836 -32.904  1.00  0.00     0.165 HD
ENDROOT
BRANCH   1  13
HETATM   13  S   UNL     1      -4.031  -0.605 -32.289  1.00  0.00     0.263 S 
HETATM   14  O   UNL     1      -5.051  -1.270 -31.506  1.00  0.00    -0.200 OA
HETATM   15  O   UNL     1      -2.648  -0.591 -31.857  1.00  0.00    -0.200 OA
BRANCH  13  16
HETATM   16  N   UNL     1      -4.030  -1.204 -33.859  1.00  0.00    -0.280 N 
HETATM   17  H   UNL     1      -3.945  -0.486 -34.575  1.00  0.00     0.179 HD
BRANCH  16  18
HETATM   18  C   UNL     1      -4.696  -2.421 -34.171  1.00  0.00     0.048 A 
HETATM   19  C   UNL     1      -6.004  -2.429 -34.680  1.00  0.00    -0.035 A 
HETATM   20  C   UNL     1      -6.823  -1.186 -34.888  1.00  0.00     0.050 C 
HETATM   21  C   UNL     1      -6.611  -3.669 -34.953  1.00  0.00     0.009 A 
HETATM   22  C   UNL     1      -5.924  -4.866 -34.751  1.00  0.00     0.001 A 
HETATM   23  C   UNL     1      -4.623  -4.844 -34.259  1.00  0.00     0.002 A 
HETATM   24  C   UNL     1      -4.014  -3.625 -33.966  1.00  0.00     0.030 A 
ENDBRANCH  16  18
ENDBRANCH  13  16
ENDBRANCH   1  13
BRANCH   7  25
HETATM   25  C   UNL     1      -9.250   4.932 -34.320  1.00  0.00     0.257 C 
HETATM   26  N   UNL     1     -10.313   4.169 -33.911  1.00  0.00    -0.357 N 
HETATM   27  H   UNL     1     -10.124   3.325 -33.366  1.00  0.00     0.162 HD
HETATM   28  O   UNL     1      -9.378   5.959 -34.980  1.00  0.00    -0.267 OA
BRANCH  26  29
HETATM   29  C   UNL     1     -11.687   4.554 -34.139  1.00  0.00     0.125 C 
BRANCH  29  30
HETATM   30  C   UNL     1     -12.201   4.122 -35.507  1.00  0.00     0.046 C 
BRANCH  30  31
HETATM   31  C   UNL     1     -12.654   2.666 -35.472  1.00  0.00     0.169 C 
BRANCH  31  32
HETATM   32  O   UNL     1     -12.895   2.290 -34.118  1.00  0.00    -0.387 OA
BRANCH  32  33
HETATM   33  C   UNL     1     -13.955   1.340 -33.965  1.00  0.00     0.113 C 
HETATM   34  C   UNL     1     -13.411  -0.063 -33.706  1.00  0.00     0.039 C 
HETATM   35  C   UNL     1     -14.802   1.800 -32.784  1.00  0.00     0.039 C 
ENDBRANCH  32  33
ENDBRANCH  31  32
ENDBRANCH  30  31
ENDBRANCH  29  30
ENDBRANCH  26  29
ENDBRANCH   7  25
TORSDOF 9
ENDMDL
MODEL 6
REMARK VINA RESULT:      -8.2      2.132      2.817
REMARK  9 active torsions:
REMARK  status: ('A' for Active; 'I' for Inactive)
REMARK    1  A    between atoms: C_3  and  N_4 
REMARK    2  A    between atoms: N_4  and  S_5 
REMARK    3  A    between atoms: S_5  and  C_6 
REMARK    4  A    between atoms: C_12  and  C_13 
REMARK       I    between atoms: C_13  and  N_14 
REMARK    5  A    between atoms: N_14  and  C_15 
REMARK    6  A    between atoms: C_15  and  C_16 
REMARK    7  A    between atoms: C_16  and  C_17 
REMARK    8  A    between atoms: C_17  and  O_18 
REMARK    9  A    between atoms: O_18  and  C_19 
ROOT
HETATM    1  C   UNL     1      -6.325   2.865 -33.271  1.00  0.00     0.081 A 
HETATM    2  C   UNL     1      -5.116   2.770 -32.577  1.00  0.00     0.043 A 
HETATM    3  C   UNL     1      -4.343   3.920 -32.404  1.00  0.00     0.043 A 
HETATM    4  C   UNL     1      -4.780   5.166 -32.886  1.00  0.00     0.046 A 
HETATM    5  N   UNL     1      -3.975   6.297 -32.714  1.00  0.00    -0.364 N 
HETATM    6  C   UNL     1      -2.761   6.211 -32.081  1.00  0.00     0.109 A 
HETATM    7  C   UNL     1      -2.221   5.085 -31.583  1.00  0.00     0.098 A 
HETATM    8  C   UNL     1      -3.024   3.836 -31.720  1.00  0.00     0.201 A 
HETATM    9  O   UNL     1      -2.613   2.753 -31.308  1.00  0.00    -0.286 OA
HETATM   10  C   UNL     1      -6.000   5.243 -33.565  1.00  0.00     0.032 A 
HETATM   11  C   UNL     1      -6.776   4.096 -33.757  1.00  0.00     0.027 A 
HETATM   12  H   UNL     1      -4.311   7.208 -33.004  1.00  0.00     0.165 HD
ENDROOT
BRANCH   1  13
HETATM   13  S   UNL     1      -7.313   1.402 -33.485  1.00  0.00     0.263 S 
HETATM   14  O   UNL     1      -7.406   1.128 -34.903  1.00  0.00    -0.200 OA
HETATM   15  O   UNL     1      -8.504   1.573 -32.678  1.00  0.00    -0.200 OA
BRANCH  13  16
HETATM   16  N   UNL     1      -6.397   0.213 -32.729  1.00  0.00    -0.280 N 
HETATM   17  H   UNL     1      -5.775   0.568 -32.006  1.00  0.00     0.179 HD
BRANCH  16  18
HETATM   18  C   UNL     1      -6.050  -0.982 -33.417  1.00  0.00     0.048 A 
HETATM   19  C   UNL     1      -4.712  -1.379 -33.567  1.00  0.00    -0.035 A 
HETATM   20  C   UNL     1      -3.546  -0.570 -33.073  1.00  0.00     0.050 C 
HETATM   21  C   UNL     1      -4.438  -2.565 -34.272  1.00  0.00     0.009 A 
HETATM   22  C   UNL     1      -5.470  -3.348 -34.790  1.00  0.00     0.001 A 
HETATM   23  C   UNL     1      -6.792  -2.952 -34.624  1.00  0.00     0.002 A 
HETATM   24  C   UNL     1      -7.080  -1.769 -33.944  1.00  0.00     0.030 A 
ENDBRANCH  16  18
ENDBRANCH  13  16
ENDBRANCH   1  13
BRANCH   7  25
HETATM   25  C   UNL     1      -0.860   5.154 -30.978  1.00  0.00     0.257 C 
HETATM   26  N   UNL     1      -0.810   5.654 -29.702  1.00  0.00    -0.357 N 
HETATM   27  H   UNL     1      -1.681   5.964 -29.267  1.00  0.00     0.162 HD
HETATM   28  O   UNL     1       0.135   4.760 -31.581  1.00  0.00    -0.267 OA
BRANCH  26  29
HETATM   29  C   UNL     1       0.404   5.676 -28.916  1.00  0.00     0.125 C 
BRANCH  29  30
HETATM   30  C   UNL     1       0.612   6.999 -28.191  1.00  0.00     0.046 C 
BRANCH  30  31
HETATM   31  C   UNL     1      -0.134   7.004 -26.861  1.00  0.00     0.169 C 
BRANCH  31  32
HETATM   32  O   UNL     1      -1.530   7.147 -27.115  1.00  0.00    -0.387 OA
BRANCH  32  33
HETATM   33  C   UNL     1      -2.360   6.648 -26.062  1.00  0.00     0.113 C 
HETATM   34  C   UNL     1      -1.698   5.479 -25.337  1.00  0.00     0.039 C 
HETATM   35  C   UNL     1      -2.595   7.800 -25.093  1.00  0.00     0.039 C 
ENDBRANCH  32  33
ENDBRANCH  31  32
ENDBRANCH  30  31
ENDBRANCH  29  30
ENDBRANCH  26  29
ENDBRANCH   7  25
TORSDOF 9
ENDMDL
MODEL 7
REMARK VINA RESULT:      -7.9      2.502      9.297
REMARK  9 active torsions:
REMARK  status: ('A' for Active; 'I' for Inactive)
REMARK    1  A    between atoms: C_3  and  N_4 
REMARK    2  A    between atoms: N_4  and  S_5 
REMARK    3  A    between atoms: S_5  and  C_6 
REMARK    4  A    between atoms: C_12  and  C_13 
REMARK       I    between atoms: C_13  and  N_14 
REMARK    5  A    between atoms: N_14  and  C_15 
REMARK    6  A    between atoms: C_15  and  C_16 
REMARK    7  A    between atoms: C_16  and  C_17 
REMARK    8  A    between atoms: C_17  and  O_18 
REMARK    9  A    between atoms: O_18  and  C_19 
ROOT
HETATM    1  C   UNL     1      -2.968   6.846 -31.780  1.00  0.00     0.081 A 
HETATM    2  C   UNL     1      -2.900   5.466 -31.992  1.00  0.00     0.043 A 
HETATM    3  C   UNL     1      -3.877   4.645 -31.423  1.00  0.00     0.043 A 
HETATM    4  C   UNL     1      -4.935   5.190 -30.675  1.00  0.00     0.046 A 
HETATM    5  N   UNL     1      -5.887   4.341 -30.101  1.00  0.00    -0.364 N 
HETATM    6  C   UNL     1      -5.806   2.981 -30.255  1.00  0.00     0.109 A 
HETATM    7  C   UNL     1      -4.844   2.331 -30.934  1.00  0.00     0.098 A 
HETATM    8  C   UNL     1      -3.795   3.168 -31.583  1.00  0.00     0.201 A 
HETATM    9  O   UNL     1      -2.868   2.669 -32.216  1.00  0.00    -0.286 OA
HETATM   10  C   UNL     1      -4.993   6.575 -30.487  1.00  0.00     0.032 A 
HETATM   11  C   UNL     1      -4.013   7.405 -31.040  1.00  0.00     0.027 A 
HETATM   12  H   UNL     1      -6.685   4.731 -29.613  1.00  0.00     0.165 HD
ENDROOT
BRANCH   1  13
HETATM   13  S   UNL     1      -1.729   7.891 -32.512  1.00  0.00     0.263 S 
HETATM   14  O   UNL     1      -1.954   9.243 -32.046  1.00  0.00    -0.200 OA
HETATM   15  O   UNL     1      -1.697   7.584 -33.927  1.00  0.00    -0.200 OA
BRANCH  13  16
HETATM   16  N   UNL     1      -0.299   7.292 -31.864  1.00  0.00    -0.280 N 
HETATM   17  H   UNL     1       0.242   6.723 -32.512  1.00  0.00     0.179 HD
BRANCH  16  18
HETATM   18  C   UNL     1      -0.177   7.058 -30.467  1.00  0.00     0.048 A 
HETATM   19  C   UNL     1       0.427   5.892 -29.970  1.00  0.00    -0.035 A 
HETATM   20  C   UNL     1       0.942   4.785 -30.846  1.00  0.00     0.050 C 
HETATM   21  C   UNL     1       0.501   5.715 -28.577  1.00  0.00     0.009 A 
HETATM   22  C   UNL     1       0.011   6.686 -27.702  1.00  0.00     0.001 A 
HETATM   23  C   UNL     1      -0.573   7.842 -28.206  1.00  0.00     0.002 A 
HETATM   24  C   UNL     1      -0.671   8.024 -29.584  1.00  0.00     0.030 A 
ENDBRANCH  16  18
ENDBRANCH  13  16
ENDBRANCH   1  13
BRANCH   7  25
HETATM   25  C   UNL     1      -4.870   0.840 -30.953  1.00  0.00     0.257 C 
HETATM   26  N   UNL     1      -4.394   0.259 -32.101  1.00  0.00    -0.357 N 
HETATM   27  H   UNL     1      -4.085   0.868 -32.860  1.00  0.00     0.162 HD
HETATM   28  O   UNL     1      -5.266   0.190 -29.989  1.00  0.00    -0.267 OA
BRANCH  26  29
HETATM   29  C   UNL     1      -4.226  -1.169 -32.244  1.00  0.00     0.125 C 
BRANCH  29  30
HETATM   30  C   UNL     1      -4.233  -1.620 -33.699  1.00  0.00     0.046 C 
BRANCH  30  31
HETATM   31  C   UNL     1      -5.662  -1.812 -34.194  1.00  0.00     0.169 C 
BRANCH  31  32
HETATM   32  O   UNL     1      -6.563  -1.314 -33.208  1.00  0.00    -0.387 OA
BRANCH  32  33
HETATM   33  C   UNL     1      -7.674  -0.596 -33.753  1.00  0.00     0.113 C 
HETATM   34  C   UNL     1      -8.238   0.406 -32.749  1.00  0.00     0.039 C 
HETATM   35  C   UNL     1      -7.170   0.133 -34.994  1.00  0.00     0.039 C 
ENDBRANCH  32  33
ENDBRANCH  31  32
ENDBRANCH  30  31
ENDBRANCH  29  30
ENDBRANCH  26  29
ENDBRANCH   7  25
TORSDOF 9
ENDMDL
MODEL 8
REMARK VINA RESULT:      -7.7      2.474      3.726
REMARK  9 active torsions:
REMARK  status: ('A' for Active; 'I' for Inactive)
REMARK    1  A    between atoms: C_3  and  N_4 
REMARK    2  A    between atoms: N_4  and  S_5 
REMARK    3  A    between atoms: S_5  and  C_6 
REMARK    4  A    between atoms: C_12  and  C_13 
REMARK       I    between atoms: C_13  and  N_14 
REMARK    5  A    between atoms: N_14  and  C_15 
REMARK    6  A    between atoms: C_15  and  C_16 
REMARK    7  A    between atoms: C_16  and  C_17 
REMARK    8  A    between atoms: C_17  and  O_18 
REMARK    9  A    between atoms: O_18  and  C_19 
ROOT
HETATM    1  C   UNL     1      -7.592   2.502 -33.706  1.00  0.00     0.081 A 
HETATM    2  C   UNL     1      -6.481   2.771 -32.902  1.00  0.00     0.043 A 
HETATM    3  C   UNL     1      -6.355   4.036 -32.321  1.00  0.00     0.043 A 
HETATM    4  C   UNL     1      -7.343   5.019 -32.507  1.00  0.00     0.046 A 
HETATM    5  N   UNL     1      -7.180   6.281 -31.929  1.00  0.00    -0.364 N 
HETATM    6  C   UNL     1      -6.070   6.579 -31.181  1.00  0.00     0.109 A 
HETATM    7  C   UNL     1      -5.050   5.738 -30.934  1.00  0.00     0.098 A 
HETATM    8  C   UNL     1      -5.153   4.368 -31.510  1.00  0.00     0.201 A 
HETATM    9  O   UNL     1      -4.268   3.529 -31.351  1.00  0.00    -0.286 OA
HETATM   10  C   UNL     1      -8.455   4.725 -33.303  1.00  0.00     0.032 A 
HETATM   11  C   UNL     1      -8.584   3.467 -33.901  1.00  0.00     0.027 A 
HETATM   12  H   UNL     1      -7.916   6.974 -32.008  1.00  0.00     0.165 HD
ENDROOT
BRANCH   1  13
HETATM   13  S   UNL     1      -7.755   0.890 -34.438  1.00  0.00     0.263 S 
HETATM   14  O   UNL     1      -7.043   0.897 -35.699  1.00  0.00    -0.200 OA
HETATM   15  O   UNL     1      -9.158   0.535 -34.375  1.00  0.00    -0.200 OA
BRANCH  13  16
HETATM   16  N   UNL     1      -6.965  -0.106 -33.339  1.00  0.00    -0.280 N 
HETATM   17  H   UNL     1      -6.603   0.383 -32.523  1.00  0.00     0.179 HD
BRANCH  16  18
HETATM   18  C   UNL     1      -6.327  -1.301 -33.771  1.00  0.00     0.048 A 
HETATM   19  C   UNL     1      -4.941  -1.478 -33.642  1.00  0.00    -0.035 A 
HETATM   20  C   UNL     1      -4.016  -0.426 -33.096  1.00  0.00     0.050 C 
HETATM   21  C   UNL     1      -4.371  -2.678 -34.104  1.00  0.00     0.009 A 
HETATM   22  C   UNL     1      -5.163  -3.685 -34.655  1.00  0.00     0.001 A 
HETATM   23  C   UNL     1      -6.537  -3.504 -34.766  1.00  0.00     0.002 A 
HETATM   24  C   UNL     1      -7.116  -2.313 -34.330  1.00  0.00     0.030 A 
ENDBRANCH  16  18
ENDBRANCH  13  16
ENDBRANCH   1  13
BRANCH   7  25
HETATM   25  C   UNL     1      -3.885   6.242 -30.149  1.00  0.00     0.257 C 
HETATM   26  N   UNL     1      -2.664   5.750 -30.531  1.00  0.00    -0.357 N 
HETATM   27  H   UNL     1      -2.631   5.068 -31.290  1.00  0.00     0.162 HD
HETATM   28  O   UNL     1      -4.024   7.063 -29.246  1.00  0.00    -0.267 OA
BRANCH  26  29
HETATM   29  C   UNL     1      -1.419   6.223 -29.968  1.00  0.00     0.125 C 
BRANCH  29  30
HETATM   30  C   UNL     1      -0.198   5.647 -30.674  1.00  0.00     0.046 C 
BRANCH  30  31
HETATM   31  C   UNL     1      -0.157   6.101 -32.129  1.00  0.00     0.169 C 
BRANCH  31  32
HETATM   32  O   UNL     1      -1.003   5.251 -32.901  1.00  0.00    -0.387 OA
BRANCH  32  33
HETATM   33  C   UNL     1      -1.538   5.881 -34.070  1.00  0.00     0.113 C 
HETATM   34  C   UNL     1      -2.802   5.175 -34.554  1.00  0.00     0.039 C 
HETATM   35  C   UNL     1      -1.854   7.325 -33.696  1.00  0.00     0.039 C 
ENDBRANCH  32  33
ENDBRANCH  31  32
ENDBRANCH  30  31
ENDBRANCH  29  30
ENDBRANCH  26  29
ENDBRANCH   7  25
TORSDOF 9
ENDMDL
MODEL 9
REMARK VINA RESULT:      -7.7      1.745      2.629
REMARK  9 active torsions:
REMARK  status: ('A' for Active; 'I' for Inactive)
REMARK    1  A    between atoms: C_3  and  N_4 
REMARK    2  A    between atoms: N_4  and  S_5 
REMARK    3  A    between atoms: S_5  and  C_6 
REMARK    4  A    between atoms: C_12  and  C_13 
REMARK       I    between atoms: C_13  and  N_14 
REMARK    5  A    between atoms: N_14  and  C_15 
REMARK    6  A    between atoms: C_15  and  C_16 
REMARK    7  A    between atoms: C_16  and  C_17 
REMARK    8  A    between atoms: C_17  and  O_18 
REMARK    9  A    between atoms: O_18  and  C_19 
ROOT
HETATM    1  C   UNL     1      -5.355   1.467 -32.581  1.00  0.00     0.081 A 
HETATM    2  C   UNL     1      -5.010   2.533 -31.745  1.00  0.00     0.043 A 
HETATM    3  C   UNL     1      -5.429   3.822 -32.084  1.00  0.00     0.043 A 
HETATM    4  C   UNL     1      -6.215   4.052 -33.227  1.00  0.00     0.046 A 
HETATM    5  N   UNL     1      -6.603   5.355 -33.550  1.00  0.00    -0.364 N 
HETATM    6  C   UNL     1      -6.228   6.419 -32.770  1.00  0.00     0.109 A 
HETATM    7  C   UNL     1      -5.472   6.342 -31.661  1.00  0.00     0.098 A 
HETATM    8  C   UNL     1      -5.025   4.982 -31.244  1.00  0.00     0.201 A 
HETATM    9  O   UNL     1      -4.321   4.807 -30.252  1.00  0.00    -0.286 OA
HETATM   10  C   UNL     1      -6.563   2.970 -34.042  1.00  0.00     0.032 A 
HETATM   11  C   UNL     1      -6.137   1.676 -33.721  1.00  0.00     0.027 A 
HETATM   12  H   UNL     1      -7.220   5.521 -34.337  1.00  0.00     0.165 HD
ENDROOT
BRANCH   1  13
HETATM   13  S   UNL     1      -4.829  -0.174 -32.146  1.00  0.00     0.263 S 
HETATM   14  O   UNL     1      -5.970  -0.880 -31.602  1.00  0.00    -0.200 OA
HETATM   15  O   UNL     1      -3.603  -0.039 -31.387  1.00  0.00    -0.200 OA
BRANCH  13  16
HETATM   16  N   UNL     1      -4.397  -0.838 -33.628  1.00  0.00    -0.280 N 
HETATM   17  H   UNL     1      -4.303  -0.154 -34.376  1.00  0.00     0.179 HD
BRANCH  16  18
HETATM   18  C   UNL     1      -4.747  -2.177 -33.953  1.00  0.00     0.048 A 
HETATM   19  C   UNL     1      -5.949  -2.481 -34.611  1.00  0.00    -0.035 A 
HETATM   20  C   UNL     1      -6.979  -1.449 -34.977  1.00  0.00     0.050 C 
HETATM   21  C   UNL     1      -6.242  -3.828 -34.888  1.00  0.00     0.009 A 
HETATM   22  C   UNL     1      -5.348  -4.843 -34.545  1.00  0.00     0.001 A 
HETATM   23  C   UNL     1      -4.154  -4.529 -33.905  1.00  0.00     0.002 A 
HETATM   24  C   UNL     1      -3.858  -3.200 -33.606  1.00  0.00     0.030 A 
ENDBRANCH  16  18
ENDBRANCH  13  16
ENDBRANCH   1  13
BRANCH   7  25
HETATM   25  C   UNL     1      -5.103   7.606 -30.960  1.00  0.00     0.257 C 
HETATM   26  N   UNL     1      -3.949   7.553 -30.222  1.00  0.00    -0.357 N 
HETATM   27  H   UNL     1      -3.442   6.668 -30.177  1.00  0.00     0.162 HD
HETATM   28  O   UNL     1      -5.781   8.625 -31.070  1.00  0.00    -0.267 OA
BRANCH  26  29
HETATM   29  C   UNL     1      -3.374   8.715 -29.582  1.00  0.00     0.125 C 
BRANCH  29  30
HETATM   30  C   UNL     1      -1.903   8.529 -29.236  1.00  0.00     0.046 C 
BRANCH  30  31
HETATM   31  C   UNL     1      -1.510   7.059 -29.339  1.00  0.00     0.169 C 
BRANCH  31  32
HETATM   32  O   UNL     1      -1.126   6.778 -30.683  1.00  0.00    -0.387 OA
BRANCH  32  33
HETATM   33  C   UNL     1      -0.852   5.395 -30.926  1.00  0.00     0.113 C 
HETATM   34  C   UNL     1      -1.405   4.946 -32.276  1.00  0.00     0.039 C 
HETATM   35  C   UNL     1       0.663   5.227 -30.898  1.00  0.00     0.039 C 
ENDBRANCH  32  33
ENDBRANCH  31  32
ENDBRANCH  30  31
ENDBRANCH  29  30
ENDBRANCH  26  29
ENDBRANCH   7  25
TORSDOF 9
ENDMDL
MODEL 10
REMARK VINA RESULT:      -7.5      6.816      9.359
REMARK  9 active torsions:
REMARK  status: ('A' for Active; 'I' for Inactive)
REMARK    1  A    between atoms: C_3  and  N_4 
REMARK    2  A    between atoms: N_4  and  S_5 
REMARK    3  A    between atoms: S_5  and  C_6 
REMARK    4  A    between atoms: C_12  and  C_13 
REMARK       I    between atoms: C_13  and  N_14 
REMARK    5  A    between atoms: N_14  and  C_15 
REMARK    6  A    between atoms: C_15  and  C_16 
REMARK    7  A    between atoms: C_16  and  C_17 
REMARK    8  A    between atoms: C_17  and  O_18 
REMARK    9  A    between atoms: O_18  and  C_19 
ROOT
HETATM    1  C   UNL     1      -8.732   1.266 -33.965  1.00  0.00     0.081 A 
HETATM    2  C   UNL     1      -9.257   2.534 -34.230  1.00  0.00     0.043 A 
HETATM    3  C   UNL     1     -10.608   2.776 -33.966  1.00  0.00     0.043 A 
HETATM    4  C   UNL     1     -11.427   1.778 -33.410  1.00  0.00     0.046 A 
HETATM    5  N   UNL     1     -12.780   2.044 -33.174  1.00  0.00    -0.364 N 
HETATM    6  C   UNL     1     -13.323   3.266 -33.477  1.00  0.00     0.109 A 
HETATM    7  C   UNL     1     -12.657   4.301 -34.019  1.00  0.00     0.098 A 
HETATM    8  C   UNL     1     -11.206   4.098 -34.293  1.00  0.00     0.201 A 
HETATM    9  O   UNL     1     -10.513   4.979 -34.798  1.00  0.00    -0.286 OA
HETATM   10  C   UNL     1     -10.879   0.520 -33.138  1.00  0.00     0.032 A 
HETATM   11  C   UNL     1      -9.532   0.262 -33.412  1.00  0.00     0.027 A 
HETATM   12  H   UNL     1     -13.361   1.350 -32.718  1.00  0.00     0.165 HD
ENDROOT
BRANCH   1  13
HETATM   13  S   UNL     1      -7.012   0.960 -34.295  1.00  0.00     0.263 S 
HETATM   14  O   UNL     1      -6.263   2.129 -33.882  1.00  0.00    -0.200 OA
HETATM   15  O   UNL     1      -6.922   0.455 -35.649  1.00  0.00    -0.200 OA
BRANCH  13  16
HETATM   16  N   UNL     1      -6.658  -0.334 -33.283  1.00  0.00    -0.280 N 
HETATM   17  H   UNL     1      -6.373  -0.060 -32.345  1.00  0.00     0.179 HD
BRANCH  16  18
HETATM   18  C   UNL     1      -6.192  -1.567 -33.817  1.00  0.00     0.048 A 
HETATM   19  C   UNL     1      -4.823  -1.872 -33.868  1.00  0.00    -0.035 A 
HETATM   20  C   UNL     1      -3.745  -0.925 -33.422  1.00  0.00     0.050 C 
HETATM   21  C   UNL     1      -4.430  -3.102 -34.424  1.00  0.00     0.009 A 
HETATM   22  C   UNL     1      -5.375  -4.016 -34.891  1.00  0.00     0.001 A 
HETATM   23  C   UNL     1      -6.729  -3.708 -34.823  1.00  0.00     0.002 A 
HETATM   24  C   UNL     1      -7.135  -2.485 -34.292  1.00  0.00     0.030 A 
ENDBRANCH  16  18
ENDBRANCH  13  16
ENDBRANCH   1  13
BRANCH   7  25
HETATM   25  C   UNL     1     -13.415   5.544 -34.344  1.00  0.00     0.257 C 
HETATM   26  N   UNL     1     -13.129   6.104 -35.562  1.00  0.00    -0.357 N 
HETATM   27  H   UNL     1     -12.415   5.663 -36.144  1.00  0.00     0.162 HD
HETATM   28  O   UNL     1     -14.255   6.006 -33.576  1.00  0.00    -0.267 OA
BRANCH  26  29
HETATM   29  C   UNL     1     -13.856   7.235 -36.094  1.00  0.00     0.125 C 
BRANCH  29  30
HETATM   30  C   UNL     1     -14.188   7.079 -37.572  1.00  0.00     0.046 C 
BRANCH  30  31
HETATM   31  C   UNL     1     -13.916   8.379 -38.322  1.00  0.00     0.169 C 
BRANCH  31  32
HETATM   32  O   UNL     1     -12.778   9.015 -37.744  1.00  0.00    -0.387 OA
BRANCH  32  33
HETATM   33  C   UNL     1     -11.617   8.986 -38.580  1.00  0.00     0.113 C 
HETATM   34  C   UNL     1     -11.747   9.959 -39.749  1.00  0.00     0.039 C 
HETATM   35  C   UNL     1     -10.428   9.371 -37.707  1.00  0.00     0.039 C 
ENDBRANCH  32  33
ENDBRANCH  31  32
ENDBRANCH  30  31
ENDBRANCH  29  30
ENDBRANCH  26  29
ENDBRANCH   7  25
TORSDOF 9
ENDMDL
