MODEL 1
REMARK VINA RESULT:      -8.5      0.000      0.000
REMARK  4 active torsions:
REMARK  status: ('A' for Active; 'I' for Inactive)
REMARK    1  A    between atoms: C_9  and  C_10 
REMARK       I    between atoms: C_10  and  N_11 
REMARK    2  A    between atoms: N_11  and  C_12 
REMARK    3  A    between atoms: C_13  and  N_14 
REMARK    4  A    between atoms: C_17  and  O_18 
ROOT
HETATM    1  C   UNL     1      -5.188   3.613 -31.134  1.00  0.00     0.257 C 
HETATM    2  N   UNL     1      -4.911   4.760 -31.827  1.00  0.00    -0.321 N 
HETATM    3  O   UNL     1      -5.865   3.673 -30.106  1.00  0.00    -0.267 OA
HETATM    4  H   UNL     1      -5.516   5.530 -31.575  1.00  0.00     0.169 HD
ENDROOT
BRANCH   2   5
HETATM    5  C   UNL     1      -3.939   5.001 -32.822  1.00  0.00     0.061 C 
HETATM    6  C   UNL     1      -2.556   5.183 -32.554  1.00  0.00     0.057 C 
HETATM    7  C   UNL     1      -1.706   5.268 -33.673  1.00  0.00     0.031 C 
HETATM    8  C   UNL     1      -2.199   5.275 -34.984  1.00  0.00     0.002 C 
HETATM    9  C   UNL     1      -3.566   5.203 -35.213  1.00  0.00     0.002 C 
HETATM   10  C   UNL     1      -4.434   5.077 -34.133  1.00  0.00     0.032 C 
BRANCH   6  11
HETATM   11  N   UNL     1      -2.062   5.369 -31.259  1.00  0.00    -0.379 N 
HETATM   12  C   UNL     1      -0.806   4.749 -30.812  1.00  0.00     0.125 C 
HETATM   13  C   UNL     1       0.380   5.707 -30.922  1.00  0.00     0.051 C 
HETATM   14  C   UNL     1       0.091   7.047 -30.252  1.00  0.00     0.121 C 
HETATM   15  C   UNL     1      -1.219   7.641 -30.759  1.00  0.00     0.051 C 
HETATM   16  C   UNL     1      -2.374   6.654 -30.599  1.00  0.00     0.125 C 
BRANCH  14  17
HETATM   17  O   UNL     1       0.017   6.894 -28.836  1.00  0.00    -0.395 OA
HETATM   18  H   UNL     1       0.605   7.556 -28.430  1.00  0.00     0.210 HD
ENDBRANCH  14  17
ENDBRANCH   6  11
ENDBRANCH   2   5
BRANCH   1  19
HETATM   19  C   UNL     1      -4.826   2.290 -31.710  1.00  0.00     0.050 A 
HETATM   20  C   UNL     1      -5.596   1.604 -32.765  1.00  0.00     0.006 A 
HETATM   21  C   UNL     1      -6.774   2.119 -33.323  1.00  0.00     0.015 A 
HETATM   22  C   UNL     1      -5.156   0.342 -33.193  1.00  0.00     0.046 A 
HETATM   23  C   UNL     1      -7.473   1.404 -34.300  1.00  0.00     0.001 A 
HETATM   24  C   UNL     1      -7.010   0.161 -34.727  1.00  0.00     0.002 A 
HETATM   25  C   UNL     1      -5.850  -0.374 -34.172  1.00  0.00     0.030 A 
HETATM   26  N   UNL     1      -4.019  -0.230 -32.610  1.00  0.00    -0.323 N 
HETATM   27  C   UNL     1      -3.315   0.357 -31.596  1.00  0.00     0.246 A 
HETATM   28  H   UNL     1      -3.690  -1.137 -32.909  1.00  0.00     0.169 HD
HETATM   29  O   UNL     1      -2.321  -0.170 -31.108  1.00  0.00    -0.268 OA
HETATM   30  C   UNL     1      -3.794   1.667 -31.118  1.00  0.00     0.092 A 
ENDBRANCH   1  19
TORSDOF 4
ENDMDL
MODEL 2
REMARK VINA RESULT:      -8.1      1.778      2.522
REMARK  4 active torsions:
REMARK  status: ('A' for Active; 'I' for Inactive)
REMARK    1  A    between atoms: C_9  and  C_10 
REMARK       I    between atoms: C_10  and  N_11 
REMARK    2  A    between atoms: N_11  and  C_12 
REMARK    3  A    between atoms: C_13  and  N_14 
REMARK    4  A    between atoms: C_17  and  O_18 
ROOT
HETATM    1  C   UNL     1      -5.728   1.149 -30.351  1.00  0.00     0.257 C 
HETATM    2  N   UNL     1      -6.363   2.279 -30.791  1.00  0.00    -0.321 N 
HETATM    3  O   UNL     1      -5.874   0.785 -29.183  1.00  0.00    -0.267 OA
HETATM    4  H   UNL     1      -7.115   2.571 -30.183  1.00  0.00     0.169 HD
ENDROOT
BRANCH   2   5
HETATM    5  C   UNL     1      -6.128   3.055 -31.946  1.00  0.00     0.061 C 
HETATM    6  C   UNL     1      -4.950   3.818 -32.165  1.00  0.00     0.057 C 
HETATM    7  C   UNL     1      -4.817   4.415 -33.433  1.00  0.00     0.031 C 
HETATM    8  C   UNL     1      -5.829   4.350 -34.397  1.00  0.00     0.002 C 
HETATM    9  C   UNL     1      -7.015   3.686 -34.117  1.00  0.00     0.002 C 
HETATM   10  C   UNL     1      -7.168   3.049 -32.890  1.00  0.00     0.032 C 
BRANCH   6  11
HETATM   11  N   UNL     1      -4.013   4.055 -31.155  1.00  0.00    -0.379 N 
HETATM   12  C   UNL     1      -2.606   3.653 -31.293  1.00  0.00     0.125 C 
HETATM   13  C   UNL     1      -1.722   4.805 -31.769  1.00  0.00     0.051 C 
HETATM   14  C   UNL     1      -1.916   6.057 -30.919  1.00  0.00     0.121 C 
HETATM   15  C   UNL     1      -3.391   6.426 -30.816  1.00  0.00     0.051 C 
HETATM   16  C   UNL     1      -4.223   5.250 -30.310  1.00  0.00     0.125 C 
BRANCH  14  17
HETATM   17  O   UNL     1      -1.392   5.859 -29.607  1.00  0.00    -0.395 OA
HETATM   18  H   UNL     1      -0.421   5.826 -29.672  1.00  0.00     0.210 HD
ENDBRANCH  14  17
ENDBRANCH   6  11
ENDBRANCH   2   5
BRANCH   1  19
HETATM   19  C   UNL     1      -5.013   0.273 -31.319  1.00  0.00     0.050 A 
HETATM   20  C   UNL     1      -5.665  -0.438 -32.436  1.00  0.00     0.006 A 
HETATM   21  C   UNL     1      -7.042  -0.382 -32.690  1.00  0.00     0.015 A 
HETATM   22  C   UNL     1      -4.872  -1.257 -33.254  1.00  0.00     0.046 A 
HETATM   23  C   UNL     1      -7.603  -1.103 -33.748  1.00  0.00     0.001 A 
HETATM   24  C   UNL     1      -6.796  -1.897 -34.562  1.00  0.00     0.002 A 
HETATM   25  C   UNL     1      -5.428  -1.977 -34.315  1.00  0.00     0.030 A 
HETATM   26  N   UNL     1      -3.504  -1.385 -32.987  1.00  0.00    -0.323 N 
HETATM   27  C   UNL     1      -2.881  -0.782 -31.931  1.00  0.00     0.246 A 
HETATM   28  H   UNL     1      -2.921  -1.971 -33.568  1.00  0.00     0.169 HD
HETATM   29  O   UNL     1      -1.680  -0.912 -31.726  1.00  0.00    -0.268 OA
HETATM   30  C   UNL     1      -3.717   0.052 -31.047  1.00  0.00     0.092 A 
ENDBRANCH   1  19
TORSDOF 4
ENDMDL
MODEL 3
REMARK VINA RESULT:      -7.9      3.036      7.265
REMARK  4 active torsions:
REMARK  status: ('A' for Active; 'I' for Inactive)
REMARK    1  A    between atoms: C_9  and  C_10 
REMARK       I    between atoms: C_10  and  N_11 
REMARK    2  A    between atoms: N_11  and  C_12 
REMARK    3  A    between atoms: C_13  and  N_14 
REMARK    4  A    between atoms: C_17  and  O_18 
ROOT
HETATM    1  C   UNL     1      -7.135   2.133 -30.668  1.00  0.00     0.257 C 
HETATM    2  N   UNL     1      -7.955   1.199 -31.241  1.00  0.00    -0.321 N 
HETATM    3  O   UNL     1      -7.475   2.676 -29.615  1.00  0.00    -0.267 OA
HETATM    4  H   UNL     1      -8.652   0.840 -30.602  1.00  0.00     0.169 HD
ENDROOT
BRANCH   2   5
HETATM    5  C   UNL     1      -7.950   0.675 -32.552  1.00  0.00     0.061 C 
HETATM    6  C   UNL     1      -8.808   1.124 -33.591  1.00  0.00     0.057 C 
HETATM    7  C   UNL     1      -8.569   0.595 -34.873  1.00  0.00     0.031 C 
HETATM    8  C   UNL     1      -7.608  -0.396 -35.103  1.00  0.00     0.002 C 
HETATM    9  C   UNL     1      -6.856  -0.893 -34.048  1.00  0.00     0.002 C 
HETATM   10  C   UNL     1      -7.034  -0.366 -32.774  1.00  0.00     0.032 C 
BRANCH   6  11
HETATM   11  N   UNL     1      -9.897   1.969 -33.350  1.00  0.00    -0.379 N 
HETATM   12  C   UNL     1      -9.837   3.410 -33.636  1.00  0.00     0.125 C 
HETATM   13  C   UNL     1     -10.442   3.752 -34.997  1.00  0.00     0.051 C 
HETATM   14  C   UNL     1     -11.837   3.156 -35.164  1.00  0.00     0.121 C 
HETATM   15  C   UNL     1     -11.833   1.662 -34.859  1.00  0.00     0.051 C 
HETATM   16  C   UNL     1     -11.246   1.379 -33.478  1.00  0.00     0.125 C 
BRANCH  14  17
HETATM   17  O   UNL     1     -12.767   3.806 -34.300  1.00  0.00    -0.395 OA
HETATM   18  H   UNL     1     -12.384   4.660 -34.033  1.00  0.00     0.210 HD
ENDBRANCH  14  17
ENDBRANCH   6  11
ENDBRANCH   2   5
BRANCH   1  19
HETATM   19  C   UNL     1      -5.771   2.362 -31.216  1.00  0.00     0.050 A 
HETATM   20  C   UNL     1      -5.435   3.404 -32.205  1.00  0.00     0.006 A 
HETATM   21  C   UNL     1      -6.380   4.281 -32.756  1.00  0.00     0.015 A 
HETATM   22  C   UNL     1      -4.110   3.486 -32.659  1.00  0.00     0.046 A 
HETATM   23  C   UNL     1      -6.002   5.229 -33.712  1.00  0.00     0.001 A 
HETATM   24  C   UNL     1      -4.677   5.308 -34.136  1.00  0.00     0.002 A 
HETATM   25  C   UNL     1      -3.727   4.434 -33.611  1.00  0.00     0.030 A 
HETATM   26  N   UNL     1      -3.156   2.583 -32.176  1.00  0.00    -0.323 N 
HETATM   27  C   UNL     1      -3.446   1.575 -31.301  1.00  0.00     0.246 A 
HETATM   28  H   UNL     1      -2.198   2.630 -32.494  1.00  0.00     0.169 HD
HETATM   29  O   UNL     1      -2.586   0.801 -30.895  1.00  0.00    -0.268 OA
HETATM   30  C   UNL     1      -4.844   1.462 -30.847  1.00  0.00     0.092 A 
ENDBRANCH   1  19
TORSDOF 4
ENDMDL
MODEL 4
REMARK VINA RESULT:      -7.9      3.459      5.913
REMARK  4 active torsions:
REMARK  status: ('A' for Active; 'I' for Inactive)
REMARK    1  A    between atoms: C_9  and  C_10 
REMARK       I    between atoms: C_10  and  N_11 
REMARK    2  A    between atoms: N_11  and  C_12 
REMARK    3  A    between atoms: C_13  and  N_14 
REMARK    4  A    between atoms: C_17  and  O_18 
ROOT
HETATM    1  C   UNL     1      -5.768   0.950 -30.348  1.00  0.00     0.257 C 
HETATM    2  N   UNL     1      -6.450   2.056 -30.779  1.00  0.00    -0.321 N 
HETATM    3  O   UNL     1      -5.904   0.568 -29.184  1.00  0.00    -0.267 OA
HETATM    4  H   UNL     1      -7.218   2.309 -30.171  1.00  0.00     0.169 HD
ENDROOT
BRANCH   2   5
HETATM    5  C   UNL     1      -6.244   2.855 -31.924  1.00  0.00     0.061 C 
HETATM    6  C   UNL     1      -7.271   3.222 -32.833  1.00  0.00     0.057 C 
HETATM    7  C   UNL     1      -6.920   4.142 -33.839  1.00  0.00     0.031 C 
HETATM    8  C   UNL     1      -5.607   4.599 -34.005  1.00  0.00     0.002 C 
HETATM    9  C   UNL     1      -4.601   4.141 -33.167  1.00  0.00     0.002 C 
HETATM   10  C   UNL     1      -4.917   3.263 -32.136  1.00  0.00     0.032 C 
BRANCH   6  11
HETATM   11  N   UNL     1      -8.541   2.635 -32.805  1.00  0.00    -0.379 N 
HETATM   12  C   UNL     1      -9.524   2.966 -31.763  1.00  0.00     0.125 C 
HETATM   13  C   UNL     1     -10.516   4.033 -32.226  1.00  0.00     0.051 C 
HETATM   14  C   UNL     1     -11.149   3.675 -33.568  1.00  0.00     0.121 C 
HETATM   15  C   UNL     1     -10.081   3.346 -34.606  1.00  0.00     0.051 C 
HETATM   16  C   UNL     1      -9.136   2.257 -34.104  1.00  0.00     0.125 C 
BRANCH  14  17
HETATM   17  O   UNL     1     -12.023   2.556 -33.428  1.00  0.00    -0.395 OA
HETATM   18  H   UNL     1     -12.864   2.775 -33.866  1.00  0.00     0.210 HD
ENDBRANCH  14  17
ENDBRANCH   6  11
ENDBRANCH   2   5
BRANCH   1  19
HETATM   19  C   UNL     1      -5.012   0.117 -31.321  1.00  0.00     0.050 A 
HETATM   20  C   UNL     1      -5.623  -0.593 -32.461  1.00  0.00     0.006 A 
HETATM   21  C   UNL     1      -6.998  -0.577 -32.735  1.00  0.00     0.015 A 
HETATM   22  C   UNL     1      -4.792  -1.370 -33.283  1.00  0.00     0.046 A 
HETATM   23  C   UNL     1      -7.519  -1.296 -33.815  1.00  0.00     0.001 A 
HETATM   24  C   UNL     1      -6.675  -2.046 -34.631  1.00  0.00     0.002 A 
HETATM   25  C   UNL     1      -5.308  -2.086 -34.365  1.00  0.00     0.030 A 
HETATM   26  N   UNL     1      -3.425  -1.458 -32.997  1.00  0.00    -0.323 N 
HETATM   27  C   UNL     1      -2.837  -0.855 -31.922  1.00  0.00     0.246 A 
HETATM   28  H   UNL     1      -2.814  -2.013 -33.581  1.00  0.00     0.169 HD
HETATM   29  O   UNL     1      -1.635  -0.950 -31.701  1.00  0.00    -0.268 OA
HETATM   30  C   UNL     1      -3.713  -0.066 -31.035  1.00  0.00     0.092 A 
ENDBRANCH   1  19
TORSDOF 4
ENDMDL
MODEL 5
REMARK VINA RESULT:      -7.8      2.503      3.850
REMARK  4 active torsions:
REMARK  status: ('A' for Active; 'I' for Inactive)
REMARK    1  A    between atoms: C_9  and  C_10 
REMARK       I    between atoms: C_10  and  N_11 
REMARK    2  A    between atoms: N_11  and  C_12 
REMARK    3  A    between atoms: C_13  and  N_14 
REMARK    4  A    between atoms: C_17  and  O_18 
ROOT
HETATM    1  C   UNL     1      -6.384   1.353 -30.352  1.00  0.00     0.257 C 
HETATM    2  N   UNL     1      -6.433   2.721 -30.374  1.00  0.00    -0.321 N 
HETATM    3  O   UNL     1      -5.980   0.776 -29.341  1.00  0.00    -0.267 OA
HETATM    4  H   UNL     1      -6.382   3.133 -29.452  1.00  0.00     0.169 HD
ENDROOT
BRANCH   2   5
HETATM    5  C   UNL     1      -6.555   3.603 -31.469  1.00  0.00     0.061 C 
HETATM    6  C   UNL     1      -5.459   4.066 -32.243  1.00  0.00     0.057 C 
HETATM    7  C   UNL     1      -5.774   4.823 -33.387  1.00  0.00     0.031 C 
HETATM    8  C   UNL     1      -7.089   5.190 -33.699  1.00  0.00     0.002 C 
HETATM    9  C   UNL     1      -8.132   4.812 -32.865  1.00  0.00     0.002 C 
HETATM   10  C   UNL     1      -7.864   4.029 -31.748  1.00  0.00     0.032 C 
BRANCH   6  11
HETATM   11  N   UNL     1      -4.130   3.874 -31.850  1.00  0.00    -0.379 N 
HETATM   12  C   UNL     1      -3.145   3.233 -32.733  1.00  0.00     0.125 C 
HETATM   13  C   UNL     1      -2.304   4.255 -33.496  1.00  0.00     0.051 C 
HETATM   14  C   UNL     1      -1.696   5.299 -32.563  1.00  0.00     0.121 C 
HETATM   15  C   UNL     1      -2.765   5.930 -31.678  1.00  0.00     0.051 C 
HETATM   16  C   UNL     1      -3.555   4.867 -30.918  1.00  0.00     0.125 C 
BRANCH  14  17
HETATM   17  O   UNL     1      -0.694   4.710 -31.737  1.00  0.00    -0.395 OA
HETATM   18  H   UNL     1      -1.093   3.953 -31.272  1.00  0.00     0.210 HD
ENDBRANCH  14  17
ENDBRANCH   6  11
ENDBRANCH   2   5
BRANCH   1  19
HETATM   19  C   UNL     1      -6.977   0.570 -31.469  1.00  0.00     0.050 A 
HETATM   20  C   UNL     1      -6.199  -0.263 -32.406  1.00  0.00     0.006 A 
HETATM   21  C   UNL     1      -4.803  -0.385 -32.357  1.00  0.00     0.015 A 
HETATM   22  C   UNL     1      -6.886  -0.925 -33.435  1.00  0.00     0.046 A 
HETATM   23  C   UNL     1      -4.121  -1.168 -33.293  1.00  0.00     0.001 A 
HETATM   24  C   UNL     1      -4.824  -1.833 -34.296  1.00  0.00     0.002 A 
HETATM   25  C   UNL     1      -6.210  -1.711 -34.370  1.00  0.00     0.030 A 
HETATM   26  N   UNL     1      -8.273  -0.771 -33.550  1.00  0.00    -0.323 N 
HETATM   27  C   UNL     1      -9.014   0.032 -32.731  1.00  0.00     0.246 A 
HETATM   28  H   UNL     1      -8.781  -1.242 -34.285  1.00  0.00     0.169 HD
HETATM   29  O   UNL     1     -10.229   0.143 -32.857  1.00  0.00    -0.268 OA
HETATM   30  C   UNL     1      -8.291   0.758 -31.670  1.00  0.00     0.092 A 
ENDBRANCH   1  19
TORSDOF 4
ENDMDL
MODEL 6
REMARK VINA RESULT:      -7.8      2.312      7.176
REMARK  4 active torsions:
REMARK  status: ('A' for Active; 'I' for Inactive)
REMARK    1  A    between atoms: C_9  and  C_10 
REMARK       I    between atoms: C_10  and  N_11 
REMARK    2  A    between atoms: N_11  and  C_12 
REMARK    3  A    between atoms: C_13  and  N_14 
REMARK    4  A    between atoms: C_17  and  O_18 
ROOT
HETATM    1  C   UNL     1      -5.137   4.828 -31.135  1.00  0.00     0.257 C 
HETATM    2  N   UNL     1      -5.297   3.522 -30.758  1.00  0.00    -0.321 N 
HETATM    3  O   UNL     1      -5.682   5.720 -30.482  1.00  0.00    -0.267 OA
HETATM    4  H   UNL     1      -5.636   3.423 -29.811  1.00  0.00     0.169 HD
ENDROOT
BRANCH   2   5
HETATM    5  C   UNL     1      -5.047   2.336 -31.482  1.00  0.00     0.061 C 
HETATM    6  C   UNL     1      -5.977   1.738 -32.373  1.00  0.00     0.057 C 
HETATM    7  C   UNL     1      -5.512   0.641 -33.122  1.00  0.00     0.031 C 
HETATM    8  C   UNL     1      -4.236   0.098 -32.933  1.00  0.00     0.002 C 
HETATM    9  C   UNL     1      -3.385   0.637 -31.978  1.00  0.00     0.002 C 
HETATM   10  C   UNL     1      -3.794   1.747 -31.248  1.00  0.00     0.032 C 
BRANCH   6  11
HETATM   11  N   UNL     1      -7.315   2.142 -32.442  1.00  0.00    -0.379 N 
HETATM   12  C   UNL     1      -7.989   2.372 -33.728  1.00  0.00     0.125 C 
HETATM   13  C   UNL     1      -8.798   1.156 -34.179  1.00  0.00     0.051 C 
HETATM   14  C   UNL     1      -9.734   0.658 -33.081  1.00  0.00     0.121 C 
HETATM   15  C   UNL     1      -8.977   0.435 -31.777  1.00  0.00     0.051 C 
HETATM   16  C   UNL     1      -8.211   1.688 -31.358  1.00  0.00     0.125 C 
BRANCH  14  17
HETATM   17  O   UNL     1     -10.785   1.595 -32.856  1.00  0.00    -0.395 OA
HETATM   18  H   UNL     1     -11.547   1.112 -32.488  1.00  0.00     0.210 HD
ENDBRANCH  14  17
ENDBRANCH   6  11
ENDBRANCH   2   5
BRANCH   1  19
HETATM   19  C   UNL     1      -4.173   5.178 -32.213  1.00  0.00     0.050 A 
HETATM   20  C   UNL     1      -2.839   5.762 -31.978  1.00  0.00     0.006 A 
HETATM   21  C   UNL     1      -2.344   6.075 -30.704  1.00  0.00     0.015 A 
HETATM   22  C   UNL     1      -2.044   6.073 -33.093  1.00  0.00     0.046 A 
HETATM   23  C   UNL     1      -1.081   6.655 -30.551  1.00  0.00     0.001 A 
HETATM   24  C   UNL     1      -0.299   6.939 -31.669  1.00  0.00     0.002 A 
HETATM   25  C   UNL     1      -0.780   6.649 -32.944  1.00  0.00     0.030 A 
HETATM   26  N   UNL     1      -2.536   5.832 -34.381  1.00  0.00    -0.323 N 
HETATM   27  C   UNL     1      -3.785   5.341 -34.633  1.00  0.00     0.246 A 
HETATM   28  H   UNL     1      -1.974   6.050 -35.192  1.00  0.00     0.169 HD
HETATM   29  O   UNL     1      -4.184   5.139 -35.774  1.00  0.00    -0.268 OA
HETATM   30  C   UNL     1      -4.637   5.046 -33.466  1.00  0.00     0.092 A 
ENDBRANCH   1  19
TORSDOF 4
ENDMDL
MODEL 7
REMARK VINA RESULT:      -7.8      3.155      3.976
REMARK  4 active torsions:
REMARK  status: ('A' for Active; 'I' for Inactive)
REMARK    1  A    between atoms: C_9  and  C_10 
REMARK       I    between atoms: C_10  and  N_11 
REMARK    2  A    between atoms: N_11  and  C_12 
REMARK    3  A    between atoms: C_13  and  N_14 
REMARK    4  A    between atoms: C_17  and  O_18 
ROOT
HETATM    1  C   UNL     1      -7.260   0.965 -31.779  1.00  0.00     0.257 C 
HETATM    2  N   UNL     1      -7.512   2.220 -32.262  1.00  0.00    -0.321 N 
HETATM    3  O   UNL     1      -8.153   0.346 -31.198  1.00  0.00    -0.267 OA
HETATM    4  H   UNL     1      -8.500   2.425 -32.333  1.00  0.00     0.169 HD
ENDROOT
BRANCH   2   5
HETATM    5  C   UNL     1      -6.613   3.226 -32.676  1.00  0.00     0.061 C 
HETATM    6  C   UNL     1      -6.094   4.230 -31.816  1.00  0.00     0.057 C 
HETATM    7  C   UNL     1      -5.097   5.065 -32.356  1.00  0.00     0.031 C 
HETATM    8  C   UNL     1      -4.704   4.983 -33.697  1.00  0.00     0.002 C 
HETATM    9  C   UNL     1      -5.305   4.062 -34.543  1.00  0.00     0.002 C 
HETATM   10  C   UNL     1      -6.265   3.193 -34.036  1.00  0.00     0.032 C 
BRANCH   6  11
HETATM   11  N   UNL     1      -6.604   4.455 -30.533  1.00  0.00    -0.379 N 
HETATM   12  C   UNL     1      -5.728   4.550 -29.356  1.00  0.00     0.125 C 
HETATM   13  C   UNL     1      -5.403   5.999 -28.996  1.00  0.00     0.051 C 
HETATM   14  C   UNL     1      -6.664   6.853 -28.887  1.00  0.00     0.121 C 
HETATM   15  C   UNL     1      -7.527   6.715 -30.136  1.00  0.00     0.051 C 
HETATM   16  C   UNL     1      -7.845   5.251 -30.433  1.00  0.00     0.125 C 
BRANCH  14  17
HETATM   17  O   UNL     1      -7.430   6.472 -27.746  1.00  0.00    -0.395 OA
HETATM   18  H   UNL     1      -7.005   6.853 -26.957  1.00  0.00     0.210 HD
ENDBRANCH  14  17
ENDBRANCH   6  11
ENDBRANCH   2   5
BRANCH   1  19
HETATM   19  C   UNL     1      -5.977   0.285 -32.107  1.00  0.00     0.050 A 
HETATM   20  C   UNL     1      -5.840  -0.801 -33.096  1.00  0.00     0.006 A 
HETATM   21  C   UNL     1      -6.919  -1.329 -33.819  1.00  0.00     0.015 A 
HETATM   22  C   UNL     1      -4.572  -1.373 -33.282  1.00  0.00     0.046 A 
HETATM   23  C   UNL     1      -6.727  -2.380 -34.721  1.00  0.00     0.001 A 
HETATM   24  C   UNL     1      -5.457  -2.923 -34.907  1.00  0.00     0.002 A 
HETATM   25  C   UNL     1      -4.376  -2.421 -34.185  1.00  0.00     0.030 A 
HETATM   26  N   UNL     1      -3.487  -0.912 -32.528  1.00  0.00    -0.323 N 
HETATM   27  C   UNL     1      -3.591   0.056 -31.569  1.00  0.00     0.246 A 
HETATM   28  H   UNL     1      -2.569  -1.314 -32.652  1.00  0.00     0.169 HD
HETATM   29  O   UNL     1      -2.620   0.440 -30.928  1.00  0.00    -0.268 OA
HETATM   30  C   UNL     1      -4.929   0.636 -31.345  1.00  0.00     0.092 A 
ENDBRANCH   1  19
TORSDOF 4
ENDMDL
MODEL 8
REMARK VINA RESULT:      -7.7      3.319      5.165
REMARK  4 active torsions:
REMARK  status: ('A' for Active; 'I' for Inactive)
REMARK    1  A    between atoms: C_9  and  C_10 
REMARK       I    between atoms: C_10  and  N_11 
REMARK    2  A    between atoms: N_11  and  C_12 
REMARK    3  A    between atoms: C_13  and  N_14 
REMARK    4  A    between atoms: C_17  and  O_18 
ROOT
HETATM    1  C   UNL     1      -5.904   0.913 -30.125  1.00  0.00     0.257 C 
HETATM    2  N   UNL     1      -5.373   2.174 -30.185  1.00  0.00    -0.321 N 
HETATM    3  O   UNL     1      -5.980   0.336 -29.039  1.00  0.00    -0.267 OA
HETATM    4  H   UNL     1      -5.334   2.628 -29.283  1.00  0.00     0.169 HD
ENDROOT
BRANCH   2   5
HETATM    5  C   UNL     1      -4.905   2.905 -31.298  1.00  0.00     0.061 C 
HETATM    6  C   UNL     1      -5.657   3.909 -31.962  1.00  0.00     0.057 C 
HETATM    7  C   UNL     1      -4.984   4.640 -32.960  1.00  0.00     0.031 C 
HETATM    8  C   UNL     1      -3.676   4.333 -33.353  1.00  0.00     0.002 C 
HETATM    9  C   UNL     1      -3.002   3.275 -32.759  1.00  0.00     0.002 C 
HETATM   10  C   UNL     1      -3.619   2.557 -31.741  1.00  0.00     0.032 C 
BRANCH   6  11
HETATM   11  N   UNL     1      -7.020   4.108 -31.720  1.00  0.00    -0.379 N 
HETATM   12  C   UNL     1      -7.495   4.987 -30.641  1.00  0.00     0.125 C 
HETATM   13  C   UNL     1      -7.837   6.388 -31.148  1.00  0.00     0.051 C 
HETATM   14  C   UNL     1      -8.773   6.342 -32.353  1.00  0.00     0.121 C 
HETATM   15  C   UNL     1      -8.225   5.420 -33.437  1.00  0.00     0.051 C 
HETATM   16  C   UNL     1      -7.928   4.028 -32.883  1.00  0.00     0.125 C 
BRANCH  14  17
HETATM   17  O   UNL     1     -10.068   5.888 -31.965  1.00  0.00    -0.395 OA
HETATM   18  H   UNL     1     -10.192   6.100 -31.023  1.00  0.00     0.210 HD
ENDBRANCH  14  17
ENDBRANCH   6  11
ENDBRANCH   2   5
BRANCH   1  19
HETATM   19  C   UNL     1      -6.544   0.318 -31.329  1.00  0.00     0.050 A 
HETATM   20  C   UNL     1      -5.859  -0.585 -32.274  1.00  0.00     0.006 A 
HETATM   21  C   UNL     1      -4.515  -0.962 -32.149  1.00  0.00     0.015 A 
HETATM   22  C   UNL     1      -6.577  -1.049 -33.388  1.00  0.00     0.046 A 
HETATM   23  C   UNL     1      -3.916  -1.798 -33.095  1.00  0.00     0.001 A 
HETATM   24  C   UNL     1      -4.650  -2.264 -34.184  1.00  0.00     0.002 A 
HETATM   25  C   UNL     1      -5.983  -1.888 -34.334  1.00  0.00     0.030 A 
HETATM   26  N   UNL     1      -7.902  -0.640 -33.576  1.00  0.00    -0.323 N 
HETATM   27  C   UNL     1      -8.547   0.235 -32.749  1.00  0.00     0.246 A 
HETATM   28  H   UNL     1      -8.431  -0.966 -34.373  1.00  0.00     0.169 HD
HETATM   29  O   UNL     1      -9.710   0.571 -32.940  1.00  0.00    -0.268 OA
HETATM   30  C   UNL     1      -7.786   0.753 -31.596  1.00  0.00     0.092 A 
ENDBRANCH   1  19
TORSDOF 4
ENDMDL
MODEL 9
REMARK VINA RESULT:      -7.7     17.893     19.374
REMARK  4 active torsions:
REMARK  status: ('A' for Active; 'I' for Inactive)
REMARK    1  A    between atoms: C_9  and  C_10 
REMARK       I    between atoms: C_10  and  N_11 
REMARK    2  A    between atoms: N_11  and  C_12 
REMARK    3  A    between atoms: C_13  and  N_14 
REMARK    4  A    between atoms: C_17  and  O_18 
ROOT
HETATM    1  C   UNL     1      -7.126 -13.543 -37.101  1.00  0.00     0.257 C 
HETATM    2  N   UNL     1      -6.170 -12.793 -37.730  1.00  0.00    -0.321 N 
HETATM    3  O   UNL     1      -7.397 -13.316 -35.920  1.00  0.00    -0.267 OA
HETATM    4  H   UNL     1      -5.956 -11.935 -37.241  1.00  0.00     0.169 HD
ENDROOT
BRANCH   2   5
HETATM    5  C   UNL     1      -5.477 -13.039 -38.935  1.00  0.00     0.061 C 
HETATM    6  C   UNL     1      -4.265 -13.774 -39.020  1.00  0.00     0.057 C 
HETATM    7  C   UNL     1      -3.787 -14.049 -40.315  1.00  0.00     0.031 C 
HETATM    8  C   UNL     1      -4.412 -13.545 -41.462  1.00  0.00     0.002 C 
HETATM    9  C   UNL     1      -5.536 -12.740 -41.344  1.00  0.00     0.002 C 
HETATM   10  C   UNL     1      -6.061 -12.480 -40.083  1.00  0.00     0.032 C 
BRANCH   6  11
HETATM   11  N   UNL     1      -3.522 -14.126 -37.888  1.00  0.00    -0.379 N 
HETATM   12  C   UNL     1      -3.225 -15.528 -37.561  1.00  0.00     0.125 C 
HETATM   13  C   UNL     1      -1.842 -15.954 -38.052  1.00  0.00     0.051 C 
HETATM   14  C   UNL     1      -0.756 -14.980 -37.601  1.00  0.00     0.121 C 
HETATM   15  C   UNL     1      -1.118 -13.546 -37.971  1.00  0.00     0.051 C 
HETATM   16  C   UNL     1      -2.495 -13.165 -37.432  1.00  0.00     0.125 C 
BRANCH  14  17
HETATM   17  O   UNL     1      -0.563 -15.063 -36.190  1.00  0.00    -0.395 OA
HETATM   18  H   UNL     1       0.262 -14.594 -35.971  1.00  0.00     0.210 HD
ENDBRANCH  14  17
ENDBRANCH   6  11
ENDBRANCH   2   5
BRANCH   1  19
HETATM   19  C   UNL     1      -7.953 -14.502 -37.882  1.00  0.00     0.050 A 
HETATM   20  C   UNL     1      -9.018 -14.107 -38.823  1.00  0.00     0.006 A 
HETATM   21  C   UNL     1      -9.383 -12.775 -39.064  1.00  0.00     0.015 A 
HETATM   22  C   UNL     1      -9.741 -15.121 -39.471  1.00  0.00     0.046 A 
HETATM   23  C   UNL     1     -10.423 -12.469 -39.948  1.00  0.00     0.001 A 
HETATM   24  C   UNL     1     -11.117 -13.488 -40.596  1.00  0.00     0.002 A 
HETATM   25  C   UNL     1     -10.778 -14.819 -40.357  1.00  0.00     0.030 A 
HETATM   26  N   UNL     1      -9.444 -16.462 -39.203  1.00  0.00    -0.323 N 
HETATM   27  C   UNL     1      -8.500 -16.860 -38.300  1.00  0.00     0.246 A 
HETATM   28  H   UNL     1      -9.955 -17.202 -39.663  1.00  0.00     0.169 HD
HETATM   29  O   UNL     1      -8.261 -18.044 -38.090  1.00  0.00    -0.268 OA
HETATM   30  C   UNL     1      -7.761 -15.799 -37.590  1.00  0.00     0.092 A 
ENDBRANCH   1  19
TORSDOF 4
ENDMDL
MODEL 10
REMARK VINA RESULT:      -7.2     17.314     19.717
REMARK  4 active torsions:
REMARK  status: ('A' for Active; 'I' for Inactive)
REMARK    1  A    between atoms: C_9  and  C_10 
REMARK       I    between atoms: C_10  and  N_11 
REMARK    2  A    between atoms: N_11  and  C_12 
REMARK    3  A    between atoms: C_13  and  N_14 
REMARK    4  A    between atoms: C_17  and  O_18 
ROOT
HETATM    1  C   UNL     1      -2.623 -12.360 -38.326  1.00  0.00     0.257 C 
HETATM    2  N   UNL     1      -3.675 -12.627 -37.492  1.00  0.00    -0.321 N 
HETATM    3  O   UNL     1      -2.285 -11.192 -38.523  1.00  0.00    -0.267 OA
HETATM    4  H   UNL     1      -3.915 -11.846 -36.897  1.00  0.00     0.169 HD
ENDROOT
BRANCH   2   5
HETATM    5  C   UNL     1      -4.433 -13.809 -37.343  1.00  0.00     0.061 C 
HETATM    6  C   UNL     1      -5.682 -14.036 -37.978  1.00  0.00     0.057 C 
HETATM    7  C   UNL     1      -6.231 -15.325 -37.839  1.00  0.00     0.031 C 
HETATM    8  C   UNL     1      -5.636 -16.305 -37.036  1.00  0.00     0.002 C 
HETATM    9  C   UNL     1      -4.469 -16.020 -36.340  1.00  0.00     0.002 C 
HETATM   10  C   UNL     1      -3.875 -14.771 -36.486  1.00  0.00     0.032 C 
BRANCH   6  11
HETATM   11  N   UNL     1      -6.389 -13.018 -38.628  1.00  0.00    -0.379 N 
HETATM   12  C   UNL     1      -6.267 -12.793 -40.075  1.00  0.00     0.125 C 
HETATM   13  C   UNL     1      -7.394 -13.465 -40.859  1.00  0.00     0.051 C 
HETATM   14  C   UNL     1      -8.767 -13.104 -40.300  1.00  0.00     0.121 C 
HETATM   15  C   UNL     1      -8.833 -13.364 -38.799  1.00  0.00     0.051 C 
HETATM   16  C   UNL     1      -7.703 -12.647 -38.063  1.00  0.00     0.125 C 
BRANCH  14  17
HETATM   17  O   UNL     1      -9.066 -11.732 -40.549  1.00  0.00    -0.395 OA
HETATM   18  H   UNL     1      -8.627 -11.474 -41.380  1.00  0.00     0.210 HD
ENDBRANCH  14  17
ENDBRANCH   6  11
ENDBRANCH   2   5
BRANCH   1  19
HETATM   19  C   UNL     1      -1.787 -13.475 -38.849  1.00  0.00     0.050 A 
HETATM   20  C   UNL     1      -2.080 -14.224 -40.086  1.00  0.00     0.006 A 
HETATM   21  C   UNL     1      -3.200 -13.980 -40.892  1.00  0.00     0.015 A 
HETATM   22  C   UNL     1      -1.221 -15.275 -40.444  1.00  0.00     0.046 A 
HETATM   23  C   UNL     1      -3.437 -14.747 -42.037  1.00  0.00     0.001 A 
HETATM   24  C   UNL     1      -2.562 -15.773 -42.388  1.00  0.00     0.002 A 
HETATM   25  C   UNL     1      -1.451 -16.041 -41.590  1.00  0.00     0.030 A 
HETATM   26  N   UNL     1      -0.129 -15.586 -39.625  1.00  0.00    -0.323 N 
HETATM   27  C   UNL     1       0.139 -14.945 -38.449  1.00  0.00     0.246 A 
HETATM   28  H   UNL     1       0.498 -16.339 -39.871  1.00  0.00     0.169 HD
HETATM   29  O   UNL     1       1.106 -15.241 -37.756  1.00  0.00    -0.268 OA
HETATM   30  C   UNL     1      -0.781 -13.864 -38.050  1.00  0.00     0.092 A 
ENDBRANCH   1  19
TORSDOF 4
ENDMDL
