MODEL 1
REMARK VINA RESULT:      -7.9      0.000      0.000
REMARK  2 active torsions:
REMARK  status: ('A' for Active; 'I' for Inactive)
REMARK    1  A    between atoms: C_2  and  C_3 
REMARK    2  A    between atoms: C_6  and  C_7 
ROOT
HETATM    1  C   UNL     1      -6.850   2.226 -33.115  1.00  0.00     0.119 C 
HETATM    2  S   UNL     1      -8.563   2.677 -33.465  1.00  0.00    -0.141 SA
HETATM    3  C   UNL     1      -9.483   2.015 -32.049  1.00  0.00     0.136 C 
HETATM    4  C   UNL     1      -9.233   0.581 -31.617  1.00  0.00     0.031 C 
HETATM    5  C   UNL     1      -9.408   2.948 -30.874  1.00  0.00     0.236 C 
HETATM    6  O   UNL     1     -10.400   3.378 -30.298  1.00  0.00    -0.272 OA
HETATM    7  N   UNL     1      -8.188   3.334 -30.251  1.00  0.00    -0.311 N 
HETATM    8  C   UNL     1      -6.880   3.074 -30.610  1.00  0.00     0.134 A 
HETATM    9  C   UNL     1      -6.299   2.594 -31.774  1.00  0.00     0.032 A 
HETATM   10  N   UNL     1      -5.843   3.346 -29.753  1.00  0.00    -0.262 N 
HETATM   11  H   UNL     1      -5.891   3.721 -28.812  1.00  0.00     0.191 HD
HETATM   12  N   UNL     1      -4.639   3.066 -30.241  1.00  0.00    -0.178 NA
HETATM   13  C   UNL     1      -4.885   2.643 -31.482  1.00  0.00     0.062 A 
HETATM   14  C   UNL     1      -3.732   2.288 -32.358  1.00  0.00     0.073 C 
HETATM   15  H   UNL     1      -8.358   3.871 -29.406  1.00  0.00     0.170 HD
ENDROOT
BRANCH   1  16
HETATM   16  C   UNL     1      -6.496   0.793 -33.502  1.00  0.00    -0.040 A 
HETATM   17  C   UNL     1      -6.882   0.349 -34.784  1.00  0.00     0.009 A 
HETATM   18  C   UNL     1      -6.586  -0.941 -35.234  1.00  0.00     0.007 A 
HETATM   19  C   UNL     1      -5.894  -1.834 -34.415  1.00  0.00    -0.059 A 
HETATM   20  C   UNL     1      -5.498  -1.411 -33.143  1.00  0.00     0.007 A 
HETATM   21  C   UNL     1      -5.796  -0.119 -32.692  1.00  0.00     0.009 A 
BRANCH  19  22
HETATM   22  C   UNL     1      -5.554  -3.217 -34.910  1.00  0.00     0.034 C 
HETATM   23  C   UNL     1      -6.770  -4.130 -34.926  1.00  0.00     0.010 C 
ENDBRANCH  19  22
ENDBRANCH   1  16
TORSDOF 2
ENDMDL
MODEL 2
REMARK VINA RESULT:      -7.6      2.483      3.920
REMARK  2 active torsions:
REMARK  status: ('A' for Active; 'I' for Inactive)
REMARK    1  A    between atoms: C_2  and  C_3 
REMARK    2  A    between atoms: C_6  and  C_7 
ROOT
HETATM    1  C   UNL     1      -7.801   1.496 -32.164  1.00  0.00     0.119 C 
HETATM    2  S   UNL     1      -6.618   2.682 -31.489  1.00  0.00    -0.141 SA
HETATM    3  C   UNL     1      -6.297   3.808 -32.874  1.00  0.00     0.136 C 
HETATM    4  C   UNL     1      -5.969   3.222 -34.235  1.00  0.00     0.031 C 
HETATM    5  C   UNL     1      -7.375   4.847 -32.984  1.00  0.00     0.236 C 
HETATM    6  O   UNL     1      -7.145   6.050 -32.996  1.00  0.00    -0.272 OA
HETATM    7  N   UNL     1      -8.748   4.538 -33.198  1.00  0.00    -0.311 N 
HETATM    8  C   UNL     1      -9.395   3.318 -33.228  1.00  0.00     0.134 A 
HETATM    9  C   UNL     1      -9.022   2.043 -32.832  1.00  0.00     0.032 A 
HETATM   10  N   UNL     1     -10.691   3.214 -33.670  1.00  0.00    -0.262 N 
HETATM   11  H   UNL     1     -11.291   3.950 -34.027  1.00  0.00     0.191 HD
HETATM   12  N   UNL     1     -11.190   1.983 -33.623  1.00  0.00    -0.178 NA
HETATM   13  C   UNL     1     -10.210   1.259 -33.081  1.00  0.00     0.062 A 
HETATM   14  C   UNL     1     -10.451  -0.190 -32.823  1.00  0.00     0.073 C 
HETATM   15  H   UNL     1      -9.296   5.377 -33.362  1.00  0.00     0.170 HD
ENDROOT
BRANCH   1  16
HETATM   16  C   UNL     1      -7.159   0.376 -32.979  1.00  0.00    -0.040 A 
HETATM   17  C   UNL     1      -6.163  -0.400 -32.350  1.00  0.00     0.009 A 
HETATM   18  C   UNL     1      -5.532  -1.458 -33.010  1.00  0.00     0.007 A 
HETATM   19  C   UNL     1      -5.872  -1.774 -34.326  1.00  0.00    -0.059 A 
HETATM   20  C   UNL     1      -6.860  -1.020 -34.964  1.00  0.00     0.007 A 
HETATM   21  C   UNL     1      -7.492   0.041 -34.302  1.00  0.00     0.009 A 
BRANCH  19  22
HETATM   22  C   UNL     1      -5.208  -2.931 -35.029  1.00  0.00     0.034 C 
HETATM   23  C   UNL     1      -6.148  -4.116 -35.185  1.00  0.00     0.010 C 
ENDBRANCH  19  22
ENDBRANCH   1  16
TORSDOF 2
ENDMDL
MODEL 3
REMARK VINA RESULT:      -7.6      1.390      1.853
REMARK  2 active torsions:
REMARK  status: ('A' for Active; 'I' for Inactive)
REMARK    1  A    between atoms: C_2  and  C_3 
REMARK    2  A    between atoms: C_6  and  C_7 
ROOT
HETATM    1  C   UNL     1      -7.989   2.458 -33.305  1.00  0.00     0.119 C 
HETATM    2  S   UNL     1      -9.382   2.896 -34.368  1.00  0.00    -0.141 SA
HETATM    3  C   UNL     1     -10.800   2.088 -33.577  1.00  0.00     0.136 C 
HETATM    4  C   UNL     1     -10.683   0.628 -33.177  1.00  0.00     0.031 C 
HETATM    5  C   UNL     1     -11.325   2.914 -32.438  1.00  0.00     0.236 C 
HETATM    6  O   UNL     1     -12.495   3.265 -32.350  1.00  0.00    -0.272 OA
HETATM    7  N   UNL     1     -10.546   3.273 -31.301  1.00  0.00    -0.311 N 
HETATM    8  C   UNL     1      -9.204   3.078 -31.039  1.00  0.00     0.134 A 
HETATM    9  C   UNL     1      -8.130   2.719 -31.839  1.00  0.00     0.032 A 
HETATM   10  N   UNL     1      -8.688   3.300 -29.787  1.00  0.00    -0.262 N 
HETATM   11  H   UNL     1      -9.180   3.587 -28.949  1.00  0.00     0.191 HD
HETATM   12  N   UNL     1      -7.378   3.094 -29.689  1.00  0.00    -0.178 NA
HETATM   13  C   UNL     1      -7.008   2.777 -30.930  1.00  0.00     0.062 A 
HETATM   14  C   UNL     1      -5.564   2.531 -31.205  1.00  0.00     0.073 C 
HETATM   15  H   UNL     1     -11.114   3.728 -30.592  1.00  0.00     0.170 HD
ENDROOT
BRANCH   1  16
HETATM   16  C   UNL     1      -7.408   1.075 -33.584  1.00  0.00    -0.040 A 
HETATM   17  C   UNL     1      -7.214   0.708 -34.932  1.00  0.00     0.009 A 
HETATM   18  C   UNL     1      -6.671  -0.530 -35.285  1.00  0.00     0.007 A 
HETATM   19  C   UNL     1      -6.306  -1.449 -34.299  1.00  0.00    -0.059 A 
HETATM   20  C   UNL     1      -6.486  -1.102 -32.958  1.00  0.00     0.007 A 
HETATM   21  C   UNL     1      -7.031   0.139 -32.605  1.00  0.00     0.009 A 
BRANCH  19  22
HETATM   22  C   UNL     1      -5.698  -2.776 -34.680  1.00  0.00     0.034 C 
HETATM   23  C   UNL     1      -6.760  -3.836 -34.929  1.00  0.00     0.010 C 
ENDBRANCH  19  22
ENDBRANCH   1  16
TORSDOF 2
ENDMDL
MODEL 4
REMARK VINA RESULT:      -7.3      2.725      4.562
REMARK  2 active torsions:
REMARK  status: ('A' for Active; 'I' for Inactive)
REMARK    1  A    between atoms: C_2  and  C_3 
REMARK    2  A    between atoms: C_6  and  C_7 
ROOT
HETATM    1  C   UNL     1      -7.369   2.103 -33.809  1.00  0.00     0.119 C 
HETATM    2  S   UNL     1      -7.241   3.818 -33.259  1.00  0.00    -0.141 SA
HETATM    3  C   UNL     1      -7.069   3.683 -31.459  1.00  0.00     0.136 C 
HETATM    4  C   UNL     1      -8.034   2.795 -30.694  1.00  0.00     0.031 C 
HETATM    5  C   UNL     1      -5.648   3.385 -31.074  1.00  0.00     0.236 C 
HETATM    6  O   UNL     1      -5.013   4.069 -30.281  1.00  0.00    -0.272 OA
HETATM    7  N   UNL     1      -4.943   2.225 -31.503  1.00  0.00    -0.311 N 
HETATM    8  C   UNL     1      -5.307   1.238 -32.397  1.00  0.00     0.134 A 
HETATM    9  C   UNL     1      -6.316   1.148 -33.343  1.00  0.00     0.032 A 
HETATM   10  N   UNL     1      -4.577   0.080 -32.509  1.00  0.00    -0.262 N 
HETATM   11  H   UNL     1      -3.757  -0.196 -31.981  1.00  0.00     0.191 HD
HETATM   12  N   UNL     1      -5.032  -0.769 -33.425  1.00  0.00    -0.178 NA
HETATM   13  C   UNL     1      -6.065  -0.128 -33.974  1.00  0.00     0.062 A 
HETATM   14  C   UNL     1      -6.793  -0.778 -35.100  1.00  0.00     0.073 C 
HETATM   15  H   UNL     1      -4.042   2.148 -31.040  1.00  0.00     0.170 HD
ENDROOT
BRANCH   1  16
HETATM   16  C   UNL     1      -8.770   1.513 -33.679  1.00  0.00    -0.040 A 
HETATM   17  C   UNL     1      -9.807   2.127 -34.412  1.00  0.00     0.009 A 
HETATM   18  C   UNL     1     -11.119   1.648 -34.370  1.00  0.00     0.007 A 
HETATM   19  C   UNL     1     -11.441   0.537 -33.589  1.00  0.00    -0.059 A 
HETATM   20  C   UNL     1     -10.426  -0.089 -32.859  1.00  0.00     0.007 A 
HETATM   21  C   UNL     1      -9.112   0.393 -32.902  1.00  0.00     0.009 A 
BRANCH  19  22
HETATM   22  C   UNL     1     -12.852   0.005 -33.563  1.00  0.00     0.034 C 
HETATM   23  C   UNL     1     -13.790   0.842 -34.418  1.00  0.00     0.010 C 
ENDBRANCH  19  22
ENDBRANCH   1  16
TORSDOF 2
ENDMDL
MODEL 5
REMARK VINA RESULT:      -7.3     15.367     16.355
REMARK  2 active torsions:
REMARK  status: ('A' for Active; 'I' for Inactive)
REMARK    1  A    between atoms: C_2  and  C_3 
REMARK    2  A    between atoms: C_6  and  C_7 
ROOT
HETATM    1  C   UNL     1      -5.735 -14.764 -37.766  1.00  0.00     0.119 C 
HETATM    2  S   UNL     1      -4.492 -15.076 -39.038  1.00  0.00    -0.141 SA
HETATM    3  C   UNL     1      -3.878 -13.423 -39.458  1.00  0.00     0.136 C 
HETATM    4  C   UNL     1      -4.880 -12.319 -39.745  1.00  0.00     0.031 C 
HETATM    5  C   UNL     1      -2.845 -12.964 -38.468  1.00  0.00     0.236 C 
HETATM    6  O   UNL     1      -1.726 -12.589 -38.796  1.00  0.00    -0.272 OA
HETATM    7  N   UNL     1      -3.100 -12.814 -37.076  1.00  0.00    -0.311 N 
HETATM    8  C   UNL     1      -4.217 -13.141 -36.332  1.00  0.00     0.134 A 
HETATM    9  C   UNL     1      -5.331 -13.923 -36.597  1.00  0.00     0.032 A 
HETATM   10  N   UNL     1      -4.354 -12.713 -35.035  1.00  0.00    -0.262 N 
HETATM   11  H   UNL     1      -3.722 -12.129 -34.498  1.00  0.00     0.191 HD
HETATM   12  N   UNL     1      -5.468 -13.122 -34.436  1.00  0.00    -0.178 NA
HETATM   13  C   UNL     1      -6.061 -13.891 -35.350  1.00  0.00     0.062 A 
HETATM   14  C   UNL     1      -7.336 -14.575 -34.991  1.00  0.00     0.073 C 
HETATM   15  H   UNL     1      -2.314 -12.382 -36.600  1.00  0.00     0.170 HD
ENDROOT
BRANCH   1  16
HETATM   16  C   UNL     1      -7.097 -14.353 -38.319  1.00  0.00    -0.040 A 
HETATM   17  C   UNL     1      -7.410 -12.978 -38.330  1.00  0.00     0.009 A 
HETATM   18  C   UNL     1      -8.625 -12.506 -38.833  1.00  0.00     0.007 A 
HETATM   19  C   UNL     1      -9.573 -13.395 -39.342  1.00  0.00    -0.059 A 
HETATM   20  C   UNL     1      -9.280 -14.761 -39.345  1.00  0.00     0.007 A 
HETATM   21  C   UNL     1      -8.062 -15.234 -38.839  1.00  0.00     0.009 A 
BRANCH  19  22
HETATM   22  C   UNL     1     -10.874 -12.882 -39.907  1.00  0.00     0.034 C 
HETATM   23  C   UNL     1     -10.734 -11.477 -40.470  1.00  0.00     0.010 C 
ENDBRANCH  19  22
ENDBRANCH   1  16
TORSDOF 2
ENDMDL
MODEL 6
REMARK VINA RESULT:      -7.1     15.780     17.190
REMARK  2 active torsions:
REMARK  status: ('A' for Active; 'I' for Inactive)
REMARK    1  A    between atoms: C_2  and  C_3 
REMARK    2  A    between atoms: C_6  and  C_7 
ROOT
HETATM    1  C   UNL     1      -5.774 -14.949 -39.072  1.00  0.00     0.119 C 
HETATM    2  S   UNL     1      -5.149 -15.920 -40.460  1.00  0.00    -0.141 SA
HETATM    3  C   UNL     1      -4.552 -14.668 -41.629  1.00  0.00     0.136 C 
HETATM    4  C   UNL     1      -5.452 -13.495 -41.971  1.00  0.00     0.031 C 
HETATM    5  C   UNL     1      -3.176 -14.196 -41.255  1.00  0.00     0.236 C 
HETATM    6  O   UNL     1      -2.228 -14.218 -42.031  1.00  0.00    -0.272 OA
HETATM    7  N   UNL     1      -2.866 -13.577 -40.011  1.00  0.00    -0.311 N 
HETATM    8  C   UNL     1      -3.649 -13.386 -38.889  1.00  0.00     0.134 A 
HETATM    9  C   UNL     1      -4.863 -13.918 -38.484  1.00  0.00     0.032 A 
HETATM   10  N   UNL     1      -3.234 -12.567 -37.868  1.00  0.00    -0.262 N 
HETATM   11  H   UNL     1      -2.383 -12.018 -37.812  1.00  0.00     0.191 HD
HETATM   12  N   UNL     1      -4.078 -12.496 -36.844  1.00  0.00    -0.178 NA
HETATM   13  C   UNL     1      -5.059 -13.337 -37.175  1.00  0.00     0.062 A 
HETATM   14  C   UNL     1      -6.173 -13.554 -36.209  1.00  0.00     0.073 C 
HETATM   15  H   UNL     1      -1.914 -13.224 -40.000  1.00  0.00     0.170 HD
ENDROOT
BRANCH   1  16
HETATM   16  C   UNL     1      -7.186 -14.409 -39.279  1.00  0.00    -0.040 A 
HETATM   17  C   UNL     1      -7.328 -13.025 -39.510  1.00  0.00     0.009 A 
HETATM   18  C   UNL     1      -8.579 -12.442 -39.729  1.00  0.00     0.007 A 
HETATM   19  C   UNL     1      -9.735 -13.225 -39.720  1.00  0.00    -0.059 A 
HETATM   20  C   UNL     1      -9.615 -14.600 -39.499  1.00  0.00     0.007 A 
HETATM   21  C   UNL     1      -8.360 -15.183 -39.279  1.00  0.00     0.009 A 
BRANCH  19  22
HETATM   22  C   UNL     1     -11.083 -12.599 -39.980  1.00  0.00     0.034 C 
HETATM   23  C   UNL     1     -10.956 -11.212 -40.589  1.00  0.00     0.010 C 
ENDBRANCH  19  22
ENDBRANCH   1  16
TORSDOF 2
ENDMDL
MODEL 7
REMARK VINA RESULT:      -6.9      2.999      5.274
REMARK  2 active torsions:
REMARK  status: ('A' for Active; 'I' for Inactive)
REMARK    1  A    between atoms: C_2  and  C_3 
REMARK    2  A    between atoms: C_6  and  C_7 
ROOT
HETATM    1  C   UNL     1      -7.362   1.682 -32.277  1.00  0.00     0.119 C 
HETATM    2  S   UNL     1      -8.817   2.576 -31.691  1.00  0.00    -0.141 SA
HETATM    3  C   UNL     1      -9.278   3.621 -33.100  1.00  0.00     0.136 C 
HETATM    4  C   UNL     1      -8.203   4.447 -33.784  1.00  0.00     0.031 C 
HETATM    5  C   UNL     1     -10.079   2.846 -34.107  1.00  0.00     0.236 C 
HETATM    6  O   UNL     1     -11.180   3.206 -34.505  1.00  0.00    -0.272 OA
HETATM    7  N   UNL     1      -9.593   1.687 -34.775  1.00  0.00    -0.311 N 
HETATM    8  C   UNL     1      -8.424   0.975 -34.594  1.00  0.00     0.134 A 
HETATM    9  C   UNL     1      -7.471   0.967 -33.587  1.00  0.00     0.032 A 
HETATM   10  N   UNL     1      -8.035   0.012 -35.492  1.00  0.00    -0.262 N 
HETATM   11  H   UNL     1      -8.498  -0.268 -36.349  1.00  0.00     0.191 HD
HETATM   12  N   UNL     1      -6.901  -0.606 -35.177  1.00  0.00    -0.178 NA
HETATM   13  C   UNL     1      -6.558  -0.072 -34.004  1.00  0.00     0.062 A 
HETATM   14  C   UNL     1      -5.338  -0.582 -33.315  1.00  0.00     0.073 C 
HETATM   15  H   UNL     1     -10.236   1.381 -35.500  1.00  0.00     0.170 HD
ENDROOT
BRANCH   1  16
HETATM   16  C   UNL     1      -6.062   2.474 -32.167  1.00  0.00    -0.040 A 
HETATM   17  C   UNL     1      -5.482   2.602 -30.888  1.00  0.00     0.009 A 
HETATM   18  C   UNL     1      -4.284   3.293 -30.692  1.00  0.00     0.007 A 
HETATM   19  C   UNL     1      -3.624   3.885 -31.770  1.00  0.00    -0.059 A 
HETATM   20  C   UNL     1      -4.180   3.765 -33.046  1.00  0.00     0.007 A 
HETATM   21  C   UNL     1      -5.381   3.072 -33.242  1.00  0.00     0.009 A 
BRANCH  19  22
HETATM   22  C   UNL     1      -2.318   4.611 -31.561  1.00  0.00     0.034 C 
HETATM   23  C   UNL     1      -1.639   4.948 -32.879  1.00  0.00     0.010 C 
ENDBRANCH  19  22
ENDBRANCH   1  16
TORSDOF 2
ENDMDL
MODEL 8
REMARK VINA RESULT:      -6.8      2.531      4.883
REMARK  2 active torsions:
REMARK  status: ('A' for Active; 'I' for Inactive)
REMARK    1  A    between atoms: C_2  and  C_3 
REMARK    2  A    between atoms: C_6  and  C_7 
ROOT
HETATM    1  C   UNL     1      -6.577   2.074 -30.880  1.00  0.00     0.119 C 
HETATM    2  S   UNL     1      -7.335   3.085 -29.591  1.00  0.00    -0.141 SA
HETATM    3  C   UNL     1      -8.503   4.137 -30.497  1.00  0.00     0.136 C 
HETATM    4  C   UNL     1      -8.023   4.867 -31.738  1.00  0.00     0.031 C 
HETATM    5  C   UNL     1      -9.787   3.406 -30.769  1.00  0.00     0.236 C 
HETATM    6  O   UNL     1     -10.885   3.840 -30.444  1.00  0.00    -0.272 OA
HETATM    7  N   UNL     1      -9.862   2.201 -31.524  1.00  0.00    -0.311 N 
HETATM    8  C   UNL     1      -8.857   1.407 -32.042  1.00  0.00     0.134 A 
HETATM    9  C   UNL     1      -7.491   1.346 -31.814  1.00  0.00     0.032 A 
HETATM   10  N   UNL     1      -9.139   0.402 -32.933  1.00  0.00    -0.262 N 
HETATM   11  H   UNL     1     -10.039   0.142 -33.320  1.00  0.00     0.191 HD
HETATM   12  N   UNL     1      -8.077  -0.294 -33.329  1.00  0.00    -0.178 NA
HETATM   13  C   UNL     1      -7.069   0.234 -32.634  1.00  0.00     0.062 A 
HETATM   14  C   UNL     1      -5.708  -0.353 -32.790  1.00  0.00     0.073 C 
HETATM   15  H   UNL     1     -10.826   1.932 -31.695  1.00  0.00     0.170 HD
ENDROOT
BRANCH   1  16
HETATM   16  C   UNL     1      -5.439   2.769 -31.623  1.00  0.00    -0.040 A 
HETATM   17  C   UNL     1      -4.162   2.749 -31.025  1.00  0.00     0.009 A 
HETATM   18  C   UNL     1      -3.055   3.342 -31.639  1.00  0.00     0.007 A 
HETATM   19  C   UNL     1      -3.189   3.980 -32.873  1.00  0.00    -0.059 A 
HETATM   20  C   UNL     1      -4.445   4.006 -33.484  1.00  0.00     0.007 A 
HETATM   21  C   UNL     1      -5.554   3.411 -32.868  1.00  0.00     0.009 A 
BRANCH  19  22
HETATM   22  C   UNL     1      -1.989   4.600 -33.546  1.00  0.00     0.034 C 
HETATM   23  C   UNL     1      -2.332   5.150 -34.922  1.00  0.00     0.010 C 
ENDBRANCH  19  22
ENDBRANCH   1  16
TORSDOF 2
ENDMDL
MODEL 9
REMARK VINA RESULT:      -6.8      3.375      5.015
REMARK  2 active torsions:
REMARK  status: ('A' for Active; 'I' for Inactive)
REMARK    1  A    between atoms: C_2  and  C_3 
REMARK    2  A    between atoms: C_6  and  C_7 
ROOT
HETATM    1  C   UNL     1     -10.099   2.332 -32.371  1.00  0.00     0.119 C 
HETATM    2  S   UNL     1      -9.301   3.612 -31.378  1.00  0.00    -0.141 SA
HETATM    3  C   UNL     1      -8.800   4.857 -32.598  1.00  0.00     0.136 C 
HETATM    4  C   UNL     1      -8.062   4.407 -33.846  1.00  0.00     0.031 C 
HETATM    5  C   UNL     1      -9.950   5.757 -32.952  1.00  0.00     0.236 C 
HETATM    6  O   UNL     1      -9.893   6.978 -32.867  1.00  0.00    -0.272 OA
HETATM    7  N   UNL     1     -11.168   5.291 -33.522  1.00  0.00    -0.311 N 
HETATM    8  C   UNL     1     -11.611   4.004 -33.755  1.00  0.00     0.134 A 
HETATM    9  C   UNL     1     -11.177   2.763 -33.315  1.00  0.00     0.032 A 
HETATM   10  N   UNL     1     -12.726   3.767 -34.520  1.00  0.00    -0.262 N 
HETATM   11  H   UNL     1     -13.313   4.442 -34.997  1.00  0.00     0.191 HD
HETATM   12  N   UNL     1     -13.046   2.482 -34.640  1.00  0.00    -0.178 NA
HETATM   13  C   UNL     1     -12.144   1.853 -33.886  1.00  0.00     0.062 A 
HETATM   14  C   UNL     1     -12.238   0.373 -33.743  1.00  0.00     0.073 C 
HETATM   15  H   UNL     1     -11.767   6.064 -33.796  1.00  0.00     0.170 HD
ENDROOT
BRANCH   1  16
HETATM   16  C   UNL     1      -9.124   1.358 -33.027  1.00  0.00    -0.040 A 
HETATM   17  C   UNL     1      -8.374   0.517 -32.179  1.00  0.00     0.009 A 
HETATM   18  C   UNL     1      -7.470  -0.419 -32.687  1.00  0.00     0.007 A 
HETATM   19  C   UNL     1      -7.281  -0.545 -34.065  1.00  0.00    -0.059 A 
HETATM   20  C   UNL     1      -8.019   0.276 -34.921  1.00  0.00     0.007 A 
HETATM   21  C   UNL     1      -8.925   1.215 -34.411  1.00  0.00     0.009 A 
BRANCH  19  22
HETATM   22  C   UNL     1      -6.323  -1.572 -34.614  1.00  0.00     0.034 C 
HETATM   23  C   UNL     1      -5.026  -1.618 -33.822  1.00  0.00     0.010 C 
ENDBRANCH  19  22
ENDBRANCH   1  16
TORSDOF 2
ENDMDL
MODEL 10
REMARK VINA RESULT:      -6.7      2.108      2.697
REMARK  2 active torsions:
REMARK  status: ('A' for Active; 'I' for Inactive)
REMARK    1  A    between atoms: C_2  and  C_3 
REMARK    2  A    between atoms: C_6  and  C_7 
ROOT
HETATM    1  C   UNL     1      -5.911   4.063 -32.519  1.00  0.00     0.119 C 
HETATM    2  S   UNL     1      -7.581   4.533 -32.017  1.00  0.00    -0.141 SA
HETATM    3  C   UNL     1      -7.652   4.071 -30.265  1.00  0.00     0.136 C 
HETATM    4  C   UNL     1      -7.182   2.688 -29.850  1.00  0.00     0.031 C 
HETATM    5  C   UNL     1      -7.025   5.130 -29.403  1.00  0.00     0.236 C 
HETATM    6  O   UNL     1      -7.607   5.658 -28.463  1.00  0.00    -0.272 OA
HETATM    7  N   UNL     1      -5.667   5.540 -29.522  1.00  0.00    -0.311 N 
HETATM    8  C   UNL     1      -4.708   5.194 -30.453  1.00  0.00     0.134 A 
HETATM    9  C   UNL     1      -4.774   4.563 -31.686  1.00  0.00     0.032 A 
HETATM   10  N   UNL     1      -3.389   5.526 -30.266  1.00  0.00    -0.262 N 
HETATM   11  H   UNL     1      -2.970   6.007 -29.478  1.00  0.00     0.191 HD
HETATM   12  N   UNL     1      -2.582   5.147 -31.253  1.00  0.00    -0.178 NA
HETATM   13  C   UNL     1      -3.404   4.595 -32.147  1.00  0.00     0.062 A 
HETATM   14  C   UNL     1      -2.835   4.100 -33.433  1.00  0.00     0.073 C 
HETATM   15  H   UNL     1      -5.406   6.176 -28.774  1.00  0.00     0.170 HD
ENDROOT
BRANCH   1  16
HETATM   16  C   UNL     1      -5.760   2.584 -32.860  1.00  0.00    -0.040 A 
HETATM   17  C   UNL     1      -6.500   2.088 -33.954  1.00  0.00     0.009 A 
HETATM   18  C   UNL     1      -6.413   0.751 -34.353  1.00  0.00     0.007 A 
HETATM   19  C   UNL     1      -5.583  -0.139 -33.668  1.00  0.00    -0.059 A 
HETATM   20  C   UNL     1      -4.838   0.335 -32.585  1.00  0.00     0.007 A 
HETATM   21  C   UNL     1      -4.926   1.675 -32.185  1.00  0.00     0.009 A 
BRANCH  19  22
HETATM   22  C   UNL     1      -5.471  -1.575 -34.114  1.00  0.00     0.034 C 
HETATM   23  C   UNL     1      -6.825  -2.163 -34.478  1.00  0.00     0.010 C 
ENDBRANCH  19  22
ENDBRANCH   1  16
TORSDOF 2
ENDMDL
