MODEL 1
REMARK VINA RESULT:      -8.7      0.000      0.000
REMARK  3 active torsions:
REMARK  status: ('A' for Active; 'I' for Inactive)
REMARK    1  A    between atoms: C_4  and  C_5 
REMARK    2  A    between atoms: C_14  and  C_15 
REMARK       I    between atoms: C_15  and  N_16 
REMARK    3  A    between atoms: N_16  and  C_17 
ROOT
HETATM    1  C   UNL     1      -6.253   2.417 -33.581  1.00  0.00     0.222 A 
HETATM    2  N   UNL     1      -5.811   3.797 -33.398  1.00  0.00    -0.090 N 
HETATM    3  C   UNL     1      -4.687   4.168 -32.718  1.00  0.00     0.735 A 
HETATM    4  N   UNL     1      -4.554   5.467 -32.821  1.00  0.00     0.030 NA
HETATM    5  N   UNL     1      -5.597   5.888 -33.623  1.00  0.00     0.033 NA
HETATM    6  N   UNL     1      -6.353   4.865 -34.009  1.00  0.00     0.012 NA
HETATM    7  N   UNL     1      -3.938   3.219 -32.126  1.00  0.00    -0.191 N 
HETATM    8  C   UNL     1      -4.231   1.861 -32.195  1.00  0.00     0.037 A 
HETATM    9  C   UNL     1      -3.253   0.950 -31.490  1.00  0.00     0.070 C 
HETATM   10  C   UNL     1      -5.321   1.432 -32.883  1.00  0.00     0.064 A 
HETATM   11  H   UNL     1      -3.106   3.496 -31.611  1.00  0.00     0.184 HD
ENDROOT
BRANCH  10  12
HETATM   12  C   UNL     1      -5.701  -0.015 -32.877  1.00  0.00     0.256 C 
HETATM   13  N   UNL     1      -5.328  -0.709 -34.009  1.00  0.00    -0.323 N 
HETATM   14  H   UNL     1      -4.889  -0.206 -34.768  1.00  0.00     0.169 HD
HETATM   15  O   UNL     1      -6.312  -0.469 -31.916  1.00  0.00    -0.267 OA
BRANCH  13  16
HETATM   16  C   UNL     1      -5.525  -2.085 -34.268  1.00  0.00     0.035 A 
HETATM   17  C   UNL     1      -6.742  -2.643 -34.660  1.00  0.00     0.029 A 
HETATM   18  C   UNL     1      -6.855  -4.021 -34.878  1.00  0.00     0.002 A 
HETATM   19  C   UNL     1      -5.749  -4.851 -34.710  1.00  0.00     0.000 A 
HETATM   20  C   UNL     1      -4.529  -4.305 -34.321  1.00  0.00     0.002 A 
HETATM   21  C   UNL     1      -4.419  -2.930 -34.098  1.00  0.00     0.029 A 
ENDBRANCH  13  16
ENDBRANCH  10  12
BRANCH   1  22
HETATM   22  C   UNL     1      -7.690   2.294 -33.184  1.00  0.00     0.083 A 
HETATM   23  O   UNL     1      -8.556   1.946 -34.183  1.00  0.00    -0.317 OA
HETATM   24  C   UNL     1      -9.796   1.866 -33.629  1.00  0.00     0.049 A 
HETATM   25  C   UNL     1     -10.906   1.516 -34.539  1.00  0.00     0.076 C 
HETATM   26  C   UNL     1      -9.734   2.150 -32.282  1.00  0.00     0.035 A 
HETATM   27  C   UNL     1      -8.376   2.421 -31.992  1.00  0.00     0.038 A 
ENDBRANCH   1  22
TORSDOF 3
ENDMDL
MODEL 2
REMARK VINA RESULT:      -8.2      2.438      4.348
REMARK  3 active torsions:
REMARK  status: ('A' for Active; 'I' for Inactive)
REMARK    1  A    between atoms: C_4  and  C_5 
REMARK    2  A    between atoms: C_14  and  C_15 
REMARK       I    between atoms: C_15  and  N_16 
REMARK    3  A    between atoms: N_16  and  C_17 
ROOT
HETATM    1  C   UNL     1      -7.434   2.649 -31.940  1.00  0.00     0.222 A 
HETATM    2  N   UNL     1      -8.279   3.576 -31.192  1.00  0.00    -0.090 N 
HETATM    3  C   UNL     1      -9.643   3.533 -31.166  1.00  0.00     0.735 A 
HETATM    4  N   UNL     1     -10.068   4.453 -30.335  1.00  0.00     0.030 NA
HETATM    5  N   UNL     1      -8.931   5.037 -29.810  1.00  0.00     0.033 NA
HETATM    6  N   UNL     1      -7.830   4.481 -30.305  1.00  0.00     0.012 NA
HETATM    7  N   UNL     1     -10.283   2.610 -31.907  1.00  0.00    -0.191 N 
HETATM    8  C   UNL     1      -9.623   1.664 -32.686  1.00  0.00     0.037 A 
HETATM    9  C   UNL     1     -10.517   0.693 -33.422  1.00  0.00     0.070 C 
HETATM   10  C   UNL     1      -8.266   1.641 -32.726  1.00  0.00     0.064 A 
HETATM   11  H   UNL     1     -11.300   2.583 -31.895  1.00  0.00     0.184 HD
ENDROOT
BRANCH  10  12
HETATM   12  C   UNL     1      -7.550   0.696 -33.639  1.00  0.00     0.256 C 
HETATM   13  N   UNL     1      -7.055  -0.432 -33.019  1.00  0.00    -0.323 N 
HETATM   14  H   UNL     1      -7.152  -0.521 -32.018  1.00  0.00     0.169 HD
HETATM   15  O   UNL     1      -7.435   0.981 -34.826  1.00  0.00    -0.267 OA
BRANCH  13  16
HETATM   16  C   UNL     1      -6.367  -1.507 -33.630  1.00  0.00     0.035 A 
HETATM   17  C   UNL     1      -4.978  -1.640 -33.648  1.00  0.00     0.029 A 
HETATM   18  C   UNL     1      -4.377  -2.727 -34.292  1.00  0.00     0.002 A 
HETATM   19  C   UNL     1      -5.160  -3.692 -34.919  1.00  0.00     0.000 A 
HETATM   20  C   UNL     1      -6.546  -3.571 -34.906  1.00  0.00     0.002 A 
HETATM   21  C   UNL     1      -7.147  -2.482 -34.267  1.00  0.00     0.029 A 
ENDBRANCH  13  16
ENDBRANCH  10  12
BRANCH   1  22
HETATM   22  C   UNL     1      -6.455   3.420 -32.767  1.00  0.00     0.083 A 
HETATM   23  O   UNL     1      -5.140   3.279 -32.419  1.00  0.00    -0.317 OA
HETATM   24  C   UNL     1      -4.412   4.032 -33.288  1.00  0.00     0.049 A 
HETATM   25  C   UNL     1      -2.949   4.044 -33.087  1.00  0.00     0.076 C 
HETATM   26  C   UNL     1      -5.246   4.648 -34.197  1.00  0.00     0.035 A 
HETATM   27  C   UNL     1      -6.563   4.250 -33.866  1.00  0.00     0.038 A 
ENDBRANCH   1  22
TORSDOF 3
ENDMDL
MODEL 3
REMARK VINA RESULT:      -7.9      2.372      4.157
REMARK  3 active torsions:
REMARK  status: ('A' for Active; 'I' for Inactive)
REMARK    1  A    between atoms: C_4  and  C_5 
REMARK    2  A    between atoms: C_14  and  C_15 
REMARK       I    between atoms: C_15  and  N_16 
REMARK    3  A    between atoms: N_16  and  C_17 
ROOT
HETATM    1  C   UNL     1      -5.870   2.771 -31.233  1.00  0.00     0.222 A 
HETATM    2  N   UNL     1      -6.355   3.829 -30.351  1.00  0.00    -0.090 N 
HETATM    3  C   UNL     1      -7.650   4.257 -30.294  1.00  0.00     0.735 A 
HETATM    4  N   UNL     1      -7.745   5.153 -29.342  1.00  0.00     0.030 NA
HETATM    5  N   UNL     1      -6.487   5.235 -28.778  1.00  0.00     0.033 NA
HETATM    6  N   UNL     1      -5.638   4.401 -29.369  1.00  0.00     0.012 NA
HETATM    7  N   UNL     1      -8.556   3.716 -31.129  1.00  0.00    -0.191 N 
HETATM    8  C   UNL     1      -8.251   2.708 -32.038  1.00  0.00     0.037 A 
HETATM    9  C   UNL     1      -9.411   2.209 -32.868  1.00  0.00     0.070 C 
HETATM   10  C   UNL     1      -6.985   2.223 -32.118  1.00  0.00     0.064 A 
HETATM   11  H   UNL     1      -9.519   4.041 -31.093  1.00  0.00     0.184 HD
ENDROOT
BRANCH  10  12
HETATM   12  C   UNL     1      -6.623   1.214 -33.162  1.00  0.00     0.256 C 
HETATM   13  N   UNL     1      -6.453  -0.068 -32.683  1.00  0.00    -0.323 N 
HETATM   14  H   UNL     1      -6.523  -0.231 -31.689  1.00  0.00     0.169 HD
HETATM   15  O   UNL     1      -6.487   1.578 -34.325  1.00  0.00    -0.267 OA
BRANCH  13  16
HETATM   16  C   UNL     1      -6.142  -1.224 -33.437  1.00  0.00     0.035 A 
HETATM   17  C   UNL     1      -7.090  -2.014 -34.088  1.00  0.00     0.029 A 
HETATM   18  C   UNL     1      -6.697  -3.155 -34.797  1.00  0.00     0.002 A 
HETATM   19  C   UNL     1      -5.353  -3.511 -34.865  1.00  0.00     0.000 A 
HETATM   20  C   UNL     1      -4.398  -2.730 -34.222  1.00  0.00     0.002 A 
HETATM   21  C   UNL     1      -4.791  -1.594 -33.508  1.00  0.00     0.029 A 
ENDBRANCH  13  16
ENDBRANCH  10  12
BRANCH   1  22
HETATM   22  C   UNL     1      -4.669   3.255 -31.982  1.00  0.00     0.083 A 
HETATM   23  O   UNL     1      -4.908   4.190 -32.950  1.00  0.00    -0.317 OA
HETATM   24  C   UNL     1      -3.706   4.517 -33.498  1.00  0.00     0.049 A 
HETATM   25  C   UNL     1      -3.724   5.510 -34.590  1.00  0.00     0.076 C 
HETATM   26  C   UNL     1      -2.696   3.807 -32.884  1.00  0.00     0.035 A 
HETATM   27  C   UNL     1      -3.314   2.997 -31.903  1.00  0.00     0.038 A 
ENDBRANCH   1  22
TORSDOF 3
ENDMDL
MODEL 4
REMARK VINA RESULT:      -7.8      2.162      2.428
REMARK  3 active torsions:
REMARK  status: ('A' for Active; 'I' for Inactive)
REMARK    1  A    between atoms: C_4  and  C_5 
REMARK    2  A    between atoms: C_14  and  C_15 
REMARK       I    between atoms: C_15  and  N_16 
REMARK    3  A    between atoms: N_16  and  C_17 
ROOT
HETATM    1  C   UNL     1      -7.942   2.475 -32.499  1.00  0.00     0.222 A 
HETATM    2  N   UNL     1      -8.216   3.326 -31.344  1.00  0.00    -0.090 N 
HETATM    3  C   UNL     1      -7.430   3.396 -30.230  1.00  0.00     0.735 A 
HETATM    4  N   UNL     1      -7.924   4.314 -29.436  1.00  0.00     0.030 NA
HETATM    5  N   UNL     1      -9.010   4.844 -30.106  1.00  0.00     0.033 NA
HETATM    6  N   UNL     1      -9.174   4.267 -31.292  1.00  0.00     0.012 NA
HETATM    7  N   UNL     1      -6.345   2.604 -30.143  1.00  0.00    -0.191 N 
HETATM    8  C   UNL     1      -5.956   1.729 -31.152  1.00  0.00     0.037 A 
HETATM    9  C   UNL     1      -4.691   0.947 -30.880  1.00  0.00     0.070 C 
HETATM   10  C   UNL     1      -6.683   1.639 -32.295  1.00  0.00     0.064 A 
HETATM   11  H   UNL     1      -5.765   2.650 -29.309  1.00  0.00     0.184 HD
ENDROOT
BRANCH  10  12
HETATM   12  C   UNL     1      -6.332   0.627 -33.340  1.00  0.00     0.256 C 
HETATM   13  N   UNL     1      -6.356  -0.680 -32.902  1.00  0.00    -0.323 N 
HETATM   14  H   UNL     1      -6.545  -0.864 -31.927  1.00  0.00     0.169 HD
HETATM   15  O   UNL     1      -6.038   1.009 -34.468  1.00  0.00    -0.267 OA
BRANCH  13  16
HETATM   16  C   UNL     1      -6.101  -1.840 -33.669  1.00  0.00     0.035 A 
HETATM   17  C   UNL     1      -7.093  -2.627 -34.255  1.00  0.00     0.029 A 
HETATM   18  C   UNL     1      -6.754  -3.772 -34.985  1.00  0.00     0.002 A 
HETATM   19  C   UNL     1      -5.419  -4.136 -35.138  1.00  0.00     0.000 A 
HETATM   20  C   UNL     1      -4.420  -3.359 -34.560  1.00  0.00     0.002 A 
HETATM   21  C   UNL     1      -4.760  -2.218 -33.826  1.00  0.00     0.029 A 
ENDBRANCH  13  16
ENDBRANCH  10  12
BRANCH   1  22
HETATM   22  C   UNL     1      -9.164   1.679 -32.836  1.00  0.00     0.083 A 
HETATM   23  O   UNL     1      -9.954   2.193 -33.827  1.00  0.00    -0.317 OA
HETATM   24  C   UNL     1     -10.991   1.329 -34.001  1.00  0.00     0.049 A 
HETATM   25  C   UNL     1     -11.993   1.695 -35.022  1.00  0.00     0.076 C 
HETATM   26  C   UNL     1     -10.870   0.262 -33.137  1.00  0.00     0.035 A 
HETATM   27  C   UNL     1      -9.689   0.483 -32.389  1.00  0.00     0.038 A 
ENDBRANCH   1  22
TORSDOF 3
ENDMDL
MODEL 5
REMARK VINA RESULT:      -7.8      2.483      6.093
REMARK  3 active torsions:
REMARK  status: ('A' for Active; 'I' for Inactive)
REMARK    1  A    between atoms: C_4  and  C_5 
REMARK    2  A    between atoms: C_14  and  C_15 
REMARK       I    between atoms: C_15  and  N_16 
REMARK    3  A    between atoms: N_16  and  C_17 
ROOT
HETATM    1  C   UNL     1      -6.550  -1.071 -32.772  1.00  0.00     0.222 A 
HETATM    2  N   UNL     1      -5.906  -1.916 -33.775  1.00  0.00    -0.090 N 
HETATM    3  C   UNL     1      -4.558  -2.108 -33.876  1.00  0.00     0.735 A 
HETATM    4  N   UNL     1      -4.339  -2.983 -34.827  1.00  0.00     0.030 NA
HETATM    5  N   UNL     1      -5.587  -3.364 -35.281  1.00  0.00     0.033 NA
HETATM    6  N   UNL     1      -6.553  -2.739 -34.617  1.00  0.00     0.012 NA
HETATM    7  N   UNL     1      -3.738  -1.451 -33.035  1.00  0.00    -0.191 N 
HETATM    8  C   UNL     1      -4.194  -0.600 -32.033  1.00  0.00     0.037 A 
HETATM    9  C   UNL     1      -3.119   0.020 -31.171  1.00  0.00     0.070 C 
HETATM   10  C   UNL     1      -5.526  -0.394 -31.867  1.00  0.00     0.064 A 
HETATM   11  H   UNL     1      -2.734  -1.588 -33.117  1.00  0.00     0.184 HD
ENDROOT
BRANCH  10  12
HETATM   12  C   UNL     1      -6.021   0.597 -30.862  1.00  0.00     0.256 C 
HETATM   13  N   UNL     1      -6.043   1.902 -31.308  1.00  0.00    -0.323 N 
HETATM   14  H   UNL     1      -5.684   2.108 -32.230  1.00  0.00     0.169 HD
HETATM   15  O   UNL     1      -6.343   0.207 -29.745  1.00  0.00    -0.267 OA
BRANCH  13  16
HETATM   16  C   UNL     1      -6.488   3.039 -30.594  1.00  0.00     0.035 A 
HETATM   17  C   UNL     1      -5.659   3.855 -29.824  1.00  0.00     0.029 A 
HETATM   18  C   UNL     1      -6.186   4.952 -29.133  1.00  0.00     0.002 A 
HETATM   19  C   UNL     1      -7.545   5.244 -29.212  1.00  0.00     0.000 A 
HETATM   20  C   UNL     1      -8.381   4.439 -29.978  1.00  0.00     0.002 A 
HETATM   21  C   UNL     1      -7.856   3.339 -30.663  1.00  0.00     0.029 A 
ENDBRANCH  13  16
ENDBRANCH  10  12
BRANCH   1  22
HETATM   22  C   UNL     1      -7.498  -0.130 -33.444  1.00  0.00     0.083 A 
HETATM   23  O   UNL     1      -8.792  -0.172 -33.003  1.00  0.00    -0.317 OA
HETATM   24  C   UNL     1      -9.488   0.758 -33.712  1.00  0.00     0.049 A 
HETATM   25  C   UNL     1     -10.928   0.877 -33.411  1.00  0.00     0.076 C 
HETATM   26  C   UNL     1      -8.652   1.404 -34.597  1.00  0.00     0.035 A 
HETATM   27  C   UNL     1      -7.367   0.837 -34.422  1.00  0.00     0.038 A 
ENDBRANCH   1  22
TORSDOF 3
ENDMDL
MODEL 6
REMARK VINA RESULT:      -7.7      2.681      5.445
REMARK  3 active torsions:
REMARK  status: ('A' for Active; 'I' for Inactive)
REMARK    1  A    between atoms: C_4  and  C_5 
REMARK    2  A    between atoms: C_14  and  C_15 
REMARK       I    between atoms: C_15  and  N_16 
REMARK    3  A    between atoms: N_16  and  C_17 
ROOT
HETATM    1  C   UNL     1      -5.142   0.877 -32.864  1.00  0.00     0.222 A 
HETATM    2  N   UNL     1      -4.038   0.168 -32.221  1.00  0.00    -0.090 N 
HETATM    3  C   UNL     1      -3.785  -1.166 -32.367  1.00  0.00     0.735 A 
HETATM    4  N   UNL     1      -2.679  -1.447 -31.722  1.00  0.00     0.030 NA
HETATM    5  N   UNL     1      -2.227  -0.245 -31.212  1.00  0.00     0.033 NA
HETATM    6  N   UNL     1      -3.037   0.755 -31.544  1.00  0.00     0.012 NA
HETATM    7  N   UNL     1      -4.619  -1.913 -33.112  1.00  0.00    -0.191 N 
HETATM    8  C   UNL     1      -5.724  -1.391 -33.779  1.00  0.00     0.037 A 
HETATM    9  C   UNL     1      -6.522  -2.385 -34.590  1.00  0.00     0.070 C 
HETATM   10  C   UNL     1      -6.007  -0.065 -33.694  1.00  0.00     0.064 A 
HETATM   11  H   UNL     1      -4.436  -2.908 -33.213  1.00  0.00     0.184 HD
ENDROOT
BRANCH  10  12
HETATM   12  C   UNL     1      -7.248   0.487 -34.321  1.00  0.00     0.256 C 
HETATM   13  N   UNL     1      -8.273   0.739 -33.434  1.00  0.00    -0.323 N 
HETATM   14  H   UNL     1      -8.150   0.491 -32.462  1.00  0.00     0.169 HD
HETATM   15  O   UNL     1      -7.281   0.656 -35.535  1.00  0.00    -0.267 OA
BRANCH  13  16
HETATM   16  C   UNL     1      -9.543   1.287 -33.732  1.00  0.00     0.035 A 
HETATM   17  C   UNL     1      -9.740   2.557 -34.276  1.00  0.00     0.029 A 
HETATM   18  C   UNL     1     -11.033   3.030 -34.524  1.00  0.00     0.002 A 
HETATM   19  C   UNL     1     -12.139   2.236 -34.234  1.00  0.00     0.000 A 
HETATM   20  C   UNL     1     -11.955   0.967 -33.693  1.00  0.00     0.002 A 
HETATM   21  C   UNL     1     -10.663   0.497 -33.440  1.00  0.00     0.029 A 
ENDBRANCH  13  16
ENDBRANCH  10  12
BRANCH   1  22
HETATM   22  C   UNL     1      -5.894   1.666 -31.839  1.00  0.00     0.083 A 
HETATM   23  O   UNL     1      -6.342   2.892 -32.243  1.00  0.00    -0.317 OA
HETATM   24  C   UNL     1      -7.011   3.441 -31.193  1.00  0.00     0.049 A 
HETATM   25  C   UNL     1      -7.574   4.790 -31.399  1.00  0.00     0.076 C 
HETATM   26  C   UNL     1      -7.005   2.574 -30.121  1.00  0.00     0.035 A 
HETATM   27  C   UNL     1      -6.290   1.427 -30.538  1.00  0.00     0.038 A 
ENDBRANCH   1  22
TORSDOF 3
ENDMDL
MODEL 7
REMARK VINA RESULT:      -7.3     14.799     16.916
REMARK  3 active torsions:
REMARK  status: ('A' for Active; 'I' for Inactive)
REMARK    1  A    between atoms: C_4  and  C_5 
REMARK    2  A    between atoms: C_14  and  C_15 
REMARK       I    between atoms: C_15  and  N_16 
REMARK    3  A    between atoms: N_16  and  C_17 
ROOT
HETATM    1  C   UNL     1      -4.705 -12.782 -39.872  1.00  0.00     0.222 A 
HETATM    2  N   UNL     1      -6.165 -12.797 -39.822  1.00  0.00    -0.090 N 
HETATM    3  C   UNL     1      -6.902 -12.816 -38.673  1.00  0.00     0.735 A 
HETATM    4  N   UNL     1      -8.169 -12.741 -38.996  1.00  0.00     0.030 NA
HETATM    5  N   UNL     1      -8.199 -12.628 -40.373  1.00  0.00     0.033 NA
HETATM    6  N   UNL     1      -6.972 -12.626 -40.884  1.00  0.00     0.012 NA
HETATM    7  N   UNL     1      -6.265 -12.870 -37.489  1.00  0.00    -0.191 N 
HETATM    8  C   UNL     1      -4.879 -12.876 -37.366  1.00  0.00     0.037 A 
HETATM    9  C   UNL     1      -4.354 -12.909 -35.949  1.00  0.00     0.070 C 
HETATM   10  C   UNL     1      -4.096 -12.829 -38.474  1.00  0.00     0.064 A 
HETATM   11  H   UNL     1      -6.814 -12.893 -36.633  1.00  0.00     0.184 HD
ENDROOT
BRANCH  10  12
HETATM   12  C   UNL     1      -2.608 -12.938 -38.358  1.00  0.00     0.256 C 
HETATM   13  N   UNL     1      -2.135 -14.231 -38.281  1.00  0.00    -0.323 N 
HETATM   14  H   UNL     1      -2.798 -14.993 -38.250  1.00  0.00     0.169 HD
HETATM   15  O   UNL     1      -1.934 -11.915 -38.320  1.00  0.00    -0.267 OA
BRANCH  13  16
HETATM   16  C   UNL     1      -0.784 -14.640 -38.196  1.00  0.00     0.035 A 
HETATM   17  C   UNL     1       0.181 -14.364 -39.166  1.00  0.00     0.029 A 
HETATM   18  C   UNL     1       1.494 -14.822 -39.012  1.00  0.00     0.002 A 
HETATM   19  C   UNL     1       1.854 -15.557 -37.885  1.00  0.00     0.000 A 
HETATM   20  C   UNL     1       0.901 -15.837 -36.911  1.00  0.00     0.002 A 
HETATM   21  C   UNL     1      -0.412 -15.383 -37.067  1.00  0.00     0.029 A 
ENDBRANCH  13  16
ENDBRANCH  10  12
BRANCH   1  22
HETATM   22  C   UNL     1      -4.224 -13.859 -40.792  1.00  0.00     0.083 A 
HETATM   23  O   UNL     1      -4.351 -15.138 -40.327  1.00  0.00    -0.317 OA
HETATM   24  C   UNL     1      -3.884 -15.967 -41.301  1.00  0.00     0.049 A 
HETATM   25  C   UNL     1      -3.908 -17.413 -41.007  1.00  0.00     0.076 C 
HETATM   26  C   UNL     1      -3.467 -15.232 -42.390  1.00  0.00     0.035 A 
HETATM   27  C   UNL     1      -3.691 -13.873 -42.065  1.00  0.00     0.038 A 
ENDBRANCH   1  22
TORSDOF 3
ENDMDL
MODEL 8
REMARK VINA RESULT:      -7.3     15.020     16.163
REMARK  3 active torsions:
REMARK  status: ('A' for Active; 'I' for Inactive)
REMARK    1  A    between atoms: C_4  and  C_5 
REMARK    2  A    between atoms: C_14  and  C_15 
REMARK       I    between atoms: C_15  and  N_16 
REMARK    3  A    between atoms: N_16  and  C_17 
ROOT
HETATM    1  C   UNL     1      -6.232 -13.248 -36.511  1.00  0.00     0.222 A 
HETATM    2  N   UNL     1      -6.336 -13.617 -35.101  1.00  0.00    -0.090 N 
HETATM    3  C   UNL     1      -5.294 -14.055 -34.335  1.00  0.00     0.735 A 
HETATM    4  N   UNL     1      -5.725 -14.214 -33.108  1.00  0.00     0.030 NA
HETATM    5  N   UNL     1      -7.049 -13.820 -33.122  1.00  0.00     0.033 NA
HETATM    6  N   UNL     1      -7.421 -13.420 -34.333  1.00  0.00     0.012 NA
HETATM    7  N   UNL     1      -4.084 -14.208 -34.903  1.00  0.00    -0.191 N 
HETATM    8  C   UNL     1      -3.823 -13.913 -36.238  1.00  0.00     0.037 A 
HETATM    9  C   UNL     1      -2.393 -14.122 -36.681  1.00  0.00     0.070 C 
HETATM   10  C   UNL     1      -4.815 -13.446 -37.039  1.00  0.00     0.064 A 
HETATM   11  H   UNL     1      -3.309 -14.542 -34.335  1.00  0.00     0.184 HD
ENDROOT
BRANCH  10  12
HETATM   12  C   UNL     1      -4.570 -13.224 -38.499  1.00  0.00     0.256 C 
HETATM   13  N   UNL     1      -4.603 -14.370 -39.265  1.00  0.00    -0.323 N 
HETATM   14  H   UNL     1      -4.727 -15.261 -38.805  1.00  0.00     0.169 HD
HETATM   15  O   UNL     1      -4.346 -12.088 -38.902  1.00  0.00    -0.267 OA
BRANCH  13  16
HETATM   16  C   UNL     1      -4.438 -14.462 -40.667  1.00  0.00     0.035 A 
HETATM   17  C   UNL     1      -5.454 -14.222 -41.593  1.00  0.00     0.029 A 
HETATM   18  C   UNL     1      -5.210 -14.353 -42.964  1.00  0.00     0.002 A 
HETATM   19  C   UNL     1      -3.948 -14.723 -43.421  1.00  0.00     0.000 A 
HETATM   20  C   UNL     1      -2.927 -14.964 -42.507  1.00  0.00     0.002 A 
HETATM   21  C   UNL     1      -3.172 -14.837 -41.136  1.00  0.00     0.029 A 
ENDBRANCH  13  16
ENDBRANCH  10  12
BRANCH   1  22
HETATM   22  C   UNL     1      -7.289 -13.959 -37.295  1.00  0.00     0.083 A 
HETATM   23  O   UNL     1      -8.150 -13.160 -37.994  1.00  0.00    -0.317 OA
HETATM   24  C   UNL     1      -9.015 -13.980 -38.650  1.00  0.00     0.049 A 
HETATM   25  C   UNL     1     -10.058 -13.326 -39.465  1.00  0.00     0.076 C 
HETATM   26  C   UNL     1      -8.712 -15.299 -38.386  1.00  0.00     0.035 A 
HETATM   27  C   UNL     1      -7.595 -15.287 -37.517  1.00  0.00     0.038 A 
ENDBRANCH   1  22
TORSDOF 3
ENDMDL
MODEL 9
REMARK VINA RESULT:      -7.2     15.350     16.555
REMARK  3 active torsions:
REMARK  status: ('A' for Active; 'I' for Inactive)
REMARK    1  A    between atoms: C_4  and  C_5 
REMARK    2  A    between atoms: C_14  and  C_15 
REMARK       I    between atoms: C_15  and  N_16 
REMARK    3  A    between atoms: N_16  and  C_17 
ROOT
HETATM    1  C   UNL     1      -4.905 -14.392 -40.005  1.00  0.00     0.222 A 
HETATM    2  N   UNL     1      -4.397 -14.611 -41.357  1.00  0.00    -0.090 N 
HETATM    3  C   UNL     1      -3.115 -14.359 -41.753  1.00  0.00     0.735 A 
HETATM    4  N   UNL     1      -2.987 -14.747 -42.998  1.00  0.00     0.030 NA
HETATM    5  N   UNL     1      -4.208 -15.289 -43.350  1.00  0.00     0.033 NA
HETATM    6  N   UNL     1      -5.067 -15.241 -42.337  1.00  0.00     0.012 NA
HETATM    7  N   UNL     1      -2.249 -13.829 -40.870  1.00  0.00    -0.191 N 
HETATM    8  C   UNL     1      -2.582 -13.548 -39.549  1.00  0.00     0.037 A 
HETATM    9  C   UNL     1      -1.463 -12.983 -38.704  1.00  0.00     0.070 C 
HETATM   10  C   UNL     1      -3.834 -13.806 -39.091  1.00  0.00     0.064 A 
HETATM   11  H   UNL     1      -1.297 -13.632 -41.168  1.00  0.00     0.184 HD
ENDROOT
BRANCH  10  12
HETATM   12  C   UNL     1      -4.231 -13.413 -37.703  1.00  0.00     0.256 C 
HETATM   13  N   UNL     1      -4.876 -14.402 -36.991  1.00  0.00    -0.323 N 
HETATM   14  H   UNL     1      -5.084 -15.277 -37.450  1.00  0.00     0.169 HD
HETATM   15  O   UNL     1      -3.986 -12.278 -37.309  1.00  0.00    -0.267 OA
BRANCH  13  16
HETATM   16  C   UNL     1      -5.335 -14.329 -35.655  1.00  0.00     0.035 A 
HETATM   17  C   UNL     1      -4.633 -14.825 -34.556  1.00  0.00     0.029 A 
HETATM   18  C   UNL     1      -5.170 -14.727 -33.267  1.00  0.00     0.002 A 
HETATM   19  C   UNL     1      -6.410 -14.127 -33.067  1.00  0.00     0.000 A 
HETATM   20  C   UNL     1      -7.119 -13.627 -34.155  1.00  0.00     0.002 A 
HETATM   21  C   UNL     1      -6.585 -13.730 -35.443  1.00  0.00     0.029 A 
ENDBRANCH  13  16
ENDBRANCH  10  12
BRANCH   1  22
HETATM   22  C   UNL     1      -6.168 -13.592 -40.069  1.00  0.00     0.083 A 
HETATM   23  O   UNL     1      -7.197 -14.041 -39.289  1.00  0.00    -0.317 OA
HETATM   24  C   UNL     1      -8.238 -13.182 -39.465  1.00  0.00     0.049 A 
HETATM   25  C   UNL     1      -9.479 -13.486 -38.724  1.00  0.00     0.076 C 
HETATM   26  C   UNL     1      -7.884 -12.180 -40.343  1.00  0.00     0.035 A 
HETATM   27  C   UNL     1      -6.547 -12.440 -40.729  1.00  0.00     0.038 A 
ENDBRANCH   1  22
TORSDOF 3
ENDMDL
MODEL 10
REMARK VINA RESULT:      -7.2     15.122     16.761
REMARK  3 active torsions:
REMARK  status: ('A' for Active; 'I' for Inactive)
REMARK    1  A    between atoms: C_4  and  C_5 
REMARK    2  A    between atoms: C_14  and  C_15 
REMARK       I    between atoms: C_15  and  N_16 
REMARK    3  A    between atoms: N_16  and  C_17 
ROOT
HETATM    1  C   UNL     1      -3.615 -12.977 -39.125  1.00  0.00     0.222 A 
HETATM    2  N   UNL     1      -2.301 -13.612 -39.179  1.00  0.00    -0.090 N 
HETATM    3  C   UNL     1      -1.819 -14.308 -40.249  1.00  0.00     0.735 A 
HETATM    4  N   UNL     1      -0.586 -14.666 -39.986  1.00  0.00     0.030 NA
HETATM    5  N   UNL     1      -0.298 -14.132 -38.745  1.00  0.00     0.033 NA
HETATM    6  N   UNL     1      -1.333 -13.455 -38.259  1.00  0.00     0.012 NA
HETATM    7  N   UNL     1      -2.606 -14.477 -41.328  1.00  0.00    -0.191 N 
HETATM    8  C   UNL     1      -3.889 -13.947 -41.428  1.00  0.00     0.037 A 
HETATM    9  C   UNL     1      -4.603 -14.220 -42.732  1.00  0.00     0.070 C 
HETATM   10  C   UNL     1      -4.408 -13.220 -40.405  1.00  0.00     0.064 A 
HETATM   11  H   UNL     1      -2.251 -15.004 -42.122  1.00  0.00     0.184 HD
ENDROOT
BRANCH  10  12
HETATM   12  C   UNL     1      -5.822 -12.734 -40.461  1.00  0.00     0.256 C 
HETATM   13  N   UNL     1      -6.772 -13.724 -40.329  1.00  0.00    -0.323 N 
HETATM   14  H   UNL     1      -6.469 -14.686 -40.263  1.00  0.00     0.169 HD
HETATM   15  O   UNL     1      -6.038 -11.540 -40.633  1.00  0.00    -0.267 OA
BRANCH  13  16
HETATM   16  C   UNL     1      -8.177 -13.560 -40.312  1.00  0.00     0.035 A 
HETATM   17  C   UNL     1      -8.825 -12.399 -39.891  1.00  0.00     0.029 A 
HETATM   18  C   UNL     1     -10.223 -12.326 -39.888  1.00  0.00     0.002 A 
HETATM   19  C   UNL     1     -10.983 -13.414 -40.311  1.00  0.00     0.000 A 
HETATM   20  C   UNL     1     -10.347 -14.577 -40.736  1.00  0.00     0.002 A 
HETATM   21  C   UNL     1      -8.951 -14.650 -40.733  1.00  0.00     0.029 A 
ENDBRANCH  13  16
ENDBRANCH  10  12
BRANCH   1  22
HETATM   22  C   UNL     1      -4.321 -13.392 -37.873  1.00  0.00     0.083 A 
HETATM   23  O   UNL     1      -5.032 -14.557 -37.950  1.00  0.00    -0.317 OA
HETATM   24  C   UNL     1      -5.579 -14.774 -36.722  1.00  0.00     0.049 A 
HETATM   25  C   UNL     1      -6.414 -15.983 -36.574  1.00  0.00     0.076 C 
HETATM   26  C   UNL     1      -5.218 -13.764 -35.856  1.00  0.00     0.035 A 
HETATM   27  C   UNL     1      -4.403 -12.875 -36.595  1.00  0.00     0.038 A 
ENDBRANCH   1  22
TORSDOF 3
ENDMDL
