MODEL 1
REMARK VINA RESULT:      -8.4      0.000      0.000
REMARK  6 active torsions:
REMARK  status: ('A' for Active; 'I' for Inactive)
REMARK    1  A    between atoms: C_3  and  N_4 
REMARK       I    between atoms: N_4  and  C_5 
REMARK       I    between atoms: C_5  and  N_6 
REMARK    2  A    between atoms: N_6  and  C_7 
REMARK    3  A    between atoms: C_7  and  C_8 
REMARK    4  A    between atoms: C_16  and  N_17 
REMARK       I    between atoms: N_17  and  C_18 
REMARK    5  A    between atoms: C_18  and  C_19 
REMARK    6  A    between atoms: C_19  and  C_20 
ROOT
HETATM    1  C   UNL     1      -1.315   5.539 -33.877  1.00  0.00     0.004 A 
HETATM    2  C   UNL     1      -2.357   4.612 -33.870  1.00  0.00     0.029 A 
HETATM    3  C   UNL     1      -2.862   4.130 -32.662  1.00  0.00     0.038 A 
HETATM    4  C   UNL     1      -2.310   4.598 -31.459  1.00  0.00     0.059 A 
HETATM    5  C   UNL     1      -1.267   5.530 -31.454  1.00  0.00     0.036 A 
HETATM    6  C   UNL     1      -0.773   5.996 -32.677  1.00  0.00     0.029 A 
ENDROOT
BRANCH   3   7
HETATM    7  N   UNL     1      -3.920   3.202 -32.566  1.00  0.00    -0.309 N 
HETATM    8  C   UNL     1      -3.864   1.914 -32.081  1.00  0.00     0.320 C 
HETATM    9  N   UNL     1      -5.078   1.276 -32.228  1.00  0.00    -0.339 N 
HETATM   10  O   UNL     1      -2.896   1.368 -31.571  1.00  0.00    -0.247 OA
HETATM   11  H   UNL     1      -5.716   1.624 -32.926  1.00  0.00     0.164 HD
HETATM   12  H   UNL     1      -4.843   3.556 -32.767  1.00  0.00     0.170 HD
BRANCH   9  13
HETATM   13  C   UNL     1      -5.259  -0.095 -31.799  1.00  0.00     0.163 C 
BRANCH  13  14
HETATM   14  C   UNL     1      -5.378  -1.079 -32.937  1.00  0.00    -0.038 A 
HETATM   15  C   UNL     1      -4.303  -1.857 -33.379  1.00  0.00     0.028 A 
HETATM   16  C   UNL     1      -4.512  -2.769 -34.404  1.00  0.00     0.116 A 
HETATM   17  N   UNL     1      -5.705  -2.969 -35.000  1.00  0.00    -0.273 NA
HETATM   18  C   UNL     1      -6.739  -2.235 -34.542  1.00  0.00     0.116 A 
HETATM   19  C   UNL     1      -6.627  -1.295 -33.529  1.00  0.00     0.028 A 
ENDBRANCH  13  14
ENDBRANCH   9  13
ENDBRANCH   3   7
BRANCH   5  20
HETATM   20  N   UNL     1      -0.670   6.043 -30.283  1.00  0.00    -0.327 N 
HETATM   21  C   UNL     1       0.320   5.456 -29.513  1.00  0.00     0.227 C 
HETATM   22  O   UNL     1       0.845   4.360 -29.714  1.00  0.00    -0.273 OA
HETATM   23  H   UNL     1      -1.042   6.925 -29.950  1.00  0.00     0.169 HD
BRANCH  21  24
HETATM   24  C   UNL     1       0.715   6.291 -28.296  1.00  0.00     0.159 C 
BRANCH  24  25
HETATM   25  C   UNL     1      -0.468   6.528 -27.412  1.00  0.00     0.017 A 
HETATM   26  N   UNL     1      -0.812   5.651 -26.406  1.00  0.00    -0.369 N 
HETATM   27  H   UNL     1      -0.323   4.783 -26.202  1.00  0.00     0.165 HD
HETATM   28  C   UNL     1      -1.926   6.110 -25.757  1.00  0.00     0.088 A 
HETATM   29  C   UNL     1      -2.293   7.304 -26.334  1.00  0.00     0.019 A 
HETATM   30  C   UNL     1      -1.373   7.571 -27.376  1.00  0.00     0.027 A 
ENDBRANCH  24  25
ENDBRANCH  21  24
ENDBRANCH   5  20
TORSDOF 6
ENDMDL
MODEL 2
REMARK VINA RESULT:      -8.3      2.278      3.317
REMARK  6 active torsions:
REMARK  status: ('A' for Active; 'I' for Inactive)
REMARK    1  A    between atoms: C_3  and  N_4 
REMARK       I    between atoms: N_4  and  C_5 
REMARK       I    between atoms: C_5  and  N_6 
REMARK    2  A    between atoms: N_6  and  C_7 
REMARK    3  A    between atoms: C_7  and  C_8 
REMARK    4  A    between atoms: C_16  and  N_17 
REMARK       I    between atoms: N_17  and  C_18 
REMARK    5  A    between atoms: C_18  and  C_19 
REMARK    6  A    between atoms: C_19  and  C_20 
ROOT
HETATM    1  C   UNL     1      -6.303   6.107 -32.740  1.00  0.00     0.004 A 
HETATM    2  C   UNL     1      -6.800   4.934 -33.306  1.00  0.00     0.029 A 
HETATM    3  C   UNL     1      -5.928   3.922 -33.707  1.00  0.00     0.038 A 
HETATM    4  C   UNL     1      -4.548   4.101 -33.525  1.00  0.00     0.059 A 
HETATM    5  C   UNL     1      -4.038   5.272 -32.956  1.00  0.00     0.036 A 
HETATM    6  C   UNL     1      -4.930   6.276 -32.565  1.00  0.00     0.029 A 
ENDROOT
BRANCH   3   7
HETATM    7  N   UNL     1      -6.349   2.701 -34.277  1.00  0.00    -0.309 N 
HETATM    8  C   UNL     1      -6.818   1.587 -33.618  1.00  0.00     0.320 C 
HETATM    9  N   UNL     1      -7.049   0.551 -34.499  1.00  0.00    -0.339 N 
HETATM   10  O   UNL     1      -7.027   1.482 -32.418  1.00  0.00    -0.247 OA
HETATM   11  H   UNL     1      -6.565   0.563 -35.383  1.00  0.00     0.164 HD
HETATM   12  H   UNL     1      -6.425   2.682 -35.283  1.00  0.00     0.170 HD
BRANCH   9  13
HETATM   13  C   UNL     1      -7.535  -0.731 -34.035  1.00  0.00     0.163 C 
BRANCH  13  14
HETATM   14  C   UNL     1      -6.521  -1.844 -34.142  1.00  0.00    -0.038 A 
HETATM   15  C   UNL     1      -6.805  -3.070 -34.750  1.00  0.00     0.028 A 
HETATM   16  C   UNL     1      -5.798  -4.022 -34.843  1.00  0.00     0.116 A 
HETATM   17  N   UNL     1      -4.541  -3.833 -34.391  1.00  0.00    -0.273 NA
HETATM   18  C   UNL     1      -4.274  -2.634 -33.835  1.00  0.00     0.116 A 
HETATM   19  C   UNL     1      -5.214  -1.625 -33.691  1.00  0.00     0.028 A 
ENDBRANCH  13  14
ENDBRANCH   9  13
ENDBRANCH   3   7
BRANCH   5  20
HETATM   20  N   UNL     1      -2.664   5.515 -32.742  1.00  0.00    -0.327 N 
HETATM   21  C   UNL     1      -1.787   4.778 -31.964  1.00  0.00     0.227 C 
HETATM   22  O   UNL     1      -2.066   3.777 -31.302  1.00  0.00    -0.273 OA
HETATM   23  H   UNL     1      -2.293   6.349 -33.180  1.00  0.00     0.169 HD
BRANCH  21  24
HETATM   24  C   UNL     1      -0.370   5.346 -31.946  1.00  0.00     0.159 C 
BRANCH  24  25
HETATM   25  C   UNL     1      -0.043   5.903 -30.596  1.00  0.00     0.017 A 
HETATM   26  N   UNL     1      -0.017   5.110 -29.470  1.00  0.00    -0.369 N 
HETATM   27  H   UNL     1      -0.236   4.118 -29.455  1.00  0.00     0.165 HD
HETATM   28  C   UNL     1       0.312   5.871 -28.379  1.00  0.00     0.088 A 
HETATM   29  C   UNL     1       0.520   7.162 -28.809  1.00  0.00     0.019 A 
HETATM   30  C   UNL     1       0.301   7.183 -30.208  1.00  0.00     0.027 A 
ENDBRANCH  24  25
ENDBRANCH  21  24
ENDBRANCH   5  20
TORSDOF 6
ENDMDL
MODEL 3
REMARK VINA RESULT:      -8.3      5.579      9.143
REMARK  6 active torsions:
REMARK  status: ('A' for Active; 'I' for Inactive)
REMARK    1  A    between atoms: C_3  and  N_4 
REMARK       I    between atoms: N_4  and  C_5 
REMARK       I    between atoms: C_5  and  N_6 
REMARK    2  A    between atoms: N_6  and  C_7 
REMARK    3  A    between atoms: C_7  and  C_8 
REMARK    4  A    between atoms: C_16  and  N_17 
REMARK       I    between atoms: N_17  and  C_18 
REMARK    5  A    between atoms: C_18  and  C_19 
REMARK    6  A    between atoms: C_19  and  C_20 
ROOT
HETATM    1  C   UNL     1      -7.446   4.038 -29.859  1.00  0.00     0.004 A 
HETATM    2  C   UNL     1      -6.644   2.946 -30.189  1.00  0.00     0.029 A 
HETATM    3  C   UNL     1      -7.179   1.868 -30.895  1.00  0.00     0.038 A 
HETATM    4  C   UNL     1      -8.531   1.905 -31.272  1.00  0.00     0.059 A 
HETATM    5  C   UNL     1      -9.344   2.996 -30.949  1.00  0.00     0.036 A 
HETATM    6  C   UNL     1      -8.788   4.064 -30.237  1.00  0.00     0.029 A 
ENDROOT
BRANCH   3   7
HETATM    7  N   UNL     1      -6.435   0.732 -31.277  1.00  0.00    -0.309 N 
HETATM    8  C   UNL     1      -5.847   0.487 -32.498  1.00  0.00     0.320 C 
HETATM    9  N   UNL     1      -5.280  -0.770 -32.532  1.00  0.00    -0.339 N 
HETATM   10  O   UNL     1      -5.801   1.250 -33.452  1.00  0.00    -0.247 OA
HETATM   11  H   UNL     1      -5.619  -1.462 -31.882  1.00  0.00     0.164 HD
HETATM   12  H   UNL     1      -6.209   0.079 -30.541  1.00  0.00     0.170 HD
BRANCH   9  13
HETATM   13  C   UNL     1      -4.612  -1.257 -33.720  1.00  0.00     0.163 C 
BRANCH  13  14
HETATM   14  C   UNL     1      -5.029  -2.650 -34.126  1.00  0.00    -0.038 A 
HETATM   15  C   UNL     1      -6.248  -2.922 -34.755  1.00  0.00     0.028 A 
HETATM   16  C   UNL     1      -6.531  -4.226 -35.133  1.00  0.00     0.116 A 
HETATM   17  N   UNL     1      -5.689  -5.264 -34.945  1.00  0.00    -0.273 NA
HETATM   18  C   UNL     1      -4.505  -4.981 -34.365  1.00  0.00     0.116 A 
HETATM   19  C   UNL     1      -4.135  -3.713 -33.947  1.00  0.00     0.028 A 
ENDBRANCH  13  14
ENDBRANCH   9  13
ENDBRANCH   3   7
BRANCH   5  20
HETATM   20  N   UNL     1     -10.707   3.098 -31.300  1.00  0.00    -0.327 N 
HETATM   21  C   UNL     1     -11.241   3.338 -32.554  1.00  0.00     0.227 C 
HETATM   22  O   UNL     1     -10.605   3.522 -33.593  1.00  0.00    -0.273 OA
HETATM   23  H   UNL     1     -11.364   3.025 -30.532  1.00  0.00     0.169 HD
BRANCH  21  24
HETATM   24  C   UNL     1     -12.767   3.404 -32.561  1.00  0.00     0.159 C 
BRANCH  24  25
HETATM   25  C   UNL     1     -13.347   2.139 -33.109  1.00  0.00     0.017 A 
HETATM   26  N   UNL     1     -12.558   1.053 -33.422  1.00  0.00    -0.369 N 
HETATM   27  H   UNL     1     -11.546   1.029 -33.335  1.00  0.00     0.165 HD
HETATM   28  C   UNL     1     -13.342   0.037 -33.899  1.00  0.00     0.088 A 
HETATM   29  C   UNL     1     -14.651   0.462 -33.873  1.00  0.00     0.019 A 
HETATM   30  C   UNL     1     -14.656   1.786 -33.372  1.00  0.00     0.027 A 
ENDBRANCH  24  25
ENDBRANCH  21  24
ENDBRANCH   5  20
TORSDOF 6
ENDMDL
MODEL 4
REMARK VINA RESULT:      -7.9      1.941      3.031
REMARK  6 active torsions:
REMARK  status: ('A' for Active; 'I' for Inactive)
REMARK    1  A    between atoms: C_3  and  N_4 
REMARK       I    between atoms: N_4  and  C_5 
REMARK       I    between atoms: C_5  and  N_6 
REMARK    2  A    between atoms: N_6  and  C_7 
REMARK    3  A    between atoms: C_7  and  C_8 
REMARK    4  A    between atoms: C_16  and  N_17 
REMARK       I    between atoms: N_17  and  C_18 
REMARK    5  A    between atoms: C_18  and  C_19 
REMARK    6  A    between atoms: C_19  and  C_20 
ROOT
HETATM    1  C   UNL     1      -6.576   4.635 -30.309  1.00  0.00     0.004 A 
HETATM    2  C   UNL     1      -6.680   3.408 -30.964  1.00  0.00     0.029 A 
HETATM    3  C   UNL     1      -5.610   2.918 -31.712  1.00  0.00     0.038 A 
HETATM    4  C   UNL     1      -4.429   3.673 -31.788  1.00  0.00     0.059 A 
HETATM    5  C   UNL     1      -4.312   4.903 -31.133  1.00  0.00     0.036 A 
HETATM    6  C   UNL     1      -5.399   5.378 -30.392  1.00  0.00     0.029 A 
ENDROOT
BRANCH   3   7
HETATM    7  N   UNL     1      -5.629   1.683 -32.395  1.00  0.00    -0.309 N 
HETATM    8  C   UNL     1      -4.607   0.766 -32.497  1.00  0.00     0.320 C 
HETATM    9  N   UNL     1      -4.962  -0.283 -33.321  1.00  0.00    -0.339 N 
HETATM   10  O   UNL     1      -3.517   0.822 -31.946  1.00  0.00    -0.247 OA
HETATM   11  H   UNL     1      -5.698  -0.130 -33.993  1.00  0.00     0.164 HD
HETATM   12  H   UNL     1      -6.525   1.384 -32.752  1.00  0.00     0.170 HD
BRANCH   9  13
HETATM   13  C   UNL     1      -4.042  -1.368 -33.589  1.00  0.00     0.163 C 
BRANCH  13  14
HETATM   14  C   UNL     1      -4.713  -2.631 -34.071  1.00  0.00    -0.038 A 
HETATM   15  C   UNL     1      -4.099  -3.885 -34.006  1.00  0.00     0.028 A 
HETATM   16  C   UNL     1      -4.806  -5.001 -34.431  1.00  0.00     0.116 A 
HETATM   17  N   UNL     1      -6.072  -4.957 -34.898  1.00  0.00    -0.273 NA
HETATM   18  C   UNL     1      -6.661  -3.744 -34.927  1.00  0.00     0.116 A 
HETATM   19  C   UNL     1      -6.035  -2.573 -34.530  1.00  0.00     0.028 A 
ENDBRANCH  13  14
ENDBRANCH   9  13
ENDBRANCH   3   7
BRANCH   5  20
HETATM   20  N   UNL     1      -3.154   5.710 -31.165  1.00  0.00    -0.327 N 
HETATM   21  C   UNL     1      -1.835   5.292 -31.207  1.00  0.00     0.227 C 
HETATM   22  O   UNL     1      -1.440   4.126 -31.207  1.00  0.00    -0.273 OA
HETATM   23  H   UNL     1      -3.314   6.708 -31.111  1.00  0.00     0.169 HD
BRANCH  21  24
HETATM   24  C   UNL     1      -0.835   6.446 -31.213  1.00  0.00     0.159 C 
BRANCH  24  25
HETATM   25  C   UNL     1      -0.208   6.607 -29.864  1.00  0.00     0.017 A 
HETATM   26  N   UNL     1      -0.177   5.577 -28.949  1.00  0.00    -0.369 N 
HETATM   27  H   UNL     1      -0.587   4.659 -29.097  1.00  0.00     0.165 HD
HETATM   28  C   UNL     1       0.454   5.994 -27.807  1.00  0.00     0.088 A 
HETATM   29  C   UNL     1       0.853   7.298 -27.995  1.00  0.00     0.019 A 
HETATM   30  C   UNL     1       0.439   7.685 -29.292  1.00  0.00     0.027 A 
ENDBRANCH  24  25
ENDBRANCH  21  24
ENDBRANCH   5  20
TORSDOF 6
ENDMDL
MODEL 5
REMARK VINA RESULT:      -7.8      3.864      5.903
REMARK  6 active torsions:
REMARK  status: ('A' for Active; 'I' for Inactive)
REMARK    1  A    between atoms: C_3  and  N_4 
REMARK       I    between atoms: N_4  and  C_5 
REMARK       I    between atoms: C_5  and  N_6 
REMARK    2  A    between atoms: N_6  and  C_7 
REMARK    3  A    between atoms: C_7  and  C_8 
REMARK    4  A    between atoms: C_16  and  N_17 
REMARK       I    between atoms: N_17  and  C_18 
REMARK    5  A    between atoms: C_18  and  C_19 
REMARK    6  A    between atoms: C_19  and  C_20 
ROOT
HETATM    1  C   UNL     1      -4.072  -0.505 -31.270  1.00  0.00     0.004 A 
HETATM    2  C   UNL     1      -5.465  -0.447 -31.250  1.00  0.00     0.029 A 
HETATM    3  C   UNL     1      -6.127   0.718 -31.637  1.00  0.00     0.038 A 
HETATM    4  C   UNL     1      -5.370   1.824 -32.054  1.00  0.00     0.059 A 
HETATM    5  C   UNL     1      -3.973   1.777 -32.082  1.00  0.00     0.036 A 
HETATM    6  C   UNL     1      -3.329   0.601 -31.684  1.00  0.00     0.029 A 
ENDROOT
BRANCH   3   7
HETATM    7  N   UNL     1      -7.531   0.855 -31.656  1.00  0.00    -0.309 N 
HETATM    8  C   UNL     1      -8.402   0.429 -32.635  1.00  0.00     0.320 C 
HETATM    9  N   UNL     1      -9.695   0.818 -32.352  1.00  0.00    -0.339 N 
HETATM   10  O   UNL     1      -8.118  -0.217 -33.633  1.00  0.00    -0.247 OA
HETATM   11  H   UNL     1      -9.829   1.601 -31.731  1.00  0.00     0.164 HD
HETATM   12  H   UNL     1      -7.957   1.199 -30.809  1.00  0.00     0.170 HD
BRANCH   9  13
HETATM   13  C   UNL     1     -10.786   0.494 -33.246  1.00  0.00     0.163 C 
BRANCH  13  14
HETATM   14  C   UNL     1     -11.163   1.617 -34.182  1.00  0.00    -0.038 A 
HETATM   15  C   UNL     1     -12.330   1.600 -34.951  1.00  0.00     0.028 A 
HETATM   16  C   UNL     1     -12.621   2.695 -35.753  1.00  0.00     0.116 A 
HETATM   17  N   UNL     1     -11.847   3.798 -35.828  1.00  0.00    -0.273 NA
HETATM   18  C   UNL     1     -10.741   3.812 -35.057  1.00  0.00     0.116 A 
HETATM   19  C   UNL     1     -10.364   2.765 -34.231  1.00  0.00     0.028 A 
ENDBRANCH  13  14
ENDBRANCH   9  13
ENDBRANCH   3   7
BRANCH   5  20
HETATM   20  N   UNL     1      -3.153   2.850 -32.492  1.00  0.00    -0.327 N 
HETATM   21  C   UNL     1      -3.096   4.124 -31.952  1.00  0.00     0.227 C 
HETATM   22  O   UNL     1      -3.775   4.549 -31.016  1.00  0.00    -0.273 OA
HETATM   23  H   UNL     1      -2.570   2.673 -33.301  1.00  0.00     0.169 HD
BRANCH  21  24
HETATM   24  C   UNL     1      -2.102   5.040 -32.664  1.00  0.00     0.159 C 
BRANCH  24  25
HETATM   25  C   UNL     1      -1.120   5.609 -31.690  1.00  0.00     0.017 A 
HETATM   26  N   UNL     1      -0.898   5.032 -30.459  1.00  0.00    -0.369 N 
HETATM   27  H   UNL     1      -1.386   4.212 -30.107  1.00  0.00     0.165 HD
HETATM   28  C   UNL     1       0.046   5.751 -29.776  1.00  0.00     0.088 A 
HETATM   29  C   UNL     1       0.454   6.790 -30.583  1.00  0.00     0.019 A 
HETATM   30  C   UNL     1      -0.278   6.700 -31.791  1.00  0.00     0.027 A 
ENDBRANCH  24  25
ENDBRANCH  21  24
ENDBRANCH   5  20
TORSDOF 6
ENDMDL
MODEL 6
REMARK VINA RESULT:      -7.7      4.267     10.105
REMARK  6 active torsions:
REMARK  status: ('A' for Active; 'I' for Inactive)
REMARK    1  A    between atoms: C_3  and  N_4 
REMARK       I    between atoms: N_4  and  C_5 
REMARK       I    between atoms: C_5  and  N_6 
REMARK    2  A    between atoms: N_6  and  C_7 
REMARK    3  A    between atoms: C_7  and  C_8 
REMARK    4  A    between atoms: C_16  and  N_17 
REMARK       I    between atoms: N_17  and  C_18 
REMARK    5  A    between atoms: C_18  and  C_19 
REMARK    6  A    between atoms: C_19  and  C_20 
ROOT
HETATM    1  C   UNL     1      -6.069  -0.923 -32.735  1.00  0.00     0.004 A 
HETATM    2  C   UNL     1      -5.291   0.074 -32.148  1.00  0.00     0.029 A 
HETATM    3  C   UNL     1      -5.680   1.411 -32.234  1.00  0.00     0.038 A 
HETATM    4  C   UNL     1      -6.867   1.733 -32.912  1.00  0.00     0.059 A 
HETATM    5  C   UNL     1      -7.657   0.740 -33.501  1.00  0.00     0.036 A 
HETATM    6  C   UNL     1      -7.245  -0.593 -33.408  1.00  0.00     0.029 A 
ENDROOT
BRANCH   3   7
HETATM    7  N   UNL     1      -4.958   2.479 -31.660  1.00  0.00    -0.309 N 
HETATM    8  C   UNL     1      -3.647   2.828 -31.900  1.00  0.00     0.320 C 
HETATM    9  N   UNL     1      -3.257   3.873 -31.088  1.00  0.00    -0.339 N 
HETATM   10  O   UNL     1      -2.893   2.319 -32.716  1.00  0.00    -0.247 OA
HETATM   11  H   UNL     1      -3.771   4.030 -30.235  1.00  0.00     0.164 HD
HETATM   12  H   UNL     1      -5.490   3.128 -31.100  1.00  0.00     0.170 HD
BRANCH   9  13
HETATM   13  C   UNL     1      -1.913   4.408 -31.151  1.00  0.00     0.163 C 
BRANCH  13  14
HETATM   14  C   UNL     1      -1.783   5.626 -32.033  1.00  0.00    -0.038 A 
HETATM   15  C   UNL     1      -1.563   5.542 -33.411  1.00  0.00     0.028 A 
HETATM   16  C   UNL     1      -1.499   6.713 -34.153  1.00  0.00     0.116 A 
HETATM   17  N   UNL     1      -1.653   7.946 -33.627  1.00  0.00    -0.273 NA
HETATM   18  C   UNL     1      -1.895   8.010 -32.302  1.00  0.00     0.116 A 
HETATM   19  C   UNL     1      -1.969   6.898 -31.478  1.00  0.00     0.028 A 
ENDBRANCH  13  14
ENDBRANCH   9  13
ENDBRANCH   3   7
BRANCH   5  20
HETATM   20  N   UNL     1      -8.860   0.994 -34.193  1.00  0.00    -0.327 N 
HETATM   21  C   UNL     1     -10.103   1.274 -33.651  1.00  0.00     0.227 C 
HETATM   22  O   UNL     1     -10.377   1.334 -32.452  1.00  0.00    -0.273 OA
HETATM   23  H   UNL     1      -8.810   0.921 -35.202  1.00  0.00     0.169 HD
BRANCH  21  24
HETATM   24  C   UNL     1     -11.191   1.475 -34.704  1.00  0.00     0.159 C 
BRANCH  24  25
HETATM   25  C   UNL     1     -12.547   1.434 -34.074  1.00  0.00     0.017 A 
HETATM   26  N   UNL     1     -12.919   2.324 -33.090  1.00  0.00    -0.369 N 
HETATM   27  H   UNL     1     -12.315   3.044 -32.702  1.00  0.00     0.165 HD
HETATM   28  C   UNL     1     -14.205   2.065 -32.696  1.00  0.00     0.088 A 
HETATM   29  C   UNL     1     -14.675   1.011 -33.448  1.00  0.00     0.019 A 
HETATM   30  C   UNL     1     -13.632   0.615 -34.320  1.00  0.00     0.027 A 
ENDBRANCH  24  25
ENDBRANCH  21  24
ENDBRANCH   5  20
TORSDOF 6
ENDMDL
MODEL 7
REMARK VINA RESULT:      -7.7      1.980      9.862
REMARK  6 active torsions:
REMARK  status: ('A' for Active; 'I' for Inactive)
REMARK    1  A    between atoms: C_3  and  N_4 
REMARK       I    between atoms: N_4  and  C_5 
REMARK       I    between atoms: C_5  and  N_6 
REMARK    2  A    between atoms: N_6  and  C_7 
REMARK    3  A    between atoms: C_7  and  C_8 
REMARK    4  A    between atoms: C_16  and  N_17 
REMARK       I    between atoms: N_17  and  C_18 
REMARK    5  A    between atoms: C_18  and  C_19 
REMARK    6  A    between atoms: C_19  and  C_20 
ROOT
HETATM    1  C   UNL     1      -5.989   0.644 -29.924  1.00  0.00     0.004 A 
HETATM    2  C   UNL     1      -5.506   1.951 -29.948  1.00  0.00     0.029 A 
HETATM    3  C   UNL     1      -5.042   2.508 -31.140  1.00  0.00     0.038 A 
HETATM    4  C   UNL     1      -5.078   1.735 -32.311  1.00  0.00     0.059 A 
HETATM    5  C   UNL     1      -5.564   0.424 -32.300  1.00  0.00     0.036 A 
HETATM    6  C   UNL     1      -6.019  -0.116 -31.093  1.00  0.00     0.029 A 
ENDROOT
BRANCH   3   7
HETATM    7  N   UNL     1      -4.548   3.825 -31.253  1.00  0.00    -0.309 N 
HETATM    8  C   UNL     1      -3.233   4.220 -31.360  1.00  0.00     0.320 C 
HETATM    9  N   UNL     1      -3.127   5.596 -31.360  1.00  0.00    -0.339 N 
HETATM   10  O   UNL     1      -2.257   3.490 -31.455  1.00  0.00    -0.247 OA
HETATM   11  H   UNL     1      -3.881   6.129 -30.956  1.00  0.00     0.164 HD
HETATM   12  H   UNL     1      -5.237   4.550 -31.386  1.00  0.00     0.170 HD
BRANCH   9  13
HETATM   13  C   UNL     1      -1.838   6.247 -31.452  1.00  0.00     0.163 C 
BRANCH  13  14
HETATM   14  C   UNL     1      -1.128   6.384 -30.127  1.00  0.00    -0.038 A 
HETATM   15  C   UNL     1      -1.606   7.195 -29.094  1.00  0.00     0.028 A 
HETATM   16  C   UNL     1      -0.913   7.229 -27.892  1.00  0.00     0.116 A 
HETATM   17  N   UNL     1       0.201   6.508 -27.646  1.00  0.00    -0.273 NA
HETATM   18  C   UNL     1       0.633   5.707 -28.641  1.00  0.00     0.116 A 
HETATM   19  C   UNL     1       0.013   5.611 -29.877  1.00  0.00     0.028 A 
ENDBRANCH  13  14
ENDBRANCH   9  13
ENDBRANCH   3   7
BRANCH   5  20
HETATM   20  N   UNL     1      -5.631  -0.405 -33.440  1.00  0.00    -0.327 N 
HETATM   21  C   UNL     1      -6.756  -0.997 -33.989  1.00  0.00     0.227 C 
HETATM   22  O   UNL     1      -7.907  -0.912 -33.558  1.00  0.00    -0.273 OA
HETATM   23  H   UNL     1      -4.744  -0.620 -33.879  1.00  0.00     0.169 HD
BRANCH  21  24
HETATM   24  C   UNL     1      -6.452  -1.851 -35.218  1.00  0.00     0.159 C 
BRANCH  24  25
HETATM   25  C   UNL     1      -5.678  -3.072 -34.834  1.00  0.00     0.017 A 
HETATM   26  N   UNL     1      -4.363  -3.001 -34.428  1.00  0.00    -0.369 N 
HETATM   27  H   UNL     1      -3.817  -2.145 -34.381  1.00  0.00     0.165 HD
HETATM   28  C   UNL     1      -3.903  -4.257 -34.135  1.00  0.00     0.088 A 
HETATM   29  C   UNL     1      -4.936  -5.145 -34.334  1.00  0.00     0.019 A 
HETATM   30  C   UNL     1      -6.057  -4.398 -34.771  1.00  0.00     0.027 A 
ENDBRANCH  24  25
ENDBRANCH  21  24
ENDBRANCH   5  20
TORSDOF 6
ENDMDL
MODEL 8
REMARK VINA RESULT:      -7.5      6.079      9.216
REMARK  6 active torsions:
REMARK  status: ('A' for Active; 'I' for Inactive)
REMARK    1  A    between atoms: C_3  and  N_4 
REMARK       I    between atoms: N_4  and  C_5 
REMARK       I    between atoms: C_5  and  N_6 
REMARK    2  A    between atoms: N_6  and  C_7 
REMARK    3  A    between atoms: C_7  and  C_8 
REMARK    4  A    between atoms: C_16  and  N_17 
REMARK       I    between atoms: N_17  and  C_18 
REMARK    5  A    between atoms: C_18  and  C_19 
REMARK    6  A    between atoms: C_19  and  C_20 
ROOT
HETATM    1  C   UNL     1      -8.164   3.056 -30.267  1.00  0.00     0.004 A 
HETATM    2  C   UNL     1      -7.160   2.391 -30.970  1.00  0.00     0.029 A 
HETATM    3  C   UNL     1      -7.434   1.812 -32.209  1.00  0.00     0.038 A 
HETATM    4  C   UNL     1      -8.731   1.917 -32.738  1.00  0.00     0.059 A 
HETATM    5  C   UNL     1      -9.745   2.584 -32.043  1.00  0.00     0.036 A 
HETATM    6  C   UNL     1      -9.449   3.153 -30.800  1.00  0.00     0.029 A 
ENDROOT
BRANCH   3   7
HETATM    7  N   UNL     1      -6.475   1.132 -32.989  1.00  0.00    -0.309 N 
HETATM    8  C   UNL     1      -5.789  -0.016 -32.661  1.00  0.00     0.320 C 
HETATM    9  N   UNL     1      -4.865  -0.337 -33.634  1.00  0.00    -0.339 N 
HETATM   10  O   UNL     1      -5.945  -0.699 -31.659  1.00  0.00    -0.247 OA
HETATM   11  H   UNL     1      -4.544   0.398 -34.244  1.00  0.00     0.164 HD
HETATM   12  H   UNL     1      -6.362   1.455 -33.939  1.00  0.00     0.170 HD
BRANCH   9  13
HETATM   13  C   UNL     1      -4.015  -1.501 -33.503  1.00  0.00     0.163 C 
BRANCH  13  14
HETATM   14  C   UNL     1      -4.647  -2.778 -34.000  1.00  0.00    -0.038 A 
HETATM   15  C   UNL     1      -5.825  -2.795 -34.753  1.00  0.00     0.028 A 
HETATM   16  C   UNL     1      -6.314  -4.013 -35.207  1.00  0.00     0.116 A 
HETATM   17  N   UNL     1      -5.710  -5.198 -34.977  1.00  0.00    -0.273 NA
HETATM   18  C   UNL     1      -4.559  -5.162 -34.276  1.00  0.00     0.116 A 
HETATM   19  C   UNL     1      -3.997  -3.997 -33.776  1.00  0.00     0.028 A 
ENDBRANCH  13  14
ENDBRANCH   9  13
ENDBRANCH   3   7
BRANCH   5  20
HETATM   20  N   UNL     1     -11.066   2.729 -32.517  1.00  0.00    -0.327 N 
HETATM   21  C   UNL     1     -11.814   1.806 -33.228  1.00  0.00     0.227 C 
HETATM   22  O   UNL     1     -11.441   0.688 -33.588  1.00  0.00    -0.273 OA
HETATM   23  H   UNL     1     -11.497   3.630 -32.349  1.00  0.00     0.169 HD
BRANCH  21  24
HETATM   24  C   UNL     1     -13.207   2.310 -33.597  1.00  0.00     0.159 C 
BRANCH  24  25
HETATM   25  C   UNL     1     -13.119   3.612 -34.329  1.00  0.00     0.017 A 
HETATM   26  N   UNL     1     -13.645   4.775 -33.810  1.00  0.00    -0.369 N 
HETATM   27  H   UNL     1     -14.145   4.841 -32.928  1.00  0.00     0.165 HD
HETATM   28  C   UNL     1     -13.424   5.809 -34.681  1.00  0.00     0.088 A 
HETATM   29  C   UNL     1     -12.730   5.313 -35.762  1.00  0.00     0.019 A 
HETATM   30  C   UNL     1     -12.534   3.928 -35.540  1.00  0.00     0.027 A 
ENDBRANCH  24  25
ENDBRANCH  21  24
ENDBRANCH   5  20
TORSDOF 6
ENDMDL
MODEL 9
REMARK VINA RESULT:      -7.5      1.580      2.054
REMARK  6 active torsions:
REMARK  status: ('A' for Active; 'I' for Inactive)
REMARK    1  A    between atoms: C_3  and  N_4 
REMARK       I    between atoms: N_4  and  C_5 
REMARK       I    between atoms: C_5  and  N_6 
REMARK    2  A    between atoms: N_6  and  C_7 
REMARK    3  A    between atoms: C_7  and  C_8 
REMARK    4  A    between atoms: C_16  and  N_17 
REMARK       I    between atoms: N_17  and  C_18 
REMARK    5  A    between atoms: C_18  and  C_19 
REMARK    6  A    between atoms: C_19  and  C_20 
ROOT
HETATM    1  C   UNL     1      -1.492   6.073 -34.001  1.00  0.00     0.004 A 
HETATM    2  C   UNL     1      -2.142   4.841 -33.945  1.00  0.00     0.029 A 
HETATM    3  C   UNL     1      -2.297   4.181 -32.726  1.00  0.00     0.038 A 
HETATM    4  C   UNL     1      -1.795   4.781 -31.559  1.00  0.00     0.059 A 
HETATM    5  C   UNL     1      -1.144   6.018 -31.602  1.00  0.00     0.036 A 
HETATM    6  C   UNL     1      -0.996   6.659 -32.837  1.00  0.00     0.029 A 
ENDROOT
BRANCH   3   7
HETATM    7  N   UNL     1      -2.950   2.939 -32.581  1.00  0.00    -0.309 N 
HETATM    8  C   UNL     1      -3.979   2.629 -31.720  1.00  0.00     0.320 C 
HETATM    9  N   UNL     1      -4.303   1.290 -31.796  1.00  0.00    -0.339 N 
HETATM   10  O   UNL     1      -4.566   3.402 -30.976  1.00  0.00    -0.247 OA
HETATM   11  H   UNL     1      -3.606   0.653 -32.149  1.00  0.00     0.164 HD
HETATM   12  H   UNL     1      -2.718   2.231 -33.262  1.00  0.00     0.170 HD
BRANCH   9  13
HETATM   13  C   UNL     1      -5.351   0.726 -30.972  1.00  0.00     0.163 C 
BRANCH  13  14
HETATM   14  C   UNL     1      -6.615   0.402 -31.731  1.00  0.00    -0.038 A 
HETATM   15  C   UNL     1      -7.857   0.953 -31.401  1.00  0.00     0.028 A 
HETATM   16  C   UNL     1      -8.960   0.634 -32.181  1.00  0.00     0.116 A 
HETATM   17  N   UNL     1      -8.910  -0.175 -33.260  1.00  0.00    -0.273 NA
HETATM   18  C   UNL     1      -7.700  -0.674 -33.583  1.00  0.00     0.116 A 
HETATM   19  C   UNL     1      -6.543  -0.418 -32.863  1.00  0.00     0.028 A 
ENDBRANCH  13  14
ENDBRANCH   9  13
ENDBRANCH   3   7
BRANCH   5  20
HETATM   20  N   UNL     1      -0.620   6.676 -30.469  1.00  0.00    -0.327 N 
HETATM   21  C   UNL     1       0.287   6.180 -29.549  1.00  0.00     0.227 C 
HETATM   22  O   UNL     1       0.788   5.054 -29.554  1.00  0.00    -0.273 OA
HETATM   23  H   UNL     1      -0.985   7.604 -30.293  1.00  0.00     0.169 HD
BRANCH  21  24
HETATM   24  C   UNL     1       0.618   7.167 -28.432  1.00  0.00     0.159 C 
BRANCH  24  25
HETATM   25  C   UNL     1      -0.399   7.086 -27.338  1.00  0.00     0.017 A 
HETATM   26  N   UNL     1      -0.774   5.883 -26.782  1.00  0.00    -0.369 N 
HETATM   27  H   UNL     1      -0.422   4.975 -27.074  1.00  0.00     0.165 HD
HETATM   28  C   UNL     1      -1.712   6.098 -25.808  1.00  0.00     0.088 A 
HETATM   29  C   UNL     1      -1.929   7.455 -25.720  1.00  0.00     0.019 A 
HETATM   30  C   UNL     1      -1.100   8.080 -26.683  1.00  0.00     0.027 A 
ENDBRANCH  24  25
ENDBRANCH  21  24
ENDBRANCH   5  20
TORSDOF 6
ENDMDL
MODEL 10
REMARK VINA RESULT:      -7.3     18.062     19.433
REMARK  6 active torsions:
REMARK  status: ('A' for Active; 'I' for Inactive)
REMARK    1  A    between atoms: C_3  and  N_4 
REMARK       I    between atoms: N_4  and  C_5 
REMARK       I    between atoms: C_5  and  N_6 
REMARK    2  A    between atoms: N_6  and  C_7 
REMARK    3  A    between atoms: C_7  and  C_8 
REMARK    4  A    between atoms: C_16  and  N_17 
REMARK       I    between atoms: N_17  and  C_18 
REMARK    5  A    between atoms: C_18  and  C_19 
REMARK    6  A    between atoms: C_19  and  C_20 
ROOT
HETATM    1  C   UNL     1      -7.819 -12.440 -40.452  1.00  0.00     0.004 A 
HETATM    2  C   UNL     1      -6.520 -12.563 -40.944  1.00  0.00     0.029 A 
HETATM    3  C   UNL     1      -5.451 -12.747 -40.068  1.00  0.00     0.038 A 
HETATM    4  C   UNL     1      -5.704 -12.814 -38.689  1.00  0.00     0.059 A 
HETATM    5  C   UNL     1      -7.003 -12.695 -38.184  1.00  0.00     0.036 A 
HETATM    6  C   UNL     1      -8.060 -12.506 -39.080  1.00  0.00     0.029 A 
ENDROOT
BRANCH   3   7
HETATM    7  N   UNL     1      -4.110 -12.891 -40.483  1.00  0.00    -0.309 N 
HETATM    8  C   UNL     1      -3.367 -14.050 -40.530  1.00  0.00     0.320 C 
HETATM    9  N   UNL     1      -2.065 -13.789 -40.903  1.00  0.00    -0.339 N 
HETATM   10  O   UNL     1      -3.763 -15.181 -40.289  1.00  0.00    -0.247 OA
HETATM   11  H   UNL     1      -1.709 -12.856 -40.766  1.00  0.00     0.164 HD
HETATM   12  H   UNL     1      -3.683 -12.078 -40.902  1.00  0.00     0.170 HD
BRANCH   9  13
HETATM   13  C   UNL     1      -1.090 -14.854 -41.010  1.00  0.00     0.163 C 
BRANCH  13  14
HETATM   14  C   UNL     1      -0.232 -15.021 -39.780  1.00  0.00    -0.038 A 
HETATM   15  C   UNL     1      -0.767 -15.098 -38.490  1.00  0.00     0.028 A 
HETATM   16  C   UNL     1       0.092 -15.297 -37.418  1.00  0.00     0.116 A 
HETATM   17  N   UNL     1       1.429 -15.436 -37.542  1.00  0.00    -0.273 NA
HETATM   18  C   UNL     1       1.926 -15.390 -38.794  1.00  0.00     0.116 A 
HETATM   19  C   UNL     1       1.150 -15.190 -39.925  1.00  0.00     0.028 A 
ENDBRANCH  13  14
ENDBRANCH   9  13
ENDBRANCH   3   7
BRANCH   5  20
HETATM   20  N   UNL     1      -7.328 -12.756 -36.812  1.00  0.00    -0.327 N 
HETATM   21  C   UNL     1      -6.729 -13.536 -35.837  1.00  0.00     0.227 C 
HETATM   22  O   UNL     1      -5.807 -14.335 -36.007  1.00  0.00    -0.273 OA
HETATM   23  H   UNL     1      -8.117 -12.191 -36.522  1.00  0.00     0.169 HD
BRANCH  21  24
HETATM   24  C   UNL     1      -7.354 -13.361 -34.454  1.00  0.00     0.159 C 
BRANCH  24  25
HETATM   25  C   UNL     1      -6.647 -14.209 -33.445  1.00  0.00     0.017 A 
HETATM   26  N   UNL     1      -5.408 -13.866 -32.948  1.00  0.00    -0.369 N 
HETATM   27  H   UNL     1      -4.875 -13.050 -33.235  1.00  0.00     0.165 HD
HETATM   28  C   UNL     1      -4.997 -14.810 -32.045  1.00  0.00     0.088 A 
HETATM   29  C   UNL     1      -5.989 -15.759 -31.941  1.00  0.00     0.019 A 
HETATM   30  C   UNL     1      -7.032 -15.380 -32.821  1.00  0.00     0.027 A 
ENDBRANCH  24  25
ENDBRANCH  21  24
ENDBRANCH   5  20
TORSDOF 6
ENDMDL
