MODEL 1
REMARK VINA RESULT:      -8.8      0.000      0.000
REMARK  6 active torsions:
REMARK  status: ('A' for Active; 'I' for Inactive)
REMARK    1  A    between atoms: C_2  and  C_3 
REMARK       I    between atoms: C_3  and  N_4 
REMARK    2  A    between atoms: N_4  and  C_5 
REMARK    3  A    between atoms: C_5  and  C_6 
REMARK    4  A    between atoms: N_8  and  C_10 
REMARK    5  A    between atoms: C_10  and  C_11 
REMARK    6  A    between atoms: C_12  and  C_13 
ROOT
HETATM    1  C   UNL     1      -4.655   2.390 -30.778  1.00  0.00     0.029 C 
HETATM    2  C   UNL     1      -5.629   1.449 -31.498  1.00  0.00     0.241 C 
HETATM    3  N   UNL     1      -6.937   1.351 -30.735  1.00  0.00    -0.067 N 
HETATM    4  H   UNL     1      -6.727   0.995 -29.796  1.00  0.00     0.280 HD
HETATM    5  C   UNL     1      -7.593   2.695 -30.557  1.00  0.00     0.235 C 
HETATM    6  C   UNL     1      -6.647   3.612 -29.799  1.00  0.00     0.028 C 
HETATM    7  C   UNL     1      -5.310   3.754 -30.515  1.00  0.00     0.009 C 
ENDROOT
BRANCH   3   8
HETATM    8  C   UNL     1      -7.851   0.320 -31.382  1.00  0.00     0.277 C 
BRANCH   8   9
HETATM    9  C   UNL     1      -8.144   0.602 -32.813  1.00  0.00     0.016 A 
HETATM   10  C   UNL     1      -7.588  -0.010 -33.986  1.00  0.00     0.096 A 
HETATM   11  N   UNL     1      -8.096   0.550 -35.092  1.00  0.00    -0.174 NA
HETATM   12  N   UNL     1      -8.906   1.519 -34.663  1.00  0.00    -0.288 N 
HETATM   13  H   UNL     1      -9.374   2.097 -35.358  1.00  0.00     0.188 HD
HETATM   14  C   UNL     1      -8.976   1.592 -33.305  1.00  0.00     0.120 A 
BRANCH  10  15
HETATM   15  C   UNL     1      -6.585  -1.073 -34.111  1.00  0.00    -0.003 A 
HETATM   16  C   UNL     1      -6.895  -2.323 -34.656  1.00  0.00     0.037 A 
HETATM   17  C   UNL     1      -5.916  -3.314 -34.745  1.00  0.00     0.035 A 
HETATM   18 CL   UNL     1      -6.342  -4.853 -35.390  1.00  0.00    -0.084 Cl
HETATM   19  C   UNL     1      -4.613  -3.072 -34.319  1.00  0.00     0.024 A 
HETATM   20  C   UNL     1      -4.285  -1.822 -33.798  1.00  0.00     0.003 A 
HETATM   21  C   UNL     1      -5.265  -0.831 -33.694  1.00  0.00     0.014 A 
ENDBRANCH  10  15
ENDBRANCH   8   9
ENDBRANCH   3   8
BRANCH   1  22
HETATM   22  C   UNL     1      -3.361   2.605 -31.584  1.00  0.00     0.128 C 
BRANCH  22  23
HETATM   23  N   UNL     1      -3.420   3.716 -32.511  1.00  0.00    -0.360 N 
HETATM   24  C   UNL     1      -2.324   4.526 -32.740  1.00  0.00     0.221 C 
HETATM   25  O   UNL     1      -1.348   4.504 -31.995  1.00  0.00    -0.273 OA
HETATM   26  H   UNL     1      -4.168   3.724 -33.197  1.00  0.00     0.162 HD
BRANCH  24  27
HETATM   27  C   UNL     1      -2.467   5.467 -33.933  1.00  0.00     0.070 C 
HETATM   28  C   UNL     1      -3.776   5.210 -34.678  1.00  0.00     0.019 C 
HETATM   29  C   UNL     1      -1.283   5.314 -34.887  1.00  0.00     0.019 C 
ENDBRANCH  24  27
ENDBRANCH  22  23
ENDBRANCH   1  22
TORSDOF 6
ENDMDL
MODEL 2
REMARK VINA RESULT:      -8.7      2.328      3.323
REMARK  6 active torsions:
REMARK  status: ('A' for Active; 'I' for Inactive)
REMARK    1  A    between atoms: C_2  and  C_3 
REMARK       I    between atoms: C_3  and  N_4 
REMARK    2  A    between atoms: N_4  and  C_5 
REMARK    3  A    between atoms: C_5  and  C_6 
REMARK    4  A    between atoms: N_8  and  C_10 
REMARK    5  A    between atoms: C_10  and  C_11 
REMARK    6  A    between atoms: C_12  and  C_13 
ROOT
HETATM    1  C   UNL     1      -3.027   3.985 -33.129  1.00  0.00     0.029 C 
HETATM    2  C   UNL     1      -4.527   4.197 -33.367  1.00  0.00     0.241 C 
HETATM    3  N   UNL     1      -5.322   3.012 -32.851  1.00  0.00    -0.067 N 
HETATM    4  H   UNL     1      -4.997   2.175 -33.348  1.00  0.00     0.280 HD
HETATM    5  C   UNL     1      -5.088   2.767 -31.384  1.00  0.00     0.235 C 
HETATM    6  C   UNL     1      -3.607   2.507 -31.154  1.00  0.00     0.028 C 
HETATM    7  C   UNL     1      -2.751   3.664 -31.652  1.00  0.00     0.009 C 
ENDROOT
BRANCH   3   8
HETATM    8  C   UNL     1      -6.794   3.168 -33.204  1.00  0.00     0.277 C 
BRANCH   8   9
HETATM    9  C   UNL     1      -7.694   2.312 -32.385  1.00  0.00     0.016 A 
HETATM   10  C   UNL     1      -7.754   0.880 -32.307  1.00  0.00     0.096 A 
HETATM   11  N   UNL     1      -8.729   0.497 -31.471  1.00  0.00    -0.174 NA
HETATM   12  N   UNL     1      -9.314   1.623 -31.064  1.00  0.00    -0.288 N 
HETATM   13  H   UNL     1     -10.114   1.551 -30.439  1.00  0.00     0.188 HD
HETATM   14  C   UNL     1      -8.732   2.742 -31.577  1.00  0.00     0.120 A 
BRANCH  10  15
HETATM   15  C   UNL     1      -6.957  -0.138 -33.001  1.00  0.00    -0.003 A 
HETATM   16  C   UNL     1      -5.779  -0.655 -32.454  1.00  0.00     0.037 A 
HETATM   17  C   UNL     1      -5.040  -1.613 -33.152  1.00  0.00     0.035 A 
HETATM   18 CL   UNL     1      -3.576  -2.203 -32.463  1.00  0.00    -0.084 Cl
HETATM   19  C   UNL     1      -5.472  -2.087 -34.387  1.00  0.00     0.024 A 
HETATM   20  C   UNL     1      -6.658  -1.598 -34.931  1.00  0.00     0.003 A 
HETATM   21  C   UNL     1      -7.394  -0.630 -34.242  1.00  0.00     0.014 A 
ENDBRANCH  10  15
ENDBRANCH   8   9
ENDBRANCH   3   8
BRANCH   1  22
HETATM   22  C   UNL     1      -2.200   5.218 -33.534  1.00  0.00     0.128 C 
BRANCH  22  23
HETATM   23  N   UNL     1      -0.987   5.396 -32.762  1.00  0.00    -0.360 N 
HETATM   24  C   UNL     1      -0.699   6.592 -32.133  1.00  0.00     0.221 C 
HETATM   25  O   UNL     1      -1.315   7.620 -32.404  1.00  0.00    -0.273 OA
HETATM   26  H   UNL     1      -0.496   4.564 -32.449  1.00  0.00     0.162 HD
BRANCH  24  27
HETATM   27  C   UNL     1       0.464   6.528 -31.146  1.00  0.00     0.070 C 
HETATM   28  C   UNL     1       0.830   5.079 -30.827  1.00  0.00     0.019 C 
HETATM   29  C   UNL     1       0.123   7.277 -29.859  1.00  0.00     0.019 C 
ENDBRANCH  24  27
ENDBRANCH  22  23
ENDBRANCH   1  22
TORSDOF 6
ENDMDL
MODEL 3
REMARK VINA RESULT:      -8.5      4.066      7.953
REMARK  6 active torsions:
REMARK  status: ('A' for Active; 'I' for Inactive)
REMARK    1  A    between atoms: C_2  and  C_3 
REMARK       I    between atoms: C_3  and  N_4 
REMARK    2  A    between atoms: N_4  and  C_5 
REMARK    3  A    between atoms: C_5  and  C_6 
REMARK    4  A    between atoms: N_8  and  C_10 
REMARK    5  A    between atoms: C_10  and  C_11 
REMARK    6  A    between atoms: C_12  and  C_13 
ROOT
HETATM    1  C   UNL     1      -5.887   0.989 -31.844  1.00  0.00     0.029 C 
HETATM    2  C   UNL     1      -5.884   2.456 -32.288  1.00  0.00     0.241 C 
HETATM    3  N   UNL     1      -4.732   3.206 -31.645  1.00  0.00    -0.067 N 
HETATM    4  H   UNL     1      -4.845   3.142 -30.628  1.00  0.00     0.280 HD
HETATM    5  C   UNL     1      -3.399   2.590 -31.977  1.00  0.00     0.235 C 
HETATM    6  C   UNL     1      -3.383   1.150 -31.491  1.00  0.00     0.028 C 
HETATM    7  C   UNL     1      -4.518   0.339 -32.102  1.00  0.00     0.009 C 
ENDROOT
BRANCH   3   8
HETATM    8  C   UNL     1      -4.809   4.687 -31.986  1.00  0.00     0.277 C 
BRANCH   8   9
HETATM    9  C   UNL     1      -4.039   5.056 -33.204  1.00  0.00     0.016 A 
HETATM   10  C   UNL     1      -2.731   5.640 -33.303  1.00  0.00     0.096 A 
HETATM   11  N   UNL     1      -2.407   5.846 -34.587  1.00  0.00    -0.174 NA
HETATM   12  N   UNL     1      -3.473   5.465 -35.292  1.00  0.00    -0.288 N 
HETATM   13  H   UNL     1      -3.445   5.574 -36.303  1.00  0.00     0.188 HD
HETATM   14  C   UNL     1      -4.480   4.979 -34.514  1.00  0.00     0.120 A 
BRANCH  10  15
HETATM   15  C   UNL     1      -1.791   6.036 -32.249  1.00  0.00    -0.003 A 
HETATM   16  C   UNL     1      -2.046   7.115 -31.398  1.00  0.00     0.037 A 
HETATM   17  C   UNL     1      -1.119   7.471 -30.415  1.00  0.00     0.035 A 
HETATM   18 CL   UNL     1      -1.450   8.827 -29.408  1.00  0.00    -0.084 Cl
HETATM   19  C   UNL     1       0.058   6.747 -30.248  1.00  0.00     0.024 A 
HETATM   20  C   UNL     1       0.311   5.653 -31.073  1.00  0.00     0.003 A 
HETATM   21  C   UNL     1      -0.608   5.302 -32.067  1.00  0.00     0.014 A 
ENDBRANCH  10  15
ENDBRANCH   8   9
ENDBRANCH   3   8
BRANCH   1  22
HETATM   22  C   UNL     1      -6.972   0.170 -32.567  1.00  0.00     0.128 C 
BRANCH  22  23
HETATM   23  N   UNL     1      -6.493  -1.075 -33.134  1.00  0.00    -0.360 N 
HETATM   24  C   UNL     1      -6.659  -1.371 -34.472  1.00  0.00     0.221 C 
HETATM   25  O   UNL     1      -7.428  -0.724 -35.179  1.00  0.00    -0.273 OA
HETATM   26  H   UNL     1      -5.793  -1.595 -32.615  1.00  0.00     0.162 HD
BRANCH  24  27
HETATM   27  C   UNL     1      -5.865  -2.581 -34.960  1.00  0.00     0.070 C 
HETATM   28  C   UNL     1      -6.698  -3.858 -34.854  1.00  0.00     0.019 C 
HETATM   29  C   UNL     1      -4.569  -2.734 -34.165  1.00  0.00     0.019 C 
ENDBRANCH  24  27
ENDBRANCH  22  23
ENDBRANCH   1  22
TORSDOF 6
ENDMDL
MODEL 4
REMARK VINA RESULT:      -8.5      1.762      2.407
REMARK  6 active torsions:
REMARK  status: ('A' for Active; 'I' for Inactive)
REMARK    1  A    between atoms: C_2  and  C_3 
REMARK       I    between atoms: C_3  and  N_4 
REMARK    2  A    between atoms: N_4  and  C_5 
REMARK    3  A    between atoms: C_5  and  C_6 
REMARK    4  A    between atoms: N_8  and  C_10 
REMARK    5  A    between atoms: C_10  and  C_11 
REMARK    6  A    between atoms: C_12  and  C_13 
ROOT
HETATM    1  C   UNL     1      -4.042   3.813 -32.957  1.00  0.00     0.029 C 
HETATM    2  C   UNL     1      -5.476   3.427 -32.574  1.00  0.00     0.241 C 
HETATM    3  N   UNL     1      -5.529   1.993 -32.080  1.00  0.00    -0.067 N 
HETATM    4  H   UNL     1      -5.188   1.389 -32.836  1.00  0.00     0.280 HD
HETATM    5  C   UNL     1      -4.627   1.767 -30.896  1.00  0.00     0.235 C 
HETATM    6  C   UNL     1      -3.197   2.100 -31.291  1.00  0.00     0.028 C 
HETATM    7  C   UNL     1      -3.075   3.532 -31.796  1.00  0.00     0.009 C 
ENDROOT
BRANCH   3   8
HETATM    8  C   UNL     1      -6.970   1.575 -31.824  1.00  0.00     0.277 C 
BRANCH   8   9
HETATM    9  C   UNL     1      -7.747   1.329 -33.068  1.00  0.00     0.016 A 
HETATM   10  C   UNL     1      -7.570   0.301 -34.055  1.00  0.00     0.096 A 
HETATM   11  N   UNL     1      -8.461   0.444 -35.045  1.00  0.00    -0.174 NA
HETATM   12  N   UNL     1      -9.153   1.545 -34.748  1.00  0.00    -0.288 N 
HETATM   13  H   UNL     1      -9.870   1.854 -35.401  1.00  0.00     0.188 HD
HETATM   14  C   UNL     1      -8.770   2.114 -33.572  1.00  0.00     0.120 A 
BRANCH  10  15
HETATM   15  C   UNL     1      -6.588  -0.786 -34.120  1.00  0.00    -0.003 A 
HETATM   16  C   UNL     1      -6.927  -2.064 -34.576  1.00  0.00     0.037 A 
HETATM   17  C   UNL     1      -5.968  -3.077 -34.610  1.00  0.00     0.035 A 
HETATM   18 CL   UNL     1      -6.430  -4.648 -35.146  1.00  0.00    -0.084 Cl
HETATM   19  C   UNL     1      -4.656  -2.832 -34.216  1.00  0.00     0.024 A 
HETATM   20  C   UNL     1      -4.299  -1.557 -33.784  1.00  0.00     0.003 A 
HETATM   21  C   UNL     1      -5.259  -0.543 -33.736  1.00  0.00     0.014 A 
ENDBRANCH  10  15
ENDBRANCH   8   9
ENDBRANCH   3   8
BRANCH   1  22
HETATM   22  C   UNL     1      -3.931   5.297 -33.351  1.00  0.00     0.128 C 
BRANCH  22  23
HETATM   23  N   UNL     1      -2.911   6.026 -32.625  1.00  0.00    -0.360 N 
HETATM   24  C   UNL     1      -2.182   7.037 -33.220  1.00  0.00     0.221 C 
HETATM   25  O   UNL     1      -2.181   7.190 -34.439  1.00  0.00    -0.273 OA
HETATM   26  H   UNL     1      -2.933   5.990 -31.610  1.00  0.00     0.162 HD
BRANCH  24  27
HETATM   27  C   UNL     1      -1.354   7.879 -32.253  1.00  0.00     0.070 C 
HETATM   28  C   UNL     1      -0.400   7.000 -31.444  1.00  0.00     0.019 C 
HETATM   29  C   UNL     1      -2.260   8.672 -31.312  1.00  0.00     0.019 C 
ENDBRANCH  24  27
ENDBRANCH  22  23
ENDBRANCH   1  22
TORSDOF 6
ENDMDL
MODEL 5
REMARK VINA RESULT:      -8.4      3.557      6.822
REMARK  6 active torsions:
REMARK  status: ('A' for Active; 'I' for Inactive)
REMARK    1  A    between atoms: C_2  and  C_3 
REMARK       I    between atoms: C_3  and  N_4 
REMARK    2  A    between atoms: N_4  and  C_5 
REMARK    3  A    between atoms: C_5  and  C_6 
REMARK    4  A    between atoms: N_8  and  C_10 
REMARK    5  A    between atoms: C_10  and  C_11 
REMARK    6  A    between atoms: C_12  and  C_13 
ROOT
HETATM    1  C   UNL     1      -9.759   2.457 -33.122  1.00  0.00     0.029 C 
HETATM    2  C   UNL     1      -8.403   2.459 -33.838  1.00  0.00     0.241 C 
HETATM    3  N   UNL     1      -7.316   1.929 -32.921  1.00  0.00    -0.067 N 
HETATM    4  H   UNL     1      -7.282   2.532 -32.092  1.00  0.00     0.280 HD
HETATM    5  C   UNL     1      -7.613   0.534 -32.436  1.00  0.00     0.235 C 
HETATM    6  C   UNL     1      -8.933   0.542 -31.683  1.00  0.00     0.028 C 
HETATM    7  C   UNL     1     -10.070   1.065 -32.550  1.00  0.00     0.009 C 
ENDROOT
BRANCH   3   8
HETATM    8  C   UNL     1      -5.954   2.052 -33.589  1.00  0.00     0.277 C 
BRANCH   8   9
HETATM    9  C   UNL     1      -4.828   2.164 -32.623  1.00  0.00     0.016 A 
HETATM   10  C   UNL     1      -3.940   1.139 -32.149  1.00  0.00     0.096 A 
HETATM   11  N   UNL     1      -3.076   1.644 -31.259  1.00  0.00    -0.174 NA
HETATM   12  N   UNL     1      -3.415   2.926 -31.117  1.00  0.00    -0.288 N 
HETATM   13  H   UNL     1      -2.894   3.491 -30.449  1.00  0.00     0.188 HD
HETATM   14  C   UNL     1      -4.456   3.293 -31.914  1.00  0.00     0.120 A 
BRANCH  10  15
HETATM   15  C   UNL     1      -3.889  -0.290 -32.474  1.00  0.00    -0.003 A 
HETATM   16  C   UNL     1      -4.553  -0.821 -33.584  1.00  0.00     0.037 A 
HETATM   17  C   UNL     1      -4.492  -2.190 -33.852  1.00  0.00     0.035 A 
HETATM   18 CL   UNL     1      -5.350  -2.814 -35.209  1.00  0.00    -0.084 Cl
HETATM   19  C   UNL     1      -3.754  -3.045 -33.039  1.00  0.00     0.024 A 
HETATM   20  C   UNL     1      -3.067  -2.524 -31.945  1.00  0.00     0.003 A 
HETATM   21  C   UNL     1      -3.136  -1.157 -31.665  1.00  0.00     0.014 A 
ENDBRANCH  10  15
ENDBRANCH   8   9
ENDBRANCH   3   8
BRANCH   1  22
HETATM   22  C   UNL     1     -10.905   2.879 -34.060  1.00  0.00     0.128 C 
BRANCH  22  23
HETATM   23  N   UNL     1     -12.160   2.201 -33.801  1.00  0.00    -0.360 N 
HETATM   24  C   UNL     1     -12.870   1.585 -34.813  1.00  0.00     0.221 C 
HETATM   25  O   UNL     1     -12.612   1.797 -35.995  1.00  0.00    -0.273 OA
HETATM   26  H   UNL     1     -12.368   1.936 -32.844  1.00  0.00     0.162 HD
BRANCH  24  27
HETATM   27  C   UNL     1     -14.014   0.693 -34.335  1.00  0.00     0.070 C 
HETATM   28  C   UNL     1     -14.949   1.458 -33.400  1.00  0.00     0.019 C 
HETATM   29  C   UNL     1     -13.471  -0.550 -33.630  1.00  0.00     0.019 C 
ENDBRANCH  24  27
ENDBRANCH  22  23
ENDBRANCH   1  22
TORSDOF 6
ENDMDL
MODEL 6
REMARK VINA RESULT:      -8.4      3.524      5.542
REMARK  6 active torsions:
REMARK  status: ('A' for Active; 'I' for Inactive)
REMARK    1  A    between atoms: C_2  and  C_3 
REMARK       I    between atoms: C_3  and  N_4 
REMARK    2  A    between atoms: N_4  and  C_5 
REMARK    3  A    between atoms: C_5  and  C_6 
REMARK    4  A    between atoms: N_8  and  C_10 
REMARK    5  A    between atoms: C_10  and  C_11 
REMARK    6  A    between atoms: C_12  and  C_13 
ROOT
HETATM    1  C   UNL     1      -0.974   6.278 -31.731  1.00  0.00     0.029 C 
HETATM    2  C   UNL     1      -1.488   4.846 -31.918  1.00  0.00     0.241 C 
HETATM    3  N   UNL     1      -2.813   4.847 -32.658  1.00  0.00    -0.067 N 
HETATM    4  H   UNL     1      -3.481   5.396 -32.105  1.00  0.00     0.280 HD
HETATM    5  C   UNL     1      -2.710   5.512 -34.005  1.00  0.00     0.235 C 
HETATM    6  C   UNL     1      -2.249   6.949 -33.816  1.00  0.00     0.028 C 
HETATM    7  C   UNL     1      -0.919   7.017 -33.077  1.00  0.00     0.009 C 
ENDROOT
BRANCH   3   8
HETATM    8  C   UNL     1      -3.382   3.438 -32.728  1.00  0.00     0.277 C 
BRANCH   8   9
HETATM    9  C   UNL     1      -4.176   3.058 -31.529  1.00  0.00     0.016 A 
HETATM   10  C   UNL     1      -4.619   1.756 -31.115  1.00  0.00     0.096 A 
HETATM   11  N   UNL     1      -5.337   1.844 -29.987  1.00  0.00    -0.174 NA
HETATM   12  N   UNL     1      -5.407   3.145 -29.706  1.00  0.00    -0.288 N 
HETATM   13  H   UNL     1      -5.946   3.434 -28.893  1.00  0.00     0.188 HD
HETATM   14  C   UNL     1      -4.725   3.919 -30.595  1.00  0.00     0.120 A 
BRANCH  10  15
HETATM   15  C   UNL     1      -4.421   0.446 -31.744  1.00  0.00    -0.003 A 
HETATM   16  C   UNL     1      -5.256  -0.018 -32.765  1.00  0.00     0.037 A 
HETATM   17  C   UNL     1      -5.044  -1.277 -33.330  1.00  0.00     0.035 A 
HETATM   18 CL   UNL     1      -6.114  -1.831 -34.560  1.00  0.00    -0.084 Cl
HETATM   19  C   UNL     1      -3.989  -2.081 -32.908  1.00  0.00     0.024 A 
HETATM   20  C   UNL     1      -3.134  -1.618 -31.911  1.00  0.00     0.003 A 
HETATM   21  C   UNL     1      -3.350  -0.364 -31.333  1.00  0.00     0.014 A 
ENDBRANCH  10  15
ENDBRANCH   8   9
ENDBRANCH   3   8
BRANCH   1  22
HETATM   22  C   UNL     1       0.424   6.309 -31.088  1.00  0.00     0.128 C 
BRANCH  22  23
HETATM   23  N   UNL     1       0.596   7.351 -30.096  1.00  0.00    -0.360 N 
HETATM   24  C   UNL     1       0.558   7.075 -28.743  1.00  0.00     0.221 C 
HETATM   25  O   UNL     1       0.129   6.003 -28.322  1.00  0.00    -0.273 OA
HETATM   26  H   UNL     1       1.025   8.222 -30.391  1.00  0.00     0.162 HD
BRANCH  24  27
HETATM   27  C   UNL     1       1.025   8.219 -27.846  1.00  0.00     0.070 C 
HETATM   28  C   UNL     1       1.652   7.682 -26.560  1.00  0.00     0.019 C 
HETATM   29  C   UNL     1      -0.138   9.153 -27.512  1.00  0.00     0.019 C 
ENDBRANCH  24  27
ENDBRANCH  22  23
ENDBRANCH   1  22
TORSDOF 6
ENDMDL
MODEL 7
REMARK VINA RESULT:      -8.3      1.207      1.657
REMARK  6 active torsions:
REMARK  status: ('A' for Active; 'I' for Inactive)
REMARK    1  A    between atoms: C_2  and  C_3 
REMARK       I    between atoms: C_3  and  N_4 
REMARK    2  A    between atoms: N_4  and  C_5 
REMARK    3  A    between atoms: C_5  and  C_6 
REMARK    4  A    between atoms: N_8  and  C_10 
REMARK    5  A    between atoms: C_10  and  C_11 
REMARK    6  A    between atoms: C_12  and  C_13 
ROOT
HETATM    1  C   UNL     1      -4.938   2.575 -30.575  1.00  0.00     0.029 C 
HETATM    2  C   UNL     1      -5.715   1.494 -31.335  1.00  0.00     0.241 C 
HETATM    3  N   UNL     1      -7.131   1.380 -30.800  1.00  0.00    -0.067 N 
HETATM    4  H   UNL     1      -7.072   1.142 -29.804  1.00  0.00     0.280 HD
HETATM    5  C   UNL     1      -7.880   2.682 -30.896  1.00  0.00     0.235 C 
HETATM    6  C   UNL     1      -7.136   3.743 -30.100  1.00  0.00     0.028 C 
HETATM    7  C   UNL     1      -5.704   3.908 -30.589  1.00  0.00     0.009 C 
ENDROOT
BRANCH   3   8
HETATM    8  C   UNL     1      -7.857   0.221 -31.468  1.00  0.00     0.277 C 
BRANCH   8   9
HETATM    9  C   UNL     1      -8.019   0.390 -32.937  1.00  0.00     0.016 A 
HETATM   10  C   UNL     1      -7.321  -0.271 -34.004  1.00  0.00     0.096 A 
HETATM   11  N   UNL     1      -7.741   0.186 -35.191  1.00  0.00    -0.174 NA
HETATM   12  N   UNL     1      -8.633   1.138 -34.914  1.00  0.00    -0.288 N 
HETATM   13  H   UNL     1      -9.054   1.644 -35.690  1.00  0.00     0.188 HD
HETATM   14  C   UNL     1      -8.841   1.300 -33.578  1.00  0.00     0.120 A 
BRANCH  10  15
HETATM   15  C   UNL     1      -6.264  -1.286 -33.954  1.00  0.00    -0.003 A 
HETATM   16  C   UNL     1      -5.172  -1.176 -33.088  1.00  0.00     0.037 A 
HETATM   17  C   UNL     1      -4.178  -2.156 -33.080  1.00  0.00     0.035 A 
HETATM   18 CL   UNL     1      -2.830  -1.971 -32.023  1.00  0.00    -0.084 Cl
HETATM   19  C   UNL     1      -4.264  -3.268 -33.913  1.00  0.00     0.024 A 
HETATM   20  C   UNL     1      -5.360  -3.402 -34.763  1.00  0.00     0.003 A 
HETATM   21  C   UNL     1      -6.351  -2.417 -34.783  1.00  0.00     0.014 A 
ENDBRANCH  10  15
ENDBRANCH   8   9
ENDBRANCH   3   8
BRANCH   1  22
HETATM   22  C   UNL     1      -3.535   2.800 -31.167  1.00  0.00     0.128 C 
BRANCH  22  23
HETATM   23  N   UNL     1      -3.523   3.611 -32.368  1.00  0.00    -0.360 N 
HETATM   24  C   UNL     1      -2.383   4.267 -32.787  1.00  0.00     0.221 C 
HETATM   25  O   UNL     1      -1.415   4.402 -32.042  1.00  0.00    -0.273 OA
HETATM   26  H   UNL     1      -4.264   3.465 -33.047  1.00  0.00     0.162 HD
BRANCH  24  27
HETATM   27  C   UNL     1      -2.462   4.844 -34.198  1.00  0.00     0.070 C 
HETATM   28  C   UNL     1      -1.499   6.020 -34.361  1.00  0.00     0.019 C 
HETATM   29  C   UNL     1      -3.888   5.287 -34.522  1.00  0.00     0.019 C 
ENDBRANCH  24  27
ENDBRANCH  22  23
ENDBRANCH   1  22
TORSDOF 6
ENDMDL
MODEL 8
REMARK VINA RESULT:      -8.3      2.416      3.070
REMARK  6 active torsions:
REMARK  status: ('A' for Active; 'I' for Inactive)
REMARK    1  A    between atoms: C_2  and  C_3 
REMARK       I    between atoms: C_3  and  N_4 
REMARK    2  A    between atoms: N_4  and  C_5 
REMARK    3  A    between atoms: C_5  and  C_6 
REMARK    4  A    between atoms: N_8  and  C_10 
REMARK    5  A    between atoms: C_10  and  C_11 
REMARK    6  A    between atoms: C_12  and  C_13 
ROOT
HETATM    1  C   UNL     1      -4.333   4.376 -33.089  1.00  0.00     0.029 C 
HETATM    2  C   UNL     1      -5.663   4.192 -33.831  1.00  0.00     0.241 C 
HETATM    3  N   UNL     1      -6.479   3.082 -33.194  1.00  0.00    -0.067 N 
HETATM    4  H   UNL     1      -5.924   2.220 -33.239  1.00  0.00     0.280 HD
HETATM    5  C   UNL     1      -6.760   3.347 -31.739  1.00  0.00     0.235 C 
HETATM    6  C   UNL     1      -5.442   3.479 -30.994  1.00  0.00     0.028 C 
HETATM    7  C   UNL     1      -4.573   4.582 -31.585  1.00  0.00     0.009 C 
ENDROOT
BRANCH   3   8
HETATM    8  C   UNL     1      -7.736   2.816 -34.009  1.00  0.00     0.277 C 
BRANCH   8   9
HETATM    9  C   UNL     1      -8.645   1.815 -33.388  1.00  0.00     0.016 A 
HETATM   10  C   UNL     1      -8.406   0.426 -33.114  1.00  0.00     0.096 A 
HETATM   11  N   UNL     1      -9.494  -0.137 -32.572  1.00  0.00    -0.174 NA
HETATM   12  N   UNL     1     -10.419   0.823 -32.543  1.00  0.00    -0.288 N 
HETATM   13  H   UNL     1     -11.345   0.589 -32.192  1.00  0.00     0.188 HD
HETATM   14  C   UNL     1      -9.963   2.016 -33.016  1.00  0.00     0.120 A 
BRANCH  10  15
HETATM   15  C   UNL     1      -7.216  -0.395 -33.363  1.00  0.00    -0.003 A 
HETATM   16  C   UNL     1      -6.120  -0.391 -32.496  1.00  0.00     0.037 A 
HETATM   17  C   UNL     1      -4.999  -1.176 -32.775  1.00  0.00     0.035 A 
HETATM   18 CL   UNL     1      -3.653  -1.120 -31.702  1.00  0.00    -0.084 Cl
HETATM   19  C   UNL     1      -4.960  -1.991 -33.902  1.00  0.00     0.024 A 
HETATM   20  C   UNL     1      -6.057  -2.023 -34.761  1.00  0.00     0.003 A 
HETATM   21  C   UNL     1      -7.176  -1.229 -34.492  1.00  0.00     0.014 A 
ENDBRANCH  10  15
ENDBRANCH   8   9
ENDBRANCH   3   8
BRANCH   1  22
HETATM   22  C   UNL     1      -3.531   5.572 -33.634  1.00  0.00     0.128 C 
BRANCH  22  23
HETATM   23  N   UNL     1      -2.533   6.082 -32.715  1.00  0.00    -0.360 N 
HETATM   24  C   UNL     1      -1.749   7.174 -33.033  1.00  0.00     0.221 C 
HETATM   25  O   UNL     1      -1.680   7.597 -34.184  1.00  0.00    -0.273 OA
HETATM   26  H   UNL     1      -2.609   5.819 -31.738  1.00  0.00     0.162 HD
BRANCH  24  27
HETATM   27  C   UNL     1      -0.952   7.746 -31.863  1.00  0.00     0.070 C 
HETATM   28  C   UNL     1       0.142   6.775 -31.422  1.00  0.00     0.019 C 
HETATM   29  C   UNL     1      -1.872   8.068 -30.687  1.00  0.00     0.019 C 
ENDBRANCH  24  27
ENDBRANCH  22  23
ENDBRANCH   1  22
TORSDOF 6
ENDMDL
MODEL 9
REMARK VINA RESULT:      -8.1      3.093      5.491
REMARK  6 active torsions:
REMARK  status: ('A' for Active; 'I' for Inactive)
REMARK    1  A    between atoms: C_2  and  C_3 
REMARK       I    between atoms: C_3  and  N_4 
REMARK    2  A    between atoms: N_4  and  C_5 
REMARK    3  A    between atoms: C_5  and  C_6 
REMARK    4  A    between atoms: N_8  and  C_10 
REMARK    5  A    between atoms: C_10  and  C_11 
REMARK    6  A    between atoms: C_12  and  C_13 
ROOT
HETATM    1  C   UNL     1      -4.781   0.249 -32.183  1.00  0.00     0.029 C 
HETATM    2  C   UNL     1      -4.484   1.747 -32.318  1.00  0.00     0.241 C 
HETATM    3  N   UNL     1      -5.535   2.567 -31.593  1.00  0.00    -0.067 N 
HETATM    4  H   UNL     1      -6.447   2.346 -32.008  1.00  0.00     0.280 HD
HETATM    5  C   UNL     1      -5.622   2.213 -30.132  1.00  0.00     0.235 C 
HETATM    6  C   UNL     1      -5.967   0.739 -29.997  1.00  0.00     0.028 C 
HETATM    7  C   UNL     1      -4.947  -0.142 -30.706  1.00  0.00     0.009 C 
ENDROOT
BRANCH   3   8
HETATM    8  C   UNL     1      -5.309   4.052 -31.837  1.00  0.00     0.277 C 
BRANCH   8   9
HETATM    9  C   UNL     1      -6.399   4.697 -32.617  1.00  0.00     0.016 A 
HETATM   10  C   UNL     1      -7.395   4.087 -33.452  1.00  0.00     0.096 A 
HETATM   11  N   UNL     1      -8.179   5.023 -34.004  1.00  0.00    -0.174 NA
HETATM   12  N   UNL     1      -7.687   6.192 -33.594  1.00  0.00    -0.288 N 
HETATM   13  H   UNL     1      -8.126   7.045 -33.933  1.00  0.00     0.188 HD
HETATM   14  C   UNL     1      -6.621   6.056 -32.756  1.00  0.00     0.120 A 
BRANCH  10  15
HETATM   15  C   UNL     1      -7.622   2.674 -33.773  1.00  0.00    -0.003 A 
HETATM   16  C   UNL     1      -8.613   1.921 -33.137  1.00  0.00     0.037 A 
HETATM   17  C   UNL     1      -8.789   0.574 -33.460  1.00  0.00     0.035 A 
HETATM   18 CL   UNL     1      -9.997  -0.332 -32.631  1.00  0.00    -0.084 Cl
HETATM   19  C   UNL     1      -8.003  -0.037 -34.432  1.00  0.00     0.024 A 
HETATM   20  C   UNL     1      -7.029   0.710 -35.092  1.00  0.00     0.003 A 
HETATM   21  C   UNL     1      -6.840   2.056 -34.763  1.00  0.00     0.014 A 
ENDBRANCH  10  15
ENDBRANCH   8   9
ENDBRANCH   3   8
BRANCH   1  22
HETATM   22  C   UNL     1      -3.672  -0.618 -32.807  1.00  0.00     0.128 C 
BRANCH  22  23
HETATM   23  N   UNL     1      -4.142  -1.536 -33.824  1.00  0.00    -0.360 N 
HETATM   24  C   UNL     1      -4.102  -2.904 -33.637  1.00  0.00     0.221 C 
HETATM   25  O   UNL     1      -3.445  -3.405 -32.728  1.00  0.00    -0.273 OA
HETATM   26  H   UNL     1      -4.756  -1.173 -34.546  1.00  0.00     0.162 HD
BRANCH  24  27
HETATM   27  C   UNL     1      -4.878  -3.712 -34.674  1.00  0.00     0.070 C 
HETATM   28  C   UNL     1      -6.327  -3.235 -34.764  1.00  0.00     0.019 C 
HETATM   29  C   UNL     1      -4.836  -5.202 -34.341  1.00  0.00     0.019 C 
ENDBRANCH  24  27
ENDBRANCH  22  23
ENDBRANCH   1  22
TORSDOF 6
ENDMDL
MODEL 10
REMARK VINA RESULT:      -7.9      3.621      7.327
REMARK  6 active torsions:
REMARK  status: ('A' for Active; 'I' for Inactive)
REMARK    1  A    between atoms: C_2  and  C_3 
REMARK       I    between atoms: C_3  and  N_4 
REMARK    2  A    between atoms: N_4  and  C_5 
REMARK    3  A    between atoms: C_5  and  C_6 
REMARK    4  A    between atoms: N_8  and  C_10 
REMARK    5  A    between atoms: C_10  and  C_11 
REMARK    6  A    between atoms: C_12  and  C_13 
ROOT
HETATM    1  C   UNL     1      -6.952  -0.428 -34.111  1.00  0.00     0.029 C 
HETATM    2  C   UNL     1      -5.842   0.552 -33.709  1.00  0.00     0.241 C 
HETATM    3  N   UNL     1      -4.792  -0.149 -32.866  1.00  0.00    -0.067 N 
HETATM    4  H   UNL     1      -5.258  -0.523 -32.032  1.00  0.00     0.280 HD
HETATM    5  C   UNL     1      -4.177  -1.320 -33.585  1.00  0.00     0.235 C 
HETATM    6  C   UNL     1      -5.270  -2.315 -33.940  1.00  0.00     0.028 C 
HETATM    7  C   UNL     1      -6.359  -1.673 -34.789  1.00  0.00     0.009 C 
ENDROOT
BRANCH   3   8
HETATM    8  C   UNL     1      -3.763   0.852 -32.363  1.00  0.00     0.277 C 
BRANCH   8   9
HETATM    9  C   UNL     1      -4.327   1.862 -31.427  1.00  0.00     0.016 A 
HETATM   10  C   UNL     1      -4.001   3.255 -31.299  1.00  0.00     0.096 A 
HETATM   11  N   UNL     1      -4.715   3.813 -30.312  1.00  0.00    -0.174 NA
HETATM   12  N   UNL     1      -5.434   2.822 -29.784  1.00  0.00    -0.288 N 
HETATM   13  H   UNL     1      -6.029   3.032 -28.986  1.00  0.00     0.188 HD
HETATM   14  C   UNL     1      -5.244   1.631 -30.417  1.00  0.00     0.120 A 
BRANCH  10  15
HETATM   15  C   UNL     1      -3.033   4.071 -32.040  1.00  0.00    -0.003 A 
HETATM   16  C   UNL     1      -1.921   4.646 -31.419  1.00  0.00     0.037 A 
HETATM   17  C   UNL     1      -1.029   5.429 -32.156  1.00  0.00     0.035 A 
HETATM   18 CL   UNL     1       0.311   6.150 -31.350  1.00  0.00    -0.084 Cl
HETATM   19  C   UNL     1      -1.216   5.631 -33.520  1.00  0.00     0.024 A 
HETATM   20  C   UNL     1      -2.306   5.041 -34.156  1.00  0.00     0.003 A 
HETATM   21  C   UNL     1      -3.208   4.268 -33.420  1.00  0.00     0.014 A 
ENDBRANCH  10  15
ENDBRANCH   8   9
ENDBRANCH   3   8
BRANCH   1  22
HETATM   22  C   UNL     1      -7.974   0.220 -35.064  1.00  0.00     0.128 C 
BRANCH  22  23
HETATM   23  N   UNL     1      -8.558   1.446 -34.559  1.00  0.00    -0.360 N 
HETATM   24  C   UNL     1      -9.613   1.431 -33.669  1.00  0.00     0.221 C 
HETATM   25  O   UNL     1     -10.262   0.408 -33.465  1.00  0.00    -0.273 OA
HETATM   26  H   UNL     1      -8.012   2.299 -34.636  1.00  0.00     0.162 HD
BRANCH  24  27
HETATM   27  C   UNL     1      -9.927   2.782 -33.031  1.00  0.00     0.070 C 
HETATM   28  C   UNL     1      -9.273   2.900 -31.655  1.00  0.00     0.019 C 
HETATM   29  C   UNL     1     -11.436   2.988 -32.912  1.00  0.00     0.019 C 
ENDBRANCH  24  27
ENDBRANCH  22  23
ENDBRANCH   1  22
TORSDOF 6
ENDMDL
