MODEL 1
REMARK VINA RESULT:      -9.6      0.000      0.000
REMARK  8 active torsions:
REMARK  status: ('A' for Active; 'I' for Inactive)
REMARK    1  A    between atoms: C_4  and  C_5 
REMARK    2  A    between atoms: C_5  and  N_6 
REMARK    3  A    between atoms: C_11  and  C_12 
REMARK       I    between atoms: C_12  and  N_13 
REMARK    4  A    between atoms: C_15  and  N_16 
REMARK       I    between atoms: N_16  and  C_17 
REMARK    5  A    between atoms: C_17  and  C_18 
REMARK    6  A    between atoms: C_18  and  C_19 
REMARK    7  A    between atoms: C_19  and  S_20 
REMARK    8  A    between atoms: S_20  and  C_21 
ROOT
HETATM    1  N   UNL     1      -6.602  -0.239 -32.958  1.00  0.00    -0.063 N 
HETATM    2  H   UNL     1      -7.116  -1.012 -32.523  1.00  0.00     0.280 HD
HETATM    3  C   UNL     1      -5.428   0.048 -32.028  1.00  0.00     0.282 C 
HETATM    4  C   UNL     1      -4.869   1.407 -32.270  1.00  0.00     0.018 C 
HETATM    5  C   UNL     1      -5.487   2.414 -32.983  1.00  0.00    -0.023 C 
HETATM    6  C   UNL     1      -4.640   3.583 -33.101  1.00  0.00     0.073 C 
HETATM    7  C   UNL     1      -3.526   3.461 -32.276  1.00  0.00     0.093 C 
HETATM    8  S   UNL     1      -3.387   1.895 -31.620  1.00  0.00    -0.074 SA
HETATM    9  C   UNL     1      -6.854   2.217 -33.581  1.00  0.00     0.068 C 
HETATM   10  C   UNL     1      -7.548   0.957 -33.020  1.00  0.00     0.240 C 
ENDROOT
BRANCH   7  11
HETATM   11  N   UNL     1      -2.627   4.459 -31.929  1.00  0.00    -0.320 N 
HETATM   12  C   UNL     1      -1.632   5.000 -32.727  1.00  0.00     0.223 C 
HETATM   13  O   UNL     1      -1.495   4.851 -33.936  1.00  0.00    -0.273 OA
HETATM   14  H   UNL     1      -2.680   4.800 -30.972  1.00  0.00     0.169 HD
BRANCH  12  15
HETATM   15  C   UNL     1      -0.661   5.869 -31.947  1.00  0.00     0.113 C 
BRANCH  15  16
HETATM   16  C   UNL     1      -0.680   5.577 -30.452  1.00  0.00     0.088 C 
BRANCH  16  17
HETATM   17  S   UNL     1      -1.516   6.919 -29.530  1.00  0.00    -0.130 SA
BRANCH  17  18
HETATM   18  C   UNL     1      -0.354   7.338 -28.238  1.00  0.00     0.000 A 
HETATM   19  C   UNL     1      -0.433   6.896 -26.914  1.00  0.00     0.020 A 
HETATM   20  C   UNL     1       0.529   7.287 -25.973  1.00  0.00     0.025 A 
HETATM   21  C   UNL     1       1.575   8.123 -26.352  1.00  0.00     0.034 A 
HETATM   22 CL   UNL     1       2.753   8.600 -25.195  1.00  0.00    -0.084 Cl
HETATM   23  C   UNL     1       1.668   8.574 -27.664  1.00  0.00     0.025 A 
HETATM   24  C   UNL     1       0.707   8.183 -28.600  1.00  0.00     0.020 A 
ENDBRANCH  17  18
ENDBRANCH  16  17
ENDBRANCH  15  16
ENDBRANCH  12  15
ENDBRANCH   7  11
BRANCH   6  25
HETATM   25  C   UNL     1      -4.964   4.744 -33.928  1.00  0.00     0.252 C 
HETATM   26  N   UNL     1      -4.328   4.821 -35.133  1.00  0.00    -0.366 N 
HETATM   27  H   UNL     1      -3.859   4.025 -35.547  1.00  0.00     0.159 HD
HETATM   28  H   UNL     1      -4.656   5.536 -35.771  1.00  0.00     0.159 HD
HETATM   29  O   UNL     1      -5.818   5.565 -33.615  1.00  0.00    -0.268 OA
ENDBRANCH   6  25
BRANCH   1  30
HETATM   30  C   UNL     1      -6.208  -0.725 -34.335  1.00  0.00     0.273 C 
BRANCH  30  31
HETATM   31  C   UNL     1      -5.840  -2.181 -34.420  1.00  0.00    -0.033 A 
HETATM   32  C   UNL     1      -4.549  -2.634 -34.107  1.00  0.00     0.009 A 
HETATM   33  C   UNL     1      -4.241  -3.994 -34.188  1.00  0.00     0.001 A 
HETATM   34  C   UNL     1      -5.218  -4.913 -34.563  1.00  0.00     0.000 A 
HETATM   35  C   UNL     1      -6.507  -4.477 -34.859  1.00  0.00     0.001 A 
HETATM   36  C   UNL     1      -6.816  -3.119 -34.789  1.00  0.00     0.009 A 
ENDBRANCH  30  31
ENDBRANCH   1  30
TORSDOF 8
ENDMDL
MODEL 2
REMARK VINA RESULT:      -9.3      2.979      3.885
REMARK  8 active torsions:
REMARK  status: ('A' for Active; 'I' for Inactive)
REMARK    1  A    between atoms: C_4  and  C_5 
REMARK    2  A    between atoms: C_5  and  N_6 
REMARK    3  A    between atoms: C_11  and  C_12 
REMARK       I    between atoms: C_12  and  N_13 
REMARK    4  A    between atoms: C_15  and  N_16 
REMARK       I    between atoms: N_16  and  C_17 
REMARK    5  A    between atoms: C_17  and  C_18 
REMARK    6  A    between atoms: C_18  and  C_19 
REMARK    7  A    between atoms: C_19  and  S_20 
REMARK    8  A    between atoms: S_20  and  C_21 
ROOT
HETATM    1  N   UNL     1      -6.897  -0.396 -33.099  1.00  0.00    -0.063 N 
HETATM    2  H   UNL     1      -7.378  -1.258 -32.825  1.00  0.00     0.280 HD
HETATM    3  C   UNL     1      -6.247   0.135 -31.825  1.00  0.00     0.282 C 
HETATM    4  C   UNL     1      -5.914   1.580 -31.952  1.00  0.00     0.018 C 
HETATM    5  C   UNL     1      -6.394   2.434 -32.923  1.00  0.00    -0.023 C 
HETATM    6  C   UNL     1      -5.811   3.754 -32.812  1.00  0.00     0.073 C 
HETATM    7  C   UNL     1      -5.096   3.871 -31.624  1.00  0.00     0.093 C 
HETATM    8  S   UNL     1      -4.917   2.370 -30.838  1.00  0.00    -0.074 SA
HETATM    9  C   UNL     1      -7.363   1.951 -33.970  1.00  0.00     0.068 C 
HETATM   10  C   UNL     1      -7.960   0.575 -33.607  1.00  0.00     0.240 C 
ENDROOT
BRANCH   7  11
HETATM   11  N   UNL     1      -4.609   5.037 -31.050  1.00  0.00    -0.320 N 
HETATM   12  C   UNL     1      -5.099   5.681 -29.927  1.00  0.00     0.223 C 
HETATM   13  O   UNL     1      -5.910   5.241 -29.119  1.00  0.00    -0.273 OA
HETATM   14  H   UNL     1      -3.834   5.486 -31.533  1.00  0.00     0.169 HD
BRANCH  12  15
HETATM   15  C   UNL     1      -4.508   7.068 -29.741  1.00  0.00     0.113 C 
BRANCH  15  16
HETATM   16  C   UNL     1      -3.375   7.092 -28.723  1.00  0.00     0.088 C 
BRANCH  16  17
HETATM   17  S   UNL     1      -1.888   7.907 -29.416  1.00  0.00    -0.130 SA
BRANCH  17  18
HETATM   18  C   UNL     1      -1.640   7.083 -30.983  1.00  0.00     0.000 A 
HETATM   19  C   UNL     1      -1.230   5.755 -31.134  1.00  0.00     0.020 A 
HETATM   20  C   UNL     1      -1.058   5.204 -32.410  1.00  0.00     0.025 A 
HETATM   21  C   UNL     1      -1.298   5.976 -33.542  1.00  0.00     0.034 A 
HETATM   22 CL   UNL     1      -1.088   5.295 -35.106  1.00  0.00    -0.084 Cl
HETATM   23  C   UNL     1      -1.706   7.299 -33.410  1.00  0.00     0.025 A 
HETATM   24  C   UNL     1      -1.875   7.848 -32.136  1.00  0.00     0.020 A 
ENDBRANCH  17  18
ENDBRANCH  16  17
ENDBRANCH  15  16
ENDBRANCH  12  15
ENDBRANCH   7  11
BRANCH   6  25
HETATM   25  C   UNL     1      -6.013   4.820 -33.793  1.00  0.00     0.252 C 
HETATM   26  N   UNL     1      -7.118   5.601 -33.613  1.00  0.00    -0.366 N 
HETATM   27  H   UNL     1      -7.630   5.618 -32.741  1.00  0.00     0.159 HD
HETATM   28  H   UNL     1      -7.184   6.428 -34.195  1.00  0.00     0.159 HD
HETATM   29  O   UNL     1      -5.204   5.069 -34.679  1.00  0.00    -0.268 OA
ENDBRANCH   6  25
BRANCH   1  30
HETATM   30  C   UNL     1      -5.920  -0.790 -34.185  1.00  0.00     0.273 C 
BRANCH  30  31
HETATM   31  C   UNL     1      -5.655  -2.265 -34.302  1.00  0.00    -0.033 A 
HETATM   32  C   UNL     1      -6.635  -3.156 -34.767  1.00  0.00     0.009 A 
HETATM   33  C   UNL     1      -6.354  -4.520 -34.870  1.00  0.00     0.001 A 
HETATM   34  C   UNL     1      -5.092  -5.004 -34.531  1.00  0.00     0.000 A 
HETATM   35  C   UNL     1      -4.107  -4.127 -34.086  1.00  0.00     0.001 A 
HETATM   36  C   UNL     1      -4.386  -2.766 -33.971  1.00  0.00     0.009 A 
ENDBRANCH  30  31
ENDBRANCH   1  30
TORSDOF 8
ENDMDL
MODEL 3
REMARK VINA RESULT:      -9.2      3.695     10.682
REMARK  8 active torsions:
REMARK  status: ('A' for Active; 'I' for Inactive)
REMARK    1  A    between atoms: C_4  and  C_5 
REMARK    2  A    between atoms: C_5  and  N_6 
REMARK    3  A    between atoms: C_11  and  C_12 
REMARK       I    between atoms: C_12  and  N_13 
REMARK    4  A    between atoms: C_15  and  N_16 
REMARK       I    between atoms: N_16  and  C_17 
REMARK    5  A    between atoms: C_17  and  C_18 
REMARK    6  A    between atoms: C_18  and  C_19 
REMARK    7  A    between atoms: C_19  and  S_20 
REMARK    8  A    between atoms: S_20  and  C_21 
ROOT
HETATM    1  N   UNL     1      -1.005   7.061 -30.475  1.00  0.00    -0.063 N 
HETATM    2  H   UNL     1      -0.335   7.814 -30.658  1.00  0.00     0.280 HD
HETATM    3  C   UNL     1      -1.167   6.322 -31.800  1.00  0.00     0.282 C 
HETATM    4  C   UNL     1      -2.420   5.519 -31.820  1.00  0.00     0.018 C 
HETATM    5  C   UNL     1      -3.470   5.646 -30.934  1.00  0.00    -0.023 C 
HETATM    6  C   UNL     1      -4.500   4.659 -31.180  1.00  0.00     0.073 C 
HETATM    7  C   UNL     1      -4.260   3.995 -32.378  1.00  0.00     0.093 C 
HETATM    8  S   UNL     1      -2.722   4.361 -33.014  1.00  0.00    -0.074 SA
HETATM    9  C   UNL     1      -3.440   6.677 -29.837  1.00  0.00     0.068 C 
HETATM   10  C   UNL     1      -2.319   7.716 -30.057  1.00  0.00     0.240 C 
ENDROOT
BRANCH   7  11
HETATM   11  N   UNL     1      -5.136   3.169 -33.069  1.00  0.00    -0.320 N 
HETATM   12  C   UNL     1      -6.198   3.560 -33.867  1.00  0.00     0.223 C 
HETATM   13  O   UNL     1      -6.434   4.692 -34.277  1.00  0.00    -0.273 OA
HETATM   14  H   UNL     1      -5.006   2.168 -32.940  1.00  0.00     0.169 HD
BRANCH  12  15
HETATM   15  C   UNL     1      -7.108   2.404 -34.242  1.00  0.00     0.113 C 
BRANCH  15  16
HETATM   16  C   UNL     1      -6.531   1.050 -33.850  1.00  0.00     0.088 C 
BRANCH  16  17
HETATM   17  S   UNL     1      -7.444  -0.313 -34.663  1.00  0.00    -0.130 SA
BRANCH  17  18
HETATM   18  C   UNL     1      -6.353  -1.719 -34.493  1.00  0.00     0.000 A 
HETATM   19  C   UNL     1      -6.633  -3.012 -34.947  1.00  0.00     0.020 A 
HETATM   20  C   UNL     1      -5.711  -4.049 -34.759  1.00  0.00     0.025 A 
HETATM   21  C   UNL     1      -4.503  -3.800 -34.116  1.00  0.00     0.034 A 
HETATM   22 CL   UNL     1      -3.373  -5.075 -33.889  1.00  0.00    -0.084 Cl
HETATM   23  C   UNL     1      -4.207  -2.521 -33.656  1.00  0.00     0.025 A 
HETATM   24  C   UNL     1      -5.130  -1.488 -33.844  1.00  0.00     0.020 A 
ENDBRANCH  17  18
ENDBRANCH  16  17
ENDBRANCH  15  16
ENDBRANCH  12  15
ENDBRANCH   7  11
BRANCH   6  25
HETATM   25  C   UNL     1      -5.656   4.452 -30.308  1.00  0.00     0.252 C 
HETATM   26  N   UNL     1      -5.451   3.663 -29.214  1.00  0.00    -0.366 N 
HETATM   27  H   UNL     1      -4.523   3.435 -28.880  1.00  0.00     0.159 HD
HETATM   28  H   UNL     1      -6.199   3.637 -28.531  1.00  0.00     0.159 HD
HETATM   29  O   UNL     1      -6.729   5.016 -30.484  1.00  0.00    -0.268 OA
ENDBRANCH   6  25
BRANCH   1  30
HETATM   30  C   UNL     1      -0.405   6.230 -29.362  1.00  0.00     0.273 C 
BRANCH  30  31
HETATM   31  C   UNL     1       0.319   7.009 -28.300  1.00  0.00    -0.033 A 
HETATM   32  C   UNL     1       0.266   6.638 -26.947  1.00  0.00     0.009 A 
HETATM   33  C   UNL     1       0.956   7.380 -25.986  1.00  0.00     0.001 A 
HETATM   34  C   UNL     1       1.717   8.483 -26.365  1.00  0.00     0.000 A 
HETATM   35  C   UNL     1       1.791   8.851 -27.705  1.00  0.00     0.001 A 
HETATM   36  C   UNL     1       1.096   8.120 -28.667  1.00  0.00     0.009 A 
ENDBRANCH  30  31
ENDBRANCH   1  30
TORSDOF 8
ENDMDL
MODEL 4
REMARK VINA RESULT:      -9.0      1.638      2.089
REMARK  8 active torsions:
REMARK  status: ('A' for Active; 'I' for Inactive)
REMARK    1  A    between atoms: C_4  and  C_5 
REMARK    2  A    between atoms: C_5  and  N_6 
REMARK    3  A    between atoms: C_11  and  C_12 
REMARK       I    between atoms: C_12  and  N_13 
REMARK    4  A    between atoms: C_15  and  N_16 
REMARK       I    between atoms: N_16  and  C_17 
REMARK    5  A    between atoms: C_17  and  C_18 
REMARK    6  A    between atoms: C_18  and  C_19 
REMARK    7  A    between atoms: C_19  and  S_20 
REMARK    8  A    between atoms: S_20  and  C_21 
ROOT
HETATM    1  N   UNL     1      -6.681  -0.322 -32.975  1.00  0.00    -0.063 N 
HETATM    2  H   UNL     1      -7.185  -1.105 -32.549  1.00  0.00     0.280 HD
HETATM    3  C   UNL     1      -5.527  -0.011 -32.027  1.00  0.00     0.282 C 
HETATM    4  C   UNL     1      -4.993   1.359 -32.259  1.00  0.00     0.018 C 
HETATM    5  C   UNL     1      -5.619   2.354 -32.981  1.00  0.00    -0.023 C 
HETATM    6  C   UNL     1      -4.794   3.540 -33.084  1.00  0.00     0.073 C 
HETATM    7  C   UNL     1      -3.692   3.440 -32.242  1.00  0.00     0.093 C 
HETATM    8  S   UNL     1      -3.532   1.876 -31.584  1.00  0.00    -0.074 SA
HETATM    9  C   UNL     1      -6.972   2.129 -33.601  1.00  0.00     0.068 C 
HETATM   10  C   UNL     1      -7.650   0.855 -33.052  1.00  0.00     0.240 C 
ENDROOT
BRANCH   7  11
HETATM   11  N   UNL     1      -2.819   4.456 -31.880  1.00  0.00    -0.320 N 
HETATM   12  C   UNL     1      -1.774   4.966 -32.632  1.00  0.00     0.223 C 
HETATM   13  O   UNL     1      -1.556   4.764 -33.822  1.00  0.00    -0.273 OA
HETATM   14  H   UNL     1      -2.936   4.838 -30.944  1.00  0.00     0.169 HD
BRANCH  12  15
HETATM   15  C   UNL     1      -0.858   5.872 -31.828  1.00  0.00     0.113 C 
BRANCH  15  16
HETATM   16  C   UNL     1      -0.834   7.301 -32.355  1.00  0.00     0.088 C 
BRANCH  16  17
HETATM   17  S   UNL     1      -2.289   8.243 -31.766  1.00  0.00    -0.130 SA
BRANCH  17  18
HETATM   18  C   UNL     1      -2.259   8.012 -29.994  1.00  0.00     0.000 A 
HETATM   19  C   UNL     1      -1.213   8.402 -29.152  1.00  0.00     0.020 A 
HETATM   20  C   UNL     1      -1.284   8.170 -27.772  1.00  0.00     0.025 A 
HETATM   21  C   UNL     1      -2.402   7.548 -27.226  1.00  0.00     0.034 A 
HETATM   22 CL   UNL     1      -2.485   7.267 -25.533  1.00  0.00    -0.084 Cl
HETATM   23  C   UNL     1      -3.451   7.152 -28.048  1.00  0.00     0.025 A 
HETATM   24  C   UNL     1      -3.378   7.383 -29.425  1.00  0.00     0.020 A 
ENDBRANCH  17  18
ENDBRANCH  16  17
ENDBRANCH  15  16
ENDBRANCH  12  15
ENDBRANCH   7  11
BRANCH   6  25
HETATM   25  C   UNL     1      -5.129   4.695 -33.916  1.00  0.00     0.252 C 
HETATM   26  N   UNL     1      -5.879   5.668 -33.321  1.00  0.00    -0.366 N 
HETATM   27  H   UNL     1      -5.993   5.723 -32.317  1.00  0.00     0.159 HD
HETATM   28  H   UNL     1      -5.987   6.533 -33.837  1.00  0.00     0.159 HD
HETATM   29  O   UNL     1      -4.698   4.842 -35.053  1.00  0.00    -0.268 OA
ENDBRANCH   6  25
BRANCH   1  30
HETATM   30  C   UNL     1      -6.254  -0.798 -34.347  1.00  0.00     0.273 C 
BRANCH  30  31
HETATM   31  C   UNL     1      -5.825  -2.237 -34.420  1.00  0.00    -0.033 A 
HETATM   32  C   UNL     1      -4.523  -2.636 -34.083  1.00  0.00     0.009 A 
HETATM   33  C   UNL     1      -4.158  -3.983 -34.154  1.00  0.00     0.001 A 
HETATM   34  C   UNL     1      -5.090  -4.942 -34.543  1.00  0.00     0.000 A 
HETATM   35  C   UNL     1      -6.390  -4.560 -34.863  1.00  0.00     0.001 A 
HETATM   36  C   UNL     1      -6.756  -3.216 -34.803  1.00  0.00     0.009 A 
ENDBRANCH  30  31
ENDBRANCH   1  30
TORSDOF 8
ENDMDL
MODEL 5
REMARK VINA RESULT:      -8.7      2.900      3.635
REMARK  8 active torsions:
REMARK  status: ('A' for Active; 'I' for Inactive)
REMARK    1  A    between atoms: C_4  and  C_5 
REMARK    2  A    between atoms: C_5  and  N_6 
REMARK    3  A    between atoms: C_11  and  C_12 
REMARK       I    between atoms: C_12  and  N_13 
REMARK    4  A    between atoms: C_15  and  N_16 
REMARK       I    between atoms: N_16  and  C_17 
REMARK    5  A    between atoms: C_17  and  C_18 
REMARK    6  A    between atoms: C_18  and  C_19 
REMARK    7  A    between atoms: C_19  and  S_20 
REMARK    8  A    between atoms: S_20  and  C_21 
ROOT
HETATM    1  N   UNL     1      -6.439  -0.181 -32.908  1.00  0.00    -0.063 N 
HETATM    2  H   UNL     1      -6.894  -0.979 -32.455  1.00  0.00     0.280 HD
HETATM    3  C   UNL     1      -5.314   0.238 -31.967  1.00  0.00     0.282 C 
HETATM    4  C   UNL     1      -4.869   1.631 -32.245  1.00  0.00     0.018 C 
HETATM    5  C   UNL     1      -5.555   2.557 -33.005  1.00  0.00    -0.023 C 
HETATM    6  C   UNL     1      -4.809   3.790 -33.148  1.00  0.00     0.073 C 
HETATM    7  C   UNL     1      -3.707   3.792 -32.298  1.00  0.00     0.093 C 
HETATM    8  S   UNL     1      -3.449   2.267 -31.585  1.00  0.00    -0.074 SA
HETATM    9  C   UNL     1      -6.886   2.222 -33.622  1.00  0.00     0.068 C 
HETATM   10  C   UNL     1      -7.482   0.927 -33.030  1.00  0.00     0.240 C 
ENDROOT
BRANCH   7  11
HETATM   11  N   UNL     1      -2.904   4.876 -31.970  1.00  0.00    -0.320 N 
HETATM   12  C   UNL     1      -1.801   5.338 -32.667  1.00  0.00     0.223 C 
HETATM   13  O   UNL     1      -1.454   5.014 -33.797  1.00  0.00    -0.273 OA
HETATM   14  H   UNL     1      -3.129   5.355 -31.101  1.00  0.00     0.169 HD
BRANCH  12  15
HETATM   15  C   UNL     1      -0.999   6.363 -31.884  1.00  0.00     0.113 C 
BRANCH  15  16
HETATM   16  C   UNL     1      -0.996   6.088 -30.386  1.00  0.00     0.088 C 
BRANCH  16  17
HETATM   17  S   UNL     1      -1.629   7.530 -29.452  1.00  0.00    -0.130 SA
BRANCH  17  18
HETATM   18  C   UNL     1      -3.388   7.508 -29.773  1.00  0.00     0.000 A 
HETATM   19  C   UNL     1      -4.310   6.677 -29.131  1.00  0.00     0.020 A 
HETATM   20  C   UNL     1      -5.670   6.733 -29.460  1.00  0.00     0.025 A 
HETATM   21  C   UNL     1      -6.116   7.621 -30.433  1.00  0.00     0.034 A 
HETATM   22 CL   UNL     1      -7.786   7.688 -30.833  1.00  0.00    -0.084 Cl
HETATM   23  C   UNL     1      -5.213   8.455 -31.083  1.00  0.00     0.025 A 
HETATM   24  C   UNL     1      -3.856   8.396 -30.754  1.00  0.00     0.020 A 
ENDBRANCH  17  18
ENDBRANCH  16  17
ENDBRANCH  15  16
ENDBRANCH  12  15
ENDBRANCH   7  11
BRANCH   6  25
HETATM   25  C   UNL     1      -5.213   4.891 -34.021  1.00  0.00     0.252 C 
HETATM   26  N   UNL     1      -6.232   5.677 -33.566  1.00  0.00    -0.366 N 
HETATM   27  H   UNL     1      -6.528   5.670 -32.599  1.00  0.00     0.159 HD
HETATM   28  H   UNL     1      -6.415   6.524 -34.091  1.00  0.00     0.159 HD
HETATM   29  O   UNL     1      -4.627   5.162 -35.062  1.00  0.00    -0.268 OA
ENDBRANCH   6  25
BRANCH   1  30
HETATM   30  C   UNL     1      -5.974  -0.676 -34.260  1.00  0.00     0.273 C 
BRANCH  30  31
HETATM   31  C   UNL     1      -5.734  -2.158 -34.350  1.00  0.00    -0.033 A 
HETATM   32  C   UNL     1      -6.736  -3.043 -34.776  1.00  0.00     0.009 A 
HETATM   33  C   UNL     1      -6.479  -4.413 -34.856  1.00  0.00     0.001 A 
HETATM   34  C   UNL     1      -5.218  -4.910 -34.531  1.00  0.00     0.000 A 
HETATM   35  C   UNL     1      -4.211  -4.039 -34.124  1.00  0.00     0.001 A 
HETATM   36  C   UNL     1      -4.466  -2.672 -34.033  1.00  0.00     0.009 A 
ENDBRANCH  30  31
ENDBRANCH   1  30
TORSDOF 8
ENDMDL
MODEL 6
REMARK VINA RESULT:      -8.7      2.462      3.253
REMARK  8 active torsions:
REMARK  status: ('A' for Active; 'I' for Inactive)
REMARK    1  A    between atoms: C_4  and  C_5 
REMARK    2  A    between atoms: C_5  and  N_6 
REMARK    3  A    between atoms: C_11  and  C_12 
REMARK       I    between atoms: C_12  and  N_13 
REMARK    4  A    between atoms: C_15  and  N_16 
REMARK       I    between atoms: N_16  and  C_17 
REMARK    5  A    between atoms: C_17  and  C_18 
REMARK    6  A    between atoms: C_18  and  C_19 
REMARK    7  A    between atoms: C_19  and  S_20 
REMARK    8  A    between atoms: S_20  and  C_21 
ROOT
HETATM    1  N   UNL     1      -6.885  -0.058 -33.411  1.00  0.00    -0.063 N 
HETATM    2  H   UNL     1      -7.583  -0.797 -33.536  1.00  0.00     0.280 HD
HETATM    3  C   UNL     1      -6.854   0.230 -31.913  1.00  0.00     0.282 C 
HETATM    4  C   UNL     1      -6.250   1.561 -31.632  1.00  0.00     0.018 C 
HETATM    5  C   UNL     1      -6.036   2.559 -32.561  1.00  0.00    -0.023 C 
HETATM    6  C   UNL     1      -5.356   3.697 -31.978  1.00  0.00     0.073 C 
HETATM    7  C   UNL     1      -5.302   3.572 -30.593  1.00  0.00     0.093 C 
HETATM    8  S   UNL     1      -5.800   2.029 -30.071  1.00  0.00    -0.074 SA
HETATM    9  C   UNL     1      -6.440   2.379 -34.000  1.00  0.00     0.068 C 
HETATM   10  C   UNL     1      -7.373   1.163 -34.186  1.00  0.00     0.240 C 
ENDROOT
BRANCH   7  11
HETATM   11  N   UNL     1      -4.958   4.556 -29.677  1.00  0.00    -0.320 N 
HETATM   12  C   UNL     1      -5.811   5.238 -28.825  1.00  0.00     0.223 C 
HETATM   13  O   UNL     1      -6.978   4.961 -28.574  1.00  0.00    -0.273 OA
HETATM   14  H   UNL     1      -3.979   4.833 -29.660  1.00  0.00     0.169 HD
BRANCH  12  15
HETATM   15  C   UNL     1      -5.147   6.431 -28.160  1.00  0.00     0.113 C 
BRANCH  15  16
HETATM   16  C   UNL     1      -4.639   7.457 -29.165  1.00  0.00     0.088 C 
BRANCH  16  17
HETATM   17  S   UNL     1      -3.137   8.299 -28.543  1.00  0.00    -0.130 SA
BRANCH  17  18
HETATM   18  C   UNL     1      -1.800   7.245 -29.089  1.00  0.00     0.000 A 
HETATM   19  C   UNL     1      -0.725   6.836 -28.294  1.00  0.00     0.020 A 
HETATM   20  C   UNL     1       0.278   6.012 -28.820  1.00  0.00     0.025 A 
HETATM   21  C   UNL     1       0.211   5.591 -30.144  1.00  0.00     0.034 A 
HETATM   22 CL   UNL     1       1.443   4.579 -30.785  1.00  0.00    -0.084 Cl
HETATM   23  C   UNL     1      -0.850   5.989 -30.950  1.00  0.00     0.025 A 
HETATM   24  C   UNL     1      -1.849   6.813 -30.423  1.00  0.00     0.020 A 
ENDBRANCH  17  18
ENDBRANCH  16  17
ENDBRANCH  15  16
ENDBRANCH  12  15
ENDBRANCH   7  11
BRANCH   6  25
HETATM   25  C   UNL     1      -4.861   4.835 -32.751  1.00  0.00     0.252 C 
HETATM   26  N   UNL     1      -3.551   4.780 -33.131  1.00  0.00    -0.366 N 
HETATM   27  H   UNL     1      -3.018   3.920 -33.107  1.00  0.00     0.159 HD
HETATM   28  H   UNL     1      -3.244   5.486 -33.789  1.00  0.00     0.159 HD
HETATM   29  O   UNL     1      -5.585   5.751 -33.121  1.00  0.00    -0.268 OA
ENDBRANCH   6  25
BRANCH   1  30
HETATM   30  C   UNL     1      -5.590  -0.607 -33.970  1.00  0.00     0.273 C 
BRANCH  30  31
HETATM   31  C   UNL     1      -5.584  -2.087 -34.232  1.00  0.00    -0.033 A 
HETATM   32  C   UNL     1      -6.726  -2.760 -34.692  1.00  0.00     0.009 A 
HETATM   33  C   UNL     1      -6.685  -4.135 -34.932  1.00  0.00     0.001 A 
HETATM   34  C   UNL     1      -5.503  -4.847 -34.734  1.00  0.00     0.000 A 
HETATM   35  C   UNL     1      -4.359  -4.187 -34.294  1.00  0.00     0.001 A 
HETATM   36  C   UNL     1      -4.398  -2.816 -34.043  1.00  0.00     0.009 A 
ENDBRANCH  30  31
ENDBRANCH   1  30
TORSDOF 8
ENDMDL
MODEL 7
REMARK VINA RESULT:      -8.6      2.577      3.395
REMARK  8 active torsions:
REMARK  status: ('A' for Active; 'I' for Inactive)
REMARK    1  A    between atoms: C_4  and  C_5 
REMARK    2  A    between atoms: C_5  and  N_6 
REMARK    3  A    between atoms: C_11  and  C_12 
REMARK       I    between atoms: C_12  and  N_13 
REMARK    4  A    between atoms: C_15  and  N_16 
REMARK       I    between atoms: N_16  and  C_17 
REMARK    5  A    between atoms: C_17  and  C_18 
REMARK    6  A    between atoms: C_18  and  C_19 
REMARK    7  A    between atoms: C_19  and  S_20 
REMARK    8  A    between atoms: S_20  and  C_21 
ROOT
HETATM    1  N   UNL     1      -4.390  -0.551 -32.054  1.00  0.00    -0.063 N 
HETATM    2  H   UNL     1      -3.926  -1.432 -31.815  1.00  0.00     0.280 HD
HETATM    3  C   UNL     1      -3.377   0.545 -31.742  1.00  0.00     0.282 C 
HETATM    4  C   UNL     1      -4.042   1.869 -31.597  1.00  0.00     0.018 C 
HETATM    5  C   UNL     1      -5.397   2.074 -31.436  1.00  0.00    -0.023 C 
HETATM    6  C   UNL     1      -5.726   3.484 -31.409  1.00  0.00     0.073 C 
HETATM    7  C   UNL     1      -4.568   4.251 -31.327  1.00  0.00     0.093 C 
HETATM    8  S   UNL     1      -3.164   3.313 -31.556  1.00  0.00    -0.074 SA
HETATM    9  C   UNL     1      -6.355   0.915 -31.365  1.00  0.00     0.068 C 
HETATM   10  C   UNL     1      -5.617  -0.425 -31.156  1.00  0.00     0.240 C 
ENDROOT
BRANCH   7  11
HETATM   11  N   UNL     1      -4.478   5.605 -31.036  1.00  0.00    -0.320 N 
HETATM   12  C   UNL     1      -4.885   6.237 -29.873  1.00  0.00     0.223 C 
HETATM   13  O   UNL     1      -5.203   5.702 -28.816  1.00  0.00    -0.273 OA
HETATM   14  H   UNL     1      -4.111   6.201 -31.775  1.00  0.00     0.169 HD
BRANCH  12  15
HETATM   15  C   UNL     1      -4.895   7.750 -30.000  1.00  0.00     0.113 C 
BRANCH  15  16
HETATM   16  C   UNL     1      -4.227   8.238 -31.279  1.00  0.00     0.088 C 
BRANCH  16  17
HETATM   17  S   UNL     1      -2.652   9.095 -30.912  1.00  0.00    -0.130 SA
BRANCH  17  18
HETATM   18  C   UNL     1      -1.507   7.762 -30.582  1.00  0.00     0.000 A 
HETATM   19  C   UNL     1      -0.900   6.966 -31.558  1.00  0.00     0.020 A 
HETATM   20  C   UNL     1      -0.020   5.940 -31.194  1.00  0.00     0.025 A 
HETATM   21  C   UNL     1       0.260   5.704 -29.852  1.00  0.00     0.034 A 
HETATM   22 CL   UNL     1       1.343   4.444 -29.410  1.00  0.00    -0.084 Cl
HETATM   23  C   UNL     1      -0.335   6.485 -28.868  1.00  0.00     0.025 A 
HETATM   24  C   UNL     1      -1.215   7.508 -29.233  1.00  0.00     0.020 A 
ENDBRANCH  17  18
ENDBRANCH  16  17
ENDBRANCH  15  16
ENDBRANCH  12  15
ENDBRANCH   7  11
BRANCH   6  25
HETATM   25  C   UNL     1      -7.093   4.002 -31.404  1.00  0.00     0.252 C 
HETATM   26  N   UNL     1      -7.692   4.106 -30.183  1.00  0.00    -0.366 N 
HETATM   27  H   UNL     1      -7.166   4.070 -29.319  1.00  0.00     0.159 HD
HETATM   28  H   UNL     1      -8.576   4.601 -30.155  1.00  0.00     0.159 HD
HETATM   29  O   UNL     1      -7.653   4.408 -32.416  1.00  0.00    -0.268 OA
ENDBRANCH   6  25
BRANCH   1  30
HETATM   30  C   UNL     1      -4.764  -0.661 -33.517  1.00  0.00     0.273 C 
BRANCH  30  31
HETATM   31  C   UNL     1      -5.178  -2.033 -33.970  1.00  0.00    -0.033 A 
HETATM   32  C   UNL     1      -6.467  -2.290 -34.460  1.00  0.00     0.009 A 
HETATM   33  C   UNL     1      -6.818  -3.575 -34.881  1.00  0.00     0.001 A 
HETATM   34  C   UNL     1      -5.884  -4.608 -34.833  1.00  0.00     0.000 A 
HETATM   35  C   UNL     1      -4.596  -4.360 -34.365  1.00  0.00     0.001 A 
HETATM   36  C   UNL     1      -4.245  -3.082 -33.935  1.00  0.00     0.009 A 
ENDBRANCH  30  31
ENDBRANCH   1  30
TORSDOF 8
ENDMDL
MODEL 8
REMARK VINA RESULT:      -8.5      1.662      2.000
REMARK  8 active torsions:
REMARK  status: ('A' for Active; 'I' for Inactive)
REMARK    1  A    between atoms: C_4  and  C_5 
REMARK    2  A    between atoms: C_5  and  N_6 
REMARK    3  A    between atoms: C_11  and  C_12 
REMARK       I    between atoms: C_12  and  N_13 
REMARK    4  A    between atoms: C_15  and  N_16 
REMARK       I    between atoms: N_16  and  C_17 
REMARK    5  A    between atoms: C_17  and  C_18 
REMARK    6  A    between atoms: C_18  and  C_19 
REMARK    7  A    between atoms: C_19  and  S_20 
REMARK    8  A    between atoms: S_20  and  C_21 
ROOT
HETATM    1  N   UNL     1      -6.795  -0.244 -33.071  1.00  0.00    -0.063 N 
HETATM    2  H   UNL     1      -7.358  -1.080 -32.889  1.00  0.00     0.280 HD
HETATM    3  C   UNL     1      -6.222   0.166 -31.718  1.00  0.00     0.282 C 
HETATM    4  C   UNL     1      -5.776   1.587 -31.729  1.00  0.00     0.018 C 
HETATM    5  C   UNL     1      -6.108   2.525 -32.685  1.00  0.00    -0.023 C 
HETATM    6  C   UNL     1      -5.443   3.790 -32.447  1.00  0.00     0.073 C 
HETATM    7  C   UNL     1      -4.828   3.787 -31.199  1.00  0.00     0.093 C 
HETATM    8  S   UNL     1      -4.827   2.237 -30.491  1.00  0.00    -0.074 SA
HETATM    9  C   UNL     1      -7.014   2.175 -33.835  1.00  0.00     0.068 C 
HETATM   10  C   UNL     1      -7.737   0.830 -33.606  1.00  0.00     0.240 C 
ENDROOT
BRANCH   7  11
HETATM   11  N   UNL     1      -4.311   4.880 -30.518  1.00  0.00    -0.320 N 
HETATM   12  C   UNL     1      -5.015   5.798 -29.757  1.00  0.00     0.223 C 
HETATM   13  O   UNL     1      -6.177   5.703 -29.375  1.00  0.00    -0.273 OA
HETATM   14  H   UNL     1      -3.313   5.046 -30.624  1.00  0.00     0.169 HD
BRANCH  12  15
HETATM   15  C   UNL     1      -4.184   7.014 -29.386  1.00  0.00     0.113 C 
BRANCH  15  16
HETATM   16  C   UNL     1      -2.757   6.935 -29.914  1.00  0.00     0.088 C 
BRANCH  16  17
HETATM   17  S   UNL     1      -2.007   8.601 -30.029  1.00  0.00    -0.130 SA
BRANCH  17  18
HETATM   18  C   UNL     1      -0.835   8.635 -28.679  1.00  0.00     0.000 A 
HETATM   19  C   UNL     1      -0.967   9.409 -27.522  1.00  0.00     0.020 A 
HETATM   20  C   UNL     1       0.013   9.370 -26.522  1.00  0.00     0.025 A 
HETATM   21  C   UNL     1       1.130   8.554 -26.673  1.00  0.00     0.034 A 
HETATM   22 CL   UNL     1       2.329   8.507 -25.443  1.00  0.00    -0.084 Cl
HETATM   23  C   UNL     1       1.279   7.779 -27.817  1.00  0.00     0.025 A 
HETATM   24  C   UNL     1       0.300   7.821 -28.815  1.00  0.00     0.020 A 
ENDBRANCH  17  18
ENDBRANCH  16  17
ENDBRANCH  15  16
ENDBRANCH  12  15
ENDBRANCH   7  11
BRANCH   6  25
HETATM   25  C   UNL     1      -5.482   4.918 -33.375  1.00  0.00     0.252 C 
HETATM   26  N   UNL     1      -4.861   4.731 -34.576  1.00  0.00    -0.366 N 
HETATM   27  H   UNL     1      -4.606   3.812 -34.914  1.00  0.00     0.159 HD
HETATM   28  H   UNL     1      -5.012   5.447 -35.277  1.00  0.00     0.159 HD
HETATM   29  O   UNL     1      -6.106   5.947 -33.144  1.00  0.00    -0.268 OA
ENDBRANCH   6  25
BRANCH   1  30
HETATM   30  C   UNL     1      -5.758  -0.653 -34.093  1.00  0.00     0.273 C 
BRANCH  30  31
HETATM   31  C   UNL     1      -5.621  -2.135 -34.309  1.00  0.00    -0.033 A 
HETATM   32  C   UNL     1      -4.397  -2.797 -34.126  1.00  0.00     0.009 A 
HETATM   33  C   UNL     1      -4.305  -4.176 -34.327  1.00  0.00     0.001 A 
HETATM   34  C   UNL     1      -5.433  -4.907 -34.694  1.00  0.00     0.000 A 
HETATM   35  C   UNL     1      -6.656  -4.264 -34.862  1.00  0.00     0.001 A 
HETATM   36  C   UNL     1      -6.750  -2.886 -34.672  1.00  0.00     0.009 A 
ENDBRANCH  30  31
ENDBRANCH   1  30
TORSDOF 8
ENDMDL
MODEL 9
REMARK VINA RESULT:      -8.5      6.471     10.342
REMARK  8 active torsions:
REMARK  status: ('A' for Active; 'I' for Inactive)
REMARK    1  A    between atoms: C_4  and  C_5 
REMARK    2  A    between atoms: C_5  and  N_6 
REMARK    3  A    between atoms: C_11  and  C_12 
REMARK       I    between atoms: C_12  and  N_13 
REMARK    4  A    between atoms: C_15  and  N_16 
REMARK       I    between atoms: N_16  and  C_17 
REMARK    5  A    between atoms: C_17  and  C_18 
REMARK    6  A    between atoms: C_18  and  C_19 
REMARK    7  A    between atoms: C_19  and  S_20 
REMARK    8  A    between atoms: S_20  and  C_21 
ROOT
HETATM    1  N   UNL     1     -13.446   3.856 -33.511  1.00  0.00    -0.063 N 
HETATM    2  H   UNL     1     -14.131   4.569 -33.779  1.00  0.00     0.280 HD
HETATM    3  C   UNL     1     -12.263   4.623 -32.929  1.00  0.00     0.282 C 
HETATM    4  C   UNL     1     -11.030   3.789 -32.923  1.00  0.00     0.018 C 
HETATM    5  C   UNL     1     -10.852   2.613 -33.624  1.00  0.00    -0.023 C 
HETATM    6  C   UNL     1      -9.569   2.007 -33.336  1.00  0.00     0.073 C 
HETATM    7  C   UNL     1      -8.771   2.883 -32.606  1.00  0.00     0.093 C 
HETATM    8  S   UNL     1      -9.645   4.244 -32.069  1.00  0.00    -0.074 SA
HETATM    9  C   UNL     1     -11.936   2.069 -34.515  1.00  0.00     0.068 C 
HETATM   10  C   UNL     1     -13.039   3.117 -34.782  1.00  0.00     0.240 C 
ENDROOT
BRANCH   7  11
HETATM   11  N   UNL     1      -7.411   2.767 -32.356  1.00  0.00    -0.320 N 
HETATM   12  C   UNL     1      -6.375   3.050 -33.229  1.00  0.00     0.223 C 
HETATM   13  O   UNL     1      -6.454   3.645 -34.299  1.00  0.00    -0.273 OA
HETATM   14  H   UNL     1      -7.151   2.395 -31.445  1.00  0.00     0.169 HD
BRANCH  12  15
HETATM   15  C   UNL     1      -5.031   2.551 -32.728  1.00  0.00     0.113 C 
BRANCH  15  16
HETATM   16  C   UNL     1      -5.133   1.218 -31.998  1.00  0.00     0.088 C 
BRANCH  16  17
HETATM   17  S   UNL     1      -3.784   0.088 -32.502  1.00  0.00    -0.130 SA
BRANCH  17  18
HETATM   18  C   UNL     1      -4.626  -1.207 -33.402  1.00  0.00     0.000 A 
HETATM   19  C   UNL     1      -5.910  -1.102 -33.946  1.00  0.00     0.020 A 
HETATM   20  C   UNL     1      -6.484  -2.181 -34.630  1.00  0.00     0.025 A 
HETATM   21  C   UNL     1      -5.778  -3.370 -34.776  1.00  0.00     0.034 A 
HETATM   22 CL   UNL     1      -6.486  -4.691 -35.617  1.00  0.00    -0.084 Cl
HETATM   23  C   UNL     1      -4.501  -3.494 -34.240  1.00  0.00     0.025 A 
HETATM   24  C   UNL     1      -3.930  -2.416 -33.556  1.00  0.00     0.020 A 
ENDBRANCH  17  18
ENDBRANCH  16  17
ENDBRANCH  15  16
ENDBRANCH  12  15
ENDBRANCH   7  11
BRANCH   6  25
HETATM   25  C   UNL     1      -9.167   0.684 -33.811  1.00  0.00     0.252 C 
HETATM   26  N   UNL     1      -8.653   0.630 -35.074  1.00  0.00    -0.366 N 
HETATM   27  H   UNL     1      -8.335   1.457 -35.563  1.00  0.00     0.159 HD
HETATM   28  H   UNL     1      -8.236  -0.251 -35.353  1.00  0.00     0.159 HD
HETATM   29  O   UNL     1      -9.200  -0.314 -33.102  1.00  0.00    -0.268 OA
ENDBRANCH   6  25
BRANCH   1  30
HETATM   30  C   UNL     1     -14.152   2.950 -32.526  1.00  0.00     0.273 C 
BRANCH  30  31
HETATM   31  C   UNL     1     -15.539   3.381 -32.140  1.00  0.00    -0.033 A 
HETATM   32  C   UNL     1     -15.830   4.710 -31.796  1.00  0.00     0.009 A 
HETATM   33  C   UNL     1     -17.131   5.080 -31.449  1.00  0.00     0.001 A 
HETATM   34  C   UNL     1     -18.155   4.134 -31.459  1.00  0.00     0.000 A 
HETATM   35  C   UNL     1     -17.881   2.817 -31.815  1.00  0.00     0.001 A 
HETATM   36  C   UNL     1     -16.582   2.441 -32.153  1.00  0.00     0.009 A 
ENDBRANCH  30  31
ENDBRANCH   1  30
TORSDOF 8
ENDMDL
MODEL 10
REMARK VINA RESULT:      -8.4      6.153      9.133
REMARK  8 active torsions:
REMARK  status: ('A' for Active; 'I' for Inactive)
REMARK    1  A    between atoms: C_4  and  C_5 
REMARK    2  A    between atoms: C_5  and  N_6 
REMARK    3  A    between atoms: C_11  and  C_12 
REMARK       I    between atoms: C_12  and  N_13 
REMARK    4  A    between atoms: C_15  and  N_16 
REMARK       I    between atoms: N_16  and  C_17 
REMARK    5  A    between atoms: C_17  and  C_18 
REMARK    6  A    between atoms: C_18  and  C_19 
REMARK    7  A    between atoms: C_19  and  S_20 
REMARK    8  A    between atoms: S_20  and  C_21 
ROOT
HETATM    1  N   UNL     1      -4.772   0.345 -31.124  1.00  0.00    -0.063 N 
HETATM    2  H   UNL     1      -4.108  -0.004 -30.426  1.00  0.00     0.280 HD
HETATM    3  C   UNL     1      -4.926   1.835 -30.836  1.00  0.00     0.282 C 
HETATM    4  C   UNL     1      -6.172   2.376 -31.446  1.00  0.00     0.018 C 
HETATM    5  C   UNL     1      -7.224   1.623 -31.927  1.00  0.00    -0.023 C 
HETATM    6  C   UNL     1      -8.244   2.454 -32.530  1.00  0.00     0.073 C 
HETATM    7  C   UNL     1      -7.998   3.797 -32.264  1.00  0.00     0.093 C 
HETATM    8  S   UNL     1      -6.463   4.037 -31.564  1.00  0.00    -0.074 SA
HETATM    9  C   UNL     1      -7.203   0.120 -31.845  1.00  0.00     0.068 C 
HETATM   10  C   UNL     1      -6.092  -0.388 -30.902  1.00  0.00     0.240 C 
ENDROOT
BRANCH   7  11
HETATM   11  N   UNL     1      -8.866   4.862 -32.456  1.00  0.00    -0.320 N 
HETATM   12  C   UNL     1      -9.091   5.553 -33.635  1.00  0.00     0.223 C 
HETATM   13  O   UNL     1      -8.730   5.226 -34.761  1.00  0.00    -0.273 OA
HETATM   14  H   UNL     1      -9.358   5.196 -31.630  1.00  0.00     0.169 HD
BRANCH  12  15
HETATM   15  C   UNL     1      -9.890   6.827 -33.426  1.00  0.00     0.113 C 
BRANCH  15  16
HETATM   16  C   UNL     1     -10.687   7.232 -34.659  1.00  0.00     0.088 C 
BRANCH  16  17
HETATM   17  S   UNL     1     -12.486   7.056 -34.365  1.00  0.00    -0.130 SA
BRANCH  17  18
HETATM   18  C   UNL     1     -12.747   5.288 -34.357  1.00  0.00     0.000 A 
HETATM   19  C   UNL     1     -13.254   4.557 -33.278  1.00  0.00     0.020 A 
HETATM   20  C   UNL     1     -13.415   3.169 -33.370  1.00  0.00     0.025 A 
HETATM   21  C   UNL     1     -13.072   2.503 -34.543  1.00  0.00     0.034 A 
HETATM   22 CL   UNL     1     -13.273   0.800 -34.653  1.00  0.00    -0.084 Cl
HETATM   23  C   UNL     1     -12.565   3.213 -35.625  1.00  0.00     0.025 A 
HETATM   24  C   UNL     1     -12.402   4.599 -35.530  1.00  0.00     0.020 A 
ENDBRANCH  17  18
ENDBRANCH  16  17
ENDBRANCH  15  16
ENDBRANCH  12  15
ENDBRANCH   7  11
BRANCH   6  25
HETATM   25  C   UNL     1      -9.398   1.928 -33.258  1.00  0.00     0.252 C 
HETATM   26  N   UNL     1      -9.356   2.043 -34.617  1.00  0.00    -0.366 N 
HETATM   27  H   UNL     1      -8.499   2.245 -35.115  1.00  0.00     0.159 HD
HETATM   28  H   UNL     1     -10.076   1.551 -35.133  1.00  0.00     0.159 HD
HETATM   29  O   UNL     1     -10.318   1.336 -32.706  1.00  0.00    -0.268 OA
ENDBRANCH   6  25
BRANCH   1  30
HETATM   30  C   UNL     1      -4.164   0.026 -32.473  1.00  0.00     0.273 C 
BRANCH  30  31
HETATM   31  C   UNL     1      -3.988  -1.438 -32.766  1.00  0.00    -0.033 A 
HETATM   32  C   UNL     1      -4.554  -2.035 -33.903  1.00  0.00     0.009 A 
HETATM   33  C   UNL     1      -4.366  -3.397 -34.150  1.00  0.00     0.001 A 
HETATM   34  C   UNL     1      -3.600  -4.168 -33.280  1.00  0.00     0.000 A 
HETATM   35  C   UNL     1      -3.019  -3.583 -32.158  1.00  0.00     0.001 A 
HETATM   36  C   UNL     1      -3.212  -2.226 -31.902  1.00  0.00     0.009 A 
ENDBRANCH  30  31
ENDBRANCH   1  30
TORSDOF 8
ENDMDL
