MODEL 1
REMARK VINA RESULT:      -9.0      0.000      0.000
REMARK  6 active torsions:
REMARK  status: ('A' for Active; 'I' for Inactive)
REMARK    1  A    between atoms: O_2  and  C_3 
REMARK    2  A    between atoms: C_3  and  C_4 
REMARK    3  A    between atoms: C_11  and  C_12 
REMARK    4  A    between atoms: C_12  and  S_13 
REMARK    5  A    between atoms: S_13  and  C_14 
REMARK    6  A    between atoms: C_16  and  C_17 
ROOT
HETATM    1  C   UNL     1      -3.851   4.245 -33.387  1.00  0.00     0.041 A 
HETATM    2  C   UNL     1      -5.241   4.127 -33.225  1.00  0.00     0.050 A 
HETATM    3  C   UNL     1      -5.782   3.085 -32.466  1.00  0.00     0.075 A 
HETATM    4  C   UNL     1      -4.913   2.167 -31.869  1.00  0.00     0.061 A 
HETATM    5  C   UNL     1      -5.514   1.063 -31.104  1.00  0.00     0.259 A 
HETATM    6  O   UNL     1      -4.839   0.199 -30.558  1.00  0.00    -0.267 OA
HETATM    7  N   UNL     1      -6.883   1.060 -31.054  1.00  0.00    -0.310 N 
HETATM    8  C   UNL     1      -7.669   1.987 -31.692  1.00  0.00     0.117 A 
HETATM    9  N   UNL     1      -7.180   2.989 -32.354  1.00  0.00    -0.234 NA
HETATM   10  C   UNL     1      -3.528   2.272 -32.012  1.00  0.00     0.020 A 
HETATM   11  C   UNL     1      -2.998   3.315 -32.773  1.00  0.00     0.019 A 
HETATM   12  H   UNL     1      -7.299   0.243 -30.629  1.00  0.00     0.170 HD
ENDROOT
BRANCH   8  13
HETATM   13  C   UNL     1      -9.164   1.786 -31.550  1.00  0.00     0.161 C 
BRANCH  13  14
HETATM   14  S   UNL     1      -9.938   1.371 -33.136  1.00  0.00    -0.083 SA
BRANCH  14  15
HETATM   15  C   UNL     1      -8.718   0.425 -33.891  1.00  0.00     0.185 A 
HETATM   16  N   UNL     1      -8.249  -0.746 -33.544  1.00  0.00    -0.201 NA
HETATM   17  C   UNL     1      -7.229  -0.957 -34.457  1.00  0.00     0.182 A 
HETATM   18  N   UNL     1      -7.107   0.023 -35.371  1.00  0.00    -0.152 NA
HETATM   19  N   UNL     1      -8.059   0.885 -34.983  1.00  0.00    -0.253 N 
HETATM   20  H   UNL     1      -8.189   1.757 -35.480  1.00  0.00     0.191 HD
BRANCH  17  21
HETATM   21  C   UNL     1      -6.347  -2.121 -34.393  1.00  0.00     0.013 A 
HETATM   22  C   UNL     1      -5.036  -1.998 -33.912  1.00  0.00     0.015 A 
HETATM   23  C   UNL     1      -4.179  -3.101 -33.882  1.00  0.00     0.001 A 
HETATM   24  C   UNL     1      -4.625  -4.343 -34.328  1.00  0.00     0.000 A 
HETATM   25  C   UNL     1      -5.927  -4.484 -34.804  1.00  0.00     0.001 A 
HETATM   26  C   UNL     1      -6.783  -3.379 -34.838  1.00  0.00     0.015 A 
ENDBRANCH  17  21
ENDBRANCH  14  15
ENDBRANCH  13  14
ENDBRANCH   8  13
BRANCH   1  27
HETATM   27  C   UNL     1      -3.235   5.324 -34.206  1.00  0.00     0.293 C 
HETATM   28  O   UNL     1      -3.684   5.690 -35.280  1.00  0.00    -0.259 OA
BRANCH  27  29
HETATM   29  O   UNL     1      -2.134   5.824 -33.594  1.00  0.00    -0.323 OA
HETATM   30  C   UNL     1      -1.999   7.241 -33.711  1.00  0.00     0.213 C 
ENDBRANCH  27  29
ENDBRANCH   1  27
TORSDOF 6
ENDMDL
MODEL 2
REMARK VINA RESULT:      -8.8      2.334      3.594
REMARK  6 active torsions:
REMARK  status: ('A' for Active; 'I' for Inactive)
REMARK    1  A    between atoms: O_2  and  C_3 
REMARK    2  A    between atoms: C_3  and  C_4 
REMARK    3  A    between atoms: C_11  and  C_12 
REMARK    4  A    between atoms: C_12  and  S_13 
REMARK    5  A    between atoms: S_13  and  C_14 
REMARK    6  A    between atoms: C_16  and  C_17 
ROOT
HETATM    1  C   UNL     1      -0.883   5.212 -31.851  1.00  0.00     0.041 A 
HETATM    2  C   UNL     1      -2.120   4.676 -31.457  1.00  0.00     0.050 A 
HETATM    3  C   UNL     1      -3.182   4.601 -32.363  1.00  0.00     0.075 A 
HETATM    4  C   UNL     1      -2.988   5.064 -33.667  1.00  0.00     0.061 A 
HETATM    5  C   UNL     1      -4.134   5.002 -34.587  1.00  0.00     0.259 A 
HETATM    6  O   UNL     1      -4.069   5.399 -35.744  1.00  0.00    -0.267 OA
HETATM    7  N   UNL     1      -5.285   4.480 -34.058  1.00  0.00    -0.310 N 
HETATM    8  C   UNL     1      -5.403   4.069 -32.754  1.00  0.00     0.117 A 
HETATM    9  N   UNL     1      -4.411   4.083 -31.918  1.00  0.00    -0.234 NA
HETATM   10  C   UNL     1      -1.763   5.593 -34.080  1.00  0.00     0.020 A 
HETATM   11  C   UNL     1      -0.710   5.666 -33.167  1.00  0.00     0.019 A 
HETATM   12  H   UNL     1      -6.101   4.542 -34.650  1.00  0.00     0.170 HD
ENDROOT
BRANCH   8  13
HETATM   13  C   UNL     1      -6.772   3.561 -32.350  1.00  0.00     0.161 C 
BRANCH  13  14
HETATM   14  S   UNL     1      -6.657   2.055 -31.346  1.00  0.00    -0.083 SA
BRANCH  14  15
HETATM   15  C   UNL     1      -6.594   0.829 -32.548  1.00  0.00     0.185 A 
HETATM   16  N   UNL     1      -6.294  -0.438 -32.419  1.00  0.00    -0.201 NA
HETATM   17  C   UNL     1      -6.313  -0.898 -33.726  1.00  0.00     0.182 A 
HETATM   18  N   UNL     1      -6.668   0.038 -34.625  1.00  0.00    -0.152 NA
HETATM   19  N   UNL     1      -6.834   1.120 -33.850  1.00  0.00    -0.253 N 
HETATM   20  H   UNL     1      -7.082   2.010 -34.265  1.00  0.00     0.191 HD
BRANCH  17  21
HETATM   21  C   UNL     1      -5.939  -2.265 -34.082  1.00  0.00     0.013 A 
HETATM   22  C   UNL     1      -4.632  -2.725 -33.872  1.00  0.00     0.015 A 
HETATM   23  C   UNL     1      -4.261  -4.020 -34.243  1.00  0.00     0.001 A 
HETATM   24  C   UNL     1      -5.196  -4.873 -34.824  1.00  0.00     0.000 A 
HETATM   25  C   UNL     1      -6.501  -4.434 -35.035  1.00  0.00     0.001 A 
HETATM   26  C   UNL     1      -6.871  -3.137 -34.667  1.00  0.00     0.015 A 
ENDBRANCH  17  21
ENDBRANCH  14  15
ENDBRANCH  13  14
ENDBRANCH   8  13
BRANCH   1  27
HETATM   27  C   UNL     1       0.265   5.333 -30.912  1.00  0.00     0.293 C 
HETATM   28  O   UNL     1       1.041   4.420 -30.679  1.00  0.00    -0.259 OA
BRANCH  27  29
HETATM   29  O   UNL     1       0.319   6.577 -30.375  1.00  0.00    -0.323 OA
HETATM   30  C   UNL     1      -0.014   6.624 -28.987  1.00  0.00     0.213 C 
ENDBRANCH  27  29
ENDBRANCH   1  27
TORSDOF 6
ENDMDL
MODEL 3
REMARK VINA RESULT:      -8.3      3.049      4.467
REMARK  6 active torsions:
REMARK  status: ('A' for Active; 'I' for Inactive)
REMARK    1  A    between atoms: O_2  and  C_3 
REMARK    2  A    between atoms: C_3  and  C_4 
REMARK    3  A    between atoms: C_11  and  C_12 
REMARK    4  A    between atoms: C_12  and  S_13 
REMARK    5  A    between atoms: S_13  and  C_14 
REMARK    6  A    between atoms: C_16  and  C_17 
ROOT
HETATM    1  C   UNL     1      -1.358   6.917 -30.252  1.00  0.00     0.041 A 
HETATM    2  C   UNL     1      -2.510   6.193 -30.598  1.00  0.00     0.050 A 
HETATM    3  C   UNL     1      -2.680   5.706 -31.897  1.00  0.00     0.075 A 
HETATM    4  C   UNL     1      -1.681   5.951 -32.843  1.00  0.00     0.061 A 
HETATM    5  C   UNL     1      -1.904   5.454 -34.210  1.00  0.00     0.259 A 
HETATM    6  O   UNL     1      -1.096   5.633 -35.113  1.00  0.00    -0.267 OA
HETATM    7  N   UNL     1      -3.085   4.787 -34.407  1.00  0.00    -0.310 N 
HETATM    8  C   UNL     1      -4.029   4.610 -33.428  1.00  0.00     0.117 A 
HETATM    9  N   UNL     1      -3.861   5.009 -32.206  1.00  0.00    -0.234 NA
HETATM   10  C   UNL     1      -0.525   6.664 -32.517  1.00  0.00     0.020 A 
HETATM   11  C   UNL     1      -0.366   7.147 -31.217  1.00  0.00     0.019 A 
HETATM   12  H   UNL     1      -3.291   4.547 -35.367  1.00  0.00     0.170 HD
ENDROOT
BRANCH   8  13
HETATM   13  C   UNL     1      -5.287   3.882 -33.857  1.00  0.00     0.161 C 
BRANCH  13  14
HETATM   14  S   UNL     1      -5.897   2.775 -32.557  1.00  0.00    -0.083 SA
BRANCH  14  15
HETATM   15  C   UNL     1      -6.144   1.311 -33.422  1.00  0.00     0.185 A 
HETATM   16  N   UNL     1      -5.793   0.093 -33.099  1.00  0.00    -0.201 NA
HETATM   17  C   UNL     1      -6.165  -0.644 -34.211  1.00  0.00     0.182 A 
HETATM   18  N   UNL     1      -6.775   0.082 -35.165  1.00  0.00    -0.152 NA
HETATM   19  N   UNL     1      -6.742   1.316 -34.638  1.00  0.00    -0.253 N 
HETATM   20  H   UNL     1      -7.115   2.101 -35.158  1.00  0.00     0.191 HD
BRANCH  17  21
HETATM   21  C   UNL     1      -5.876  -2.071 -34.339  1.00  0.00     0.013 A 
HETATM   22  C   UNL     1      -4.577  -2.557 -34.134  1.00  0.00     0.015 A 
HETATM   23  C   UNL     1      -4.290  -3.916 -34.290  1.00  0.00     0.001 A 
HETATM   24  C   UNL     1      -5.299  -4.806 -34.647  1.00  0.00     0.000 A 
HETATM   25  C   UNL     1      -6.597  -4.340 -34.849  1.00  0.00     0.001 A 
HETATM   26  C   UNL     1      -6.884  -2.980 -34.697  1.00  0.00     0.015 A 
ENDBRANCH  17  21
ENDBRANCH  14  15
ENDBRANCH  13  14
ENDBRANCH   8  13
BRANCH   1  27
HETATM   27  C   UNL     1      -1.148   7.475 -28.889  1.00  0.00     0.293 C 
HETATM   28  O   UNL     1      -2.063   7.781 -28.141  1.00  0.00    -0.259 OA
BRANCH  27  29
HETATM   29  O   UNL     1       0.174   7.583 -28.611  1.00  0.00    -0.323 OA
HETATM   30  C   UNL     1       0.622   6.713 -27.571  1.00  0.00     0.213 C 
ENDBRANCH  27  29
ENDBRANCH   1  27
TORSDOF 6
ENDMDL
MODEL 4
REMARK VINA RESULT:      -8.3      2.665      4.192
REMARK  6 active torsions:
REMARK  status: ('A' for Active; 'I' for Inactive)
REMARK    1  A    between atoms: O_2  and  C_3 
REMARK    2  A    between atoms: C_3  and  C_4 
REMARK    3  A    between atoms: C_11  and  C_12 
REMARK    4  A    between atoms: C_12  and  S_13 
REMARK    5  A    between atoms: S_13  and  C_14 
REMARK    6  A    between atoms: C_16  and  C_17 
ROOT
HETATM    1  C   UNL     1      -1.132   5.462 -31.903  1.00  0.00     0.041 A 
HETATM    2  C   UNL     1      -2.339   5.420 -31.186  1.00  0.00     0.050 A 
HETATM    3  C   UNL     1      -3.551   5.204 -31.848  1.00  0.00     0.075 A 
HETATM    4  C   UNL     1      -3.538   5.029 -33.234  1.00  0.00     0.061 A 
HETATM    5  C   UNL     1      -4.833   4.837 -33.906  1.00  0.00     0.259 A 
HETATM    6  O   UNL     1      -4.928   4.692 -35.119  1.00  0.00    -0.267 OA
HETATM    7  N   UNL     1      -5.928   4.845 -33.083  1.00  0.00    -0.310 N 
HETATM    8  C   UNL     1      -5.859   5.050 -31.728  1.00  0.00     0.117 A 
HETATM    9  N   UNL     1      -4.738   5.197 -31.094  1.00  0.00    -0.234 NA
HETATM   10  C   UNL     1      -2.348   5.060 -33.964  1.00  0.00     0.020 A 
HETATM   11  C   UNL     1      -1.143   5.278 -33.293  1.00  0.00     0.019 A 
HETATM   12  H   UNL     1      -6.823   4.829 -33.553  1.00  0.00     0.170 HD
ENDROOT
BRANCH   8  13
HETATM   13  C   UNL     1      -7.188   5.064 -31.001  1.00  0.00     0.161 C 
BRANCH  13  14
HETATM   14  S   UNL     1      -7.158   4.001 -29.532  1.00  0.00    -0.083 SA
BRANCH  14  15
HETATM   15  C   UNL     1      -6.726   2.479 -30.202  1.00  0.00     0.185 A 
HETATM   16  N   UNL     1      -6.758   2.089 -31.451  1.00  0.00    -0.201 NA
HETATM   17  C   UNL     1      -6.395   0.754 -31.370  1.00  0.00     0.182 A 
HETATM   18  N   UNL     1      -6.096   0.348 -30.123  1.00  0.00    -0.152 NA
HETATM   19  N   UNL     1      -6.320   1.460 -29.406  1.00  0.00    -0.253 N 
HETATM   20  H   UNL     1      -6.201   1.449 -28.401  1.00  0.00     0.191 HD
BRANCH  17  21
HETATM   21  C   UNL     1      -6.386  -0.128 -32.535  1.00  0.00     0.013 A 
HETATM   22  C   UNL     1      -5.363  -1.070 -32.709  1.00  0.00     0.015 A 
HETATM   23  C   UNL     1      -5.333  -1.892 -33.839  1.00  0.00     0.001 A 
HETATM   24  C   UNL     1      -6.328  -1.785 -34.807  1.00  0.00     0.000 A 
HETATM   25  C   UNL     1      -7.356  -0.857 -34.646  1.00  0.00     0.001 A 
HETATM   26  C   UNL     1      -7.384  -0.033 -33.518  1.00  0.00     0.015 A 
ENDBRANCH  17  21
ENDBRANCH  14  15
ENDBRANCH  13  14
ENDBRANCH   8  13
BRANCH   1  27
HETATM   27  C   UNL     1       0.177   5.713 -31.241  1.00  0.00     0.293 C 
HETATM   28  O   UNL     1       0.744   6.794 -31.264  1.00  0.00    -0.259 OA
BRANCH  27  29
HETATM   29  O   UNL     1       0.628   4.593 -30.626  1.00  0.00    -0.323 OA
HETATM   30  C   UNL     1       0.940   4.776 -29.244  1.00  0.00     0.213 C 
ENDBRANCH  27  29
ENDBRANCH   1  27
TORSDOF 6
ENDMDL
MODEL 5
REMARK VINA RESULT:      -8.3      4.660      9.217
REMARK  6 active torsions:
REMARK  status: ('A' for Active; 'I' for Inactive)
REMARK    1  A    between atoms: O_2  and  C_3 
REMARK    2  A    between atoms: C_3  and  C_4 
REMARK    3  A    between atoms: C_11  and  C_12 
REMARK    4  A    between atoms: C_12  and  S_13 
REMARK    5  A    between atoms: S_13  and  C_14 
REMARK    6  A    between atoms: C_16  and  C_17 
ROOT
HETATM    1  C   UNL     1      -5.538  -1.828 -34.317  1.00  0.00     0.041 A 
HETATM    2  C   UNL     1      -4.772  -0.994 -33.487  1.00  0.00     0.050 A 
HETATM    3  C   UNL     1      -5.156   0.330 -33.260  1.00  0.00     0.075 A 
HETATM    4  C   UNL     1      -6.319   0.807 -33.872  1.00  0.00     0.061 A 
HETATM    5  C   UNL     1      -6.680   2.215 -33.641  1.00  0.00     0.259 A 
HETATM    6  O   UNL     1      -7.670   2.730 -34.146  1.00  0.00    -0.267 OA
HETATM    7  N   UNL     1      -5.825   2.914 -32.830  1.00  0.00    -0.310 N 
HETATM    8  C   UNL     1      -4.685   2.379 -32.286  1.00  0.00     0.117 A 
HETATM    9  N   UNL     1      -4.344   1.137 -32.444  1.00  0.00    -0.234 NA
HETATM   10  C   UNL     1      -7.098  -0.009 -34.696  1.00  0.00     0.020 A 
HETATM   11  C   UNL     1      -6.704  -1.329 -34.917  1.00  0.00     0.019 A 
HETATM   12  H   UNL     1      -6.007   3.906 -32.763  1.00  0.00     0.170 HD
ENDROOT
BRANCH   8  13
HETATM   13  C   UNL     1      -3.850   3.329 -31.452  1.00  0.00     0.161 C 
BRANCH  13  14
HETATM   14  S   UNL     1      -2.512   4.073 -32.422  1.00  0.00    -0.083 SA
BRANCH  14  15
HETATM   15  C   UNL     1      -1.969   5.325 -31.378  1.00  0.00     0.185 A 
HETATM   16  N   UNL     1      -0.973   5.318 -30.530  1.00  0.00    -0.201 NA
HETATM   17  C   UNL     1      -1.080   6.553 -29.912  1.00  0.00     0.182 A 
HETATM   18  N   UNL     1      -2.072   7.319 -30.399  1.00  0.00    -0.152 NA
HETATM   19  N   UNL     1      -2.619   6.513 -31.322  1.00  0.00    -0.253 N 
HETATM   20  H   UNL     1      -3.428   6.818 -31.849  1.00  0.00     0.191 HD
BRANCH  17  21
HETATM   21  C   UNL     1      -0.215   6.953 -28.804  1.00  0.00     0.013 A 
HETATM   22  C   UNL     1      -0.327   6.336 -27.551  1.00  0.00     0.015 A 
HETATM   23  C   UNL     1       0.474   6.740 -26.480  1.00  0.00     0.001 A 
HETATM   24  C   UNL     1       1.403   7.764 -26.652  1.00  0.00     0.000 A 
HETATM   25  C   UNL     1       1.531   8.385 -27.892  1.00  0.00     0.001 A 
HETATM   26  C   UNL     1       0.726   7.983 -28.962  1.00  0.00     0.015 A 
ENDBRANCH  17  21
ENDBRANCH  14  15
ENDBRANCH  13  14
ENDBRANCH   8  13
BRANCH   1  27
HETATM   27  C   UNL     1      -5.151  -3.236 -34.605  1.00  0.00     0.293 C 
HETATM   28  O   UNL     1      -5.852  -4.008 -35.240  1.00  0.00    -0.259 OA
BRANCH  27  29
HETATM   29  O   UNL     1      -3.937  -3.520 -34.075  1.00  0.00    -0.323 OA
HETATM   30  C   UNL     1      -3.773  -4.888 -33.699  1.00  0.00     0.213 C 
ENDBRANCH  27  29
ENDBRANCH   1  27
TORSDOF 6
ENDMDL
MODEL 6
REMARK VINA RESULT:      -8.2      2.358      6.858
REMARK  6 active torsions:
REMARK  status: ('A' for Active; 'I' for Inactive)
REMARK    1  A    between atoms: O_2  and  C_3 
REMARK    2  A    between atoms: C_3  and  C_4 
REMARK    3  A    between atoms: C_11  and  C_12 
REMARK    4  A    between atoms: C_12  and  S_13 
REMARK    5  A    between atoms: S_13  and  C_14 
REMARK    6  A    between atoms: C_16  and  C_17 
ROOT
HETATM    1  C   UNL     1      -4.865  -1.831 -33.760  1.00  0.00     0.041 A 
HETATM    2  C   UNL     1      -6.016  -1.029 -33.832  1.00  0.00     0.050 A 
HETATM    3  C   UNL     1      -6.091   0.171 -33.119  1.00  0.00     0.075 A 
HETATM    4  C   UNL     1      -4.999   0.557 -32.337  1.00  0.00     0.061 A 
HETATM    5  C   UNL     1      -5.122   1.809 -31.573  1.00  0.00     0.259 A 
HETATM    6  O   UNL     1      -4.227   2.224 -30.846  1.00  0.00    -0.267 OA
HETATM    7  N   UNL     1      -6.311   2.473 -31.720  1.00  0.00    -0.310 N 
HETATM    8  C   UNL     1      -7.349   2.011 -32.489  1.00  0.00     0.117 A 
HETATM    9  N   UNL     1      -7.273   0.928 -33.198  1.00  0.00    -0.234 NA
HETATM   10  C   UNL     1      -3.843  -0.222 -32.258  1.00  0.00     0.020 A 
HETATM   11  C   UNL     1      -3.779  -1.420 -32.973  1.00  0.00     0.019 A 
HETATM   12  H   UNL     1      -6.441   3.268 -31.109  1.00  0.00     0.170 HD
ENDROOT
BRANCH   8  13
HETATM   13  C   UNL     1      -8.597   2.870 -32.488  1.00  0.00     0.161 C 
BRANCH  13  14
HETATM   14  S   UNL     1      -8.639   3.992 -33.912  1.00  0.00    -0.083 SA
BRANCH  14  15
HETATM   15  C   UNL     1      -7.207   4.912 -33.684  1.00  0.00     0.185 A 
HETATM   16  N   UNL     1      -6.007   4.703 -34.163  1.00  0.00    -0.201 NA
HETATM   17  C   UNL     1      -5.255   5.702 -33.567  1.00  0.00     0.182 A 
HETATM   18  N   UNL     1      -5.974   6.533 -32.791  1.00  0.00    -0.152 NA
HETATM   19  N   UNL     1      -7.204   6.004 -32.881  1.00  0.00    -0.253 N 
HETATM   20  H   UNL     1      -7.972   6.413 -32.364  1.00  0.00     0.191 HD
BRANCH  17  21
HETATM   21  C   UNL     1      -3.807   5.804 -33.741  1.00  0.00     0.013 A 
HETATM   22  C   UNL     1      -3.045   6.637 -32.911  1.00  0.00     0.015 A 
HETATM   23  C   UNL     1      -1.666   6.764 -33.097  1.00  0.00     0.001 A 
HETATM   24  C   UNL     1      -1.031   6.053 -34.112  1.00  0.00     0.000 A 
HETATM   25  C   UNL     1      -1.773   5.216 -34.943  1.00  0.00     0.001 A 
HETATM   26  C   UNL     1      -3.154   5.093 -34.760  1.00  0.00     0.015 A 
ENDBRANCH  17  21
ENDBRANCH  14  15
ENDBRANCH  13  14
ENDBRANCH   8  13
BRANCH   1  27
HETATM   27  C   UNL     1      -4.753  -3.127 -34.483  1.00  0.00     0.293 C 
HETATM   28  O   UNL     1      -3.856  -3.931 -34.284  1.00  0.00    -0.259 OA
BRANCH  27  29
HETATM   29  O   UNL     1      -5.770  -3.276 -35.367  1.00  0.00    -0.323 OA
HETATM   30  C   UNL     1      -6.603  -4.406 -35.107  1.00  0.00     0.213 C 
ENDBRANCH  27  29
ENDBRANCH   1  27
TORSDOF 6
ENDMDL
MODEL 7
REMARK VINA RESULT:      -8.2      3.226      7.835
REMARK  6 active torsions:
REMARK  status: ('A' for Active; 'I' for Inactive)
REMARK    1  A    between atoms: O_2  and  C_3 
REMARK    2  A    between atoms: C_3  and  C_4 
REMARK    3  A    between atoms: C_11  and  C_12 
REMARK    4  A    between atoms: C_12  and  S_13 
REMARK    5  A    between atoms: S_13  and  C_14 
REMARK    6  A    between atoms: C_16  and  C_17 
ROOT
HETATM    1  C   UNL     1      -4.480  -2.404 -33.663  1.00  0.00     0.041 A 
HETATM    2  C   UNL     1      -5.245  -1.238 -33.825  1.00  0.00     0.050 A 
HETATM    3  C   UNL     1      -4.915  -0.070 -33.132  1.00  0.00     0.075 A 
HETATM    4  C   UNL     1      -3.808  -0.084 -32.280  1.00  0.00     0.061 A 
HETATM    5  C   UNL     1      -3.505   1.152 -31.539  1.00  0.00     0.259 A 
HETATM    6  O   UNL     1      -2.567   1.234 -30.756  1.00  0.00    -0.267 OA
HETATM    7  N   UNL     1      -4.353   2.201 -31.778  1.00  0.00    -0.310 N 
HETATM    8  C   UNL     1      -5.438   2.126 -32.614  1.00  0.00     0.117 A 
HETATM    9  N   UNL     1      -5.724   1.067 -33.304  1.00  0.00    -0.234 NA
HETATM   10  C   UNL     1      -3.030  -1.232 -32.110  1.00  0.00     0.020 A 
HETATM   11  C   UNL     1      -3.370  -2.393 -32.805  1.00  0.00     0.019 A 
HETATM   12  H   UNL     1      -4.217   3.010 -31.187  1.00  0.00     0.170 HD
ENDROOT
BRANCH   8  13
HETATM   13  C   UNL     1      -6.276   3.385 -32.710  1.00  0.00     0.161 C 
BRANCH  13  14
HETATM   14  S   UNL     1      -5.922   4.310 -34.229  1.00  0.00    -0.083 SA
BRANCH  14  15
HETATM   15  C   UNL     1      -4.340   4.906 -33.922  1.00  0.00     0.185 A 
HETATM   16  N   UNL     1      -3.718   5.043 -32.780  1.00  0.00    -0.201 NA
HETATM   17  C   UNL     1      -2.529   5.655 -33.143  1.00  0.00     0.182 A 
HETATM   18  N   UNL     1      -2.396   5.838 -34.469  1.00  0.00    -0.152 NA
HETATM   19  N   UNL     1      -3.560   5.359 -34.934  1.00  0.00    -0.253 N 
HETATM   20  H   UNL     1      -3.764   5.392 -35.925  1.00  0.00     0.191 HD
BRANCH  17  21
HETATM   21  C   UNL     1      -1.539   6.093 -32.161  1.00  0.00     0.013 A 
HETATM   22  C   UNL     1      -0.394   5.324 -31.910  1.00  0.00     0.015 A 
HETATM   23  C   UNL     1       0.536   5.722 -30.946  1.00  0.00     0.001 A 
HETATM   24  C   UNL     1       0.336   6.897 -30.227  1.00  0.00     0.000 A 
HETATM   25  C   UNL     1      -0.793   7.676 -30.468  1.00  0.00     0.001 A 
HETATM   26  C   UNL     1      -1.727   7.276 -31.429  1.00  0.00     0.015 A 
ENDBRANCH  17  21
ENDBRANCH  14  15
ENDBRANCH  13  14
ENDBRANCH   8  13
BRANCH   1  27
HETATM   27  C   UNL     1      -4.811  -3.676 -34.362  1.00  0.00     0.293 C 
HETATM   28  O   UNL     1      -4.319  -4.752 -34.064  1.00  0.00    -0.259 OA
BRANCH  27  29
HETATM   29  O   UNL     1      -5.717  -3.462 -35.347  1.00  0.00    -0.323 OA
HETATM   30  C   UNL     1      -6.716  -4.478 -35.446  1.00  0.00     0.213 C 
ENDBRANCH  27  29
ENDBRANCH   1  27
TORSDOF 6
ENDMDL
MODEL 8
REMARK VINA RESULT:      -8.2      4.024      6.786
REMARK  6 active torsions:
REMARK  status: ('A' for Active; 'I' for Inactive)
REMARK    1  A    between atoms: O_2  and  C_3 
REMARK    2  A    between atoms: C_3  and  C_4 
REMARK    3  A    between atoms: C_11  and  C_12 
REMARK    4  A    between atoms: C_12  and  S_13 
REMARK    5  A    between atoms: S_13  and  C_14 
REMARK    6  A    between atoms: C_16  and  C_17 
ROOT
HETATM    1  C   UNL     1     -12.422   1.481 -34.129  1.00  0.00     0.041 A 
HETATM    2  C   UNL     1     -11.489   1.756 -33.116  1.00  0.00     0.050 A 
HETATM    3  C   UNL     1     -10.591   2.819 -33.246  1.00  0.00     0.075 A 
HETATM    4  C   UNL     1     -10.641   3.604 -34.401  1.00  0.00     0.061 A 
HETATM    5  C   UNL     1      -9.661   4.695 -34.524  1.00  0.00     0.259 A 
HETATM    6  O   UNL     1      -9.613   5.426 -35.505  1.00  0.00    -0.267 OA
HETATM    7  N   UNL     1      -8.796   4.828 -33.470  1.00  0.00    -0.310 N 
HETATM    8  C   UNL     1      -8.795   3.997 -32.378  1.00  0.00     0.117 A 
HETATM    9  N   UNL     1      -9.657   3.041 -32.219  1.00  0.00    -0.234 NA
HETATM   10  C   UNL     1     -11.566   3.351 -35.417  1.00  0.00     0.020 A 
HETATM   11  C   UNL     1     -12.457   2.286 -35.278  1.00  0.00     0.019 A 
HETATM   12  H   UNL     1      -8.052   5.499 -33.603  1.00  0.00     0.170 HD
ENDROOT
BRANCH   8  13
HETATM   13  C   UNL     1      -7.731   4.285 -31.338  1.00  0.00     0.161 C 
BRANCH  13  14
HETATM   14  S   UNL     1      -7.317   2.804 -30.376  1.00  0.00    -0.083 SA
BRANCH  14  15
HETATM   15  C   UNL     1      -6.530   1.826 -31.549  1.00  0.00     0.185 A 
HETATM   16  N   UNL     1      -6.893   0.666 -32.033  1.00  0.00    -0.201 NA
HETATM   17  C   UNL     1      -5.831   0.325 -32.856  1.00  0.00     0.182 A 
HETATM   18  N   UNL     1      -4.872   1.265 -32.921  1.00  0.00    -0.152 NA
HETATM   19  N   UNL     1      -5.340   2.200 -32.080  1.00  0.00    -0.253 N 
HETATM   20  H   UNL     1      -4.801   3.038 -31.899  1.00  0.00     0.191 HD
BRANCH  17  21
HETATM   21  C   UNL     1      -5.756  -0.961 -33.547  1.00  0.00     0.013 A 
HETATM   22  C   UNL     1      -6.918  -1.584 -34.022  1.00  0.00     0.015 A 
HETATM   23  C   UNL     1      -6.853  -2.830 -34.653  1.00  0.00     0.001 A 
HETATM   24  C   UNL     1      -5.625  -3.464 -34.821  1.00  0.00     0.000 A 
HETATM   25  C   UNL     1      -4.460  -2.855 -34.360  1.00  0.00     0.001 A 
HETATM   26  C   UNL     1      -4.525  -1.610 -33.725  1.00  0.00     0.015 A 
ENDBRANCH  17  21
ENDBRANCH  14  15
ENDBRANCH  13  14
ENDBRANCH   8  13
BRANCH   1  27
HETATM   27  C   UNL     1     -13.379   0.345 -34.042  1.00  0.00     0.293 C 
HETATM   28  O   UNL     1     -13.105  -0.725 -33.522  1.00  0.00    -0.259 OA
BRANCH  27  29
HETATM   29  O   UNL     1     -14.566   0.671 -34.608  1.00  0.00    -0.323 OA
HETATM   30  C   UNL     1     -15.511   1.228 -33.694  1.00  0.00     0.213 C 
ENDBRANCH  27  29
ENDBRANCH   1  27
TORSDOF 6
ENDMDL
MODEL 9
REMARK VINA RESULT:      -8.0      2.943      7.210
REMARK  6 active torsions:
REMARK  status: ('A' for Active; 'I' for Inactive)
REMARK    1  A    between atoms: O_2  and  C_3 
REMARK    2  A    between atoms: C_3  and  C_4 
REMARK    3  A    between atoms: C_11  and  C_12 
REMARK    4  A    between atoms: C_12  and  S_13 
REMARK    5  A    between atoms: S_13  and  C_14 
REMARK    6  A    between atoms: C_16  and  C_17 
ROOT
HETATM    1  C   UNL     1      -5.315  -1.541 -33.353  1.00  0.00     0.041 A 
HETATM    2  C   UNL     1      -5.483  -0.429 -32.513  1.00  0.00     0.050 A 
HETATM    3  C   UNL     1      -6.584   0.419 -32.667  1.00  0.00     0.075 A 
HETATM    4  C   UNL     1      -7.514   0.136 -33.671  1.00  0.00     0.061 A 
HETATM    5  C   UNL     1      -8.644   1.065 -33.830  1.00  0.00     0.259 A 
HETATM    6  O   UNL     1      -9.502   0.913 -34.691  1.00  0.00    -0.267 OA
HETATM    7  N   UNL     1      -8.665   2.120 -32.957  1.00  0.00    -0.310 N 
HETATM    8  C   UNL     1      -7.695   2.343 -32.012  1.00  0.00     0.117 A 
HETATM    9  N   UNL     1      -6.698   1.536 -31.821  1.00  0.00    -0.234 NA
HETATM   10  C   UNL     1      -7.368  -0.969 -34.513  1.00  0.00     0.020 A 
HETATM   11  C   UNL     1      -6.265  -1.808 -34.351  1.00  0.00     0.019 A 
HETATM   12  H   UNL     1      -9.373   2.819 -33.138  1.00  0.00     0.170 HD
ENDROOT
BRANCH   8  13
HETATM   13  C   UNL     1      -7.877   3.589 -31.169  1.00  0.00     0.161 C 
BRANCH  13  14
HETATM   14  S   UNL     1      -6.736   3.617 -29.760  1.00  0.00    -0.083 SA
BRANCH  14  15
HETATM   15  C   UNL     1      -5.215   3.808 -30.538  1.00  0.00     0.185 A 
HETATM   16  N   UNL     1      -4.744   4.844 -31.183  1.00  0.00    -0.201 NA
HETATM   17  C   UNL     1      -3.530   4.384 -31.667  1.00  0.00     0.182 A 
HETATM   18  N   UNL     1      -3.235   3.127 -31.287  1.00  0.00    -0.152 NA
HETATM   19  N   UNL     1      -4.323   2.789 -30.578  1.00  0.00    -0.253 N 
HETATM   20  H   UNL     1      -4.401   1.862 -30.178  1.00  0.00     0.191 HD
BRANCH  17  21
HETATM   21  C   UNL     1      -2.679   5.187 -32.543  1.00  0.00     0.013 A 
HETATM   22  C   UNL     1      -2.204   4.662 -33.753  1.00  0.00     0.015 A 
HETATM   23  C   UNL     1      -1.363   5.414 -34.577  1.00  0.00     0.001 A 
HETATM   24  C   UNL     1      -0.990   6.703 -34.203  1.00  0.00     0.000 A 
HETATM   25  C   UNL     1      -1.458   7.242 -33.006  1.00  0.00     0.001 A 
HETATM   26  C   UNL     1      -2.297   6.487 -32.180  1.00  0.00     0.015 A 
ENDBRANCH  17  21
ENDBRANCH  14  15
ENDBRANCH  13  14
ENDBRANCH   8  13
BRANCH   1  27
HETATM   27  C   UNL     1      -4.146  -2.454 -33.240  1.00  0.00     0.293 C 
HETATM   28  O   UNL     1      -3.320  -2.379 -32.344  1.00  0.00    -0.259 OA
BRANCH  27  29
HETATM   29  O   UNL     1      -4.140  -3.358 -34.250  1.00  0.00    -0.323 OA
HETATM   30  C   UNL     1      -3.779  -4.679 -33.845  1.00  0.00     0.213 C 
ENDBRANCH  27  29
ENDBRANCH   1  27
TORSDOF 6
ENDMDL
MODEL 10
REMARK VINA RESULT:      -8.0      4.607      6.056
REMARK  6 active torsions:
REMARK  status: ('A' for Active; 'I' for Inactive)
REMARK    1  A    between atoms: O_2  and  C_3 
REMARK    2  A    between atoms: C_3  and  C_4 
REMARK    3  A    between atoms: C_11  and  C_12 
REMARK    4  A    between atoms: C_12  and  S_13 
REMARK    5  A    between atoms: S_13  and  C_14 
REMARK    6  A    between atoms: C_16  and  C_17 
ROOT
HETATM    1  C   UNL     1      -0.703   8.625 -28.288  1.00  0.00     0.041 A 
HETATM    2  C   UNL     1      -1.821   8.076 -28.938  1.00  0.00     0.050 A 
HETATM    3  C   UNL     1      -1.683   6.961 -29.769  1.00  0.00     0.075 A 
HETATM    4  C   UNL     1      -0.414   6.401 -29.937  1.00  0.00     0.061 A 
HETATM    5  C   UNL     1      -0.296   5.248 -30.845  1.00  0.00     0.259 A 
HETATM    6  O   UNL     1       0.775   4.699 -31.071  1.00  0.00    -0.267 OA
HETATM    7  N   UNL     1      -1.465   4.838 -31.428  1.00  0.00    -0.310 N 
HETATM    8  C   UNL     1      -2.672   5.460 -31.230  1.00  0.00     0.117 A 
HETATM    9  N   UNL     1      -2.824   6.462 -30.421  1.00  0.00    -0.234 NA
HETATM   10  C   UNL     1       0.709   6.928 -29.295  1.00  0.00     0.020 A 
HETATM   11  C   UNL     1       0.560   8.043 -28.469  1.00  0.00     0.019 A 
HETATM   12  H   UNL     1      -1.368   4.123 -32.137  1.00  0.00     0.170 HD
ENDROOT
BRANCH   8  13
HETATM   13  C   UNL     1      -3.841   4.880 -32.000  1.00  0.00     0.161 C 
BRANCH  13  14
HETATM   14  S   UNL     1      -4.854   3.792 -30.961  1.00  0.00    -0.083 SA
BRANCH  14  15
HETATM   15  C   UNL     1      -4.544   2.250 -31.652  1.00  0.00     0.185 A 
HETATM   16  N   UNL     1      -5.279   1.555 -32.481  1.00  0.00    -0.201 NA
HETATM   17  C   UNL     1      -4.573   0.370 -32.606  1.00  0.00     0.182 A 
HETATM   18  N   UNL     1      -3.415   0.353 -31.922  1.00  0.00    -0.152 NA
HETATM   19  N   UNL     1      -3.427   1.554 -31.325  1.00  0.00    -0.253 N 
HETATM   20  H   UNL     1      -2.674   1.821 -30.704  1.00  0.00     0.191 HD
BRANCH  17  21
HETATM   21  C   UNL     1      -5.076  -0.765 -33.379  1.00  0.00     0.013 A 
HETATM   22  C   UNL     1      -6.436  -0.861 -33.703  1.00  0.00     0.015 A 
HETATM   23  C   UNL     1      -6.925  -1.962 -34.411  1.00  0.00     0.001 A 
HETATM   24  C   UNL     1      -6.059  -2.977 -34.809  1.00  0.00     0.000 A 
HETATM   25  C   UNL     1      -4.703  -2.894 -34.501  1.00  0.00     0.001 A 
HETATM   26  C   UNL     1      -4.214  -1.794 -33.788  1.00  0.00     0.015 A 
ENDBRANCH  17  21
ENDBRANCH  14  15
ENDBRANCH  13  14
ENDBRANCH   8  13
BRANCH   1  27
HETATM   27  C   UNL     1      -0.801   9.826 -27.415  1.00  0.00     0.293 C 
HETATM   28  O   UNL     1      -1.761  10.580 -27.417  1.00  0.00    -0.259 OA
BRANCH  27  29
HETATM   29  O   UNL     1       0.303   9.948 -26.638  1.00  0.00    -0.323 OA
HETATM   30  C   UNL     1       0.842  11.270 -26.599  1.00  0.00     0.213 C 
ENDBRANCH  27  29
ENDBRANCH   1  27
TORSDOF 6
ENDMDL
