MODEL 1
REMARK VINA RESULT:      -8.4      0.000      0.000
REMARK  1 active torsions:
REMARK  status: ('A' for Active; 'I' for Inactive)
REMARK    1  A    between atoms: C_8  and  C_9 
ROOT
HETATM    1  C   UNL     1      -8.695   3.648 -30.859  1.00  0.00     0.073 C 
HETATM    2  C   UNL     1      -9.237   3.804 -32.234  1.00  0.00     0.062 C 
HETATM    3  N   UNL     1      -9.151   5.002 -32.824  1.00  0.00    -0.178 NA
HETATM    4  N   UNL     1      -9.672   4.801 -34.038  1.00  0.00    -0.262 N 
HETATM    5  H   UNL     1      -9.698   5.583 -34.681  1.00  0.00     0.191 HD
HETATM    6  C   UNL     1     -10.229   3.563 -34.191  1.00  0.00     0.134 C 
HETATM    7  C   UNL     1      -9.851   2.824 -33.084  1.00  0.00     0.032 C 
HETATM    8  C   UNL     1      -9.955   1.347 -32.819  1.00  0.00     0.120 C 
HETATM    9  S   UNL     1     -11.455   0.457 -33.355  1.00  0.00    -0.141 SA
HETATM   10  C   UNL     1     -12.512   1.797 -33.982  1.00  0.00     0.136 C 
HETATM   11  C   UNL     1     -13.921   1.227 -34.163  1.00  0.00     0.031 C 
HETATM   12  C   UNL     1     -11.991   2.338 -35.318  1.00  0.00     0.236 C 
HETATM   13  O   UNL     1     -12.516   2.073 -36.402  1.00  0.00    -0.272 OA
HETATM   14  N   UNL     1     -10.967   3.250 -35.304  1.00  0.00    -0.311 N 
HETATM   15  H   UNL     1     -10.861   3.772 -36.167  1.00  0.00     0.170 HD
ENDROOT
BRANCH   8  16
HETATM   16  C   UNL     1      -8.684   0.730 -33.426  1.00  0.00    -0.029 A 
HETATM   17  C   UNL     1      -7.550   0.345 -32.635  1.00  0.00    -0.018 A 
HETATM   18  C   UNL     1      -6.400  -0.168 -33.297  1.00  0.00    -0.025 A 
HETATM   19  C   UNL     1      -7.476   0.429 -31.221  1.00  0.00     0.013 A 
HETATM   20  C   UNL     1      -5.255  -0.531 -32.568  1.00  0.00     0.012 A 
HETATM   21  C   UNL     1      -6.390  -0.324 -34.688  1.00  0.00     0.012 A 
HETATM   22  C   UNL     1      -5.213  -0.407 -31.183  1.00  0.00     0.001 A 
HETATM   23  C   UNL     1      -6.328   0.067 -30.509  1.00  0.00     0.001 A 
HETATM   24  C   UNL     1      -7.495   0.021 -35.450  1.00  0.00     0.002 A 
HETATM   25  C   UNL     1      -8.621   0.545 -34.829  1.00  0.00     0.009 A 
ENDBRANCH   8  16
TORSDOF 1
ENDMDL
MODEL 2
REMARK VINA RESULT:      -8.4      2.710      3.782
REMARK  1 active torsions:
REMARK  status: ('A' for Active; 'I' for Inactive)
REMARK    1  A    between atoms: C_8  and  C_9 
ROOT
HETATM    1  C   UNL     1      -3.366   2.885 -32.117  1.00  0.00     0.073 C 
HETATM    2  C   UNL     1      -4.524   3.470 -32.841  1.00  0.00     0.062 C 
HETATM    3  N   UNL     1      -4.299   4.455 -33.719  1.00  0.00    -0.178 NA
HETATM    4  N   UNL     1      -5.509   4.721 -34.221  1.00  0.00    -0.262 N 
HETATM    5  H   UNL     1      -5.582   5.439 -34.932  1.00  0.00     0.191 HD
HETATM    6  C   UNL     1      -6.518   4.055 -33.585  1.00  0.00     0.134 C 
HETATM    7  C   UNL     1      -5.914   3.121 -32.764  1.00  0.00     0.032 C 
HETATM    8  C   UNL     1      -6.504   1.955 -32.018  1.00  0.00     0.120 C 
HETATM    9  S   UNL     1      -8.128   2.155 -31.210  1.00  0.00    -0.141 SA
HETATM   10  C   UNL     1      -8.491   3.916 -31.474  1.00  0.00     0.136 C 
HETATM   11  C   UNL     1      -9.669   4.285 -30.567  1.00  0.00     0.031 C 
HETATM   12  C   UNL     1      -8.849   4.197 -32.936  1.00  0.00     0.236 C 
HETATM   13  O   UNL     1     -10.004   4.400 -33.321  1.00  0.00    -0.272 OA
HETATM   14  N   UNL     1      -7.834   4.345 -33.846  1.00  0.00    -0.311 N 
HETATM   15  H   UNL     1      -8.108   4.799 -34.710  1.00  0.00     0.170 HD
ENDROOT
BRANCH   8  16
HETATM   16  C   UNL     1      -6.511   0.787 -33.019  1.00  0.00    -0.029 A 
HETATM   17  C   UNL     1      -5.576  -0.299 -32.956  1.00  0.00    -0.018 A 
HETATM   18  C   UNL     1      -5.630  -1.305 -33.960  1.00  0.00    -0.025 A 
HETATM   19  C   UNL     1      -4.584  -0.465 -31.955  1.00  0.00     0.013 A 
HETATM   20  C   UNL     1      -4.717  -2.372 -33.957  1.00  0.00     0.012 A 
HETATM   21  C   UNL     1      -6.598  -1.250 -34.971  1.00  0.00     0.012 A 
HETATM   22  C   UNL     1      -3.741  -2.483 -32.972  1.00  0.00     0.001 A 
HETATM   23  C   UNL     1      -3.680  -1.531 -31.967  1.00  0.00     0.001 A 
HETATM   24  C   UNL     1      -7.519  -0.216 -35.017  1.00  0.00     0.002 A 
HETATM   25  C   UNL     1      -7.472   0.789 -34.060  1.00  0.00     0.009 A 
ENDBRANCH   8  16
TORSDOF 1
ENDMDL
MODEL 3
REMARK VINA RESULT:      -8.2      3.641      5.379
REMARK  1 active torsions:
REMARK  status: ('A' for Active; 'I' for Inactive)
REMARK    1  A    between atoms: C_8  and  C_9 
ROOT
HETATM    1  C   UNL     1      -9.059   0.749 -33.621  1.00  0.00     0.073 C 
HETATM    2  C   UNL     1      -8.563   1.492 -32.433  1.00  0.00     0.062 C 
HETATM    3  N   UNL     1      -9.314   1.502 -31.325  1.00  0.00    -0.178 NA
HETATM    4  N   UNL     1      -8.584   2.198 -30.448  1.00  0.00    -0.262 N 
HETATM    5  H   UNL     1      -8.955   2.325 -29.514  1.00  0.00     0.191 HD
HETATM    6  C   UNL     1      -7.470   2.764 -30.998  1.00  0.00     0.134 C 
HETATM    7  C   UNL     1      -7.338   2.220 -32.263  1.00  0.00     0.032 C 
HETATM    8  C   UNL     1      -6.187   2.274 -33.231  1.00  0.00     0.120 C 
HETATM    9  S   UNL     1      -5.253   3.831 -33.405  1.00  0.00    -0.141 SA
HETATM   10  C   UNL     1      -6.187   4.978 -32.349  1.00  0.00     0.136 C 
HETATM   11  C   UNL     1      -5.699   6.395 -32.662  1.00  0.00     0.031 C 
HETATM   12  C   UNL     1      -5.974   4.667 -30.864  1.00  0.00     0.236 C 
HETATM   13  O   UNL     1      -5.252   5.346 -30.130  1.00  0.00    -0.272 OA
HETATM   14  N   UNL     1      -6.706   3.658 -30.292  1.00  0.00    -0.311 N 
HETATM   15  H   UNL     1      -6.734   3.685 -29.279  1.00  0.00     0.170 HD
ENDROOT
BRANCH   8  16
HETATM   16  C   UNL     1      -5.267   1.104 -32.841  1.00  0.00    -0.029 A 
HETATM   17  C   UNL     1      -5.345  -0.188 -33.461  1.00  0.00    -0.018 A 
HETATM   18  C   UNL     1      -4.486  -1.221 -32.994  1.00  0.00    -0.025 A 
HETATM   19  C   UNL     1      -6.218  -0.531 -34.525  1.00  0.00     0.013 A 
HETATM   20  C   UNL     1      -4.545  -2.510 -33.549  1.00  0.00     0.012 A 
HETATM   21  C   UNL     1      -3.563  -0.971 -31.971  1.00  0.00     0.012 A 
HETATM   22  C   UNL     1      -5.436  -2.812 -34.574  1.00  0.00     0.001 A 
HETATM   23  C   UNL     1      -6.268  -1.820 -35.066  1.00  0.00     0.001 A 
HETATM   24  C   UNL     1      -3.468   0.285 -31.391  1.00  0.00     0.002 A 
HETATM   25  C   UNL     1      -4.311   1.303 -31.815  1.00  0.00     0.009 A 
ENDBRANCH   8  16
TORSDOF 1
ENDMDL
MODEL 4
REMARK VINA RESULT:      -8.1      4.167      6.047
REMARK  1 active torsions:
REMARK  status: ('A' for Active; 'I' for Inactive)
REMARK    1  A    between atoms: C_8  and  C_9 
ROOT
HETATM    1  C   UNL     1      -8.803   2.315 -32.152  1.00  0.00     0.073 C 
HETATM    2  C   UNL     1      -7.734   2.842 -31.265  1.00  0.00     0.062 C 
HETATM    3  N   UNL     1      -8.009   3.023 -29.968  1.00  0.00    -0.178 NA
HETATM    4  N   UNL     1      -6.854   3.451 -29.451  1.00  0.00    -0.262 N 
HETATM    5  H   UNL     1      -6.819   3.643 -28.457  1.00  0.00     0.191 HD
HETATM    6  C   UNL     1      -5.897   3.701 -30.393  1.00  0.00     0.134 C 
HETATM    7  C   UNL     1      -6.379   3.189 -31.584  1.00  0.00     0.032 C 
HETATM    8  C   UNL     1      -5.679   2.953 -32.895  1.00  0.00     0.120 C 
HETATM    9  S   UNL     1      -4.476   4.190 -33.490  1.00  0.00    -0.141 SA
HETATM   10  C   UNL     1      -4.620   5.513 -32.252  1.00  0.00     0.136 C 
HETATM   11  C   UNL     1      -3.903   6.746 -32.809  1.00  0.00     0.031 C 
HETATM   12  C   UNL     1      -3.989   5.100 -30.918  1.00  0.00     0.236 C 
HETATM   13  O   UNL     1      -2.895   5.519 -30.531  1.00  0.00    -0.272 OA
HETATM   14  N   UNL     1      -4.717   4.317 -30.060  1.00  0.00    -0.311 N 
HETATM   15  H   UNL     1      -4.376   4.313 -29.106  1.00  0.00     0.170 HD
ENDROOT
BRANCH   8  16
HETATM   16  C   UNL     1      -5.042   1.558 -32.776  1.00  0.00    -0.029 A 
HETATM   17  C   UNL     1      -5.555   0.406 -33.462  1.00  0.00    -0.018 A 
HETATM   18  C   UNL     1      -4.927  -0.852 -33.245  1.00  0.00    -0.025 A 
HETATM   19  C   UNL     1      -6.651   0.413 -34.362  1.00  0.00     0.013 A 
HETATM   20  C   UNL     1      -5.410  -2.012 -33.871  1.00  0.00     0.012 A 
HETATM   21  C   UNL     1      -3.813  -0.956 -32.402  1.00  0.00     0.012 A 
HETATM   22  C   UNL     1      -6.507  -1.967 -34.725  1.00  0.00     0.001 A 
HETATM   23  C   UNL     1      -7.123  -0.751 -34.976  1.00  0.00     0.001 A 
HETATM   24  C   UNL     1      -3.301   0.161 -31.761  1.00  0.00     0.002 A 
HETATM   25  C   UNL     1      -3.910   1.396 -31.940  1.00  0.00     0.009 A 
ENDBRANCH   8  16
TORSDOF 1
ENDMDL
MODEL 5
REMARK VINA RESULT:      -7.8      3.351      4.838
REMARK  1 active torsions:
REMARK  status: ('A' for Active; 'I' for Inactive)
REMARK    1  A    between atoms: C_8  and  C_9 
ROOT
HETATM    1  C   UNL     1      -9.974   1.479 -34.581  1.00  0.00     0.073 C 
HETATM    2  C   UNL     1      -9.383   1.503 -33.218  1.00  0.00     0.062 C 
HETATM    3  N   UNL     1     -10.192   1.330 -32.166  1.00  0.00    -0.178 NA
HETATM    4  N   UNL     1      -9.366   1.358 -31.116  1.00  0.00    -0.262 N 
HETATM    5  H   UNL     1      -9.763   1.229 -30.193  1.00  0.00     0.191 HD
HETATM    6  C   UNL     1      -8.084   1.698 -31.444  1.00  0.00     0.134 C 
HETATM    7  C   UNL     1      -8.013   1.671 -32.825  1.00  0.00     0.032 C 
HETATM    8  C   UNL     1      -6.819   1.717 -33.739  1.00  0.00     0.120 C 
HETATM    9  S   UNL     1      -5.432   2.828 -33.324  1.00  0.00    -0.141 SA
HETATM   10  C   UNL     1      -6.054   3.716 -31.866  1.00  0.00     0.136 C 
HETATM   11  C   UNL     1      -5.120   4.903 -31.615  1.00  0.00     0.031 C 
HETATM   12  C   UNL     1      -6.088   2.807 -30.633  1.00  0.00     0.236 C 
HETATM   13  O   UNL     1      -5.260   2.878 -29.721  1.00  0.00    -0.272 OA
HETATM   14  N   UNL     1      -7.147   1.952 -30.474  1.00  0.00    -0.311 N 
HETATM   15  H   UNL     1      -7.260   1.595 -29.532  1.00  0.00     0.170 HD
ENDROOT
BRANCH   8  16
HETATM   16  C   UNL     1      -6.352   0.258 -33.878  1.00  0.00    -0.029 A 
HETATM   17  C   UNL     1      -5.233  -0.274 -33.154  1.00  0.00    -0.018 A 
HETATM   18  C   UNL     1      -4.846  -1.623 -33.391  1.00  0.00    -0.025 A 
HETATM   19  C   UNL     1      -4.467   0.439 -32.197  1.00  0.00     0.013 A 
HETATM   20  C   UNL     1      -3.741  -2.180 -32.729  1.00  0.00     0.012 A 
HETATM   21  C   UNL     1      -5.563  -2.421 -34.291  1.00  0.00     0.012 A 
HETATM   22  C   UNL     1      -2.998  -1.436 -31.817  1.00  0.00     0.001 A 
HETATM   23  C   UNL     1      -3.366  -0.128 -31.547  1.00  0.00     0.001 A 
HETATM   24  C   UNL     1      -6.661  -1.916 -34.971  1.00  0.00     0.002 A 
HETATM   25  C   UNL     1      -7.045  -0.596 -34.772  1.00  0.00     0.009 A 
ENDBRANCH   8  16
TORSDOF 1
ENDMDL
MODEL 6
REMARK VINA RESULT:      -7.7      4.331      6.161
REMARK  1 active torsions:
REMARK  status: ('A' for Active; 'I' for Inactive)
REMARK    1  A    between atoms: C_8  and  C_9 
ROOT
HETATM    1  C   UNL     1      -8.558   4.772 -30.485  1.00  0.00     0.073 C 
HETATM    2  C   UNL     1      -7.113   4.484 -30.290  1.00  0.00     0.062 C 
HETATM    3  N   UNL     1      -6.619   4.501 -29.046  1.00  0.00    -0.178 NA
HETATM    4  N   UNL     1      -5.336   4.164 -29.205  1.00  0.00    -0.262 N 
HETATM    5  H   UNL     1      -4.755   4.097 -28.377  1.00  0.00     0.191 HD
HETATM    6  C   UNL     1      -4.953   4.086 -30.514  1.00  0.00     0.134 C 
HETATM    7  C   UNL     1      -6.113   4.154 -31.265  1.00  0.00     0.032 C 
HETATM    8  C   UNL     1      -6.343   3.878 -32.726  1.00  0.00     0.120 C 
HETATM    9  S   UNL     1      -5.093   4.428 -33.936  1.00  0.00    -0.141 SA
HETATM   10  C   UNL     1      -3.913   5.346 -32.902  1.00  0.00     0.136 C 
HETATM   11  C   UNL     1      -2.991   6.130 -33.839  1.00  0.00     0.031 C 
HETATM   12  C   UNL     1      -3.086   4.399 -32.027  1.00  0.00     0.236 C 
HETATM   13  O   UNL     1      -1.910   4.114 -32.267  1.00  0.00    -0.272 OA
HETATM   14  N   UNL     1      -3.635   3.933 -30.860  1.00  0.00    -0.311 N 
HETATM   15  H   UNL     1      -2.962   3.556 -30.202  1.00  0.00     0.170 HD
ENDROOT
BRANCH   8  16
HETATM   16  C   UNL     1      -6.597   2.364 -32.823  1.00  0.00    -0.029 A 
HETATM   17  C   UNL     1      -7.908   1.802 -32.976  1.00  0.00    -0.018 A 
HETATM   18  C   UNL     1      -8.045   0.386 -33.004  1.00  0.00    -0.025 A 
HETATM   19  C   UNL     1      -9.106   2.550 -33.112  1.00  0.00     0.013 A 
HETATM   20  C   UNL     1      -9.310  -0.211 -33.122  1.00  0.00     0.012 A 
HETATM   21  C   UNL     1      -6.917  -0.439 -32.914  1.00  0.00     0.012 A 
HETATM   22  C   UNL     1     -10.464   0.560 -33.225  1.00  0.00     0.001 A 
HETATM   23  C   UNL     1     -10.360   1.942 -33.226  1.00  0.00     0.001 A 
HETATM   24  C   UNL     1      -5.647   0.104 -32.794  1.00  0.00     0.002 A 
HETATM   25  C   UNL     1      -5.491   1.483 -32.743  1.00  0.00     0.009 A 
ENDBRANCH   8  16
TORSDOF 1
ENDMDL
MODEL 7
REMARK VINA RESULT:      -7.4      4.052      5.168
REMARK  1 active torsions:
REMARK  status: ('A' for Active; 'I' for Inactive)
REMARK    1  A    between atoms: C_8  and  C_9 
ROOT
HETATM    1  C   UNL     1      -7.180   0.501 -35.358  1.00  0.00     0.073 C 
HETATM    2  C   UNL     1      -7.793   0.670 -34.015  1.00  0.00     0.062 C 
HETATM    3  N   UNL     1      -8.289  -0.408 -33.397  1.00  0.00    -0.178 NA
HETATM    4  N   UNL     1      -8.714   0.061 -32.221  1.00  0.00    -0.262 N 
HETATM    5  H   UNL     1      -9.123  -0.594 -31.565  1.00  0.00     0.191 HD
HETATM    6  C   UNL     1      -8.652   1.422 -32.126  1.00  0.00     0.134 C 
HETATM    7  C   UNL     1      -7.930   1.859 -33.222  1.00  0.00     0.032 C 
HETATM    8  C   UNL     1      -7.337   3.208 -33.522  1.00  0.00     0.120 C 
HETATM    9  S   UNL     1      -8.288   4.706 -33.094  1.00  0.00    -0.141 SA
HETATM   10  C   UNL     1      -9.866   4.021 -32.505  1.00  0.00     0.136 C 
HETATM   11  C   UNL     1     -10.867   5.177 -32.420  1.00  0.00     0.031 C 
HETATM   12  C   UNL     1      -9.710   3.363 -31.131  1.00  0.00     0.236 C 
HETATM   13  O   UNL     1     -10.103   3.886 -30.084  1.00  0.00    -0.272 OA
HETATM   14  N   UNL     1      -9.214   2.086 -31.065  1.00  0.00    -0.311 N 
HETATM   15  H   UNL     1      -9.396   1.612 -30.188  1.00  0.00     0.170 HD
ENDROOT
BRANCH   8  16
HETATM   16  C   UNL     1      -5.953   3.207 -32.852  1.00  0.00    -0.029 A 
HETATM   17  C   UNL     1      -4.814   3.875 -33.416  1.00  0.00    -0.018 A 
HETATM   18  C   UNL     1      -3.563   3.771 -32.747  1.00  0.00    -0.025 A 
HETATM   19  C   UNL     1      -4.828   4.650 -34.603  1.00  0.00     0.013 A 
HETATM   20  C   UNL     1      -2.414   4.382 -33.274  1.00  0.00     0.012 A 
HETATM   21  C   UNL     1      -3.455   3.058 -31.547  1.00  0.00     0.012 A 
HETATM   22  C   UNL     1      -2.465   5.112 -34.458  1.00  0.00     0.001 A 
HETATM   23  C   UNL     1      -3.675   5.251 -35.119  1.00  0.00     0.001 A 
HETATM   24  C   UNL     1      -4.560   2.436 -30.987  1.00  0.00     0.002 A 
HETATM   25  C   UNL     1      -5.787   2.505 -31.633  1.00  0.00     0.009 A 
ENDBRANCH   8  16
TORSDOF 1
ENDMDL
MODEL 8
REMARK VINA RESULT:      -7.3      2.944      4.734
REMARK  1 active torsions:
REMARK  status: ('A' for Active; 'I' for Inactive)
REMARK    1  A    between atoms: C_8  and  C_9 
ROOT
HETATM    1  C   UNL     1     -10.652   2.469 -34.581  1.00  0.00     0.073 C 
HETATM    2  C   UNL     1     -10.666   2.950 -33.175  1.00  0.00     0.062 C 
HETATM    3  N   UNL     1     -11.809   2.873 -32.484  1.00  0.00    -0.178 NA
HETATM    4  N   UNL     1     -11.484   3.330 -31.271  1.00  0.00    -0.262 N 
HETATM    5  H   UNL     1     -12.205   3.350 -30.560  1.00  0.00     0.191 HD
HETATM    6  C   UNL     1     -10.220   3.843 -31.206  1.00  0.00     0.134 C 
HETATM    7  C   UNL     1      -9.595   3.495 -32.390  1.00  0.00     0.032 C 
HETATM    8  C   UNL     1      -8.145   3.568 -32.783  1.00  0.00     0.120 C 
HETATM    9  S   UNL     1      -7.161   5.014 -32.264  1.00  0.00    -0.141 SA
HETATM   10  C   UNL     1      -8.404   6.080 -31.473  1.00  0.00     0.136 C 
HETATM   11  C   UNL     1      -7.773   7.461 -31.284  1.00  0.00     0.031 C 
HETATM   12  C   UNL     1      -8.841   5.514 -30.119  1.00  0.00     0.236 C 
HETATM   13  O   UNL     1      -8.463   5.979 -29.040  1.00  0.00    -0.272 OA
HETATM   14  N   UNL     1      -9.784   4.519 -30.095  1.00  0.00    -0.311 N 
HETATM   15  H   UNL     1     -10.231   4.388 -29.194  1.00  0.00     0.170 HD
ENDROOT
BRANCH   8  16
HETATM   16  C   UNL     1      -7.519   2.252 -32.290  1.00  0.00    -0.029 A 
HETATM   17  C   UNL     1      -7.260   1.139 -33.158  1.00  0.00    -0.018 A 
HETATM   18  C   UNL     1      -6.727  -0.054 -32.596  1.00  0.00    -0.025 A 
HETATM   19  C   UNL     1      -7.487   1.126 -34.559  1.00  0.00     0.013 A 
HETATM   20  C   UNL     1      -6.483  -1.180 -33.400  1.00  0.00     0.012 A 
HETATM   21  C   UNL     1      -6.433  -0.128 -31.229  1.00  0.00     0.012 A 
HETATM   22  C   UNL     1      -6.747  -1.160 -34.766  1.00  0.00     0.001 A 
HETATM   23  C   UNL     1      -7.242  -0.003 -35.346  1.00  0.00     0.001 A 
HETATM   24  C   UNL     1      -6.658   0.956 -30.395  1.00  0.00     0.002 A 
HETATM   25  C   UNL     1      -7.197   2.125 -30.916  1.00  0.00     0.009 A 
ENDBRANCH   8  16
TORSDOF 1
ENDMDL
MODEL 9
REMARK VINA RESULT:      -7.3      5.732      6.822
REMARK  1 active torsions:
REMARK  status: ('A' for Active; 'I' for Inactive)
REMARK    1  A    between atoms: C_8  and  C_9 
ROOT
HETATM    1  C   UNL     1      -4.911   5.744 -29.406  1.00  0.00     0.073 C 
HETATM    2  C   UNL     1      -5.601   5.226 -30.615  1.00  0.00     0.062 C 
HETATM    3  N   UNL     1      -6.785   5.751 -30.952  1.00  0.00    -0.178 NA
HETATM    4  N   UNL     1      -7.109   5.118 -32.083  1.00  0.00    -0.262 N 
HETATM    5  H   UNL     1      -7.979   5.369 -32.538  1.00  0.00     0.191 HD
HETATM    6  C   UNL     1      -6.255   4.099 -32.397  1.00  0.00     0.134 C 
HETATM    7  C   UNL     1      -5.175   4.216 -31.542  1.00  0.00     0.032 C 
HETATM    8  C   UNL     1      -3.831   3.540 -31.573  1.00  0.00     0.120 C 
HETATM    9  S   UNL     1      -3.739   1.778 -32.038  1.00  0.00    -0.141 SA
HETATM   10  C   UNL     1      -5.490   1.316 -32.198  1.00  0.00     0.136 C 
HETATM   11  C   UNL     1      -5.559  -0.212 -32.267  1.00  0.00     0.031 C 
HETATM   12  C   UNL     1      -6.113   1.925 -33.459  1.00  0.00     0.236 C 
HETATM   13  O   UNL     1      -6.348   1.270 -34.478  1.00  0.00    -0.272 OA
HETATM   14  N   UNL     1      -6.536   3.229 -33.420  1.00  0.00    -0.311 N 
HETATM   15  H   UNL     1      -7.179   3.482 -34.162  1.00  0.00     0.170 HD
ENDROOT
BRANCH   8  16
HETATM   16  C   UNL     1      -2.955   4.412 -32.489  1.00  0.00    -0.029 A 
HETATM   17  C   UNL     1      -1.853   5.191 -32.001  1.00  0.00    -0.018 A 
HETATM   18  C   UNL     1      -1.135   6.007 -32.920  1.00  0.00    -0.025 A 
HETATM   19  C   UNL     1      -1.402   5.215 -30.656  1.00  0.00     0.013 A 
HETATM   20  C   UNL     1      -0.068   6.809 -32.485  1.00  0.00     0.012 A 
HETATM   21  C   UNL     1      -1.480   6.023 -34.277  1.00  0.00     0.012 A 
HETATM   22  C   UNL     1       0.325   6.825 -31.150  1.00  0.00     0.001 A 
HETATM   23  C   UNL     1      -0.339   6.021 -30.237  1.00  0.00     0.001 A 
HETATM   24  C   UNL     1      -2.527   5.250 -34.753  1.00  0.00     0.002 A 
HETATM   25  C   UNL     1      -3.255   4.462 -33.872  1.00  0.00     0.009 A 
ENDBRANCH   8  16
TORSDOF 1
ENDMDL
MODEL 10
REMARK VINA RESULT:      -7.2     15.991     18.248
REMARK  1 active torsions:
REMARK  status: ('A' for Active; 'I' for Inactive)
REMARK    1  A    between atoms: C_8  and  C_9 
ROOT
HETATM    1  C   UNL     1      -5.914 -16.179 -42.422  1.00  0.00     0.073 C 
HETATM    2  C   UNL     1      -5.320 -14.975 -41.785  1.00  0.00     0.062 C 
HETATM    3  N   UNL     1      -4.528 -14.187 -42.521  1.00  0.00    -0.178 NA
HETATM    4  N   UNL     1      -4.202 -13.192 -41.690  1.00  0.00    -0.262 N 
HETATM    5  H   UNL     1      -3.607 -12.452 -42.042  1.00  0.00     0.191 HD
HETATM    6  C   UNL     1      -4.628 -13.395 -40.408  1.00  0.00     0.134 C 
HETATM    7  C   UNL     1      -5.481 -14.483 -40.446  1.00  0.00     0.032 C 
HETATM    8  C   UNL     1      -6.429 -15.014 -39.405  1.00  0.00     0.120 C 
HETATM    9  S   UNL     1      -5.904 -15.025 -37.658  1.00  0.00    -0.141 SA
HETATM   10  C   UNL     1      -4.179 -14.460 -37.755  1.00  0.00     0.136 C 
HETATM   11  C   UNL     1      -3.527 -14.734 -36.398  1.00  0.00     0.031 C 
HETATM   12  C   UNL     1      -4.100 -12.965 -38.082  1.00  0.00     0.236 C 
HETATM   13  O   UNL     1      -3.824 -12.106 -37.241  1.00  0.00    -0.272 OA
HETATM   14  N   UNL     1      -4.227 -12.569 -39.388  1.00  0.00    -0.311 N 
HETATM   15  H   UNL     1      -3.891 -11.631 -39.576  1.00  0.00     0.170 HD
ENDROOT
BRANCH   8  16
HETATM   16  C   UNL     1      -7.735 -14.225 -39.598  1.00  0.00    -0.029 A 
HETATM   17  C   UNL     1      -8.890 -14.777 -40.248  1.00  0.00    -0.018 A 
HETATM   18  C   UNL     1     -10.033 -13.949 -40.425  1.00  0.00    -0.025 A 
HETATM   19  C   UNL     1      -8.996 -16.105 -40.734  1.00  0.00     0.013 A 
HETATM   20  C   UNL     1     -11.176 -14.435 -41.080  1.00  0.00     0.012 A 
HETATM   21  C   UNL     1     -10.040 -12.633 -39.946  1.00  0.00     0.012 A 
HETATM   22  C   UNL     1     -11.229 -15.737 -41.567  1.00  0.00     0.001 A 
HETATM   23  C   UNL     1     -10.139 -16.574 -41.387  1.00  0.00     0.001 A 
HETATM   24  C   UNL     1      -8.935 -12.108 -39.294  1.00  0.00     0.002 A 
HETATM   25  C   UNL     1      -7.800 -12.890 -39.128  1.00  0.00     0.009 A 
ENDBRANCH   8  16
TORSDOF 1
ENDMDL
