MODEL 1
REMARK VINA RESULT:      -8.5      0.000      0.000
REMARK  11 active torsions:
REMARK  status: ('A' for Active; 'I' for Inactive)
REMARK    1  A    between atoms: C_2  and  O_3 
REMARK    2  A    between atoms: C_2  and  C_4 
REMARK    3  A    between atoms: C_8  and  C_9 
REMARK    4  A    between atoms: C_12  and  C_13 
REMARK    5  A    between atoms: C_13  and  C_14 
REMARK    6  A    between atoms: C_14  and  N_15 
REMARK    7  A    between atoms: C_14  and  C_29 
REMARK       I    between atoms: N_15  and  C_16 
REMARK    8  A    between atoms: C_16  and  C_17 
REMARK    9  A    between atoms: C_21  and  O_22 
REMARK   10  A    between atoms: O_22  and  C_23 
REMARK   11  A    between atoms: C_29  and  N_30 
ROOT
HETATM    1  C   UNL     1      -5.624   6.162 -31.845  1.00  0.00     0.114 C 
ENDROOT
BRANCH   1   2
HETATM    2  C   UNL     1      -4.970   5.381 -30.674  1.00  0.00     0.065 C 
BRANCH   2   3
HETATM    3  C   UNL     1      -4.678   3.932 -30.987  1.00  0.00    -0.056 A 
HETATM    4  C   UNL     1      -3.720   3.574 -31.946  1.00  0.00     0.008 A 
HETATM    5  C   UNL     1      -3.512   2.233 -32.287  1.00  0.00     0.014 A 
HETATM    6  C   UNL     1      -4.274   1.217 -31.698  1.00  0.00    -0.006 A 
HETATM    7  C   UNL     1      -5.236   1.578 -30.745  1.00  0.00     0.014 A 
HETATM    8  C   UNL     1      -5.439   2.917 -30.394  1.00  0.00     0.008 A 
BRANCH   6   9
HETATM    9  C   UNL     1      -4.121  -0.183 -32.070  1.00  0.00     0.085 A 
HETATM   10  C   UNL     1      -3.299  -1.112 -31.468  1.00  0.00     0.130 A 
HETATM   11  N   UNL     1      -3.462  -2.274 -32.180  1.00  0.00    -0.315 N 
HETATM   12  C   UNL     1      -4.382  -2.007 -33.185  1.00  0.00     0.143 A 
HETATM   13  C   UNL     1      -2.856  -3.509 -31.993  1.00  0.00     0.098 A 
HETATM   14  C   UNL     1      -4.726  -3.074 -34.093  1.00  0.00     0.017 A 
HETATM   15  N   UNL     1      -4.795  -0.754 -33.129  1.00  0.00    -0.228 NA
HETATM   16  C   UNL     1      -4.130  -4.277 -33.887  1.00  0.00     0.015 A 
HETATM   17  C   UNL     1      -3.167  -4.516 -32.823  1.00  0.00     0.018 A 
BRANCH  14  18
HETATM   18  C   UNL     1      -5.730  -2.865 -35.216  1.00  0.00     0.150 C 
HETATM   19  C   UNL     1      -6.483  -4.150 -35.544  1.00  0.00     0.044 C 
BRANCH  18  20
HETATM   20  O   UNL     1      -6.684  -1.858 -34.871  1.00  0.00    -0.391 OA
HETATM   21  H   UNL     1      -6.465  -1.555 -33.974  1.00  0.00     0.210 HD
ENDBRANCH  18  20
ENDBRANCH  14  18
ENDBRANCH   6   9
ENDBRANCH   2   3
ENDBRANCH   1   2
BRANCH   1  22
HETATM   22  N   UNL     1      -6.810   5.418 -32.325  1.00  0.00    -0.350 N 
HETATM   23  C   UNL     1      -6.879   4.797 -33.553  1.00  0.00     0.252 C 
HETATM   24  O   UNL     1      -6.031   4.982 -34.422  1.00  0.00    -0.268 OA
HETATM   25  H   UNL     1      -7.401   5.008 -31.606  1.00  0.00     0.163 HD
BRANCH  23  26
HETATM   26  C   UNL     1      -8.024   3.877 -33.774  1.00  0.00     0.033 A 
HETATM   27  C   UNL     1      -7.887   2.539 -33.392  1.00  0.00     0.043 A 
HETATM   28  C   UNL     1      -8.949   1.652 -33.587  1.00  0.00     0.068 A 
HETATM   29 CL   UNL     1      -8.736   0.014 -33.082  1.00  0.00    -0.081 Cl
HETATM   30  C   UNL     1     -10.141   2.081 -34.189  1.00  0.00     0.091 A 
HETATM   31  C   UNL     1     -10.273   3.423 -34.558  1.00  0.00     0.039 A 
HETATM   32  C   UNL     1      -9.216   4.318 -34.361  1.00  0.00     0.020 A 
BRANCH  30  33
HETATM   33  O   UNL     1     -11.149   1.167 -34.331  1.00  0.00    -0.345 OA
BRANCH  33  34
HETATM   34  C   UNL     1     -12.437   1.510 -33.801  1.00  0.00     0.121 C 
HETATM   35  C   UNL     1     -13.237   2.341 -34.804  1.00  0.00     0.040 C 
HETATM   36  C   UNL     1     -13.158   0.194 -33.524  1.00  0.00     0.040 C 
ENDBRANCH  33  34
ENDBRANCH  30  33
ENDBRANCH  23  26
ENDBRANCH   1  22
BRANCH   1  37
HETATM   37  C   UNL     1      -5.939   7.614 -31.385  1.00  0.00     0.254 C 
BRANCH  37  38
HETATM   38  N   UNL     1      -7.034   8.223 -32.185  1.00  0.00    -0.077 N 
HETATM   39  H   UNL     1      -6.917   8.080 -33.194  1.00  0.00     0.274 HD
HETATM   40  H   UNL     1      -7.941   7.762 -31.951  1.00  0.00     0.274 HD
HETATM   41  H   UNL     1      -7.158   9.224 -32.004  1.00  0.00     0.274 HD
ENDBRANCH  37  38
ENDBRANCH   1  37
TORSDOF 11
ENDMDL
MODEL 2
REMARK VINA RESULT:      -8.4      2.645      7.476
REMARK  11 active torsions:
REMARK  status: ('A' for Active; 'I' for Inactive)
REMARK    1  A    between atoms: C_2  and  O_3 
REMARK    2  A    between atoms: C_2  and  C_4 
REMARK    3  A    between atoms: C_8  and  C_9 
REMARK    4  A    between atoms: C_12  and  C_13 
REMARK    5  A    between atoms: C_13  and  C_14 
REMARK    6  A    between atoms: C_14  and  N_15 
REMARK    7  A    between atoms: C_14  and  C_29 
REMARK       I    between atoms: N_15  and  C_16 
REMARK    8  A    between atoms: C_16  and  C_17 
REMARK    9  A    between atoms: C_21  and  O_22 
REMARK   10  A    between atoms: O_22  and  C_23 
REMARK   11  A    between atoms: C_29  and  N_30 
ROOT
HETATM    1  C   UNL     1      -4.124   4.430 -31.615  1.00  0.00     0.114 C 
ENDROOT
BRANCH   1   2
HETATM    2  C   UNL     1      -5.242   5.235 -32.328  1.00  0.00     0.065 C 
BRANCH   2   3
HETATM    3  C   UNL     1      -6.533   4.469 -32.507  1.00  0.00    -0.056 A 
HETATM    4  C   UNL     1      -6.955   4.044 -33.775  1.00  0.00     0.008 A 
HETATM    5  C   UNL     1      -8.189   3.406 -33.944  1.00  0.00     0.014 A 
HETATM    6  C   UNL     1      -9.045   3.200 -32.855  1.00  0.00    -0.006 A 
HETATM    7  C   UNL     1      -8.623   3.632 -31.590  1.00  0.00     0.014 A 
HETATM    8  C   UNL     1      -7.386   4.261 -31.416  1.00  0.00     0.008 A 
BRANCH   6   9
HETATM    9  C   UNL     1     -10.359   2.588 -33.004  1.00  0.00     0.085 A 
HETATM   10  C   UNL     1     -10.625   1.288 -33.377  1.00  0.00     0.130 A 
HETATM   11  N   UNL     1     -11.994   1.184 -33.418  1.00  0.00    -0.315 N 
HETATM   12  C   UNL     1     -12.505   2.426 -33.063  1.00  0.00     0.143 A 
HETATM   13  C   UNL     1     -12.780   0.087 -33.746  1.00  0.00     0.098 A 
HETATM   14  C   UNL     1     -13.938   2.589 -33.039  1.00  0.00     0.017 A 
HETATM   15  N   UNL     1     -11.534   3.281 -32.804  1.00  0.00    -0.228 NA
HETATM   16  C   UNL     1     -14.689   1.502 -33.353  1.00  0.00     0.015 A 
HETATM   17  C   UNL     1     -14.115   0.217 -33.722  1.00  0.00     0.018 A 
BRANCH  14  18
HETATM   18  C   UNL     1     -14.577   3.914 -32.655  1.00  0.00     0.150 C 
HETATM   19  C   UNL     1     -14.330   4.256 -31.190  1.00  0.00     0.044 C 
BRANCH  18  20
HETATM   20  O   UNL     1     -14.069   4.981 -33.460  1.00  0.00    -0.391 OA
HETATM   21  H   UNL     1     -14.692   5.101 -34.197  1.00  0.00     0.210 HD
ENDBRANCH  18  20
ENDBRANCH  14  18
ENDBRANCH   6   9
ENDBRANCH   2   3
ENDBRANCH   1   2
BRANCH   1  22
HETATM   22  N   UNL     1      -4.040   3.078 -32.210  1.00  0.00    -0.350 N 
HETATM   23  C   UNL     1      -4.528   1.942 -31.601  1.00  0.00     0.252 C 
HETATM   24  O   UNL     1      -4.894   1.940 -30.429  1.00  0.00    -0.268 OA
HETATM   25  H   UNL     1      -4.011   3.038 -33.226  1.00  0.00     0.163 HD
BRANCH  23  26
HETATM   26  C   UNL     1      -4.607   0.716 -32.437  1.00  0.00     0.033 A 
HETATM   27  C   UNL     1      -5.704   0.558 -33.287  1.00  0.00     0.043 A 
HETATM   28  C   UNL     1      -5.803  -0.584 -34.086  1.00  0.00     0.068 A 
HETATM   29 CL   UNL     1      -7.169  -0.723 -35.133  1.00  0.00    -0.081 Cl
HETATM   30  C   UNL     1      -4.827  -1.590 -34.021  1.00  0.00     0.091 A 
HETATM   31  C   UNL     1      -3.728  -1.420 -33.175  1.00  0.00     0.039 A 
HETATM   32  C   UNL     1      -3.620  -0.275 -32.377  1.00  0.00     0.020 A 
BRANCH  30  33
HETATM   33  O   UNL     1      -4.972  -2.673 -34.845  1.00  0.00    -0.345 OA
BRANCH  33  34
HETATM   34  C   UNL     1      -5.556  -3.859 -34.288  1.00  0.00     0.121 C 
HETATM   35  C   UNL     1      -6.693  -4.374 -35.170  1.00  0.00     0.040 C 
HETATM   36  C   UNL     1      -4.442  -4.900 -34.217  1.00  0.00     0.040 C 
ENDBRANCH  33  34
ENDBRANCH  30  33
ENDBRANCH  23  26
ENDBRANCH   1  22
BRANCH   1  37
HETATM   37  C   UNL     1      -2.790   5.228 -31.684  1.00  0.00     0.254 C 
BRANCH  37  38
HETATM   38  N   UNL     1      -1.730   4.608 -30.846  1.00  0.00    -0.077 N 
HETATM   39  H   UNL     1      -1.815   3.588 -30.786  1.00  0.00     0.274 HD
HETATM   40  H   UNL     1      -0.796   4.775 -31.278  1.00  0.00     0.274 HD
HETATM   41  H   UNL     1      -1.689   4.994 -29.897  1.00  0.00     0.274 HD
ENDBRANCH  37  38
ENDBRANCH   1  37
TORSDOF 11
ENDMDL
MODEL 3
REMARK VINA RESULT:      -8.3      3.074      7.522
REMARK  11 active torsions:
REMARK  status: ('A' for Active; 'I' for Inactive)
REMARK    1  A    between atoms: C_2  and  O_3 
REMARK    2  A    between atoms: C_2  and  C_4 
REMARK    3  A    between atoms: C_8  and  C_9 
REMARK    4  A    between atoms: C_12  and  C_13 
REMARK    5  A    between atoms: C_13  and  C_14 
REMARK    6  A    between atoms: C_14  and  N_15 
REMARK    7  A    between atoms: C_14  and  C_29 
REMARK       I    between atoms: N_15  and  C_16 
REMARK    8  A    between atoms: C_16  and  C_17 
REMARK    9  A    between atoms: C_21  and  O_22 
REMARK   10  A    between atoms: O_22  and  C_23 
REMARK   11  A    between atoms: C_29  and  N_30 
ROOT
HETATM    1  C   UNL     1     -11.812   3.779 -32.260  1.00  0.00     0.114 C 
ENDROOT
BRANCH   1   2
HETATM    2  C   UNL     1     -11.163   5.175 -32.060  1.00  0.00     0.065 C 
BRANCH   2   3
HETATM    3  C   UNL     1      -9.679   5.210 -32.339  1.00  0.00    -0.056 A 
HETATM    4  C   UNL     1      -8.754   5.480 -31.321  1.00  0.00     0.008 A 
HETATM    5  C   UNL     1      -7.388   5.589 -31.602  1.00  0.00     0.014 A 
HETATM    6  C   UNL     1      -6.913   5.457 -32.913  1.00  0.00    -0.006 A 
HETATM    7  C   UNL     1      -7.840   5.194 -33.929  1.00  0.00     0.014 A 
HETATM    8  C   UNL     1      -9.205   5.073 -33.650  1.00  0.00     0.008 A 
BRANCH   6   9
HETATM    9  C   UNL     1      -5.504   5.620 -33.248  1.00  0.00     0.085 A 
HETATM   10  C   UNL     1      -4.821   4.989 -34.266  1.00  0.00     0.130 A 
HETATM   11  N   UNL     1      -3.522   5.424 -34.170  1.00  0.00    -0.315 N 
HETATM   12  C   UNL     1      -3.469   6.307 -33.099  1.00  0.00     0.143 A 
HETATM   13  C   UNL     1      -2.425   5.085 -34.951  1.00  0.00     0.098 A 
HETATM   14  C   UNL     1      -2.197   6.906 -32.775  1.00  0.00     0.017 A 
HETATM   15  N   UNL     1      -4.656   6.441 -32.538  1.00  0.00    -0.228 NA
HETATM   16  C   UNL     1      -1.139   6.569 -33.556  1.00  0.00     0.015 A 
HETATM   17  C   UNL     1      -1.235   5.637 -34.669  1.00  0.00     0.018 A 
BRANCH  14  18
HETATM   18  C   UNL     1      -2.056   7.887 -31.622  1.00  0.00     0.150 C 
HETATM   19  C   UNL     1      -0.868   7.540 -30.730  1.00  0.00     0.044 C 
BRANCH  18  20
HETATM   20  O   UNL     1      -1.884   9.223 -32.104  1.00  0.00    -0.391 OA
HETATM   21  H   UNL     1      -0.957   9.306 -32.385  1.00  0.00     0.210 HD
ENDBRANCH  18  20
ENDBRANCH  14  18
ENDBRANCH   6   9
ENDBRANCH   2   3
ENDBRANCH   1   2
BRANCH   1  22
HETATM   22  N   UNL     1     -10.768   2.736 -32.155  1.00  0.00    -0.350 N 
HETATM   23  C   UNL     1     -10.480   1.837 -33.159  1.00  0.00     0.252 C 
HETATM   24  O   UNL     1     -11.204   1.709 -34.142  1.00  0.00    -0.268 OA
HETATM   25  H   UNL     1      -9.990   2.943 -31.533  1.00  0.00     0.163 HD
BRANCH  23  26
HETATM   26  C   UNL     1      -9.238   1.036 -33.004  1.00  0.00     0.033 A 
HETATM   27  C   UNL     1      -8.477   1.203 -31.844  1.00  0.00     0.043 A 
HETATM   28  C   UNL     1      -7.305   0.462 -31.672  1.00  0.00     0.068 A 
HETATM   29 CL   UNL     1      -6.410   0.693 -30.213  1.00  0.00    -0.081 Cl
HETATM   30  C   UNL     1      -6.867  -0.427 -32.664  1.00  0.00     0.091 A 
HETATM   31  C   UNL     1      -7.639  -0.596 -33.817  1.00  0.00     0.039 A 
HETATM   32  C   UNL     1      -8.817   0.139 -33.993  1.00  0.00     0.020 A 
BRANCH  30  33
HETATM   33  O   UNL     1      -5.723  -1.138 -32.424  1.00  0.00    -0.345 OA
BRANCH  33  34
HETATM   34  C   UNL     1      -4.684  -1.080 -33.411  1.00  0.00     0.121 C 
HETATM   35  C   UNL     1      -3.515  -0.225 -32.924  1.00  0.00     0.040 C 
HETATM   36  C   UNL     1      -4.218  -2.516 -33.637  1.00  0.00     0.040 C 
ENDBRANCH  33  34
ENDBRANCH  30  33
ENDBRANCH  23  26
ENDBRANCH   1  22
BRANCH   1  37
HETATM   37  C   UNL     1     -12.978   3.602 -31.246  1.00  0.00     0.254 C 
BRANCH  37  38
HETATM   38  N   UNL     1     -12.517   3.744 -29.841  1.00  0.00    -0.077 N 
HETATM   39  H   UNL     1     -12.692   2.906 -29.276  1.00  0.00     0.274 HD
HETATM   40  H   UNL     1     -11.481   3.871 -29.820  1.00  0.00     0.274 HD
HETATM   41  H   UNL     1     -12.922   4.556 -29.363  1.00  0.00     0.274 HD
ENDBRANCH  37  38
ENDBRANCH   1  37
TORSDOF 11
ENDMDL
MODEL 4
REMARK VINA RESULT:      -8.3      2.325      8.153
REMARK  11 active torsions:
REMARK  status: ('A' for Active; 'I' for Inactive)
REMARK    1  A    between atoms: C_2  and  O_3 
REMARK    2  A    between atoms: C_2  and  C_4 
REMARK    3  A    between atoms: C_8  and  C_9 
REMARK    4  A    between atoms: C_12  and  C_13 
REMARK    5  A    between atoms: C_13  and  C_14 
REMARK    6  A    between atoms: C_14  and  N_15 
REMARK    7  A    between atoms: C_14  and  C_29 
REMARK       I    between atoms: N_15  and  C_16 
REMARK    8  A    between atoms: C_16  and  C_17 
REMARK    9  A    between atoms: C_21  and  O_22 
REMARK   10  A    between atoms: O_22  and  C_23 
REMARK   11  A    between atoms: C_29  and  N_30 
ROOT
HETATM    1  C   UNL     1      -4.188  -1.994 -33.600  1.00  0.00     0.114 C 
ENDROOT
BRANCH   1   2
HETATM    2  C   UNL     1      -5.436  -2.429 -34.413  1.00  0.00     0.065 C 
BRANCH   2   3
HETATM    3  C   UNL     1      -6.572  -1.434 -34.377  1.00  0.00    -0.056 A 
HETATM    4  C   UNL     1      -6.659  -0.396 -35.315  1.00  0.00     0.008 A 
HETATM    5  C   UNL     1      -7.670   0.568 -35.228  1.00  0.00     0.014 A 
HETATM    6  C   UNL     1      -8.604   0.535 -34.185  1.00  0.00    -0.006 A 
HETATM    7  C   UNL     1      -8.511  -0.500 -33.245  1.00  0.00     0.014 A 
HETATM    8  C   UNL     1      -7.508  -1.471 -33.336  1.00  0.00     0.008 A 
BRANCH   6   9
HETATM    9  C   UNL     1      -9.635   1.554 -34.033  1.00  0.00     0.085 A 
HETATM   10  C   UNL     1     -10.842   1.414 -33.383  1.00  0.00     0.130 A 
HETATM   11  N   UNL     1     -11.488   2.616 -33.532  1.00  0.00    -0.315 N 
HETATM   12  C   UNL     1     -10.644   3.441 -34.264  1.00  0.00     0.143 A 
HETATM   13  C   UNL     1     -12.742   3.001 -33.074  1.00  0.00     0.098 A 
HETATM   14  C   UNL     1     -11.097   4.776 -34.572  1.00  0.00     0.017 A 
HETATM   15  N   UNL     1      -9.521   2.819 -34.568  1.00  0.00    -0.228 NA
HETATM   16  C   UNL     1     -12.321   5.136 -34.107  1.00  0.00     0.015 A 
HETATM   17  C   UNL     1     -13.178   4.240 -33.344  1.00  0.00     0.018 A 
BRANCH  14  18
HETATM   18  C   UNL     1     -10.231   5.743 -35.363  1.00  0.00     0.150 C 
HETATM   19  C   UNL     1     -10.823   7.149 -35.375  1.00  0.00     0.044 C 
BRANCH  18  20
HETATM   20  O   UNL     1      -8.911   5.814 -34.818  1.00  0.00    -0.391 OA
HETATM   21  H   UNL     1      -8.313   5.406 -35.467  1.00  0.00     0.210 HD
ENDBRANCH  18  20
ENDBRANCH  14  18
ENDBRANCH   6   9
ENDBRANCH   2   3
ENDBRANCH   1   2
BRANCH   1  22
HETATM   22  N   UNL     1      -4.508  -0.770 -32.832  1.00  0.00    -0.350 N 
HETATM   23  C   UNL     1      -3.628   0.276 -32.657  1.00  0.00     0.252 C 
HETATM   24  O   UNL     1      -2.442   0.184 -32.962  1.00  0.00    -0.268 OA
HETATM   25  H   UNL     1      -5.491  -0.511 -32.794  1.00  0.00     0.163 HD
BRANCH  23  26
HETATM   26  C   UNL     1      -4.187   1.533 -32.096  1.00  0.00     0.033 A 
HETATM   27  C   UNL     1      -5.573   1.642 -31.953  1.00  0.00     0.043 A 
HETATM   28  C   UNL     1      -6.124   2.813 -31.427  1.00  0.00     0.068 A 
HETATM   29 CL   UNL     1      -7.841   2.890 -31.254  1.00  0.00    -0.081 Cl
HETATM   30  C   UNL     1      -5.305   3.893 -31.068  1.00  0.00     0.091 A 
HETATM   31  C   UNL     1      -3.920   3.772 -31.204  1.00  0.00     0.039 A 
HETATM   32  C   UNL     1      -3.360   2.601 -31.726  1.00  0.00     0.020 A 
BRANCH  30  33
HETATM   33  O   UNL     1      -5.907   5.001 -30.538  1.00  0.00    -0.345 OA
BRANCH  33  34
HETATM   34  C   UNL     1      -5.634   6.267 -31.157  1.00  0.00     0.121 C 
HETATM   35  C   UNL     1      -6.163   6.299 -32.590  1.00  0.00     0.040 C 
HETATM   36  C   UNL     1      -6.345   7.324 -30.317  1.00  0.00     0.040 C 
ENDBRANCH  33  34
ENDBRANCH  30  33
ENDBRANCH  23  26
ENDBRANCH   1  22
BRANCH   1  37
HETATM   37  C   UNL     1      -3.710  -3.181 -32.715  1.00  0.00     0.254 C 
BRANCH  37  38
HETATM   38  N   UNL     1      -2.765  -2.737 -31.657  1.00  0.00    -0.077 N 
HETATM   39  H   UNL     1      -1.807  -3.069 -31.813  1.00  0.00     0.274 HD
HETATM   40  H   UNL     1      -2.692  -1.696 -31.662  1.00  0.00     0.274 HD
HETATM   41  H   UNL     1      -3.059  -3.006 -30.712  1.00  0.00     0.274 HD
ENDBRANCH  37  38
ENDBRANCH   1  37
TORSDOF 11
ENDMDL
MODEL 5
REMARK VINA RESULT:      -8.2      2.689      8.131
REMARK  11 active torsions:
REMARK  status: ('A' for Active; 'I' for Inactive)
REMARK    1  A    between atoms: C_2  and  O_3 
REMARK    2  A    between atoms: C_2  and  C_4 
REMARK    3  A    between atoms: C_8  and  C_9 
REMARK    4  A    between atoms: C_12  and  C_13 
REMARK    5  A    between atoms: C_13  and  C_14 
REMARK    6  A    between atoms: C_14  and  N_15 
REMARK    7  A    between atoms: C_14  and  C_29 
REMARK       I    between atoms: N_15  and  C_16 
REMARK    8  A    between atoms: C_16  and  C_17 
REMARK    9  A    between atoms: C_21  and  O_22 
REMARK   10  A    between atoms: O_22  and  C_23 
REMARK   11  A    between atoms: C_29  and  N_30 
ROOT
HETATM    1  C   UNL     1      -4.240  -2.369 -33.848  1.00  0.00     0.114 C 
ENDROOT
BRANCH   1   2
HETATM    2  C   UNL     1      -5.504  -2.613 -34.714  1.00  0.00     0.065 C 
BRANCH   2   3
HETATM    3  C   UNL     1      -6.582  -1.568 -34.538  1.00  0.00    -0.056 A 
HETATM    4  C   UNL     1      -6.627  -0.427 -35.351  1.00  0.00     0.008 A 
HETATM    5  C   UNL     1      -7.580   0.574 -35.131  1.00  0.00     0.014 A 
HETATM    6  C   UNL     1      -8.496   0.473 -34.076  1.00  0.00    -0.006 A 
HETATM    7  C   UNL     1      -8.444  -0.665 -33.261  1.00  0.00     0.014 A 
HETATM    8  C   UNL     1      -7.499  -1.673 -33.485  1.00  0.00     0.008 A 
BRANCH   6   9
HETATM    9  C   UNL     1      -9.464   1.522 -33.786  1.00  0.00     0.085 A 
HETATM   10  C   UNL     1      -9.189   2.844 -33.506  1.00  0.00     0.130 A 
HETATM   11  N   UNL     1     -10.404   3.435 -33.265  1.00  0.00    -0.315 N 
HETATM   12  C   UNL     1     -11.371   2.449 -33.413  1.00  0.00     0.143 A 
HETATM   13  C   UNL     1     -10.686   4.753 -32.928  1.00  0.00     0.098 A 
HETATM   14  C   UNL     1     -12.751   2.813 -33.200  1.00  0.00     0.017 A 
HETATM   15  N   UNL     1     -10.822   1.293 -33.734  1.00  0.00    -0.228 NA
HETATM   16  C   UNL     1     -13.006   4.108 -32.881  1.00  0.00     0.015 A 
HETATM   17  C   UNL     1     -11.964   5.112 -32.733  1.00  0.00     0.018 A 
BRANCH  14  18
HETATM   18  C   UNL     1     -13.870   1.794 -33.349  1.00  0.00     0.150 C 
HETATM   19  C   UNL     1     -15.099   2.185 -32.534  1.00  0.00     0.044 C 
BRANCH  18  20
HETATM   20  O   UNL     1     -14.260   1.657 -34.718  1.00  0.00    -0.391 OA
HETATM   21  H   UNL     1     -13.910   0.805 -35.029  1.00  0.00     0.210 HD
ENDBRANCH  18  20
ENDBRANCH  14  18
ENDBRANCH   6   9
ENDBRANCH   2   3
ENDBRANCH   1   2
BRANCH   1  22
HETATM   22  N   UNL     1      -4.526  -1.310 -32.855  1.00  0.00    -0.350 N 
HETATM   23  C   UNL     1      -3.770  -0.165 -32.718  1.00  0.00     0.252 C 
HETATM   24  O   UNL     1      -2.686  -0.033 -33.279  1.00  0.00    -0.268 OA
HETATM   25  H   UNL     1      -5.497  -1.216 -32.569  1.00  0.00     0.163 HD
BRANCH  23  26
HETATM   26  C   UNL     1      -4.338   0.913 -31.868  1.00  0.00     0.033 A 
HETATM   27  C   UNL     1      -3.746   2.178 -31.912  1.00  0.00     0.043 A 
HETATM   28  C   UNL     1      -4.260   3.211 -31.124  1.00  0.00     0.068 A 
HETATM   29 CL   UNL     1      -3.504   4.760 -31.228  1.00  0.00    -0.081 Cl
HETATM   30  C   UNL     1      -5.346   2.985 -30.266  1.00  0.00     0.091 A 
HETATM   31  C   UNL     1      -5.939   1.720 -30.236  1.00  0.00     0.039 A 
HETATM   32  C   UNL     1      -5.432   0.683 -31.026  1.00  0.00     0.020 A 
BRANCH  30  33
HETATM   33  O   UNL     1      -5.815   4.044 -29.538  1.00  0.00    -0.345 OA
BRANCH  33  34
HETATM   34  C   UNL     1      -7.210   4.363 -29.649  1.00  0.00     0.121 C 
HETATM   35  C   UNL     1      -7.630   5.360 -28.570  1.00  0.00     0.040 C 
HETATM   36  C   UNL     1      -7.405   4.980 -31.032  1.00  0.00     0.040 C 
ENDBRANCH  33  34
ENDBRANCH  30  33
ENDBRANCH  23  26
ENDBRANCH   1  22
BRANCH   1  37
HETATM   37  C   UNL     1      -3.782  -3.714 -33.213  1.00  0.00     0.254 C 
BRANCH  37  38
HETATM   38  N   UNL     1      -3.046  -3.503 -31.940  1.00  0.00    -0.077 N 
HETATM   39  H   UNL     1      -2.159  -3.004 -32.070  1.00  0.00     0.274 HD
HETATM   40  H   UNL     1      -3.607  -2.894 -31.304  1.00  0.00     0.274 HD
HETATM   41  H   UNL     1      -2.865  -4.373 -31.429  1.00  0.00     0.274 HD
ENDBRANCH  37  38
ENDBRANCH   1  37
TORSDOF 11
ENDMDL
MODEL 6
REMARK VINA RESULT:      -8.2      2.698      7.999
REMARK  11 active torsions:
REMARK  status: ('A' for Active; 'I' for Inactive)
REMARK    1  A    between atoms: C_2  and  O_3 
REMARK    2  A    between atoms: C_2  and  C_4 
REMARK    3  A    between atoms: C_8  and  C_9 
REMARK    4  A    between atoms: C_12  and  C_13 
REMARK    5  A    between atoms: C_13  and  C_14 
REMARK    6  A    between atoms: C_14  and  N_15 
REMARK    7  A    between atoms: C_14  and  C_29 
REMARK       I    between atoms: N_15  and  C_16 
REMARK    8  A    between atoms: C_16  and  C_17 
REMARK    9  A    between atoms: C_21  and  O_22 
REMARK   10  A    between atoms: O_22  and  C_23 
REMARK   11  A    between atoms: C_29  and  N_30 
ROOT
HETATM    1  C   UNL     1      -4.397  -1.219 -33.210  1.00  0.00     0.114 C 
ENDROOT
BRANCH   1   2
HETATM    2  C   UNL     1      -5.532  -1.730 -34.137  1.00  0.00     0.065 C 
BRANCH   2   3
HETATM    3  C   UNL     1      -6.740  -0.824 -34.189  1.00  0.00    -0.056 A 
HETATM    4  C   UNL     1      -6.740   0.343 -34.965  1.00  0.00     0.008 A 
HETATM    5  C   UNL     1      -7.832   1.218 -34.946  1.00  0.00     0.014 A 
HETATM    6  C   UNL     1      -8.942   0.962 -34.132  1.00  0.00    -0.006 A 
HETATM    7  C   UNL     1      -8.937  -0.202 -33.353  1.00  0.00     0.014 A 
HETATM    8  C   UNL     1      -7.851  -1.084 -33.377  1.00  0.00     0.008 A 
BRANCH   6   9
HETATM    9  C   UNL     1     -10.071   1.879 -34.047  1.00  0.00     0.085 A 
HETATM   10  C   UNL     1     -10.063   3.226 -34.342  1.00  0.00     0.130 A 
HETATM   11  N   UNL     1     -11.334   3.673 -34.079  1.00  0.00    -0.315 N 
HETATM   12  C   UNL     1     -12.066   2.578 -33.640  1.00  0.00     0.143 A 
HETATM   13  C   UNL     1     -11.855   4.955 -34.201  1.00  0.00     0.098 A 
HETATM   14  C   UNL     1     -13.449   2.783 -33.284  1.00  0.00     0.017 A 
HETATM   15  N   UNL     1     -11.322   1.488 -33.622  1.00  0.00    -0.228 NA
HETATM   16  C   UNL     1     -13.942   4.042 -33.419  1.00  0.00     0.015 A 
HETATM   17  C   UNL     1     -13.141   5.165 -33.880  1.00  0.00     0.018 A 
BRANCH  14  18
HETATM   18  C   UNL     1     -14.321   1.635 -32.801  1.00  0.00     0.150 C 
HETATM   19  C   UNL     1     -15.779   2.058 -32.654  1.00  0.00     0.044 C 
BRANCH  18  20
HETATM   20  O   UNL     1     -14.260   0.529 -33.705  1.00  0.00    -0.391 OA
HETATM   21  H   UNL     1     -14.940   0.679 -34.384  1.00  0.00     0.210 HD
ENDBRANCH  18  20
ENDBRANCH  14  18
ENDBRANCH   6   9
ENDBRANCH   2   3
ENDBRANCH   1   2
BRANCH   1  22
HETATM   22  N   UNL     1      -4.953  -0.232 -32.258  1.00  0.00    -0.350 N 
HETATM   23  C   UNL     1      -4.462   1.048 -32.107  1.00  0.00     0.252 C 
HETATM   24  O   UNL     1      -3.400   1.398 -32.614  1.00  0.00    -0.268 OA
HETATM   25  H   UNL     1      -5.937  -0.341 -32.025  1.00  0.00     0.163 HD
BRANCH  23  26
HETATM   26  C   UNL     1      -5.289   1.992 -31.313  1.00  0.00     0.033 A 
HETATM   27  C   UNL     1      -6.680   1.864 -31.361  1.00  0.00     0.043 A 
HETATM   28  C   UNL     1      -7.482   2.738 -30.623  1.00  0.00     0.068 A 
HETATM   29 CL   UNL     1      -9.194   2.527 -30.703  1.00  0.00    -0.081 Cl
HETATM   30  C   UNL     1      -6.907   3.763 -29.857  1.00  0.00     0.091 A 
HETATM   31  C   UNL     1      -5.516   3.878 -29.805  1.00  0.00     0.039 A 
HETATM   32  C   UNL     1      -4.707   3.002 -30.538  1.00  0.00     0.020 A 
BRANCH  30  33
HETATM   33  O   UNL     1      -7.748   4.571 -29.140  1.00  0.00    -0.345 OA
BRANCH  33  34
HETATM   34  C   UNL     1      -7.648   5.987 -29.349  1.00  0.00     0.121 C 
HETATM   35  C   UNL     1      -8.147   6.371 -30.741  1.00  0.00     0.040 C 
HETATM   36  C   UNL     1      -8.520   6.646 -28.284  1.00  0.00     0.040 C 
ENDBRANCH  33  34
ENDBRANCH  30  33
ENDBRANCH  23  26
ENDBRANCH   1  22
BRANCH   1  37
HETATM   37  C   UNL     1      -3.707  -2.431 -32.523  1.00  0.00     0.254 C 
BRANCH  37  38
HETATM   38  N   UNL     1      -2.584  -2.005 -31.646  1.00  0.00    -0.077 N 
HETATM   39  H   UNL     1      -2.841  -1.980 -30.654  1.00  0.00     0.274 HD
HETATM   40  H   UNL     1      -1.807  -2.699 -31.706  1.00  0.00     0.274 HD
HETATM   41  H   UNL     1      -2.188  -1.097 -31.910  1.00  0.00     0.274 HD
ENDBRANCH  37  38
ENDBRANCH   1  37
TORSDOF 11
ENDMDL
MODEL 7
REMARK VINA RESULT:      -8.1      4.485      6.570
REMARK  11 active torsions:
REMARK  status: ('A' for Active; 'I' for Inactive)
REMARK    1  A    between atoms: C_2  and  O_3 
REMARK    2  A    between atoms: C_2  and  C_4 
REMARK    3  A    between atoms: C_8  and  C_9 
REMARK    4  A    between atoms: C_12  and  C_13 
REMARK    5  A    between atoms: C_13  and  C_14 
REMARK    6  A    between atoms: C_14  and  N_15 
REMARK    7  A    between atoms: C_14  and  C_29 
REMARK       I    between atoms: N_15  and  C_16 
REMARK    8  A    between atoms: C_16  and  C_17 
REMARK    9  A    between atoms: C_21  and  O_22 
REMARK   10  A    between atoms: O_22  and  C_23 
REMARK   11  A    between atoms: C_29  and  N_30 
ROOT
HETATM    1  C   UNL     1     -13.309   2.695 -33.573  1.00  0.00     0.114 C 
ENDROOT
BRANCH   1   2
HETATM    2  C   UNL     1     -12.571   1.672 -34.476  1.00  0.00     0.065 C 
BRANCH   2   3
HETATM    3  C   UNL     1     -11.177   1.327 -34.005  1.00  0.00    -0.056 A 
HETATM    4  C   UNL     1     -10.056   2.017 -34.487  1.00  0.00     0.008 A 
HETATM    5  C   UNL     1      -8.763   1.641 -34.106  1.00  0.00     0.014 A 
HETATM    6  C   UNL     1      -8.556   0.548 -33.254  1.00  0.00    -0.006 A 
HETATM    7  C   UNL     1      -9.678  -0.143 -32.780  1.00  0.00     0.014 A 
HETATM    8  C   UNL     1     -10.972   0.237 -33.150  1.00  0.00     0.008 A 
BRANCH   6   9
HETATM    9  C   UNL     1      -7.222   0.096 -32.882  1.00  0.00     0.085 A 
HETATM   10  C   UNL     1      -6.400   0.651 -31.923  1.00  0.00     0.130 A 
HETATM   11  N   UNL     1      -5.241  -0.083 -31.955  1.00  0.00    -0.315 N 
HETATM   12  C   UNL     1      -5.406  -1.060 -32.929  1.00  0.00     0.143 A 
HETATM   13  C   UNL     1      -4.088   0.067 -31.195  1.00  0.00     0.098 A 
HETATM   14  C   UNL     1      -4.313  -1.970 -33.170  1.00  0.00     0.017 A 
HETATM   15  N   UNL     1      -6.596  -0.970 -33.492  1.00  0.00    -0.228 NA
HETATM   16  C   UNL     1      -3.198  -1.812 -32.410  1.00  0.00     0.015 A 
HETATM   17  C   UNL     1      -3.063  -0.774 -31.400  1.00  0.00     0.018 A 
BRANCH  14  18
HETATM   18  C   UNL     1      -4.415  -3.070 -34.214  1.00  0.00     0.150 C 
HETATM   19  C   UNL     1      -3.655  -4.323 -33.789  1.00  0.00     0.044 C 
BRANCH  18  20
HETATM   20  O   UNL     1      -5.780  -3.428 -34.451  1.00  0.00    -0.391 OA
HETATM   21  H   UNL     1      -5.937  -4.268 -33.987  1.00  0.00     0.210 HD
ENDBRANCH  18  20
ENDBRANCH  14  18
ENDBRANCH   6   9
ENDBRANCH   2   3
ENDBRANCH   1   2
BRANCH   1  22
HETATM   22  N   UNL     1     -13.410   3.989 -34.284  1.00  0.00    -0.350 N 
HETATM   23  C   UNL     1     -12.479   4.999 -34.171  1.00  0.00     0.252 C 
HETATM   24  O   UNL     1     -11.596   4.975 -33.318  1.00  0.00    -0.268 OA
HETATM   25  H   UNL     1     -13.923   3.978 -35.162  1.00  0.00     0.163 HD
BRANCH  23  26
HETATM   26  C   UNL     1     -12.584   6.117 -35.144  1.00  0.00     0.033 A 
HETATM   27  C   UNL     1     -13.820   6.362 -35.748  1.00  0.00     0.043 A 
HETATM   28  C   UNL     1     -13.946   7.407 -36.666  1.00  0.00     0.068 A 
HETATM   29 CL   UNL     1     -15.499   7.680 -37.372  1.00  0.00    -0.081 Cl
HETATM   30  C   UNL     1     -12.839   8.196 -37.012  1.00  0.00     0.091 A 
HETATM   31  C   UNL     1     -11.609   7.951 -36.395  1.00  0.00     0.039 A 
HETATM   32  C   UNL     1     -11.476   6.909 -35.471  1.00  0.00     0.020 A 
BRANCH  30  33
HETATM   33  O   UNL     1     -13.035   9.217 -37.901  1.00  0.00    -0.345 OA
BRANCH  33  34
HETATM   34  C   UNL     1     -12.711   8.974 -39.277  1.00  0.00     0.121 C 
HETATM   35  C   UNL     1     -13.919   9.233 -40.177  1.00  0.00     0.040 C 
HETATM   36  C   UNL     1     -11.581   9.935 -39.634  1.00  0.00     0.040 C 
ENDBRANCH  33  34
ENDBRANCH  30  33
ENDBRANCH  23  26
ENDBRANCH   1  22
BRANCH   1  37
HETATM   37  C   UNL     1     -14.685   2.107 -33.145  1.00  0.00     0.254 C 
BRANCH  37  38
HETATM   38  N   UNL     1     -14.827   2.050 -31.667  1.00  0.00    -0.077 N 
HETATM   39  H   UNL     1     -15.103   2.950 -31.258  1.00  0.00     0.274 HD
HETATM   40  H   UNL     1     -15.594   1.392 -31.411  1.00  0.00     0.274 HD
HETATM   41  H   UNL     1     -13.982   1.716 -31.192  1.00  0.00     0.274 HD
ENDBRANCH  37  38
ENDBRANCH   1  37
TORSDOF 11
ENDMDL
MODEL 8
REMARK VINA RESULT:      -8.1      3.270      7.941
REMARK  11 active torsions:
REMARK  status: ('A' for Active; 'I' for Inactive)
REMARK    1  A    between atoms: C_2  and  O_3 
REMARK    2  A    between atoms: C_2  and  C_4 
REMARK    3  A    between atoms: C_8  and  C_9 
REMARK    4  A    between atoms: C_12  and  C_13 
REMARK    5  A    between atoms: C_13  and  C_14 
REMARK    6  A    between atoms: C_14  and  N_15 
REMARK    7  A    between atoms: C_14  and  C_29 
REMARK       I    between atoms: N_15  and  C_16 
REMARK    8  A    between atoms: C_16  and  C_17 
REMARK    9  A    between atoms: C_21  and  O_22 
REMARK   10  A    between atoms: O_22  and  C_23 
REMARK   11  A    between atoms: C_29  and  N_30 
ROOT
HETATM    1  C   UNL     1      -9.644   3.086 -32.919  1.00  0.00     0.114 C 
ENDROOT
BRANCH   1   2
HETATM    2  C   UNL     1      -8.974   4.390 -33.426  1.00  0.00     0.065 C 
BRANCH   2   3
HETATM    3  C   UNL     1      -7.569   4.601 -32.911  1.00  0.00    -0.056 A 
HETATM    4  C   UNL     1      -7.334   5.077 -31.614  1.00  0.00     0.008 A 
HETATM    5  C   UNL     1      -6.034   5.345 -31.171  1.00  0.00     0.014 A 
HETATM    6  C   UNL     1      -4.936   5.169 -32.023  1.00  0.00    -0.006 A 
HETATM    7  C   UNL     1      -5.174   4.700 -33.322  1.00  0.00     0.014 A 
HETATM    8  C   UNL     1      -6.472   4.421 -33.764  1.00  0.00     0.008 A 
BRANCH   6   9
HETATM    9  C   UNL     1      -3.576   5.491 -31.613  1.00  0.00     0.085 A 
HETATM   10  C   UNL     1      -2.414   4.928 -32.097  1.00  0.00     0.130 A 
HETATM   11  N   UNL     1      -1.393   5.514 -31.391  1.00  0.00    -0.315 N 
HETATM   12  C   UNL     1      -1.975   6.415 -30.509  1.00  0.00     0.143 A 
HETATM   13  C   UNL     1      -0.024   5.295 -31.484  1.00  0.00     0.098 A 
HETATM   14  C   UNL     1      -1.109   7.165 -29.632  1.00  0.00     0.017 A 
HETATM   15  N   UNL     1      -3.289   6.419 -30.635  1.00  0.00    -0.228 NA
HETATM   16  C   UNL     1       0.227   6.943 -29.745  1.00  0.00     0.015 A 
HETATM   17  C   UNL     1       0.799   5.987 -30.681  1.00  0.00     0.018 A 
BRANCH  14  18
HETATM   18  C   UNL     1      -1.666   8.175 -28.642  1.00  0.00     0.150 C 
HETATM   19  C   UNL     1      -1.903   9.533 -29.296  1.00  0.00     0.044 C 
BRANCH  18  20
HETATM   20  O   UNL     1      -2.902   7.720 -28.086  1.00  0.00    -0.391 OA
HETATM   21  H   UNL     1      -2.879   6.748 -28.100  1.00  0.00     0.210 HD
ENDBRANCH  18  20
ENDBRANCH  14  18
ENDBRANCH   6   9
ENDBRANCH   2   3
ENDBRANCH   1   2
BRANCH   1  22
HETATM   22  N   UNL     1      -8.641   1.997 -32.901  1.00  0.00    -0.350 N 
HETATM   23  C   UNL     1      -8.615   0.966 -33.815  1.00  0.00     0.252 C 
HETATM   24  O   UNL     1      -9.542   0.767 -34.595  1.00  0.00    -0.268 OA
HETATM   25  H   UNL     1      -7.739   2.228 -32.493  1.00  0.00     0.163 HD
BRANCH  23  26
HETATM   26  C   UNL     1      -7.401   0.111 -33.824  1.00  0.00     0.033 A 
HETATM   27  C   UNL     1      -6.234   0.603 -33.232  1.00  0.00     0.043 A 
HETATM   28  C   UNL     1      -5.077  -0.181 -33.225  1.00  0.00     0.068 A 
HETATM   29 CL   UNL     1      -3.667   0.466 -32.465  1.00  0.00    -0.081 Cl
HETATM   30  C   UNL     1      -5.064  -1.445 -33.832  1.00  0.00     0.091 A 
HETATM   31  C   UNL     1      -6.238  -1.934 -34.413  1.00  0.00     0.039 A 
HETATM   32  C   UNL     1      -7.401  -1.157 -34.418  1.00  0.00     0.020 A 
BRANCH  30  33
HETATM   33  O   UNL     1      -3.906  -2.170 -33.771  1.00  0.00    -0.345 OA
BRANCH  33  34
HETATM   34  C   UNL     1      -3.926  -3.395 -33.023  1.00  0.00     0.121 C 
HETATM   35  C   UNL     1      -3.500  -4.575 -33.896  1.00  0.00     0.040 C 
HETATM   36  C   UNL     1      -2.939  -3.217 -31.873  1.00  0.00     0.040 C 
ENDBRANCH  33  34
ENDBRANCH  30  33
ENDBRANCH  23  26
ENDBRANCH   1  22
BRANCH   1  37
HETATM   37  C   UNL     1     -10.306   3.349 -31.536  1.00  0.00     0.254 C 
BRANCH  37  38
HETATM   38  N   UNL     1      -9.722   2.493 -30.471  1.00  0.00    -0.077 N 
HETATM   39  H   UNL     1      -9.664   1.505 -30.740  1.00  0.00     0.274 HD
HETATM   40  H   UNL     1      -8.736   2.780 -30.288  1.00  0.00     0.274 HD
HETATM   41  H   UNL     1     -10.220   2.564 -29.577  1.00  0.00     0.274 HD
ENDBRANCH  37  38
ENDBRANCH   1  37
TORSDOF 11
ENDMDL
MODEL 9
REMARK VINA RESULT:      -8.0      2.991      7.578
REMARK  11 active torsions:
REMARK  status: ('A' for Active; 'I' for Inactive)
REMARK    1  A    between atoms: C_2  and  O_3 
REMARK    2  A    between atoms: C_2  and  C_4 
REMARK    3  A    between atoms: C_8  and  C_9 
REMARK    4  A    between atoms: C_12  and  C_13 
REMARK    5  A    between atoms: C_13  and  C_14 
REMARK    6  A    between atoms: C_14  and  N_15 
REMARK    7  A    between atoms: C_14  and  C_29 
REMARK       I    between atoms: N_15  and  C_16 
REMARK    8  A    between atoms: C_16  and  C_17 
REMARK    9  A    between atoms: C_21  and  O_22 
REMARK   10  A    between atoms: O_22  and  C_23 
REMARK   11  A    between atoms: C_29  and  N_30 
ROOT
HETATM    1  C   UNL     1     -11.156   3.580 -32.695  1.00  0.00     0.114 C 
ENDROOT
BRANCH   1   2
HETATM    2  C   UNL     1     -10.601   4.754 -33.544  1.00  0.00     0.065 C 
BRANCH   2   3
HETATM    3  C   UNL     1      -9.188   5.156 -33.189  1.00  0.00    -0.056 A 
HETATM    4  C   UNL     1      -8.085   4.575 -33.830  1.00  0.00     0.008 A 
HETATM    5  C   UNL     1      -6.779   4.894 -33.442  1.00  0.00     0.014 A 
HETATM    6  C   UNL     1      -6.541   5.782 -32.385  1.00  0.00    -0.006 A 
HETATM    7  C   UNL     1      -7.646   6.356 -31.742  1.00  0.00     0.014 A 
HETATM    8  C   UNL     1      -8.953   6.047 -32.135  1.00  0.00     0.008 A 
BRANCH   6   9
HETATM    9  C   UNL     1      -5.196   6.093 -31.920  1.00  0.00     0.085 A 
HETATM   10  C   UNL     1      -4.792   6.249 -30.611  1.00  0.00     0.130 A 
HETATM   11  N   UNL     1      -3.458   6.569 -30.668  1.00  0.00    -0.315 N 
HETATM   12  C   UNL     1      -3.103   6.590 -32.011  1.00  0.00     0.143 A 
HETATM   13  C   UNL     1      -2.576   6.837 -29.629  1.00  0.00     0.098 A 
HETATM   14  C   UNL     1      -1.739   6.915 -32.348  1.00  0.00     0.017 A 
HETATM   15  N   UNL     1      -4.137   6.298 -32.778  1.00  0.00    -0.228 NA
HETATM   16  C   UNL     1      -0.890   7.165 -31.318  1.00  0.00     0.015 A 
HETATM   17  C   UNL     1      -1.301   7.135 -29.922  1.00  0.00     0.018 A 
BRANCH  14  18
HETATM   18  C   UNL     1      -1.269   6.953 -33.794  1.00  0.00     0.150 C 
HETATM   19  C   UNL     1      -1.131   5.551 -34.379  1.00  0.00     0.044 C 
BRANCH  18  20
HETATM   20  O   UNL     1      -2.178   7.696 -34.610  1.00  0.00    -0.391 OA
HETATM   21  H   UNL     1      -2.275   8.572 -34.200  1.00  0.00     0.210 HD
ENDBRANCH  18  20
ENDBRANCH  14  18
ENDBRANCH   6   9
ENDBRANCH   2   3
ENDBRANCH   1   2
BRANCH   1  22
HETATM   22  N   UNL     1     -10.040   2.689 -32.306  1.00  0.00    -0.350 N 
HETATM   23  C   UNL     1      -9.891   1.400 -32.771  1.00  0.00     0.252 C 
HETATM   24  O   UNL     1     -10.782   0.828 -33.393  1.00  0.00    -0.268 OA
HETATM   25  H   UNL     1      -9.173   3.149 -32.039  1.00  0.00     0.163 HD
BRANCH  23  26
HETATM   26  C   UNL     1      -8.590   0.738 -32.500  1.00  0.00     0.033 A 
HETATM   27  C   UNL     1      -7.922   1.042 -31.311  1.00  0.00     0.043 A 
HETATM   28  C   UNL     1      -6.696   0.432 -31.029  1.00  0.00     0.068 A 
HETATM   29 CL   UNL     1      -5.920   0.829 -29.538  1.00  0.00    -0.081 Cl
HETATM   30  C   UNL     1      -6.114  -0.460 -31.941  1.00  0.00     0.091 A 
HETATM   31  C   UNL     1      -6.793  -0.767 -33.123  1.00  0.00     0.039 A 
HETATM   32  C   UNL     1      -8.023  -0.164 -33.409  1.00  0.00     0.020 A 
BRANCH  30  33
HETATM   33  O   UNL     1      -4.924  -1.039 -31.595  1.00  0.00    -0.345 OA
BRANCH  33  34
HETATM   34  C   UNL     1      -4.039  -1.427 -32.656  1.00  0.00     0.121 C 
HETATM   35  C   UNL     1      -3.028  -0.321 -32.956  1.00  0.00     0.040 C 
HETATM   36  C   UNL     1      -3.311  -2.681 -32.178  1.00  0.00     0.040 C 
ENDBRANCH  33  34
ENDBRANCH  30  33
ENDBRANCH  23  26
ENDBRANCH   1  22
BRANCH   1  37
HETATM   37  C   UNL     1     -11.954   4.148 -31.486  1.00  0.00     0.254 C 
BRANCH  37  38
HETATM   38  N   UNL     1     -11.353   3.746 -30.188  1.00  0.00    -0.077 N 
HETATM   39  H   UNL     1     -11.535   2.764 -29.952  1.00  0.00     0.274 HD
HETATM   40  H   UNL     1     -10.314   3.822 -30.241  1.00  0.00     0.274 HD
HETATM   41  H   UNL     1     -11.652   4.336 -29.404  1.00  0.00     0.274 HD
ENDBRANCH  37  38
ENDBRANCH   1  37
TORSDOF 11
ENDMDL
MODEL 10
REMARK VINA RESULT:      -7.9      2.945      8.006
REMARK  11 active torsions:
REMARK  status: ('A' for Active; 'I' for Inactive)
REMARK    1  A    between atoms: C_2  and  O_3 
REMARK    2  A    between atoms: C_2  and  C_4 
REMARK    3  A    between atoms: C_8  and  C_9 
REMARK    4  A    between atoms: C_12  and  C_13 
REMARK    5  A    between atoms: C_13  and  C_14 
REMARK    6  A    between atoms: C_14  and  N_15 
REMARK    7  A    between atoms: C_14  and  C_29 
REMARK       I    between atoms: N_15  and  C_16 
REMARK    8  A    between atoms: C_16  and  C_17 
REMARK    9  A    between atoms: C_21  and  O_22 
REMARK   10  A    between atoms: O_22  and  C_23 
REMARK   11  A    between atoms: C_29  and  N_30 
ROOT
HETATM    1  C   UNL     1      -5.332   4.418 -32.187  1.00  0.00     0.114 C 
ENDROOT
BRANCH   1   2
HETATM    2  C   UNL     1      -6.150   5.149 -33.285  1.00  0.00     0.065 C 
BRANCH   2   3
HETATM    3  C   UNL     1      -7.635   4.873 -33.233  1.00  0.00    -0.056 A 
HETATM    4  C   UNL     1      -8.500   5.691 -32.493  1.00  0.00     0.008 A 
HETATM    5  C   UNL     1      -9.861   5.384 -32.385  1.00  0.00     0.014 A 
HETATM    6  C   UNL     1     -10.388   4.237 -32.992  1.00  0.00    -0.006 A 
HETATM    7  C   UNL     1      -9.519   3.418 -33.725  1.00  0.00     0.014 A 
HETATM    8  C   UNL     1      -8.160   3.728 -33.844  1.00  0.00     0.008 A 
BRANCH   6   9
HETATM    9  C   UNL     1     -11.788   3.859 -32.854  1.00  0.00     0.085 A 
HETATM   10  C   UNL     1     -12.744   4.499 -32.093  1.00  0.00     0.130 A 
HETATM   11  N   UNL     1     -13.894   3.765 -32.244  1.00  0.00    -0.315 N 
HETATM   12  C   UNL     1     -13.593   2.711 -33.096  1.00  0.00     0.143 A 
HETATM   13  C   UNL     1     -15.147   3.974 -31.682  1.00  0.00     0.098 A 
HETATM   14  C   UNL     1     -14.642   1.773 -33.414  1.00  0.00     0.017 A 
HETATM   15  N   UNL     1     -12.331   2.757 -33.478  1.00  0.00    -0.228 NA
HETATM   16  C   UNL     1     -15.862   2.000 -32.862  1.00  0.00     0.015 A 
HETATM   17  C   UNL     1     -16.137   3.117 -31.971  1.00  0.00     0.018 A 
BRANCH  14  18
HETATM   18  C   UNL     1     -14.396   0.596 -34.344  1.00  0.00     0.150 C 
HETATM   19  C   UNL     1     -13.616  -0.517 -33.651  1.00  0.00     0.044 C 
BRANCH  18  20
HETATM   20  O   UNL     1     -15.630   0.052 -34.821  1.00  0.00    -0.391 OA
HETATM   21  H   UNL     1     -15.899  -0.637 -34.191  1.00  0.00     0.210 HD
ENDBRANCH  18  20
ENDBRANCH  14  18
ENDBRANCH   6   9
ENDBRANCH   2   3
ENDBRANCH   1   2
BRANCH   1  22
HETATM   22  N   UNL     1      -5.042   3.037 -32.633  1.00  0.00    -0.350 N 
HETATM   23  C   UNL     1      -5.620   1.916 -32.077  1.00  0.00     0.252 C 
HETATM   24  O   UNL     1      -6.273   1.970 -31.038  1.00  0.00    -0.268 OA
HETATM   25  H   UNL     1      -4.753   2.932 -33.602  1.00  0.00     0.163 HD
BRANCH  23  26
HETATM   26  C   UNL     1      -5.430   0.636 -32.806  1.00  0.00     0.033 A 
HETATM   27  C   UNL     1      -4.511  -0.289 -32.302  1.00  0.00     0.043 A 
HETATM   28  C   UNL     1      -4.314  -1.501 -32.967  1.00  0.00     0.068 A 
HETATM   29 CL   UNL     1      -3.180  -2.617 -32.295  1.00  0.00    -0.081 Cl
HETATM   30  C   UNL     1      -5.007  -1.790 -34.152  1.00  0.00     0.091 A 
HETATM   31  C   UNL     1      -5.932  -0.865 -34.643  1.00  0.00     0.039 A 
HETATM   32  C   UNL     1      -6.138   0.349 -33.980  1.00  0.00     0.020 A 
BRANCH  30  33
HETATM   33  O   UNL     1      -4.784  -3.005 -34.742  1.00  0.00    -0.345 OA
BRANCH  33  34
HETATM   34  C   UNL     1      -5.580  -4.114 -34.302  1.00  0.00     0.121 C 
HETATM   35  C   UNL     1      -6.644  -4.469 -35.339  1.00  0.00     0.040 C 
HETATM   36  C   UNL     1      -4.624  -5.289 -34.115  1.00  0.00     0.040 C 
ENDBRANCH  33  34
ENDBRANCH  30  33
ENDBRANCH  23  26
ENDBRANCH   1  22
BRANCH   1  37
HETATM   37  C   UNL     1      -4.060   5.249 -31.853  1.00  0.00     0.254 C 
BRANCH  37  38
HETATM   38  N   UNL     1      -3.541   5.970 -33.044  1.00  0.00    -0.077 N 
HETATM   39  H   UNL     1      -4.051   6.838 -33.238  1.00  0.00     0.274 HD
HETATM   40  H   UNL     1      -2.556   6.270 -32.873  1.00  0.00     0.274 HD
HETATM   41  H   UNL     1      -3.530   5.395 -33.892  1.00  0.00     0.274 HD
ENDBRANCH  37  38
ENDBRANCH   1  37
TORSDOF 11
ENDMDL
