MODEL 1
REMARK VINA RESULT:      -8.9      0.000      0.000
REMARK  5 active torsions:
REMARK  status: ('A' for Active; 'I' for Inactive)
REMARK    1  A    between atoms: C_2  and  C_3 
REMARK    2  A    between atoms: C_7  and  C_8 
REMARK       I    between atoms: C_8  and  N_9 
REMARK    3  A    between atoms: N_9  and  C_10 
REMARK    4  A    between atoms: C_12  and  N_13 
REMARK       I    between atoms: N_13  and  C_14 
REMARK    5  A    between atoms: C_14  and  C_15 
ROOT
HETATM    1  C   UNL     1      -4.165   4.203 -31.546  1.00  0.00     0.037 A 
HETATM    2  C   UNL     1      -4.167   2.891 -32.037  1.00  0.00     0.059 A 
HETATM    3  C   UNL     1      -5.283   2.373 -32.707  1.00  0.00     0.037 A 
HETATM    4  C   UNL     1      -6.408   3.188 -32.883  1.00  0.00     0.029 A 
HETATM    5  C   UNL     1      -6.427   4.487 -32.376  1.00  0.00     0.004 A 
HETATM    6  C   UNL     1      -5.312   4.989 -31.706  1.00  0.00     0.029 A 
ENDROOT
BRANCH   1   7
HETATM    7  N   UNL     1      -3.069   4.801 -30.883  1.00  0.00    -0.322 N 
HETATM    8  C   UNL     1      -1.818   5.076 -31.399  1.00  0.00     0.274 C 
HETATM    9  O   UNL     1      -1.469   4.896 -32.559  1.00  0.00    -0.266 OA
HETATM   10  H   UNL     1      -3.244   5.112 -29.939  1.00  0.00     0.169 HD
BRANCH   8  11
HETATM   11  C   UNL     1      -0.893   5.652 -30.451  1.00  0.00     0.120 A 
HETATM   12  N   UNL     1      -0.073   4.850 -29.700  1.00  0.00    -0.273 N 
HETATM   13  N   UNL     1       0.734   5.520 -28.862  1.00  0.00    -0.179 NA
HETATM   14  H   UNL     1      -0.029   3.835 -29.727  1.00  0.00     0.189 HD
HETATM   15  C   UNL     1       0.417   6.803 -29.066  1.00  0.00     0.056 A 
HETATM   16  C   UNL     1      -0.592   6.939 -30.052  1.00  0.00     0.065 A 
BRANCH  15  17
HETATM   17  C   UNL     1       1.096   7.880 -28.292  1.00  0.00     0.056 C 
HETATM   18  C   UNL     1       1.322   7.491 -26.839  1.00  0.00     0.011 C 
ENDBRANCH  15  17
ENDBRANCH   8  11
ENDBRANCH   1   7
BRANCH   3  19
HETATM   19  N   UNL     1      -5.346   1.070 -33.252  1.00  0.00    -0.323 N 
HETATM   20  C   UNL     1      -5.916  -0.052 -32.677  1.00  0.00     0.256 C 
HETATM   21  O   UNL     1      -6.538  -0.100 -31.622  1.00  0.00    -0.267 OA
HETATM   22  H   UNL     1      -4.882   0.950 -34.141  1.00  0.00     0.169 HD
BRANCH  20  23
HETATM   23  C   UNL     1      -5.724  -1.326 -33.427  1.00  0.00     0.032 A 
HETATM   24  C   UNL     1      -6.847  -1.896 -34.044  1.00  0.00     0.017 A 
HETATM   25  C   UNL     1      -6.730  -3.093 -34.750  1.00  0.00     0.001 A 
HETATM   26  C   UNL     1      -5.490  -3.723 -34.852  1.00  0.00     0.000 A 
HETATM   27  C   UNL     1      -4.364  -3.150 -34.258  1.00  0.00     0.001 A 
HETATM   28  C   UNL     1      -4.476  -1.949 -33.551  1.00  0.00     0.017 A 
ENDBRANCH  20  23
ENDBRANCH   3  19
TORSDOF 5
ENDMDL
MODEL 2
REMARK VINA RESULT:      -8.5      2.917      3.444
REMARK  5 active torsions:
REMARK  status: ('A' for Active; 'I' for Inactive)
REMARK    1  A    between atoms: C_2  and  C_3 
REMARK    2  A    between atoms: C_7  and  C_8 
REMARK       I    between atoms: C_8  and  N_9 
REMARK    3  A    between atoms: N_9  and  C_10 
REMARK    4  A    between atoms: C_12  and  N_13 
REMARK       I    between atoms: N_13  and  C_14 
REMARK    5  A    between atoms: C_14  and  C_15 
ROOT
HETATM    1  C   UNL     1      -6.059   3.555 -33.530  1.00  0.00     0.037 A 
HETATM    2  C   UNL     1      -5.763   2.189 -33.621  1.00  0.00     0.059 A 
HETATM    3  C   UNL     1      -6.772   1.248 -33.868  1.00  0.00     0.037 A 
HETATM    4  C   UNL     1      -8.091   1.691 -34.025  1.00  0.00     0.029 A 
HETATM    5  C   UNL     1      -8.400   3.046 -33.911  1.00  0.00     0.004 A 
HETATM    6  C   UNL     1      -7.388   3.972 -33.660  1.00  0.00     0.029 A 
ENDROOT
BRANCH   1   7
HETATM    7  N   UNL     1      -5.092   4.562 -33.308  1.00  0.00    -0.322 N 
HETATM    8  C   UNL     1      -4.326   5.219 -34.250  1.00  0.00     0.274 C 
HETATM    9  O   UNL     1      -4.406   5.074 -35.464  1.00  0.00    -0.266 OA
HETATM   10  H   UNL     1      -4.994   4.874 -32.353  1.00  0.00     0.169 HD
BRANCH   8  11
HETATM   11  C   UNL     1      -3.388   6.171 -33.702  1.00  0.00     0.120 A 
HETATM   12  N   UNL     1      -2.352   6.648 -34.462  1.00  0.00    -0.273 N 
HETATM   13  N   UNL     1      -1.560   7.524 -33.823  1.00  0.00    -0.179 NA
HETATM   14  H   UNL     1      -2.145   6.401 -35.426  1.00  0.00     0.189 HD
HETATM   15  C   UNL     1      -2.092   7.610 -32.601  1.00  0.00     0.056 A 
HETATM   16  C   UNL     1      -3.239   6.786 -32.474  1.00  0.00     0.065 A 
BRANCH  15  17
HETATM   17  C   UNL     1      -1.474   8.488 -31.568  1.00  0.00     0.056 C 
HETATM   18  C   UNL     1      -2.500   9.369 -30.873  1.00  0.00     0.011 C 
ENDBRANCH  15  17
ENDBRANCH   8  11
ENDBRANCH   1   7
BRANCH   3  19
HETATM   19  N   UNL     1      -6.545  -0.141 -33.998  1.00  0.00    -0.323 N 
HETATM   20  C   UNL     1      -5.350  -0.816 -33.815  1.00  0.00     0.256 C 
HETATM   21  O   UNL     1      -4.289  -0.338 -33.432  1.00  0.00    -0.267 OA
HETATM   22  H   UNL     1      -7.342  -0.683 -34.300  1.00  0.00     0.169 HD
BRANCH  20  23
HETATM   23  C   UNL     1      -5.378  -2.270 -34.143  1.00  0.00     0.032 A 
HETATM   24  C   UNL     1      -4.257  -3.038 -33.799  1.00  0.00     0.017 A 
HETATM   25  C   UNL     1      -4.221  -4.402 -34.091  1.00  0.00     0.001 A 
HETATM   26  C   UNL     1      -5.307  -5.007 -34.722  1.00  0.00     0.000 A 
HETATM   27  C   UNL     1      -6.434  -4.253 -35.049  1.00  0.00     0.001 A 
HETATM   28  C   UNL     1      -6.476  -2.886 -34.755  1.00  0.00     0.017 A 
ENDBRANCH  20  23
ENDBRANCH   3  19
TORSDOF 5
ENDMDL
MODEL 3
REMARK VINA RESULT:      -8.5      2.042      3.149
REMARK  5 active torsions:
REMARK  status: ('A' for Active; 'I' for Inactive)
REMARK    1  A    between atoms: C_2  and  C_3 
REMARK    2  A    between atoms: C_7  and  C_8 
REMARK       I    between atoms: C_8  and  N_9 
REMARK    3  A    between atoms: N_9  and  C_10 
REMARK    4  A    between atoms: C_12  and  N_13 
REMARK       I    between atoms: N_13  and  C_14 
REMARK    5  A    between atoms: C_14  and  C_15 
ROOT
HETATM    1  C   UNL     1      -1.518   5.258 -31.387  1.00  0.00     0.037 A 
HETATM    2  C   UNL     1      -2.466   4.229 -31.459  1.00  0.00     0.059 A 
HETATM    3  C   UNL     1      -2.897   3.731 -32.697  1.00  0.00     0.037 A 
HETATM    4  C   UNL     1      -2.366   4.278 -33.871  1.00  0.00     0.029 A 
HETATM    5  C   UNL     1      -1.442   5.320 -33.812  1.00  0.00     0.004 A 
HETATM    6  C   UNL     1      -1.024   5.811 -32.575  1.00  0.00     0.029 A 
ENDROOT
BRANCH   1   7
HETATM    7  N   UNL     1      -1.018   5.793 -30.178  1.00  0.00    -0.322 N 
HETATM    8  C   UNL     1       0.104   5.395 -29.479  1.00  0.00     0.274 C 
HETATM    9  O   UNL     1       0.900   4.535 -29.835  1.00  0.00    -0.266 OA
HETATM   10  H   UNL     1      -1.512   6.595 -29.816  1.00  0.00     0.169 HD
BRANCH   8  11
HETATM   11  C   UNL     1       0.327   6.111 -28.245  1.00  0.00     0.120 A 
HETATM   12  N   UNL     1      -0.390   5.801 -27.118  1.00  0.00    -0.273 N 
HETATM   13  N   UNL     1      -0.080   6.547 -26.046  1.00  0.00    -0.179 NA
HETATM   14  H   UNL     1      -1.104   5.083 -27.035  1.00  0.00     0.189 HD
HETATM   15  C   UNL     1       0.862   7.382 -26.496  1.00  0.00     0.056 A 
HETATM   16  C   UNL     1       1.155   7.148 -27.863  1.00  0.00     0.065 A 
BRANCH  15  17
HETATM   17  C   UNL     1       1.462   8.401 -25.590  1.00  0.00     0.056 C 
HETATM   18  C   UNL     1       0.468   9.487 -25.207  1.00  0.00     0.011 C 
ENDBRANCH  15  17
ENDBRANCH   8  11
ENDBRANCH   1   7
BRANCH   3  19
HETATM   19  N   UNL     1      -3.828   2.678 -32.846  1.00  0.00    -0.323 N 
HETATM   20  C   UNL     1      -3.749   1.407 -32.306  1.00  0.00     0.256 C 
HETATM   21  O   UNL     1      -2.891   0.988 -31.538  1.00  0.00    -0.267 OA
HETATM   22  H   UNL     1      -4.613   2.878 -33.450  1.00  0.00     0.169 HD
BRANCH  20  23
HETATM   23  C   UNL     1      -4.818   0.460 -32.734  1.00  0.00     0.032 A 
HETATM   24  C   UNL     1      -4.425  -0.713 -33.394  1.00  0.00     0.017 A 
HETATM   25  C   UNL     1      -5.383  -1.630 -33.828  1.00  0.00     0.001 A 
HETATM   26  C   UNL     1      -6.735  -1.386 -33.599  1.00  0.00     0.000 A 
HETATM   27  C   UNL     1      -7.132  -0.230 -32.924  1.00  0.00     0.001 A 
HETATM   28  C   UNL     1      -6.177   0.691 -32.485  1.00  0.00     0.017 A 
ENDBRANCH  20  23
ENDBRANCH   3  19
TORSDOF 5
ENDMDL
MODEL 4
REMARK VINA RESULT:      -8.4      2.124      9.658
REMARK  5 active torsions:
REMARK  status: ('A' for Active; 'I' for Inactive)
REMARK    1  A    between atoms: C_2  and  C_3 
REMARK    2  A    between atoms: C_7  and  C_8 
REMARK       I    between atoms: C_8  and  N_9 
REMARK    3  A    between atoms: N_9  and  C_10 
REMARK    4  A    between atoms: C_12  and  N_13 
REMARK       I    between atoms: N_13  and  C_14 
REMARK    5  A    between atoms: C_14  and  C_15 
ROOT
HETATM    1  C   UNL     1      -2.740   4.057 -32.667  1.00  0.00     0.037 A 
HETATM    2  C   UNL     1      -2.222   4.644 -31.507  1.00  0.00     0.059 A 
HETATM    3  C   UNL     1      -1.294   5.692 -31.581  1.00  0.00     0.037 A 
HETATM    4  C   UNL     1      -0.886   6.149 -32.840  1.00  0.00     0.029 A 
HETATM    5  C   UNL     1      -1.375   5.554 -34.002  1.00  0.00     0.004 A 
HETATM    6  C   UNL     1      -2.295   4.510 -33.915  1.00  0.00     0.029 A 
ENDROOT
BRANCH   1   7
HETATM    7  N   UNL     1      -3.697   3.016 -32.671  1.00  0.00    -0.322 N 
HETATM    8  C   UNL     1      -3.655   1.829 -31.967  1.00  0.00     0.274 C 
HETATM    9  O   UNL     1      -2.792   1.506 -31.160  1.00  0.00    -0.266 OA
HETATM   10  H   UNL     1      -4.533   3.189 -33.210  1.00  0.00     0.169 HD
BRANCH   8  11
HETATM   11  C   UNL     1      -4.768   0.943 -32.219  1.00  0.00     0.120 A 
HETATM   12  N   UNL     1      -5.468   0.387 -31.180  1.00  0.00    -0.273 N 
HETATM   13  N   UNL     1      -6.474  -0.415 -31.562  1.00  0.00    -0.179 NA
HETATM   14  H   UNL     1      -5.292   0.527 -30.189  1.00  0.00     0.189 HD
HETATM   15  C   UNL     1      -6.419  -0.389 -32.897  1.00  0.00     0.056 A 
HETATM   16  C   UNL     1      -5.372   0.448 -33.358  1.00  0.00     0.065 A 
BRANCH  15  17
HETATM   17  C   UNL     1      -7.382  -1.186 -33.708  1.00  0.00     0.056 C 
HETATM   18  C   UNL     1      -6.698  -2.299 -34.486  1.00  0.00     0.011 C 
ENDBRANCH  15  17
ENDBRANCH   8  11
ENDBRANCH   1   7
BRANCH   3  19
HETATM   19  N   UNL     1      -0.749   6.349 -30.455  1.00  0.00    -0.323 N 
HETATM   20  C   UNL     1       0.231   5.874 -29.600  1.00  0.00     0.256 C 
HETATM   21  O   UNL     1       0.857   4.827 -29.711  1.00  0.00    -0.267 OA
HETATM   22  H   UNL     1      -1.159   7.245 -30.237  1.00  0.00     0.169 HD
BRANCH  20  23
HETATM   23  C   UNL     1       0.523   6.735 -28.418  1.00  0.00     0.032 A 
HETATM   24  C   UNL     1       1.167   7.959 -28.644  1.00  0.00     0.017 A 
HETATM   25  C   UNL     1       1.476   8.800 -27.575  1.00  0.00     0.001 A 
HETATM   26  C   UNL     1       1.135   8.428 -26.276  1.00  0.00     0.000 A 
HETATM   27  C   UNL     1       0.475   7.220 -26.045  1.00  0.00     0.001 A 
HETATM   28  C   UNL     1       0.162   6.375 -27.113  1.00  0.00     0.017 A 
ENDBRANCH  20  23
ENDBRANCH   3  19
TORSDOF 5
ENDMDL
MODEL 5
REMARK VINA RESULT:      -8.2      3.261      9.634
REMARK  5 active torsions:
REMARK  status: ('A' for Active; 'I' for Inactive)
REMARK    1  A    between atoms: C_2  and  C_3 
REMARK    2  A    between atoms: C_7  and  C_8 
REMARK       I    between atoms: C_8  and  N_9 
REMARK    3  A    between atoms: N_9  and  C_10 
REMARK    4  A    between atoms: C_12  and  N_13 
REMARK       I    between atoms: N_13  and  C_14 
REMARK    5  A    between atoms: C_14  and  C_15 
ROOT
HETATM    1  C   UNL     1      -5.987   1.097 -32.027  1.00  0.00     0.037 A 
HETATM    2  C   UNL     1      -5.162   2.216 -31.856  1.00  0.00     0.059 A 
HETATM    3  C   UNL     1      -3.829   2.073 -31.446  1.00  0.00     0.037 A 
HETATM    4  C   UNL     1      -3.326   0.789 -31.208  1.00  0.00     0.029 A 
HETATM    5  C   UNL     1      -4.146  -0.330 -31.350  1.00  0.00     0.004 A 
HETATM    6  C   UNL     1      -5.472  -0.175 -31.753  1.00  0.00     0.029 A 
ENDROOT
BRANCH   1   7
HETATM    7  N   UNL     1      -7.330   1.162 -32.462  1.00  0.00    -0.322 N 
HETATM    8  C   UNL     1      -7.799   1.165 -33.761  1.00  0.00     0.274 C 
HETATM    9  O   UNL     1      -7.112   1.049 -34.768  1.00  0.00    -0.266 OA
HETATM   10  H   UNL     1      -8.029   1.148 -31.733  1.00  0.00     0.169 HD
BRANCH   8  11
HETATM   11  C   UNL     1      -9.233   1.288 -33.880  1.00  0.00     0.120 A 
HETATM   12  N   UNL     1      -9.788   2.281 -34.643  1.00  0.00    -0.273 N 
HETATM   13  N   UNL     1     -11.131   2.275 -34.663  1.00  0.00    -0.179 NA
HETATM   14  H   UNL     1      -9.286   2.990 -35.172  1.00  0.00     0.189 HD
HETATM   15  C   UNL     1     -11.460   1.249 -33.872  1.00  0.00     0.056 A 
HETATM   16  C   UNL     1     -10.311   0.597 -33.361  1.00  0.00     0.065 A 
BRANCH  15  17
HETATM   17  C   UNL     1     -12.891   0.920 -33.619  1.00  0.00     0.056 C 
HETATM   18  C   UNL     1     -13.141  -0.579 -33.589  1.00  0.00     0.011 C 
ENDBRANCH  15  17
ENDBRANCH   8  11
ENDBRANCH   1   7
BRANCH   3  19
HETATM   19  N   UNL     1      -2.932   3.153 -31.279  1.00  0.00    -0.323 N 
HETATM   20  C   UNL     1      -2.544   4.076 -32.234  1.00  0.00     0.256 C 
HETATM   21  O   UNL     1      -2.967   4.168 -33.380  1.00  0.00    -0.267 OA
HETATM   22  H   UNL     1      -2.503   3.220 -30.367  1.00  0.00     0.169 HD
BRANCH  20  23
HETATM   23  C   UNL     1      -1.485   5.035 -31.806  1.00  0.00     0.032 A 
HETATM   24  C   UNL     1      -0.742   4.717 -30.661  1.00  0.00     0.017 A 
HETATM   25  C   UNL     1       0.255   5.582 -30.207  1.00  0.00     0.001 A 
HETATM   26  C   UNL     1       0.520   6.763 -30.898  1.00  0.00     0.000 A 
HETATM   27  C   UNL     1      -0.203   7.075 -32.051  1.00  0.00     0.001 A 
HETATM   28  C   UNL     1      -1.200   6.211 -32.511  1.00  0.00     0.017 A 
ENDBRANCH  20  23
ENDBRANCH   3  19
TORSDOF 5
ENDMDL
MODEL 6
REMARK VINA RESULT:      -8.0      5.473      8.664
REMARK  5 active torsions:
REMARK  status: ('A' for Active; 'I' for Inactive)
REMARK    1  A    between atoms: C_2  and  C_3 
REMARK    2  A    between atoms: C_7  and  C_8 
REMARK       I    between atoms: C_8  and  N_9 
REMARK    3  A    between atoms: N_9  and  C_10 
REMARK    4  A    between atoms: C_12  and  N_13 
REMARK       I    between atoms: N_13  and  C_14 
REMARK    5  A    between atoms: C_14  and  C_15 
ROOT
HETATM    1  C   UNL     1      -8.958   2.141 -31.336  1.00  0.00     0.037 A 
HETATM    2  C   UNL     1      -8.495   0.976 -31.961  1.00  0.00     0.059 A 
HETATM    3  C   UNL     1      -7.159   0.573 -31.837  1.00  0.00     0.037 A 
HETATM    4  C   UNL     1      -6.282   1.354 -31.075  1.00  0.00     0.029 A 
HETATM    5  C   UNL     1      -6.725   2.530 -30.470  1.00  0.00     0.004 A 
HETATM    6  C   UNL     1      -8.056   2.923 -30.605  1.00  0.00     0.029 A 
ENDROOT
BRANCH   1   7
HETATM    7  N   UNL     1     -10.294   2.596 -31.395  1.00  0.00    -0.322 N 
HETATM    8  C   UNL     1     -10.957   3.132 -32.482  1.00  0.00     0.274 C 
HETATM    9  O   UNL     1     -10.500   3.245 -33.612  1.00  0.00    -0.266 OA
HETATM   10  H   UNL     1     -10.842   2.460 -30.558  1.00  0.00     0.169 HD
BRANCH   8  11
HETATM   11  C   UNL     1     -12.313   3.548 -32.211  1.00  0.00     0.120 A 
HETATM   12  N   UNL     1     -13.339   2.639 -32.225  1.00  0.00    -0.273 N 
HETATM   13  N   UNL     1     -14.544   3.165 -31.957  1.00  0.00    -0.179 NA
HETATM   14  H   UNL     1     -13.262   1.643 -32.414  1.00  0.00     0.189 HD
HETATM   15  C   UNL     1     -14.295   4.466 -31.775  1.00  0.00     0.056 A 
HETATM   16  C   UNL     1     -12.916   4.756 -31.920  1.00  0.00     0.065 A 
BRANCH  15  17
HETATM   17  C   UNL     1     -15.405   5.411 -31.470  1.00  0.00     0.056 C 
HETATM   18  C   UNL     1     -15.204   6.127 -30.143  1.00  0.00     0.011 C 
ENDBRANCH  15  17
ENDBRANCH   8  11
ENDBRANCH   1   7
BRANCH   3  19
HETATM   19  N   UNL     1      -6.629  -0.602 -32.417  1.00  0.00    -0.323 N 
HETATM   20  C   UNL     1      -6.326  -0.816 -33.750  1.00  0.00     0.256 C 
HETATM   21  O   UNL     1      -6.392   0.003 -34.659  1.00  0.00    -0.267 OA
HETATM   22  H   UNL     1      -6.502  -1.378 -31.782  1.00  0.00     0.169 HD
BRANCH  20  23
HETATM   23  C   UNL     1      -5.895  -2.201 -34.096  1.00  0.00     0.032 A 
HETATM   24  C   UNL     1      -6.838  -3.046 -34.698  1.00  0.00     0.017 A 
HETATM   25  C   UNL     1      -6.496  -4.357 -35.034  1.00  0.00     0.001 A 
HETATM   26  C   UNL     1      -5.209  -4.827 -34.778  1.00  0.00     0.000 A 
HETATM   27  C   UNL     1      -4.259  -3.985 -34.198  1.00  0.00     0.001 A 
HETATM   28  C   UNL     1      -4.597  -2.670 -33.862  1.00  0.00     0.017 A 
ENDBRANCH  20  23
ENDBRANCH   3  19
TORSDOF 5
ENDMDL
MODEL 7
REMARK VINA RESULT:      -7.7      3.464      9.802
REMARK  5 active torsions:
REMARK  status: ('A' for Active; 'I' for Inactive)
REMARK    1  A    between atoms: C_2  and  C_3 
REMARK    2  A    between atoms: C_7  and  C_8 
REMARK       I    between atoms: C_8  and  N_9 
REMARK    3  A    between atoms: N_9  and  C_10 
REMARK    4  A    between atoms: C_12  and  N_13 
REMARK       I    between atoms: N_13  and  C_14 
REMARK    5  A    between atoms: C_14  and  C_15 
ROOT
HETATM    1  C   UNL     1      -6.210   1.631 -32.750  1.00  0.00     0.037 A 
HETATM    2  C   UNL     1      -5.448   2.707 -32.276  1.00  0.00     0.059 A 
HETATM    3  C   UNL     1      -4.077   2.564 -32.024  1.00  0.00     0.037 A 
HETATM    4  C   UNL     1      -3.470   1.324 -32.253  1.00  0.00     0.029 A 
HETATM    5  C   UNL     1      -4.223   0.239 -32.700  1.00  0.00     0.004 A 
HETATM    6  C   UNL     1      -5.588   0.392 -32.943  1.00  0.00     0.029 A 
ENDROOT
BRANCH   1   7
HETATM    7  N   UNL     1      -7.589   1.707 -33.049  1.00  0.00    -0.322 N 
HETATM    8  C   UNL     1      -8.642   1.814 -32.162  1.00  0.00     0.274 C 
HETATM    9  O   UNL     1      -8.542   1.925 -30.947  1.00  0.00    -0.266 OA
HETATM   10  H   UNL     1      -7.824   1.742 -34.031  1.00  0.00     0.169 HD
BRANCH   8  11
HETATM   11  C   UNL     1      -9.947   1.823 -32.780  1.00  0.00     0.120 A 
HETATM   12  N   UNL     1     -10.930   2.662 -32.323  1.00  0.00    -0.273 N 
HETATM   13  N   UNL     1     -12.092   2.562 -32.989  1.00  0.00    -0.179 NA
HETATM   14  H   UNL     1     -10.853   3.322 -31.554  1.00  0.00     0.189 HD
HETATM   15  C   UNL     1     -11.859   1.616 -33.903  1.00  0.00     0.056 A 
HETATM   16  C   UNL     1     -10.533   1.124 -33.817  1.00  0.00     0.065 A 
BRANCH  15  17
HETATM   17  C   UNL     1     -12.934   1.197 -34.846  1.00  0.00     0.056 C 
HETATM   18  C   UNL     1     -14.059   0.453 -34.144  1.00  0.00     0.011 C 
ENDBRANCH  15  17
ENDBRANCH   8  11
ENDBRANCH   1   7
BRANCH   3  19
HETATM   19  N   UNL     1      -3.242   3.611 -31.571  1.00  0.00    -0.323 N 
HETATM   20  C   UNL     1      -2.335   4.343 -32.318  1.00  0.00     0.256 C 
HETATM   21  O   UNL     1      -2.147   4.265 -33.526  1.00  0.00    -0.267 OA
HETATM   22  H   UNL     1      -3.293   3.807 -30.582  1.00  0.00     0.169 HD
BRANCH  20  23
HETATM   23  C   UNL     1      -1.497   5.305 -31.546  1.00  0.00     0.032 A 
HETATM   24  C   UNL     1      -2.136   6.102 -30.586  1.00  0.00     0.017 A 
HETATM   25  C   UNL     1      -1.405   7.028 -29.841  1.00  0.00     0.001 A 
HETATM   26  C   UNL     1      -0.032   7.158 -30.046  1.00  0.00     0.000 A 
HETATM   27  C   UNL     1       0.613   6.353 -30.986  1.00  0.00     0.001 A 
HETATM   28  C   UNL     1      -0.114   5.422 -31.733  1.00  0.00     0.017 A 
ENDBRANCH  20  23
ENDBRANCH   3  19
TORSDOF 5
ENDMDL
MODEL 8
REMARK VINA RESULT:      -7.7      1.476      9.363
REMARK  5 active torsions:
REMARK  status: ('A' for Active; 'I' for Inactive)
REMARK    1  A    between atoms: C_2  and  C_3 
REMARK    2  A    between atoms: C_7  and  C_8 
REMARK       I    between atoms: C_8  and  N_9 
REMARK    3  A    between atoms: N_9  and  C_10 
REMARK    4  A    between atoms: C_12  and  N_13 
REMARK       I    between atoms: N_13  and  C_14 
REMARK    5  A    between atoms: C_14  and  C_15 
ROOT
HETATM    1  C   UNL     1      -5.112   3.292 -32.922  1.00  0.00     0.037 A 
HETATM    2  C   UNL     1      -4.069   3.736 -32.099  1.00  0.00     0.059 A 
HETATM    3  C   UNL     1      -3.946   5.090 -31.759  1.00  0.00     0.037 A 
HETATM    4  C   UNL     1      -4.885   6.002 -32.253  1.00  0.00     0.029 A 
HETATM    5  C   UNL     1      -5.913   5.576 -33.093  1.00  0.00     0.004 A 
HETATM    6  C   UNL     1      -6.022   4.227 -33.429  1.00  0.00     0.029 A 
ENDROOT
BRANCH   1   7
HETATM    7  N   UNL     1      -5.315   1.941 -33.286  1.00  0.00    -0.322 N 
HETATM    8  C   UNL     1      -5.756   0.907 -32.485  1.00  0.00     0.274 C 
HETATM    9  O   UNL     1      -6.109   1.009 -31.317  1.00  0.00    -0.266 OA
HETATM   10  H   UNL     1      -5.172   1.724 -34.262  1.00  0.00     0.169 HD
BRANCH   8  11
HETATM   11  C   UNL     1      -5.815  -0.378 -33.143  1.00  0.00     0.120 A 
HETATM   12  N   UNL     1      -4.666  -1.048 -33.472  1.00  0.00    -0.273 N 
HETATM   13  N   UNL     1      -4.871  -2.227 -34.080  1.00  0.00    -0.179 NA
HETATM   14  H   UNL     1      -3.714  -0.736 -33.300  1.00  0.00     0.189 HD
HETATM   15  C   UNL     1      -6.202  -2.321 -34.161  1.00  0.00     0.056 A 
HETATM   16  C   UNL     1      -6.839  -1.192 -33.587  1.00  0.00     0.065 A 
BRANCH  15  17
HETATM   17  C   UNL     1      -6.837  -3.506 -34.802  1.00  0.00     0.056 C 
HETATM   18  C   UNL     1      -5.864  -4.662 -34.968  1.00  0.00     0.011 C 
ENDBRANCH  15  17
ENDBRANCH   8  11
ENDBRANCH   1   7
BRANCH   3  19
HETATM   19  N   UNL     1      -2.936   5.605 -30.914  1.00  0.00    -0.323 N 
HETATM   20  C   UNL     1      -1.621   5.874 -31.248  1.00  0.00     0.256 C 
HETATM   21  O   UNL     1      -1.112   5.783 -32.359  1.00  0.00    -0.267 OA
HETATM   22  H   UNL     1      -3.209   5.749 -29.952  1.00  0.00     0.169 HD
BRANCH  20  23
HETATM   23  C   UNL     1      -0.745   6.296 -30.117  1.00  0.00     0.032 A 
HETATM   24  C   UNL     1      -0.783   7.642 -29.730  1.00  0.00     0.017 A 
HETATM   25  C   UNL     1       0.023   8.098 -28.686  1.00  0.00     0.001 A 
HETATM   26  C   UNL     1       0.864   7.210 -28.019  1.00  0.00     0.000 A 
HETATM   27  C   UNL     1       0.892   5.863 -28.385  1.00  0.00     0.001 A 
HETATM   28  C   UNL     1       0.085   5.402 -29.429  1.00  0.00     0.017 A 
ENDBRANCH  20  23
ENDBRANCH   3  19
TORSDOF 5
ENDMDL
MODEL 9
REMARK VINA RESULT:      -7.5      6.144     12.940
REMARK  5 active torsions:
REMARK  status: ('A' for Active; 'I' for Inactive)
REMARK    1  A    between atoms: C_2  and  C_3 
REMARK    2  A    between atoms: C_7  and  C_8 
REMARK       I    between atoms: C_8  and  N_9 
REMARK    3  A    between atoms: N_9  and  C_10 
REMARK    4  A    between atoms: C_12  and  N_13 
REMARK       I    between atoms: N_13  and  C_14 
REMARK    5  A    between atoms: C_14  and  C_15 
ROOT
HETATM    1  C   UNL     1       1.377   8.667 -26.805  1.00  0.00     0.037 A 
HETATM    2  C   UNL     1       2.239   8.172 -25.818  1.00  0.00     0.059 A 
HETATM    3  C   UNL     1       2.623   8.969 -24.731  1.00  0.00     0.037 A 
HETATM    4  C   UNL     1       2.132  10.277 -24.642  1.00  0.00     0.029 A 
HETATM    5  C   UNL     1       1.295  10.789 -25.632  1.00  0.00     0.004 A 
HETATM    6  C   UNL     1       0.924   9.987 -26.711  1.00  0.00     0.029 A 
ENDROOT
BRANCH   1   7
HETATM    7  N   UNL     1       0.927   7.915 -27.914  1.00  0.00    -0.322 N 
HETATM    8  C   UNL     1       0.130   6.787 -27.903  1.00  0.00     0.274 C 
HETATM    9  O   UNL     1      -0.378   6.282 -26.910  1.00  0.00    -0.266 OA
HETATM   10  H   UNL     1       1.175   8.280 -28.822  1.00  0.00     0.169 HD
BRANCH   8  11
HETATM   11  C   UNL     1      -0.119   6.217 -29.206  1.00  0.00     0.120 A 
HETATM   12  N   UNL     1       0.183   4.905 -29.463  1.00  0.00    -0.273 N 
HETATM   13  N   UNL     1      -0.100   4.510 -30.715  1.00  0.00    -0.179 NA
HETATM   14  H   UNL     1       0.586   4.238 -28.810  1.00  0.00     0.189 HD
HETATM   15  C   UNL     1      -0.592   5.608 -31.296  1.00  0.00     0.056 A 
HETATM   16  C   UNL     1      -0.628   6.702 -30.395  1.00  0.00     0.065 A 
BRANCH  15  17
HETATM   17  C   UNL     1      -1.014   5.582 -32.725  1.00  0.00     0.056 C 
HETATM   18  C   UNL     1      -1.027   6.969 -33.347  1.00  0.00     0.011 C 
ENDBRANCH  15  17
ENDBRANCH   8  11
ENDBRANCH   1   7
BRANCH   3  19
HETATM   19  N   UNL     1       3.466   8.529 -23.686  1.00  0.00    -0.323 N 
HETATM   20  C   UNL     1       4.787   8.882 -23.469  1.00  0.00     0.256 C 
HETATM   21  O   UNL     1       5.442   9.700 -24.105  1.00  0.00    -0.267 OA
HETATM   22  H   UNL     1       3.059   7.850 -23.058  1.00  0.00     0.169 HD
BRANCH  20  23
HETATM   23  C   UNL     1       5.469   8.164 -22.354  1.00  0.00     0.032 A 
HETATM   24  C   UNL     1       6.180   6.998 -22.668  1.00  0.00     0.017 A 
HETATM   25  C   UNL     1       6.829   6.277 -21.665  1.00  0.00     0.001 A 
HETATM   26  C   UNL     1       6.777   6.722 -20.345  1.00  0.00     0.000 A 
HETATM   27  C   UNL     1       6.087   7.893 -20.028  1.00  0.00     0.001 A 
HETATM   28  C   UNL     1       5.438   8.620 -21.030  1.00  0.00     0.017 A 
ENDBRANCH  20  23
ENDBRANCH   3  19
TORSDOF 5
ENDMDL
MODEL 10
REMARK VINA RESULT:      -7.3      6.851     10.892
REMARK  5 active torsions:
REMARK  status: ('A' for Active; 'I' for Inactive)
REMARK    1  A    between atoms: C_2  and  C_3 
REMARK    2  A    between atoms: C_7  and  C_8 
REMARK       I    between atoms: C_8  and  N_9 
REMARK    3  A    between atoms: N_9  and  C_10 
REMARK    4  A    between atoms: C_12  and  N_13 
REMARK       I    between atoms: N_13  and  C_14 
REMARK    5  A    between atoms: C_14  and  C_15 
ROOT
HETATM    1  C   UNL     1       2.616   9.090 -24.602  1.00  0.00     0.037 A 
HETATM    2  C   UNL     1       2.274   8.350 -25.741  1.00  0.00     0.059 A 
HETATM    3  C   UNL     1       1.492   8.913 -26.758  1.00  0.00     0.037 A 
HETATM    4  C   UNL     1       1.051  10.234 -26.623  1.00  0.00     0.029 A 
HETATM    5  C   UNL     1       1.363  10.972 -25.482  1.00  0.00     0.004 A 
HETATM    6  C   UNL     1       2.138  10.399 -24.474  1.00  0.00     0.029 A 
ENDROOT
BRANCH   1   7
HETATM    7  N   UNL     1       3.420   8.598 -23.548  1.00  0.00    -0.322 N 
HETATM    8  C   UNL     1       4.762   8.841 -23.326  1.00  0.00     0.274 C 
HETATM    9  O   UNL     1       5.471   9.587 -23.988  1.00  0.00    -0.266 OA
HETATM   10  H   UNL     1       2.941   8.051 -22.848  1.00  0.00     0.169 HD
BRANCH   8  11
HETATM   11  C   UNL     1       5.313   8.152 -22.183  1.00  0.00     0.120 A 
HETATM   12  N   UNL     1       4.980   8.535 -20.909  1.00  0.00    -0.273 N 
HETATM   13  N   UNL     1       5.567   7.808 -19.945  1.00  0.00    -0.179 NA
HETATM   14  H   UNL     1       4.351   9.291 -20.650  1.00  0.00     0.189 HD
HETATM   15  C   UNL     1       6.319   6.931 -20.616  1.00  0.00     0.056 A 
HETATM   16  C   UNL     1       6.194   7.102 -22.017  1.00  0.00     0.065 A 
BRANCH  15  17
HETATM   17  C   UNL     1       7.157   5.940 -19.883  1.00  0.00     0.056 C 
HETATM   18  C   UNL     1       8.300   5.410 -20.735  1.00  0.00     0.011 C 
ENDBRANCH  15  17
ENDBRANCH   8  11
ENDBRANCH   1   7
BRANCH   3  19
HETATM   19  N   UNL     1       1.132   8.236 -27.946  1.00  0.00    -0.323 N 
HETATM   20  C   UNL     1      -0.072   7.610 -28.222  1.00  0.00     0.256 C 
HETATM   21  O   UNL     1      -1.071   7.596 -27.512  1.00  0.00    -0.267 OA
HETATM   22  H   UNL     1       1.857   8.174 -28.646  1.00  0.00     0.169 HD
BRANCH  20  23
HETATM   23  C   UNL     1      -0.127   6.867 -29.513  1.00  0.00     0.032 A 
HETATM   24  C   UNL     1      -0.801   7.469 -30.584  1.00  0.00     0.017 A 
HETATM   25  C   UNL     1      -0.895   6.815 -31.813  1.00  0.00     0.001 A 
HETATM   26  C   UNL     1      -0.310   5.561 -31.981  1.00  0.00     0.000 A 
HETATM   27  C   UNL     1       0.380   4.965 -30.925  1.00  0.00     0.001 A 
HETATM   28  C   UNL     1       0.479   5.617 -29.692  1.00  0.00     0.017 A 
ENDBRANCH  20  23
ENDBRANCH   3  19
TORSDOF 5
ENDMDL
