MODEL 1
REMARK VINA RESULT:      -8.0      0.000      0.000
REMARK  4 active torsions:
REMARK  status: ('A' for Active; 'I' for Inactive)
REMARK    1  A    between atoms: C_5  and  C_6 
REMARK       I    between atoms: C_6  and  N_7 
REMARK    2  A    between atoms: N_7  and  C_8 
REMARK    3  A    between atoms: C_8  and  N_9 
REMARK    4  A    between atoms: N_9  and  C_10 
ROOT
HETATM    1  C   UNL     1      -4.206  -0.078 -32.748  1.00  0.00     0.257 C 
HETATM    2  N   UNL     1      -5.131   0.776 -32.155  1.00  0.00    -0.299 N 
HETATM    3  O   UNL     1      -2.989   0.056 -32.763  1.00  0.00    -0.267 OA
HETATM    4  H   UNL     1      -6.108   0.573 -32.343  1.00  0.00     0.171 HD
ENDROOT
BRANCH   2   5
HETATM    5  C   UNL     1      -4.978   1.922 -31.400  1.00  0.00     0.180 C 
HETATM    6  S   UNL     1      -5.903   2.404 -30.095  1.00  0.00    -0.040 SA
BRANCH   5   7
HETATM    7  N   UNL     1      -3.941   2.749 -31.764  1.00  0.00    -0.318 N 
HETATM    8  H   UNL     1      -3.140   2.695 -31.150  1.00  0.00     0.170 HD
BRANCH   7   9
HETATM    9  C   UNL     1      -3.858   3.625 -32.857  1.00  0.00     0.129 A 
HETATM   10  N   UNL     1      -4.983   3.961 -33.529  1.00  0.00    -0.243 NA
HETATM   11  C   UNL     1      -4.851   4.805 -34.578  1.00  0.00     0.119 A 
HETATM   12  C   UNL     1      -3.642   5.332 -34.996  1.00  0.00     0.026 A 
HETATM   13  C   UNL     1      -2.488   4.985 -34.295  1.00  0.00    -0.057 A 
HETATM   14  C   UNL     1      -1.144   5.494 -34.720  1.00  0.00     0.048 C 
HETATM   15  C   UNL     1      -2.604   4.112 -33.208  1.00  0.00     0.057 A 
ENDBRANCH   7   9
ENDBRANCH   5   7
ENDBRANCH   2   5
BRANCH   1  16
HETATM   16  C   UNL     1      -4.816  -1.218 -33.488  1.00  0.00     0.032 A 
HETATM   17  C   UNL     1      -6.137  -1.096 -33.928  1.00  0.00     0.017 A 
HETATM   18  C   UNL     1      -6.762  -2.165 -34.573  1.00  0.00     0.007 A 
HETATM   19  C   UNL     1      -6.069  -3.361 -34.797  1.00  0.00    -0.062 A 
HETATM   20  C   UNL     1      -6.737  -4.524 -35.470  1.00  0.00     0.048 C 
HETATM   21  C   UNL     1      -4.735  -3.466 -34.385  1.00  0.00     0.007 A 
HETATM   22  C   UNL     1      -4.107  -2.400 -33.736  1.00  0.00     0.017 A 
ENDBRANCH   1  16
TORSDOF 4
ENDMDL
MODEL 2
REMARK VINA RESULT:      -7.7      1.426      1.727
REMARK  4 active torsions:
REMARK  status: ('A' for Active; 'I' for Inactive)
REMARK    1  A    between atoms: C_5  and  C_6 
REMARK       I    between atoms: C_6  and  N_7 
REMARK    2  A    between atoms: N_7  and  C_8 
REMARK    3  A    between atoms: C_8  and  N_9 
REMARK    4  A    between atoms: N_9  and  C_10 
ROOT
HETATM    1  C   UNL     1      -4.128   0.202 -32.540  1.00  0.00     0.257 C 
HETATM    2  N   UNL     1      -4.720   1.437 -32.785  1.00  0.00    -0.299 N 
HETATM    3  O   UNL     1      -3.150  -0.016 -31.836  1.00  0.00    -0.267 OA
HETATM    4  H   UNL     1      -5.451   1.449 -33.491  1.00  0.00     0.171 HD
ENDROOT
BRANCH   2   5
HETATM    5  C   UNL     1      -4.452   2.702 -32.300  1.00  0.00     0.180 C 
HETATM    6  S   UNL     1      -5.559   3.853 -31.809  1.00  0.00    -0.040 SA
BRANCH   5   7
HETATM    7  N   UNL     1      -3.122   3.041 -32.204  1.00  0.00    -0.318 N 
HETATM    8  H   UNL     1      -2.570   2.382 -31.671  1.00  0.00     0.170 HD
BRANCH   7   9
HETATM    9  C   UNL     1      -2.456   4.150 -32.748  1.00  0.00     0.129 A 
HETATM   10  N   UNL     1      -2.646   4.468 -34.049  1.00  0.00    -0.243 NA
HETATM   11  C   UNL     1      -1.979   5.543 -34.528  1.00  0.00     0.119 A 
HETATM   12  C   UNL     1      -1.122   6.320 -33.769  1.00  0.00     0.026 A 
HETATM   13  C   UNL     1      -0.936   5.988 -32.428  1.00  0.00    -0.057 A 
HETATM   14  C   UNL     1       0.007   6.768 -31.563  1.00  0.00     0.048 C 
HETATM   15  C   UNL     1      -1.616   4.879 -31.914  1.00  0.00     0.057 A 
ENDBRANCH   7   9
ENDBRANCH   5   7
ENDBRANCH   2   5
BRANCH   1  16
HETATM   16  C   UNL     1      -4.743  -0.928 -33.293  1.00  0.00     0.032 A 
HETATM   17  C   UNL     1      -6.066  -0.799 -33.724  1.00  0.00     0.017 A 
HETATM   18  C   UNL     1      -6.695  -1.859 -34.381  1.00  0.00     0.007 A 
HETATM   19  C   UNL     1      -6.003  -3.051 -34.626  1.00  0.00    -0.062 A 
HETATM   20  C   UNL     1      -6.675  -4.205 -35.312  1.00  0.00     0.048 C 
HETATM   21  C   UNL     1      -4.667  -3.163 -34.223  1.00  0.00     0.007 A 
HETATM   22  C   UNL     1      -4.035  -2.106 -33.562  1.00  0.00     0.017 A 
ENDBRANCH   1  16
TORSDOF 4
ENDMDL
MODEL 3
REMARK VINA RESULT:      -7.5      4.417      6.144
REMARK  4 active torsions:
REMARK  status: ('A' for Active; 'I' for Inactive)
REMARK    1  A    between atoms: C_5  and  C_6 
REMARK       I    between atoms: C_6  and  N_7 
REMARK    2  A    between atoms: N_7  and  C_8 
REMARK    3  A    between atoms: C_8  and  N_9 
REMARK    4  A    between atoms: N_9  and  C_10 
ROOT
HETATM    1  C   UNL     1      -7.201  -0.127 -34.513  1.00  0.00     0.257 C 
HETATM    2  N   UNL     1      -7.529   0.511 -33.320  1.00  0.00    -0.299 N 
HETATM    3  O   UNL     1      -7.614   0.152 -35.631  1.00  0.00    -0.267 OA
HETATM    4  H   UNL     1      -7.187   0.071 -32.471  1.00  0.00     0.171 HD
ENDROOT
BRANCH   2   5
HETATM    5  C   UNL     1      -8.313   1.614 -33.049  1.00  0.00     0.180 C 
HETATM    6  S   UNL     1      -8.539   2.357 -31.569  1.00  0.00    -0.040 SA
BRANCH   5   7
HETATM    7  N   UNL     1      -8.973   2.163 -34.124  1.00  0.00    -0.318 N 
HETATM    8  H   UNL     1      -8.358   2.565 -34.819  1.00  0.00     0.170 HD
BRANCH   7   9
HETATM    9  C   UNL     1     -10.353   2.222 -34.373  1.00  0.00     0.129 A 
HETATM   10  N   UNL     1     -10.879   3.326 -34.950  1.00  0.00    -0.243 NA
HETATM   11  C   UNL     1     -12.214   3.337 -35.165  1.00  0.00     0.119 A 
HETATM   12  C   UNL     1     -13.059   2.295 -34.827  1.00  0.00     0.026 A 
HETATM   13  C   UNL     1     -12.508   1.159 -34.237  1.00  0.00    -0.057 A 
HETATM   14  C   UNL     1     -13.374   0.011 -33.813  1.00  0.00     0.048 C 
HETATM   15  C   UNL     1     -11.129   1.128 -34.005  1.00  0.00     0.057 A 
ENDBRANCH   7   9
ENDBRANCH   5   7
ENDBRANCH   2   5
BRANCH   1  16
HETATM   16  C   UNL     1      -6.308  -1.309 -34.345  1.00  0.00     0.032 A 
HETATM   17  C   UNL     1      -5.105  -1.142 -33.655  1.00  0.00     0.017 A 
HETATM   18  C   UNL     1      -4.216  -2.211 -33.529  1.00  0.00     0.007 A 
HETATM   19  C   UNL     1      -4.527  -3.461 -34.079  1.00  0.00    -0.062 A 
HETATM   20  C   UNL     1      -3.570  -4.611 -33.968  1.00  0.00     0.048 C 
HETATM   21  C   UNL     1      -5.750  -3.632 -34.740  1.00  0.00     0.007 A 
HETATM   22  C   UNL     1      -6.641  -2.564 -34.870  1.00  0.00     0.017 A 
ENDBRANCH   1  16
TORSDOF 4
ENDMDL
MODEL 4
REMARK VINA RESULT:      -7.4      2.144      7.053
REMARK  4 active torsions:
REMARK  status: ('A' for Active; 'I' for Inactive)
REMARK    1  A    between atoms: C_5  and  C_6 
REMARK       I    between atoms: C_6  and  N_7 
REMARK    2  A    between atoms: N_7  and  C_8 
REMARK    3  A    between atoms: C_8  and  N_9 
REMARK    4  A    between atoms: N_9  and  C_10 
ROOT
HETATM    1  C   UNL     1      -6.235   3.242 -32.994  1.00  0.00     0.257 C 
HETATM    2  N   UNL     1      -6.643   2.140 -33.739  1.00  0.00    -0.299 N 
HETATM    3  O   UNL     1      -6.849   3.774 -32.077  1.00  0.00    -0.267 OA
HETATM    4  H   UNL     1      -6.064   1.905 -34.541  1.00  0.00     0.171 HD
ENDROOT
BRANCH   2   5
HETATM    5  C   UNL     1      -7.751   1.321 -33.646  1.00  0.00     0.180 C 
HETATM    6  S   UNL     1      -9.324   1.697 -34.065  1.00  0.00    -0.040 SA
BRANCH   5   7
HETATM    7  N   UNL     1      -7.525   0.054 -33.162  1.00  0.00    -0.318 N 
HETATM    8  H   UNL     1      -8.146  -0.212 -32.409  1.00  0.00     0.170 HD
BRANCH   7   9
HETATM    9  C   UNL     1      -6.573  -0.890 -33.577  1.00  0.00     0.129 A 
HETATM   10  N   UNL     1      -5.258  -0.629 -33.403  1.00  0.00    -0.243 NA
HETATM   11  C   UNL     1      -4.379  -1.568 -33.824  1.00  0.00     0.119 A 
HETATM   12  C   UNL     1      -4.750  -2.761 -34.417  1.00  0.00     0.026 A 
HETATM   13  C   UNL     1      -6.108  -3.023 -34.588  1.00  0.00    -0.057 A 
HETATM   14  C   UNL     1      -6.573  -4.281 -35.258  1.00  0.00     0.048 C 
HETATM   15  C   UNL     1      -7.033  -2.065 -34.161  1.00  0.00     0.057 A 
ENDBRANCH   7   9
ENDBRANCH   5   7
ENDBRANCH   2   5
BRANCH   1  16
HETATM   16  C   UNL     1      -4.948   3.841 -33.446  1.00  0.00     0.032 A 
HETATM   17  C   UNL     1      -3.780   3.510 -32.753  1.00  0.00     0.017 A 
HETATM   18  C   UNL     1      -2.564   4.096 -33.111  1.00  0.00     0.007 A 
HETATM   19  C   UNL     1      -2.501   5.007 -34.172  1.00  0.00    -0.062 A 
HETATM   20  C   UNL     1      -1.204   5.660 -34.551  1.00  0.00     0.048 C 
HETATM   21  C   UNL     1      -3.668   5.309 -34.885  1.00  0.00     0.007 A 
HETATM   22  C   UNL     1      -4.887   4.727 -34.529  1.00  0.00     0.017 A 
ENDBRANCH   1  16
TORSDOF 4
ENDMDL
MODEL 5
REMARK VINA RESULT:      -7.4      1.583      1.956
REMARK  4 active torsions:
REMARK  status: ('A' for Active; 'I' for Inactive)
REMARK    1  A    between atoms: C_5  and  C_6 
REMARK       I    between atoms: C_6  and  N_7 
REMARK    2  A    between atoms: N_7  and  C_8 
REMARK    3  A    between atoms: C_8  and  N_9 
REMARK    4  A    between atoms: N_9  and  C_10 
ROOT
HETATM    1  C   UNL     1      -5.284   0.468 -32.648  1.00  0.00     0.257 C 
HETATM    2  N   UNL     1      -5.626   1.613 -33.360  1.00  0.00    -0.299 N 
HETATM    3  O   UNL     1      -4.800   0.421 -31.524  1.00  0.00    -0.267 OA
HETATM    4  H   UNL     1      -5.904   1.470 -34.327  1.00  0.00     0.171 HD
ENDROOT
BRANCH   2   5
HETATM    5  C   UNL     1      -5.592   2.952 -33.027  1.00  0.00     0.180 C 
HETATM    6  S   UNL     1      -6.544   4.176 -33.652  1.00  0.00    -0.040 SA
BRANCH   5   7
HETATM    7  N   UNL     1      -4.676   3.311 -32.066  1.00  0.00    -0.318 N 
HETATM    8  H   UNL     1      -4.862   2.910 -31.155  1.00  0.00     0.170 HD
BRANCH   7   9
HETATM    9  C   UNL     1      -3.543   4.130 -32.192  1.00  0.00     0.129 A 
HETATM   10  N   UNL     1      -3.057   4.765 -31.102  1.00  0.00    -0.243 NA
HETATM   11  C   UNL     1      -1.967   5.547 -31.275  1.00  0.00     0.119 A 
HETATM   12  C   UNL     1      -1.334   5.730 -32.491  1.00  0.00     0.026 A 
HETATM   13  C   UNL     1      -1.839   5.067 -33.608  1.00  0.00    -0.057 A 
HETATM   14  C   UNL     1      -1.222   5.253 -34.962  1.00  0.00     0.048 C 
HETATM   15  C   UNL     1      -2.968   4.255 -33.451  1.00  0.00     0.057 A 
ENDBRANCH   7   9
ENDBRANCH   5   7
ENDBRANCH   2   5
BRANCH   1  16
HETATM   16  C   UNL     1      -5.478  -0.801 -33.405  1.00  0.00     0.032 A 
HETATM   17  C   UNL     1      -6.779  -1.176 -33.753  1.00  0.00     0.017 A 
HETATM   18  C   UNL     1      -7.006  -2.387 -34.411  1.00  0.00     0.007 A 
HETATM   19  C   UNL     1      -5.936  -3.227 -34.739  1.00  0.00    -0.062 A 
HETATM   20  C   UNL     1      -6.170  -4.540 -35.427  1.00  0.00     0.048 C 
HETATM   21  C   UNL     1      -4.631  -2.830 -34.419  1.00  0.00     0.007 A 
HETATM   22  C   UNL     1      -4.399  -1.621 -33.759  1.00  0.00     0.017 A 
ENDBRANCH   1  16
TORSDOF 4
ENDMDL
MODEL 6
REMARK VINA RESULT:      -7.4      3.738      5.302
REMARK  4 active torsions:
REMARK  status: ('A' for Active; 'I' for Inactive)
REMARK    1  A    between atoms: C_5  and  C_6 
REMARK       I    between atoms: C_6  and  N_7 
REMARK    2  A    between atoms: N_7  and  C_8 
REMARK    3  A    between atoms: C_8  and  N_9 
REMARK    4  A    between atoms: N_9  and  C_10 
ROOT
HETATM    1  C   UNL     1      -5.622   0.593 -33.346  1.00  0.00     0.257 C 
HETATM    2  N   UNL     1      -6.526   1.447 -33.970  1.00  0.00    -0.299 N 
HETATM    3  O   UNL     1      -4.750   0.907 -32.546  1.00  0.00    -0.267 OA
HETATM    4  H   UNL     1      -7.102   1.033 -34.697  1.00  0.00     0.171 HD
ENDROOT
BRANCH   2   5
HETATM    5  C   UNL     1      -6.751   2.804 -33.846  1.00  0.00     0.180 C 
HETATM    6  S   UNL     1      -5.643   4.037 -34.058  1.00  0.00    -0.040 SA
BRANCH   5   7
HETATM    7  N   UNL     1      -8.034   3.175 -33.518  1.00  0.00    -0.318 N 
HETATM    8  H   UNL     1      -8.104   4.106 -33.130  1.00  0.00     0.170 HD
BRANCH   7   9
HETATM    9  C   UNL     1      -9.224   2.445 -33.662  1.00  0.00     0.129 A 
HETATM   10  N   UNL     1      -9.360   1.261 -33.022  1.00  0.00    -0.243 NA
HETATM   11  C   UNL     1     -10.523   0.593 -33.195  1.00  0.00     0.119 A 
HETATM   12  C   UNL     1     -11.565   1.048 -33.983  1.00  0.00     0.026 A 
HETATM   13  C   UNL     1     -11.418   2.272 -34.635  1.00  0.00    -0.057 A 
HETATM   14  C   UNL     1     -12.495   2.802 -35.533  1.00  0.00     0.048 C 
HETATM   15  C   UNL     1     -10.222   2.978 -34.470  1.00  0.00     0.057 A 
ENDBRANCH   7   9
ENDBRANCH   5   7
ENDBRANCH   2   5
BRANCH   1  16
HETATM   16  C   UNL     1      -5.722  -0.827 -33.786  1.00  0.00     0.032 A 
HETATM   17  C   UNL     1      -4.554  -1.592 -33.837  1.00  0.00     0.017 A 
HETATM   18  C   UNL     1      -4.599  -2.909 -34.300  1.00  0.00     0.007 A 
HETATM   19  C   UNL     1      -5.813  -3.477 -34.703  1.00  0.00    -0.062 A 
HETATM   20  C   UNL     1      -5.871  -4.884 -35.223  1.00  0.00     0.048 C 
HETATM   21  C   UNL     1      -6.987  -2.717 -34.618  1.00  0.00     0.007 A 
HETATM   22  C   UNL     1      -6.946  -1.399 -34.158  1.00  0.00     0.017 A 
ENDBRANCH   1  16
TORSDOF 4
ENDMDL
MODEL 7
REMARK VINA RESULT:      -7.1      2.079      2.839
REMARK  4 active torsions:
REMARK  status: ('A' for Active; 'I' for Inactive)
REMARK    1  A    between atoms: C_5  and  C_6 
REMARK       I    between atoms: C_6  and  N_7 
REMARK    2  A    between atoms: N_7  and  C_8 
REMARK    3  A    between atoms: C_8  and  N_9 
REMARK    4  A    between atoms: N_9  and  C_10 
ROOT
HETATM    1  C   UNL     1      -6.771   0.310 -34.614  1.00  0.00     0.257 C 
HETATM    2  N   UNL     1      -7.074   1.012 -33.451  1.00  0.00    -0.299 N 
HETATM    3  O   UNL     1      -7.105   0.605 -35.755  1.00  0.00    -0.267 OA
HETATM    4  H   UNL     1      -6.819   0.559 -32.578  1.00  0.00     0.171 HD
ENDROOT
BRANCH   2   5
HETATM    5  C   UNL     1      -7.738   2.203 -33.238  1.00  0.00     0.180 C 
HETATM    6  S   UNL     1      -9.360   2.517 -33.492  1.00  0.00    -0.040 SA
BRANCH   5   7
HETATM    7  N   UNL     1      -6.975   3.241 -32.755  1.00  0.00    -0.318 N 
HETATM    8  H   UNL     1      -7.514   3.969 -32.306  1.00  0.00     0.170 HD
BRANCH   7   9
HETATM    9  C   UNL     1      -5.582   3.402 -32.799  1.00  0.00     0.129 A 
HETATM   10  N   UNL     1      -4.803   2.692 -31.952  1.00  0.00    -0.243 NA
HETATM   11  C   UNL     1      -3.466   2.885 -32.029  1.00  0.00     0.119 A 
HETATM   12  C   UNL     1      -2.863   3.761 -32.914  1.00  0.00     0.026 A 
HETATM   13  C   UNL     1      -3.674   4.485 -33.787  1.00  0.00    -0.057 A 
HETATM   14  C   UNL     1      -3.085   5.478 -34.744  1.00  0.00     0.048 C 
HETATM   15  C   UNL     1      -5.059   4.301 -33.721  1.00  0.00     0.057 A 
ENDBRANCH   7   9
ENDBRANCH   5   7
ENDBRANCH   2   5
BRANCH   1  16
HETATM   16  C   UNL     1      -6.026  -0.959 -34.383  1.00  0.00     0.032 A 
HETATM   17  C   UNL     1      -4.860  -0.916 -33.614  1.00  0.00     0.017 A 
HETATM   18  C   UNL     1      -4.103  -2.074 -33.425  1.00  0.00     0.007 A 
HETATM   19  C   UNL     1      -4.512  -3.289 -33.989  1.00  0.00    -0.062 A 
HETATM   20  C   UNL     1      -3.696  -4.535 -33.810  1.00  0.00     0.048 C 
HETATM   21  C   UNL     1      -5.700  -3.334 -34.729  1.00  0.00     0.007 A 
HETATM   22  C   UNL     1      -6.459  -2.177 -34.924  1.00  0.00     0.017 A 
ENDBRANCH   1  16
TORSDOF 4
ENDMDL
MODEL 8
REMARK VINA RESULT:      -7.0      2.584      7.493
REMARK  4 active torsions:
REMARK  status: ('A' for Active; 'I' for Inactive)
REMARK    1  A    between atoms: C_5  and  C_6 
REMARK       I    between atoms: C_6  and  N_7 
REMARK    2  A    between atoms: N_7  and  C_8 
REMARK    3  A    between atoms: C_8  and  N_9 
REMARK    4  A    between atoms: N_9  and  C_10 
ROOT
HETATM    1  C   UNL     1      -4.002   5.311 -34.158  1.00  0.00     0.257 C 
HETATM    2  N   UNL     1      -5.088   4.897 -33.393  1.00  0.00    -0.299 N 
HETATM    3  O   UNL     1      -3.929   5.325 -35.380  1.00  0.00    -0.267 OA
HETATM    4  H   UNL     1      -4.932   4.838 -32.391  1.00  0.00     0.171 HD
ENDROOT
BRANCH   2   5
HETATM    5  C   UNL     1      -6.352   4.465 -33.743  1.00  0.00     0.180 C 
HETATM    6  S   UNL     1      -7.797   5.272 -33.513  1.00  0.00    -0.040 SA
BRANCH   5   7
HETATM    7  N   UNL     1      -6.420   3.235 -34.355  1.00  0.00    -0.318 N 
HETATM    8  H   UNL     1      -6.700   3.277 -35.326  1.00  0.00     0.170 HD
BRANCH   7   9
HETATM    9  C   UNL     1      -6.147   1.968 -33.817  1.00  0.00     0.129 A 
HETATM   10  N   UNL     1      -5.419   1.870 -32.682  1.00  0.00    -0.243 NA
HETATM   11  C   UNL     1      -5.178   0.627 -32.205  1.00  0.00     0.119 A 
HETATM   12  C   UNL     1      -5.628  -0.532 -32.810  1.00  0.00     0.026 A 
HETATM   13  C   UNL     1      -6.382  -0.421 -33.977  1.00  0.00    -0.057 A 
HETATM   14  C   UNL     1      -6.867  -1.641 -34.702  1.00  0.00     0.048 C 
HETATM   15  C   UNL     1      -6.641   0.855 -34.488  1.00  0.00     0.057 A 
ENDBRANCH   7   9
ENDBRANCH   5   7
ENDBRANCH   2   5
BRANCH   1  16
HETATM   16  C   UNL     1      -2.807   5.699 -33.357  1.00  0.00     0.032 A 
HETATM   17  C   UNL     1      -2.521   7.058 -33.204  1.00  0.00     0.017 A 
HETATM   18  C   UNL     1      -1.377   7.459 -32.510  1.00  0.00     0.007 A 
HETATM   19  C   UNL     1      -0.516   6.507 -31.951  1.00  0.00    -0.062 A 
HETATM   20  C   UNL     1       0.727   6.925 -31.222  1.00  0.00     0.048 C 
HETATM   21  C   UNL     1      -0.826   5.147 -32.078  1.00  0.00     0.007 A 
HETATM   22  C   UNL     1      -1.967   4.741 -32.774  1.00  0.00     0.017 A 
ENDBRANCH   1  16
TORSDOF 4
ENDMDL
MODEL 9
REMARK VINA RESULT:      -6.9      2.136      2.624
REMARK  4 active torsions:
REMARK  status: ('A' for Active; 'I' for Inactive)
REMARK    1  A    between atoms: C_5  and  C_6 
REMARK       I    between atoms: C_6  and  N_7 
REMARK    2  A    between atoms: N_7  and  C_8 
REMARK    3  A    between atoms: C_8  and  N_9 
REMARK    4  A    between atoms: N_9  and  C_10 
ROOT
HETATM    1  C   UNL     1      -6.176   1.700 -33.158  1.00  0.00     0.257 C 
HETATM    2  N   UNL     1      -4.965   2.371 -33.021  1.00  0.00    -0.299 N 
HETATM    3  O   UNL     1      -7.288   2.132 -32.883  1.00  0.00    -0.267 OA
HETATM    4  H   UNL     1      -4.128   1.818 -33.184  1.00  0.00     0.171 HD
ENDROOT
BRANCH   2   5
HETATM    5  C   UNL     1      -4.663   3.659 -32.624  1.00  0.00     0.180 C 
HETATM    6  S   UNL     1      -5.083   4.399 -31.186  1.00  0.00    -0.040 SA
BRANCH   5   7
HETATM    7  N   UNL     1      -3.926   4.406 -33.513  1.00  0.00    -0.318 N 
HETATM    8  H   UNL     1      -4.198   4.275 -34.479  1.00  0.00     0.170 HD
BRANCH   7   9
HETATM    9  C   UNL     1      -2.884   5.308 -33.253  1.00  0.00     0.129 A 
HETATM   10  N   UNL     1      -2.903   6.532 -33.828  1.00  0.00    -0.243 NA
HETATM   11  C   UNL     1      -1.874   7.365 -33.549  1.00  0.00     0.119 A 
HETATM   12  C   UNL     1      -0.816   7.033 -32.722  1.00  0.00     0.026 A 
HETATM   13  C   UNL     1      -0.807   5.771 -32.130  1.00  0.00    -0.057 A 
HETATM   14  C   UNL     1       0.330   5.338 -31.253  1.00  0.00     0.048 C 
HETATM   15  C   UNL     1      -1.861   4.895 -32.406  1.00  0.00     0.057 A 
ENDBRANCH   7   9
ENDBRANCH   5   7
ENDBRANCH   2   5
BRANCH   1  16
HETATM   16  C   UNL     1      -6.042   0.291 -33.622  1.00  0.00     0.032 A 
HETATM   17  C   UNL     1      -7.069  -0.255 -34.398  1.00  0.00     0.017 A 
HETATM   18  C   UNL     1      -7.006  -1.590 -34.803  1.00  0.00     0.007 A 
HETATM   19  C   UNL     1      -5.912  -2.388 -34.448  1.00  0.00    -0.062 A 
HETATM   20  C   UNL     1      -5.844  -3.830 -34.859  1.00  0.00     0.048 C 
HETATM   21  C   UNL     1      -4.870  -1.827 -33.699  1.00  0.00     0.007 A 
HETATM   22  C   UNL     1      -4.929  -0.492 -33.290  1.00  0.00     0.017 A 
ENDBRANCH   1  16
TORSDOF 4
ENDMDL
MODEL 10
REMARK VINA RESULT:      -6.8      3.021      4.020
REMARK  4 active torsions:
REMARK  status: ('A' for Active; 'I' for Inactive)
REMARK    1  A    between atoms: C_5  and  C_6 
REMARK       I    between atoms: C_6  and  N_7 
REMARK    2  A    between atoms: N_7  and  C_8 
REMARK    3  A    between atoms: C_8  and  N_9 
REMARK    4  A    between atoms: N_9  and  C_10 
ROOT
HETATM    1  C   UNL     1      -7.060  -0.163 -34.480  1.00  0.00     0.257 C 
HETATM    2  N   UNL     1      -8.073  -0.028 -33.536  1.00  0.00    -0.299 N 
HETATM    3  O   UNL     1      -6.827   0.589 -35.418  1.00  0.00    -0.267 OA
HETATM    4  H   UNL     1      -8.195  -0.809 -32.898  1.00  0.00     0.171 HD
ENDROOT
BRANCH   2   5
HETATM    5  C   UNL     1      -9.022   0.955 -33.334  1.00  0.00     0.180 C 
HETATM    6  S   UNL     1     -10.683   0.782 -33.384  1.00  0.00    -0.040 SA
BRANCH   5   7
HETATM    7  N   UNL     1      -8.538   2.211 -33.054  1.00  0.00    -0.318 N 
HETATM    8  H   UNL     1      -8.846   2.922 -33.704  1.00  0.00     0.170 HD
BRANCH   7   9
HETATM    9  C   UNL     1      -7.702   2.618 -32.002  1.00  0.00     0.129 A 
HETATM   10  N   UNL     1      -8.230   2.818 -30.773  1.00  0.00    -0.243 NA
HETATM   11  C   UNL     1      -7.386   3.214 -29.793  1.00  0.00     0.119 A 
HETATM   12  C   UNL     1      -6.032   3.424 -29.979  1.00  0.00     0.026 A 
HETATM   13  C   UNL     1      -5.495   3.210 -31.248  1.00  0.00    -0.057 A 
HETATM   14  C   UNL     1      -4.042   3.456 -31.524  1.00  0.00     0.048 C 
HETATM   15  C   UNL     1      -6.352   2.802 -32.276  1.00  0.00     0.057 A 
ENDBRANCH   7   9
ENDBRANCH   5   7
ENDBRANCH   2   5
BRANCH   1  16
HETATM   16  C   UNL     1      -6.251  -1.405 -34.332  1.00  0.00     0.032 A 
HETATM   17  C   UNL     1      -5.001  -1.316 -33.712  1.00  0.00     0.017 A 
HETATM   18  C   UNL     1      -4.189  -2.447 -33.607  1.00  0.00     0.007 A 
HETATM   19  C   UNL     1      -4.624  -3.681 -34.107  1.00  0.00    -0.062 A 
HETATM   20  C   UNL     1      -3.751  -4.898 -34.020  1.00  0.00     0.048 C 
HETATM   21  C   UNL     1      -5.891  -3.772 -34.696  1.00  0.00     0.007 A 
HETATM   22  C   UNL     1      -6.705  -2.642 -34.806  1.00  0.00     0.017 A 
ENDBRANCH   1  16
TORSDOF 4
ENDMDL
