MODEL 1
REMARK VINA RESULT:      -6.0      0.000      0.000
REMARK  2 active torsions:
REMARK  status: ('A' for Active; 'I' for Inactive)
REMARK    1  A    between atoms: N_7  and  C_9 
REMARK    2  A    between atoms: C_9  and  C_10 
ROOT
HETATM    1  C   UNL     1     -13.129   1.166 -34.360  1.00  0.00     0.136 A 
HETATM    2  N   UNL     1     -12.430   0.305 -33.548  1.00  0.00    -0.244 NA
HETATM    3  C   UNL     1     -11.188   0.734 -33.563  1.00  0.00     0.131 A 
HETATM    4  N   UNL     1     -11.069   1.840 -34.364  1.00  0.00    -0.341 N 
HETATM    5  C   UNL     1      -9.820   2.514 -34.645  1.00  0.00     0.157 C 
HETATM    6  C   UNL     1      -8.736   2.151 -33.624  1.00  0.00     0.256 C 
HETATM    7  N   UNL     1      -8.703   0.648 -33.386  1.00  0.00    -0.059 N 
HETATM    8  H   UNL     1      -8.595   0.180 -34.295  1.00  0.00     0.280 HD
HETATM    9  C   UNL     1     -10.032   0.169 -32.825  1.00  0.00     0.313 C 
HETATM   10  C   UNL     1     -12.295   2.128 -34.880  1.00  0.00     0.111 A 
ENDROOT
BRANCH   7  11
HETATM   11  C   UNL     1      -7.559   0.185 -32.523  1.00  0.00     0.274 C 
BRANCH  11  12
HETATM   12  C   UNL     1      -6.703  -0.836 -33.201  1.00  0.00    -0.024 A 
HETATM   13  C   UNL     1      -5.318  -0.806 -33.250  1.00  0.00     0.059 A 
HETATM   14  S   UNL     1      -4.656  -2.145 -34.091  1.00  0.00    -0.094 SA
HETATM   15  C   UNL     1      -6.197  -2.755 -34.424  1.00  0.00     0.051 A 
HETATM   16 BR   UNL     1      -6.490  -4.328 -35.396  1.00  0.00    -0.043 Br
HETATM   17  C   UNL     1      -7.208  -1.983 -33.909  1.00  0.00     0.036 A 
ENDBRANCH  11  12
ENDBRANCH   7  11
TORSDOF 2
ENDMDL
MODEL 2
REMARK VINA RESULT:      -5.8      3.459      5.081
REMARK  2 active torsions:
REMARK  status: ('A' for Active; 'I' for Inactive)
REMARK    1  A    between atoms: N_7  and  C_9 
REMARK    2  A    between atoms: C_9  and  C_10 
ROOT
HETATM    1  C   UNL     1      -4.612   5.939 -33.177  1.00  0.00     0.136 A 
HETATM    2  N   UNL     1      -5.256   5.154 -34.102  1.00  0.00    -0.244 NA
HETATM    3  C   UNL     1      -5.587   4.054 -33.465  1.00  0.00     0.131 A 
HETATM    4  N   UNL     1      -5.169   4.108 -32.161  1.00  0.00    -0.341 N 
HETATM    5  C   UNL     1      -5.321   3.028 -31.210  1.00  0.00     0.157 C 
HETATM    6  C   UNL     1      -6.373   2.012 -31.666  1.00  0.00     0.256 C 
HETATM    7  N   UNL     1      -6.174   1.654 -33.132  1.00  0.00    -0.059 N 
HETATM    8  H   UNL     1      -5.204   1.337 -33.259  1.00  0.00     0.280 HD
HETATM    9  C   UNL     1      -6.328   2.888 -34.006  1.00  0.00     0.313 C 
HETATM   10  C   UNL     1      -4.546   5.301 -31.960  1.00  0.00     0.111 A 
ENDROOT
BRANCH   7  11
HETATM   11  C   UNL     1      -7.060   0.538 -33.621  1.00  0.00     0.274 C 
BRANCH  11  12
HETATM   12  C   UNL     1      -6.301  -0.720 -33.894  1.00  0.00    -0.024 A 
HETATM   13  C   UNL     1      -4.959  -0.918 -33.607  1.00  0.00     0.059 A 
HETATM   14  S   UNL     1      -4.415  -2.486 -34.032  1.00  0.00    -0.094 SA
HETATM   15  C   UNL     1      -5.940  -2.904 -34.629  1.00  0.00     0.051 A 
HETATM   16 BR   UNL     1      -6.327  -4.576 -35.375  1.00  0.00    -0.043 Br
HETATM   17  C   UNL     1      -6.863  -1.894 -34.509  1.00  0.00     0.036 A 
ENDBRANCH  11  12
ENDBRANCH   7  11
TORSDOF 2
ENDMDL
MODEL 3
REMARK VINA RESULT:      -5.7      5.037      6.712
REMARK  2 active torsions:
REMARK  status: ('A' for Active; 'I' for Inactive)
REMARK    1  A    between atoms: N_7  and  C_9 
REMARK    2  A    between atoms: C_9  and  C_10 
ROOT
HETATM    1  C   UNL     1      -5.478  -3.351 -34.912  1.00  0.00     0.136 A 
HETATM    2  N   UNL     1      -4.424  -2.613 -34.430  1.00  0.00    -0.244 NA
HETATM    3  C   UNL     1      -4.963  -1.591 -33.806  1.00  0.00     0.131 A 
HETATM    4  N   UNL     1      -6.331  -1.648 -33.879  1.00  0.00    -0.341 N 
HETATM    5  C   UNL     1      -7.220  -0.637 -33.348  1.00  0.00     0.157 C 
HETATM    6  C   UNL     1      -6.515   0.260 -32.325  1.00  0.00     0.256 C 
HETATM    7  N   UNL     1      -5.154   0.701 -32.845  1.00  0.00    -0.059 N 
HETATM    8  H   UNL     1      -5.287   1.141 -33.765  1.00  0.00     0.280 HD
HETATM    9  C   UNL     1      -4.259  -0.503 -33.083  1.00  0.00     0.313 C 
HETATM   10  C   UNL     1      -6.676  -2.763 -34.579  1.00  0.00     0.111 A 
ENDROOT
BRANCH   7  11
HETATM   11  C   UNL     1      -4.463   1.719 -31.976  1.00  0.00     0.274 C 
BRANCH  11  12
HETATM   12  C   UNL     1      -4.198   3.003 -32.694  1.00  0.00    -0.024 A 
HETATM   13  C   UNL     1      -5.164   3.779 -33.316  1.00  0.00     0.059 A 
HETATM   14  S   UNL     1      -4.517   5.199 -34.024  1.00  0.00    -0.094 SA
HETATM   15  C   UNL     1      -2.952   4.781 -33.543  1.00  0.00     0.051 A 
HETATM   16 BR   UNL     1      -1.448   5.830 -33.920  1.00  0.00    -0.043 Br
HETATM   17  C   UNL     1      -2.897   3.599 -32.848  1.00  0.00     0.036 A 
ENDBRANCH  11  12
ENDBRANCH   7  11
TORSDOF 2
ENDMDL
MODEL 4
REMARK VINA RESULT:      -5.6      5.682      7.028
REMARK  2 active torsions:
REMARK  status: ('A' for Active; 'I' for Inactive)
REMARK    1  A    between atoms: N_7  and  C_9 
REMARK    2  A    between atoms: C_9  and  C_10 
ROOT
HETATM    1  C   UNL     1      -6.690  -0.976 -34.859  1.00  0.00     0.136 A 
HETATM    2  N   UNL     1      -5.633  -0.955 -33.983  1.00  0.00    -0.244 NA
HETATM    3  C   UNL     1      -5.526   0.293 -33.585  1.00  0.00     0.131 A 
HETATM    4  N   UNL     1      -6.480   1.073 -34.185  1.00  0.00    -0.341 N 
HETATM    5  C   UNL     1      -6.592   2.505 -34.010  1.00  0.00     0.157 C 
HETATM    6  C   UNL     1      -5.839   2.987 -32.766  1.00  0.00     0.256 C 
HETATM    7  N   UNL     1      -4.452   2.362 -32.702  1.00  0.00    -0.059 N 
HETATM    8  H   UNL     1      -3.968   2.560 -33.587  1.00  0.00     0.280 HD
HETATM    9  C   UNL     1      -4.555   0.849 -32.611  1.00  0.00     0.313 C 
HETATM   10  C   UNL     1      -7.230   0.282 -34.999  1.00  0.00     0.111 A 
ENDROOT
BRANCH   7  11
HETATM   11  C   UNL     1      -3.580   2.907 -31.600  1.00  0.00     0.274 C 
BRANCH  11  12
HETATM   12  C   UNL     1      -2.620   3.944 -32.087  1.00  0.00    -0.024 A 
HETATM   13  C   UNL     1      -2.470   4.329 -33.411  1.00  0.00     0.059 A 
HETATM   14  S   UNL     1      -1.296   5.560 -33.613  1.00  0.00    -0.094 SA
HETATM   15  C   UNL     1      -0.952   5.568 -31.958  1.00  0.00     0.051 A 
HETATM   16 BR   UNL     1       0.329   6.690 -31.181  1.00  0.00    -0.043 Br
HETATM   17  C   UNL     1      -1.709   4.672 -31.244  1.00  0.00     0.036 A 
ENDBRANCH  11  12
ENDBRANCH   7  11
TORSDOF 2
ENDMDL
MODEL 5
REMARK VINA RESULT:      -5.6      2.206      3.428
REMARK  2 active torsions:
REMARK  status: ('A' for Active; 'I' for Inactive)
REMARK    1  A    between atoms: N_7  and  C_9 
REMARK    2  A    between atoms: C_9  and  C_10 
ROOT
HETATM    1  C   UNL     1     -15.502   2.428 -32.037  1.00  0.00     0.136 A 
HETATM    2  N   UNL     1     -14.298   3.057 -31.836  1.00  0.00    -0.244 NA
HETATM    3  C   UNL     1     -13.496   2.595 -32.769  1.00  0.00     0.131 A 
HETATM    4  N   UNL     1     -14.150   1.685 -33.559  1.00  0.00    -0.341 N 
HETATM    5  C   UNL     1     -13.528   0.945 -34.636  1.00  0.00     0.157 C 
HETATM    6  C   UNL     1     -12.216   1.592 -35.088  1.00  0.00     0.256 C 
HETATM    7  N   UNL     1     -11.359   1.966 -33.887  1.00  0.00    -0.059 N 
HETATM    8  H   UNL     1     -11.233   1.126 -33.306  1.00  0.00     0.280 HD
HETATM    9  C   UNL     1     -12.082   2.975 -33.011  1.00  0.00     0.313 C 
HETATM   10  C   UNL     1     -15.427   1.566 -33.107  1.00  0.00     0.111 A 
ENDROOT
BRANCH   7  11
HETATM   11  C   UNL     1      -9.979   2.456 -34.242  1.00  0.00     0.274 C 
BRANCH  11  12
HETATM   12  C   UNL     1      -8.903   1.521 -33.792  1.00  0.00    -0.024 A 
HETATM   13  C   UNL     1      -8.198   1.634 -32.604  1.00  0.00     0.059 A 
HETATM   14  S   UNL     1      -7.051   0.378 -32.393  1.00  0.00    -0.094 SA
HETATM   15  C   UNL     1      -7.455  -0.304 -33.886  1.00  0.00     0.051 A 
HETATM   16 BR   UNL     1      -6.634  -1.842 -34.568  1.00  0.00    -0.043 Br
HETATM   17  C   UNL     1      -8.445   0.383 -34.544  1.00  0.00     0.036 A 
ENDBRANCH  11  12
ENDBRANCH   7  11
TORSDOF 2
ENDMDL
MODEL 6
REMARK VINA RESULT:      -5.5      1.862      2.538
REMARK  2 active torsions:
REMARK  status: ('A' for Active; 'I' for Inactive)
REMARK    1  A    between atoms: N_7  and  C_9 
REMARK    2  A    between atoms: C_9  and  C_10 
ROOT
HETATM    1  C   UNL     1     -14.119  -0.043 -33.832  1.00  0.00     0.136 A 
HETATM    2  N   UNL     1     -12.851  -0.258 -33.349  1.00  0.00    -0.244 NA
HETATM    3  C   UNL     1     -12.123   0.735 -33.806  1.00  0.00     0.131 A 
HETATM    4  N   UNL     1     -12.886   1.578 -34.572  1.00  0.00    -0.341 N 
HETATM    5  C   UNL     1     -12.370   2.734 -35.275  1.00  0.00     0.157 C 
HETATM    6  C   UNL     1     -11.008   3.171 -34.727  1.00  0.00     0.256 C 
HETATM    7  N   UNL     1     -10.089   1.971 -34.548  1.00  0.00    -0.059 N 
HETATM    8  H   UNL     1     -10.038   1.468 -35.444  1.00  0.00     0.280 HD
HETATM    9  C   UNL     1     -10.684   0.990 -33.552  1.00  0.00     0.313 C 
HETATM   10  C   UNL     1     -14.159   1.098 -34.600  1.00  0.00     0.111 A 
ENDROOT
BRANCH   7  11
HETATM   11  C   UNL     1      -8.675   2.327 -34.171  1.00  0.00     0.274 C 
BRANCH  11  12
HETATM   12  C   UNL     1      -7.765   1.141 -34.169  1.00  0.00    -0.024 A 
HETATM   13  C   UNL     1      -7.710   0.179 -35.166  1.00  0.00     0.059 A 
HETATM   14  S   UNL     1      -6.538  -1.031 -34.855  1.00  0.00    -0.094 SA
HETATM   15  C   UNL     1      -6.118  -0.311 -33.384  1.00  0.00     0.051 A 
HETATM   16 BR   UNL     1      -4.810  -1.004 -32.239  1.00  0.00    -0.043 Br
HETATM   17  C   UNL     1      -6.831   0.832 -33.118  1.00  0.00     0.036 A 
ENDBRANCH  11  12
ENDBRANCH   7  11
TORSDOF 2
ENDMDL
MODEL 7
REMARK VINA RESULT:      -5.4     10.207     11.680
REMARK  2 active torsions:
REMARK  status: ('A' for Active; 'I' for Inactive)
REMARK    1  A    between atoms: N_7  and  C_9 
REMARK    2  A    between atoms: C_9  and  C_10 
ROOT
HETATM    1  C   UNL     1      -3.608   5.491 -34.682  1.00  0.00     0.136 A 
HETATM    2  N   UNL     1      -2.673   6.472 -34.458  1.00  0.00    -0.244 NA
HETATM    3  C   UNL     1      -2.095   6.160 -33.321  1.00  0.00     0.131 A 
HETATM    4  N   UNL     1      -2.636   5.010 -32.805  1.00  0.00    -0.341 N 
HETATM    5  C   UNL     1      -2.265   4.434 -31.531  1.00  0.00     0.157 C 
HETATM    6  C   UNL     1      -0.920   4.973 -31.032  1.00  0.00     0.256 C 
HETATM    7  N   UNL     1      -0.860   6.487 -31.180  1.00  0.00    -0.059 N 
HETATM    8  H   UNL     1      -1.676   6.890 -30.702  1.00  0.00     0.280 HD
HETATM    9  C   UNL     1      -0.993   6.884 -32.641  1.00  0.00     0.313 C 
HETATM   10  C   UNL     1      -3.600   4.571 -33.659  1.00  0.00     0.111 A 
ENDROOT
BRANCH   7  11
HETATM   11  C   UNL     1       0.360   7.119 -30.562  1.00  0.00     0.274 C 
BRANCH  11  12
HETATM   12  C   UNL     1       0.144   7.512 -29.137  1.00  0.00    -0.024 A 
HETATM   13  C   UNL     1      -1.092   7.584 -28.511  1.00  0.00     0.059 A 
HETATM   14  S   UNL     1      -0.974   8.047 -26.865  1.00  0.00    -0.094 SA
HETATM   15  C   UNL     1       0.707   8.189 -26.978  1.00  0.00     0.051 A 
HETATM   16 BR   UNL     1       1.791   8.707 -25.543  1.00  0.00    -0.043 Br
HETATM   17  C   UNL     1       1.193   7.885 -28.225  1.00  0.00     0.036 A 
ENDBRANCH  11  12
ENDBRANCH   7  11
TORSDOF 2
ENDMDL
MODEL 8
REMARK VINA RESULT:      -5.2      1.873      2.222
REMARK  2 active torsions:
REMARK  status: ('A' for Active; 'I' for Inactive)
REMARK    1  A    between atoms: N_7  and  C_9 
REMARK    2  A    between atoms: C_9  and  C_10 
ROOT
HETATM    1  C   UNL     1     -11.632   0.918 -33.650  1.00  0.00     0.136 A 
HETATM    2  N   UNL     1     -10.676   0.143 -33.039  1.00  0.00    -0.244 NA
HETATM    3  C   UNL     1      -9.573   0.856 -33.064  1.00  0.00     0.131 A 
HETATM    4  N   UNL     1      -9.792   2.062 -33.678  1.00  0.00    -0.341 N 
HETATM    5  C   UNL     1      -8.764   3.050 -33.924  1.00  0.00     0.157 C 
HETATM    6  C   UNL     1      -7.528   2.816 -33.051  1.00  0.00     0.256 C 
HETATM    7  N   UNL     1      -7.129   1.347 -33.067  1.00  0.00    -0.059 N 
HETATM    8  H   UNL     1      -7.011   1.055 -34.046  1.00  0.00     0.280 HD
HETATM    9  C   UNL     1      -8.248   0.486 -32.507  1.00  0.00     0.313 C 
HETATM   10  C   UNL     1     -11.097   2.118 -34.057  1.00  0.00     0.111 A 
ENDROOT
BRANCH   7  11
HETATM   11  C   UNL     1      -5.826   1.053 -32.369  1.00  0.00     0.274 C 
BRANCH  11  12
HETATM   12  C   UNL     1      -5.236  -0.256 -32.782  1.00  0.00    -0.024 A 
HETATM   13  C   UNL     1      -5.437  -0.867 -34.010  1.00  0.00     0.059 A 
HETATM   14  S   UNL     1      -4.592  -2.351 -34.157  1.00  0.00    -0.094 SA
HETATM   15  C   UNL     1      -3.983  -2.213 -32.587  1.00  0.00     0.051 A 
HETATM   16 BR   UNL     1      -2.865  -3.494 -31.803  1.00  0.00    -0.043 Br
HETATM   17  C   UNL     1      -4.388  -1.067 -31.948  1.00  0.00     0.036 A 
ENDBRANCH  11  12
ENDBRANCH   7  11
TORSDOF 2
ENDMDL
MODEL 9
REMARK VINA RESULT:      -5.2      3.610      6.373
REMARK  2 active torsions:
REMARK  status: ('A' for Active; 'I' for Inactive)
REMARK    1  A    between atoms: N_7  and  C_9 
REMARK    2  A    between atoms: C_9  and  C_10 
ROOT
HETATM    1  C   UNL     1      -3.688  -2.119 -32.871  1.00  0.00     0.136 A 
HETATM    2  N   UNL     1      -4.267  -1.340 -31.899  1.00  0.00    -0.244 NA
HETATM    3  C   UNL     1      -5.423  -0.958 -32.393  1.00  0.00     0.131 A 
HETATM    4  N   UNL     1      -5.600  -1.465 -33.654  1.00  0.00    -0.341 N 
HETATM    5  C   UNL     1      -6.740  -1.177 -34.497  1.00  0.00     0.157 C 
HETATM    6  C   UNL     1      -7.920  -0.626 -33.689  1.00  0.00     0.256 C 
HETATM    7  N   UNL     1      -7.452   0.452 -32.722  1.00  0.00    -0.059 N 
HETATM    8  H   UNL     1      -6.942   1.167 -33.257  1.00  0.00     0.280 HD
HETATM    9  C   UNL     1      -6.453  -0.120 -31.731  1.00  0.00     0.313 C 
HETATM   10  C   UNL     1      -4.505  -2.206 -33.975  1.00  0.00     0.111 A 
ENDROOT
BRANCH   7  11
HETATM   11  C   UNL     1      -8.569   1.165 -32.006  1.00  0.00     0.274 C 
BRANCH  11  12
HETATM   12  C   UNL     1      -9.601   1.705 -32.943  1.00  0.00    -0.024 A 
HETATM   13  C   UNL     1      -9.449   2.840 -33.724  1.00  0.00     0.059 A 
HETATM   14  S   UNL     1     -10.820   3.161 -34.701  1.00  0.00    -0.094 SA
HETATM   15  C   UNL     1     -11.637   1.820 -34.073  1.00  0.00     0.051 A 
HETATM   16 BR   UNL     1     -13.370   1.339 -34.593  1.00  0.00    -0.043 Br
HETATM   17  C   UNL     1     -10.901   1.122 -33.149  1.00  0.00     0.036 A 
ENDBRANCH  11  12
ENDBRANCH   7  11
TORSDOF 2
ENDMDL
MODEL 10
REMARK VINA RESULT:      -5.2      5.510      7.356
REMARK  2 active torsions:
REMARK  status: ('A' for Active; 'I' for Inactive)
REMARK    1  A    between atoms: N_7  and  C_9 
REMARK    2  A    between atoms: C_9  and  C_10 
ROOT
HETATM    1  C   UNL     1      -1.073   6.693 -33.470  1.00  0.00     0.136 A 
HETATM    2  N   UNL     1      -1.060   5.723 -32.497  1.00  0.00    -0.244 NA
HETATM    3  C   UNL     1      -2.230   5.130 -32.572  1.00  0.00     0.131 A 
HETATM    4  N   UNL     1      -2.995   5.695 -33.559  1.00  0.00    -0.341 N 
HETATM    5  C   UNL     1      -4.360   5.314 -33.854  1.00  0.00     0.157 C 
HETATM    6  C   UNL     1      -4.707   3.942 -33.266  1.00  0.00     0.256 C 
HETATM    7  N   UNL     1      -4.227   3.838 -31.826  1.00  0.00    -0.059 N 
HETATM    8  H   UNL     1      -4.617   4.629 -31.298  1.00  0.00     0.280 HD
HETATM    9  C   UNL     1      -2.717   3.991 -31.755  1.00  0.00     0.313 C 
HETATM   10  C   UNL     1      -2.274   6.692 -34.141  1.00  0.00     0.111 A 
ENDROOT
BRANCH   7  11
HETATM   11  C   UNL     1      -4.672   2.585 -31.117  1.00  0.00     0.274 C 
BRANCH  11  12
HETATM   12  C   UNL     1      -4.654   1.384 -32.007  1.00  0.00    -0.024 A 
HETATM   13  C   UNL     1      -3.543   0.590 -32.249  1.00  0.00     0.059 A 
HETATM   14  S   UNL     1      -3.881  -0.719 -33.302  1.00  0.00    -0.094 SA
HETATM   15  C   UNL     1      -5.489  -0.226 -33.472  1.00  0.00     0.051 A 
HETATM   16 BR   UNL     1      -6.731  -1.129 -34.543  1.00  0.00    -0.043 Br
HETATM   17  C   UNL     1      -5.790   0.899 -32.746  1.00  0.00     0.036 A 
ENDBRANCH  11  12
ENDBRANCH   7  11
TORSDOF 2
ENDMDL
