MODEL 1
REMARK VINA RESULT:      -9.6      0.000      0.000
REMARK  2 active torsions:
REMARK  status: ('A' for Active; 'I' for Inactive)
REMARK    1  A    between atoms: C_5  and  C_6 
REMARK    2  A    between atoms: N_12  and  C_13 
ROOT
HETATM    1  C   UNL     1      -0.341   6.415 -30.214  1.00  0.00     0.047 A 
HETATM    2  N   UNL     1      -1.078   5.255 -30.061  1.00  0.00    -0.344 N 
HETATM    3  C   UNL     1      -1.790   4.714 -31.097  1.00  0.00     0.119 A 
HETATM    4  C   UNL     1      -1.728   5.244 -32.330  1.00  0.00     0.123 A 
HETATM    5  C   UNL     1      -2.529   4.378 -33.210  1.00  0.00     0.280 A 
HETATM    6  O   UNL     1      -2.682   4.547 -34.407  1.00  0.00    -0.265 OA
HETATM    7  N   UNL     1      -3.029   3.366 -32.376  1.00  0.00    -0.236 N 
HETATM    8  N   UNL     1      -2.598   3.593 -31.051  1.00  0.00    -0.179 NA
HETATM    9  C   UNL     1      -0.915   6.434 -32.591  1.00  0.00     0.193 A 
HETATM   10  O   UNL     1      -0.796   6.951 -33.694  1.00  0.00    -0.287 OA
HETATM   11  C   UNL     1      -0.213   7.019 -31.410  1.00  0.00     0.086 A 
HETATM   12  H   UNL     1      -1.328   4.975 -29.117  1.00  0.00     0.167 HD
HETATM   13  H   UNL     1      -2.080   2.801 -30.669  1.00  0.00     0.155 HD
ENDROOT
BRANCH   1  14
HETATM   14  C   UNL     1       0.329   6.965 -29.021  1.00  0.00    -0.009 A 
HETATM   15  C   UNL     1       1.019   8.183 -29.074  1.00  0.00     0.014 A 
HETATM   16  C   UNL     1       1.647   8.696 -27.935  1.00  0.00     0.007 A 
HETATM   17  C   UNL     1       1.602   7.998 -26.724  1.00  0.00    -0.062 A 
HETATM   18  C   UNL     1       2.251   8.558 -25.493  1.00  0.00     0.048 C 
HETATM   19  C   UNL     1       0.895   6.793 -26.661  1.00  0.00     0.007 A 
HETATM   20  C   UNL     1       0.268   6.279 -27.800  1.00  0.00     0.014 A 
ENDBRANCH   1  14
BRANCH   7  21
HETATM   21  C   UNL     1      -3.878   2.281 -32.682  1.00  0.00     0.055 A 
HETATM   22  C   UNL     1      -5.199   2.489 -33.109  1.00  0.00     0.034 A 
HETATM   23  C   UNL     1      -6.033   1.410 -33.423  1.00  0.00     0.044 A 
HETATM   24  C   UNL     1      -5.551   0.114 -33.308  1.00  0.00     0.116 A 
HETATM   25  F   UNL     1      -6.348  -0.919 -33.608  1.00  0.00    -0.206 F 
HETATM   26  C   UNL     1      -4.252  -0.123 -32.882  1.00  0.00     0.044 A 
HETATM   27  C   UNL     1      -3.420   0.957 -32.569  1.00  0.00     0.034 A 
ENDBRANCH   7  21
TORSDOF 2
ENDMDL
MODEL 2
REMARK VINA RESULT:      -9.5      3.355      9.152
REMARK  2 active torsions:
REMARK  status: ('A' for Active; 'I' for Inactive)
REMARK    1  A    between atoms: C_5  and  C_6 
REMARK    2  A    between atoms: N_12  and  C_13 
ROOT
HETATM    1  C   UNL     1      -5.267   1.038 -33.218  1.00  0.00     0.047 A 
HETATM    2  N   UNL     1      -4.045   1.434 -32.706  1.00  0.00    -0.344 N 
HETATM    3  C   UNL     1      -3.805   2.731 -32.341  1.00  0.00     0.119 A 
HETATM    4  C   UNL     1      -4.781   3.654 -32.385  1.00  0.00     0.123 A 
HETATM    5  C   UNL     1      -4.216   4.902 -31.848  1.00  0.00     0.280 A 
HETATM    6  O   UNL     1      -4.826   5.949 -31.723  1.00  0.00    -0.265 OA
HETATM    7  N   UNL     1      -2.885   4.596 -31.527  1.00  0.00    -0.236 N 
HETATM    8  N   UNL     1      -2.616   3.252 -31.866  1.00  0.00    -0.179 NA
HETATM    9  C   UNL     1      -6.123   3.299 -32.851  1.00  0.00     0.193 A 
HETATM   10  O   UNL     1      -7.062   4.084 -32.893  1.00  0.00    -0.287 OA
HETATM   11  C   UNL     1      -6.309   1.886 -33.299  1.00  0.00     0.086 A 
HETATM   12  H   UNL     1      -3.244   0.834 -32.878  1.00  0.00     0.167 HD
HETATM   13  H   UNL     1      -2.287   2.708 -31.068  1.00  0.00     0.155 HD
ENDROOT
BRANCH   1  14
HETATM   14  C   UNL     1      -5.406  -0.364 -33.656  1.00  0.00    -0.009 A 
HETATM   15  C   UNL     1      -4.345  -1.270 -33.532  1.00  0.00     0.014 A 
HETATM   16  C   UNL     1      -4.489  -2.597 -33.947  1.00  0.00     0.007 A 
HETATM   17  C   UNL     1      -5.695  -3.041 -34.499  1.00  0.00    -0.062 A 
HETATM   18  C   UNL     1      -5.863  -4.471 -34.921  1.00  0.00     0.048 C 
HETATM   19  C   UNL     1      -6.764  -2.145 -34.605  1.00  0.00     0.007 A 
HETATM   20  C   UNL     1      -6.619  -0.817 -34.191  1.00  0.00     0.014 A 
ENDBRANCH   1  14
BRANCH   7  21
HETATM   21  C   UNL     1      -1.869   5.424 -31.002  1.00  0.00     0.055 A 
HETATM   22  C   UNL     1      -2.166   6.454 -30.096  1.00  0.00     0.034 A 
HETATM   23  C   UNL     1      -1.153   7.263 -29.569  1.00  0.00     0.044 A 
HETATM   24  C   UNL     1       0.164   7.050 -29.949  1.00  0.00     0.116 A 
HETATM   25  F   UNL     1       1.134   7.824 -29.446  1.00  0.00    -0.206 F 
HETATM   26  C   UNL     1       0.488   6.043 -30.848  1.00  0.00     0.044 A 
HETATM   27  C   UNL     1      -0.526   5.235 -31.374  1.00  0.00     0.034 A 
ENDBRANCH   7  21
TORSDOF 2
ENDMDL
MODEL 3
REMARK VINA RESULT:      -9.2      8.516     10.687
REMARK  2 active torsions:
REMARK  status: ('A' for Active; 'I' for Inactive)
REMARK    1  A    between atoms: C_5  and  C_6 
REMARK    2  A    between atoms: N_12  and  C_13 
ROOT
HETATM    1  C   UNL     1      -7.194  -0.087 -33.796  1.00  0.00     0.047 A 
HETATM    2  N   UNL     1      -8.532  -0.404 -33.645  1.00  0.00    -0.344 N 
HETATM    3  C   UNL     1      -9.489   0.565 -33.516  1.00  0.00     0.119 A 
HETATM    4  C   UNL     1      -9.174   1.867 -33.621  1.00  0.00     0.123 A 
HETATM    5  C   UNL     1     -10.433   2.623 -33.525  1.00  0.00     0.280 A 
HETATM    6  O   UNL     1     -10.529   3.835 -33.597  1.00  0.00    -0.265 OA
HETATM    7  N   UNL     1     -11.433   1.653 -33.353  1.00  0.00    -0.236 N 
HETATM    8  N   UNL     1     -10.842   0.371 -33.312  1.00  0.00    -0.179 NA
HETATM    9  C   UNL     1      -7.789   2.284 -33.849  1.00  0.00     0.193 A 
HETATM   10  O   UNL     1      -7.438   3.450 -33.978  1.00  0.00    -0.287 OA
HETATM   11  C   UNL     1      -6.777   1.188 -33.915  1.00  0.00     0.086 A 
HETATM   12  H   UNL     1      -8.763  -1.343 -33.335  1.00  0.00     0.167 HD
HETATM   13  H   UNL     1     -11.220  -0.254 -34.025  1.00  0.00     0.155 HD
ENDROOT
BRANCH   1  14
HETATM   14  C   UNL     1      -6.227  -1.200 -33.848  1.00  0.00    -0.009 A 
HETATM   15  C   UNL     1      -5.042  -1.166 -33.100  1.00  0.00     0.014 A 
HETATM   16  C   UNL     1      -4.136  -2.229 -33.154  1.00  0.00     0.007 A 
HETATM   17  C   UNL     1      -4.393  -3.341 -33.961  1.00  0.00    -0.062 A 
HETATM   18  C   UNL     1      -3.436  -4.495 -34.001  1.00  0.00     0.048 C 
HETATM   19  C   UNL     1      -5.585  -3.389 -34.692  1.00  0.00     0.007 A 
HETATM   20  C   UNL     1      -6.491  -2.326 -34.639  1.00  0.00     0.014 A 
ENDBRANCH   1  14
BRANCH   7  21
HETATM   21  C   UNL     1     -12.825   1.811 -33.179  1.00  0.00     0.055 A 
HETATM   22  C   UNL     1     -13.739   0.972 -33.834  1.00  0.00     0.034 A 
HETATM   23  C   UNL     1     -15.118   1.126 -33.648  1.00  0.00     0.044 A 
HETATM   24  C   UNL     1     -15.590   2.123 -32.808  1.00  0.00     0.116 A 
HETATM   25  F   UNL     1     -16.909   2.271 -32.629  1.00  0.00    -0.206 F 
HETATM   26  C   UNL     1     -14.710   2.972 -32.152  1.00  0.00     0.044 A 
HETATM   27  C   UNL     1     -13.333   2.818 -32.339  1.00  0.00     0.034 A 
ENDBRANCH   7  21
TORSDOF 2
ENDMDL
MODEL 4
REMARK VINA RESULT:      -8.7      4.094      9.990
REMARK  2 active torsions:
REMARK  status: ('A' for Active; 'I' for Inactive)
REMARK    1  A    between atoms: C_5  and  C_6 
REMARK    2  A    between atoms: N_12  and  C_13 
ROOT
HETATM    1  C   UNL     1      -8.000   1.102 -33.082  1.00  0.00     0.047 A 
HETATM    2  N   UNL     1      -7.303   2.288 -33.228  1.00  0.00    -0.344 N 
HETATM    3  C   UNL     1      -5.991   2.400 -32.856  1.00  0.00     0.119 A 
HETATM    4  C   UNL     1      -5.303   1.333 -32.416  1.00  0.00     0.123 A 
HETATM    5  C   UNL     1      -3.918   1.777 -32.192  1.00  0.00     0.280 A 
HETATM    6  O   UNL     1      -3.008   1.065 -31.806  1.00  0.00    -0.265 OA
HETATM    7  N   UNL     1      -3.909   3.140 -32.527  1.00  0.00    -0.236 N 
HETATM    8  N   UNL     1      -5.209   3.539 -32.908  1.00  0.00    -0.179 NA
HETATM    9  C   UNL     1      -5.950   0.025 -32.297  1.00  0.00     0.193 A 
HETATM   10  O   UNL     1      -5.376  -0.991 -31.926  1.00  0.00    -0.287 OA
HETATM   11  C   UNL     1      -7.399  -0.024 -32.653  1.00  0.00     0.086 A 
HETATM   12  H   UNL     1      -7.841   3.143 -33.331  1.00  0.00     0.167 HD
HETATM   13  H   UNL     1      -5.233   3.940 -33.846  1.00  0.00     0.155 HD
ENDROOT
BRANCH   1  14
HETATM   14  C   UNL     1      -9.431   1.100 -33.438  1.00  0.00    -0.009 A 
HETATM   15  C   UNL     1     -10.289   0.090 -32.982  1.00  0.00     0.014 A 
HETATM   16  C   UNL     1     -11.645   0.101 -33.322  1.00  0.00     0.007 A 
HETATM   17  C   UNL     1     -12.167   1.117 -34.128  1.00  0.00    -0.062 A 
HETATM   18  C   UNL     1     -13.627   1.147 -34.473  1.00  0.00     0.048 C 
HETATM   19  C   UNL     1     -11.318   2.140 -34.567  1.00  0.00     0.007 A 
HETATM   20  C   UNL     1      -9.962   2.128 -34.228  1.00  0.00     0.014 A 
ENDBRANCH   1  14
BRANCH   7  21
HETATM   21  C   UNL     1      -2.854   4.076 -32.477  1.00  0.00     0.055 A 
HETATM   22  C   UNL     1      -2.308   4.620 -33.650  1.00  0.00     0.034 A 
HETATM   23  C   UNL     1      -1.270   5.557 -33.593  1.00  0.00     0.044 A 
HETATM   24  C   UNL     1      -0.769   5.953 -32.362  1.00  0.00     0.116 A 
HETATM   25  F   UNL     1       0.224   6.850 -32.307  1.00  0.00    -0.206 F 
HETATM   26  C   UNL     1      -1.284   5.428 -31.185  1.00  0.00     0.044 A 
HETATM   27  C   UNL     1      -2.321   4.492 -31.244  1.00  0.00     0.034 A 
ENDBRANCH   7  21
TORSDOF 2
ENDMDL
MODEL 5
REMARK VINA RESULT:      -8.6      3.358      8.590
REMARK  2 active torsions:
REMARK  status: ('A' for Active; 'I' for Inactive)
REMARK    1  A    between atoms: C_5  and  C_6 
REMARK    2  A    between atoms: N_12  and  C_13 
ROOT
HETATM    1  C   UNL     1      -3.539   3.943 -32.517  1.00  0.00     0.047 A 
HETATM    2  N   UNL     1      -3.031   4.293 -31.279  1.00  0.00    -0.344 N 
HETATM    3  C   UNL     1      -2.358   5.469 -31.087  1.00  0.00     0.119 A 
HETATM    4  C   UNL     1      -2.243   6.371 -32.076  1.00  0.00     0.123 A 
HETATM    5  C   UNL     1      -1.550   7.541 -31.512  1.00  0.00     0.280 A 
HETATM    6  O   UNL     1      -1.289   8.562 -32.124  1.00  0.00    -0.265 OA
HETATM    7  N   UNL     1      -1.295   7.208 -30.173  1.00  0.00    -0.236 N 
HETATM    8  N   UNL     1      -1.766   5.902 -29.915  1.00  0.00    -0.179 NA
HETATM    9  C   UNL     1      -2.813   6.105 -33.398  1.00  0.00     0.193 A 
HETATM   10  O   UNL     1      -2.764   6.892 -34.335  1.00  0.00    -0.287 OA
HETATM   11  C   UNL     1      -3.478   4.779 -33.570  1.00  0.00     0.086 A 
HETATM   12  H   UNL     1      -2.899   3.554 -30.596  1.00  0.00     0.167 HD
HETATM   13  H   UNL     1      -2.440   5.877 -29.149  1.00  0.00     0.155 HD
ENDROOT
BRANCH   1  14
HETATM   14  C   UNL     1      -4.180   2.620 -32.646  1.00  0.00    -0.009 A 
HETATM   15  C   UNL     1      -3.531   1.456 -32.215  1.00  0.00     0.014 A 
HETATM   16  C   UNL     1      -4.150   0.209 -32.339  1.00  0.00     0.007 A 
HETATM   17  C   UNL     1      -5.427   0.102 -32.900  1.00  0.00    -0.062 A 
HETATM   18  C   UNL     1      -6.106  -1.231 -33.009  1.00  0.00     0.048 C 
HETATM   19  C   UNL     1      -6.088   1.265 -33.310  1.00  0.00     0.007 A 
HETATM   20  C   UNL     1      -5.467   2.512 -33.188  1.00  0.00     0.014 A 
ENDBRANCH   1  14
BRANCH   7  21
HETATM   21  C   UNL     1      -0.632   7.947 -29.169  1.00  0.00     0.055 A 
HETATM   22  C   UNL     1       0.708   7.690 -28.842  1.00  0.00     0.034 A 
HETATM   23  C   UNL     1       1.364   8.434 -27.855  1.00  0.00     0.044 A 
HETATM   24  C   UNL     1       0.681   9.438 -27.185  1.00  0.00     0.116 A 
HETATM   25  F   UNL     1       1.307  10.151 -26.240  1.00  0.00    -0.206 F 
HETATM   26  C   UNL     1      -0.647   9.712 -27.482  1.00  0.00     0.044 A 
HETATM   27  C   UNL     1      -1.301   8.967 -28.469  1.00  0.00     0.034 A 
ENDBRANCH   7  21
TORSDOF 2
ENDMDL
MODEL 6
REMARK VINA RESULT:      -8.6      2.008      3.144
REMARK  2 active torsions:
REMARK  status: ('A' for Active; 'I' for Inactive)
REMARK    1  A    between atoms: C_5  and  C_6 
REMARK    2  A    between atoms: N_12  and  C_13 
ROOT
HETATM    1  C   UNL     1      -2.944   5.432 -31.259  1.00  0.00     0.047 A 
HETATM    2  N   UNL     1      -2.855   4.060 -31.408  1.00  0.00    -0.344 N 
HETATM    3  C   UNL     1      -3.830   3.342 -32.046  1.00  0.00     0.119 A 
HETATM    4  C   UNL     1      -4.871   3.957 -32.631  1.00  0.00     0.123 A 
HETATM    5  C   UNL     1      -5.670   2.913 -33.292  1.00  0.00     0.280 A 
HETATM    6  O   UNL     1      -6.684   3.111 -33.938  1.00  0.00    -0.265 OA
HETATM    7  N   UNL     1      -5.003   1.709 -33.018  1.00  0.00    -0.236 N 
HETATM    8  N   UNL     1      -3.874   1.970 -32.211  1.00  0.00    -0.179 NA
HETATM    9  C   UNL     1      -5.004   5.414 -32.578  1.00  0.00     0.193 A 
HETATM   10  O   UNL     1      -5.913   6.038 -33.110  1.00  0.00    -0.287 OA
HETATM   11  C   UNL     1      -3.946   6.140 -31.813  1.00  0.00     0.086 A 
HETATM   12  H   UNL     1      -2.223   3.558 -30.792  1.00  0.00     0.167 HD
HETATM   13  H   UNL     1      -3.008   1.638 -32.635  1.00  0.00     0.155 HD
ENDROOT
BRANCH   1  14
HETATM   14  C   UNL     1      -1.884   6.109 -30.489  1.00  0.00    -0.009 A 
HETATM   15  C   UNL     1      -0.530   5.835 -30.725  1.00  0.00     0.014 A 
HETATM   16  C   UNL     1       0.466   6.487 -29.991  1.00  0.00     0.007 A 
HETATM   17  C   UNL     1       0.127   7.418 -29.005  1.00  0.00    -0.062 A 
HETATM   18  C   UNL     1       1.194   8.139 -28.234  1.00  0.00     0.048 C 
HETATM   19  C   UNL     1      -1.223   7.711 -28.782  1.00  0.00     0.007 A 
HETATM   20  C   UNL     1      -2.219   7.059 -29.515  1.00  0.00     0.014 A 
ENDBRANCH   1  14
BRANCH   7  21
HETATM   21  C   UNL     1      -5.338   0.386 -33.382  1.00  0.00     0.055 A 
HETATM   22  C   UNL     1      -6.645   0.047 -33.764  1.00  0.00     0.034 A 
HETATM   23  C   UNL     1      -6.969  -1.263 -34.136  1.00  0.00     0.044 A 
HETATM   24  C   UNL     1      -5.988  -2.242 -34.125  1.00  0.00     0.116 A 
HETATM   25  F   UNL     1      -6.296  -3.496 -34.480  1.00  0.00    -0.206 F 
HETATM   26  C   UNL     1      -4.688  -1.938 -33.745  1.00  0.00     0.044 A 
HETATM   27  C   UNL     1      -4.366  -0.629 -33.373  1.00  0.00     0.034 A 
ENDBRANCH   7  21
TORSDOF 2
ENDMDL
MODEL 7
REMARK VINA RESULT:      -8.4      3.299      8.792
REMARK  2 active torsions:
REMARK  status: ('A' for Active; 'I' for Inactive)
REMARK    1  A    between atoms: C_5  and  C_6 
REMARK    2  A    between atoms: N_12  and  C_13 
ROOT
HETATM    1  C   UNL     1      -5.822   3.412 -33.107  1.00  0.00     0.047 A 
HETATM    2  N   UNL     1      -5.147   3.697 -31.933  1.00  0.00    -0.344 N 
HETATM    3  C   UNL     1      -4.038   4.497 -31.919  1.00  0.00     0.119 A 
HETATM    4  C   UNL     1      -3.613   5.111 -33.036  1.00  0.00     0.123 A 
HETATM    5  C   UNL     1      -2.468   5.953 -32.655  1.00  0.00     0.280 A 
HETATM    6  O   UNL     1      -1.840   6.668 -33.416  1.00  0.00    -0.265 OA
HETATM    7  N   UNL     1      -2.300   5.746 -31.277  1.00  0.00    -0.236 N 
HETATM    8  N   UNL     1      -3.257   4.811 -30.823  1.00  0.00    -0.179 NA
HETATM    9  C   UNL     1      -4.313   4.916 -34.308  1.00  0.00     0.193 A 
HETATM   10  O   UNL     1      -3.993   5.463 -35.355  1.00  0.00    -0.287 OA
HETATM   11  C   UNL     1      -5.477   3.980 -34.278  1.00  0.00     0.086 A 
HETATM   12  H   UNL     1      -5.297   3.080 -31.141  1.00  0.00     0.167 HD
HETATM   13  H   UNL     1      -3.837   5.184 -30.071  1.00  0.00     0.155 HD
ENDROOT
BRANCH   1  14
HETATM   14  C   UNL     1      -6.960   2.476 -33.034  1.00  0.00    -0.009 A 
HETATM   15  C   UNL     1      -7.455   1.847 -34.184  1.00  0.00     0.014 A 
HETATM   16  C   UNL     1      -8.532   0.959 -34.102  1.00  0.00     0.007 A 
HETATM   17  C   UNL     1      -9.137   0.688 -32.871  1.00  0.00    -0.062 A 
HETATM   18  C   UNL     1     -10.274  -0.284 -32.775  1.00  0.00     0.048 C 
HETATM   19  C   UNL     1      -8.631   1.297 -31.717  1.00  0.00     0.007 A 
HETATM   20  C   UNL     1      -7.555   2.187 -31.799  1.00  0.00     0.014 A 
ENDBRANCH   1  14
BRANCH   7  21
HETATM   21  C   UNL     1      -1.337   6.279 -30.393  1.00  0.00     0.055 A 
HETATM   22  C   UNL     1      -0.237   5.516 -29.971  1.00  0.00     0.034 A 
HETATM   23  C   UNL     1       0.722   6.054 -29.105  1.00  0.00     0.044 A 
HETATM   24  C   UNL     1       0.583   7.358 -28.653  1.00  0.00     0.116 A 
HETATM   25  F   UNL     1       1.500   7.874 -27.824  1.00  0.00    -0.206 F 
HETATM   26  C   UNL     1      -0.497   8.134 -29.047  1.00  0.00     0.044 A 
HETATM   27  C   UNL     1      -1.455   7.595 -29.913  1.00  0.00     0.034 A 
ENDBRANCH   7  21
TORSDOF 2
ENDMDL
MODEL 8
REMARK VINA RESULT:      -8.4      5.823      9.434
REMARK  2 active torsions:
REMARK  status: ('A' for Active; 'I' for Inactive)
REMARK    1  A    between atoms: C_5  and  C_6 
REMARK    2  A    between atoms: N_12  and  C_13 
ROOT
HETATM    1  C   UNL     1      -5.336   0.486 -32.705  1.00  0.00     0.047 A 
HETATM    2  N   UNL     1      -6.466   1.199 -32.347  1.00  0.00    -0.344 N 
HETATM    3  C   UNL     1      -6.383   2.365 -31.635  1.00  0.00     0.119 A 
HETATM    4  C   UNL     1      -5.192   2.909 -31.332  1.00  0.00     0.123 A 
HETATM    5  C   UNL     1      -5.463   4.185 -30.651  1.00  0.00     0.280 A 
HETATM    6  O   UNL     1      -4.612   4.957 -30.248  1.00  0.00    -0.265 OA
HETATM    7  N   UNL     1      -6.862   4.285 -30.599  1.00  0.00    -0.236 N 
HETATM    8  N   UNL     1      -7.438   3.134 -31.180  1.00  0.00    -0.179 NA
HETATM    9  C   UNL     1      -3.947   2.251 -31.735  1.00  0.00     0.193 A 
HETATM   10  O   UNL     1      -2.832   2.703 -31.513  1.00  0.00    -0.287 OA
HETATM   11  C   UNL     1      -4.097   0.949 -32.451  1.00  0.00     0.086 A 
HETATM   12  H   UNL     1      -7.355   0.710 -32.353  1.00  0.00     0.167 HD
HETATM   13  H   UNL     1      -8.066   3.362 -31.951  1.00  0.00     0.155 HD
ENDROOT
BRANCH   1  14
HETATM   14  C   UNL     1      -5.528  -0.799 -33.403  1.00  0.00    -0.009 A 
HETATM   15  C   UNL     1      -4.464  -1.693 -33.581  1.00  0.00     0.014 A 
HETATM   16  C   UNL     1      -4.660  -2.910 -34.241  1.00  0.00     0.007 A 
HETATM   17  C   UNL     1      -5.921  -3.252 -34.739  1.00  0.00    -0.062 A 
HETATM   18  C   UNL     1      -6.141  -4.569 -35.424  1.00  0.00     0.048 C 
HETATM   19  C   UNL     1      -6.991  -2.373 -34.544  1.00  0.00     0.007 A 
HETATM   20  C   UNL     1      -6.795  -1.155 -33.885  1.00  0.00     0.014 A 
ENDBRANCH   1  14
BRANCH   7  21
HETATM   21  C   UNL     1      -7.675   5.291 -30.032  1.00  0.00     0.055 A 
HETATM   22  C   UNL     1      -8.566   6.035 -30.821  1.00  0.00     0.034 A 
HETATM   23  C   UNL     1      -9.379   7.022 -30.252  1.00  0.00     0.044 A 
HETATM   24  C   UNL     1      -9.302   7.274 -28.891  1.00  0.00     0.116 A 
HETATM   25  F   UNL     1     -10.079   8.218 -28.345  1.00  0.00    -0.206 F 
HETATM   26  C   UNL     1      -8.425   6.559 -28.086  1.00  0.00     0.044 A 
HETATM   27  C   UNL     1      -7.614   5.573 -28.656  1.00  0.00     0.034 A 
ENDBRANCH   7  21
TORSDOF 2
ENDMDL
MODEL 9
REMARK VINA RESULT:      -8.3      5.454      8.001
REMARK  2 active torsions:
REMARK  status: ('A' for Active; 'I' for Inactive)
REMARK    1  A    between atoms: C_5  and  C_6 
REMARK    2  A    between atoms: N_12  and  C_13 
ROOT
HETATM    1  C   UNL     1      -5.621   2.909 -32.946  1.00  0.00     0.047 A 
HETATM    2  N   UNL     1      -6.830   3.117 -33.584  1.00  0.00    -0.344 N 
HETATM    3  C   UNL     1      -7.923   2.337 -33.323  1.00  0.00     0.119 A 
HETATM    4  C   UNL     1      -7.887   1.392 -32.368  1.00  0.00     0.123 A 
HETATM    5  C   UNL     1      -9.237   0.810 -32.288  1.00  0.00     0.280 A 
HETATM    6  O   UNL     1      -9.575  -0.068 -31.515  1.00  0.00    -0.265 OA
HETATM    7  N   UNL     1      -9.989   1.489 -33.260  1.00  0.00    -0.236 N 
HETATM    8  N   UNL     1      -9.163   2.417 -33.930  1.00  0.00    -0.179 NA
HETATM    9  C   UNL     1      -6.664   1.155 -31.599  1.00  0.00     0.193 A 
HETATM   10  O   UNL     1      -6.571   0.328 -30.701  1.00  0.00    -0.287 OA
HETATM   11  C   UNL     1      -5.483   1.990 -31.972  1.00  0.00     0.086 A 
HETATM   12  H   UNL     1      -6.822   3.647 -34.450  1.00  0.00     0.167 HD
HETATM   13  H   UNL     1      -9.522   3.370 -33.872  1.00  0.00     0.155 HD
ENDROOT
BRANCH   1  14
HETATM   14  C   UNL     1      -4.478   3.750 -33.350  1.00  0.00    -0.009 A 
HETATM   15  C   UNL     1      -4.602   4.695 -34.377  1.00  0.00     0.014 A 
HETATM   16  C   UNL     1      -3.512   5.489 -34.749  1.00  0.00     0.007 A 
HETATM   17  C   UNL     1      -2.279   5.348 -34.105  1.00  0.00    -0.062 A 
HETATM   18  C   UNL     1      -1.116   6.217 -34.482  1.00  0.00     0.048 C 
HETATM   19  C   UNL     1      -2.158   4.421 -33.064  1.00  0.00     0.007 A 
HETATM   20  C   UNL     1      -3.246   3.626 -32.694  1.00  0.00     0.014 A 
ENDBRANCH   1  14
BRANCH   7  21
HETATM   21  C   UNL     1     -11.339   1.321 -33.637  1.00  0.00     0.055 A 
HETATM   22  C   UNL     1     -12.063   2.366 -34.232  1.00  0.00     0.034 A 
HETATM   23  C   UNL     1     -13.397   2.189 -34.616  1.00  0.00     0.044 A 
HETATM   24  C   UNL     1     -14.017   0.967 -34.403  1.00  0.00     0.116 A 
HETATM   25  F   UNL     1     -15.293   0.797 -34.770  1.00  0.00    -0.206 F 
HETATM   26  C   UNL     1     -13.328  -0.083 -33.811  1.00  0.00     0.044 A 
HETATM   27  C   UNL     1     -11.995   0.095 -33.428  1.00  0.00     0.034 A 
ENDBRANCH   7  21
TORSDOF 2
ENDMDL
MODEL 10
REMARK VINA RESULT:      -8.3      7.406     10.143
REMARK  2 active torsions:
REMARK  status: ('A' for Active; 'I' for Inactive)
REMARK    1  A    between atoms: C_5  and  C_6 
REMARK    2  A    between atoms: N_12  and  C_13 
ROOT
HETATM    1  C   UNL     1      -6.383   0.142 -33.791  1.00  0.00     0.047 A 
HETATM    2  N   UNL     1      -7.619   0.454 -34.328  1.00  0.00    -0.344 N 
HETATM    3  C   UNL     1      -8.187   1.688 -34.153  1.00  0.00     0.119 A 
HETATM    4  C   UNL     1      -7.522   2.673 -33.527  1.00  0.00     0.123 A 
HETATM    5  C   UNL     1      -8.371   3.873 -33.592  1.00  0.00     0.280 A 
HETATM    6  O   UNL     1      -8.077   4.964 -33.138  1.00  0.00    -0.265 OA
HETATM    7  N   UNL     1      -9.528   3.469 -34.276  1.00  0.00    -0.236 N 
HETATM    8  N   UNL     1      -9.430   2.097 -34.597  1.00  0.00    -0.179 NA
HETATM    9  C   UNL     1      -6.179   2.443 -32.990  1.00  0.00     0.193 A 
HETATM   10  O   UNL     1      -5.510   3.303 -32.431  1.00  0.00    -0.287 OA
HETATM   11  C   UNL     1      -5.637   1.061 -33.151  1.00  0.00     0.086 A 
HETATM   12  H   UNL     1      -8.228  -0.314 -34.591  1.00  0.00     0.167 HD
HETATM   13  H   UNL     1      -9.522   1.925 -35.598  1.00  0.00     0.155 HD
ENDROOT
BRANCH   1  14
HETATM   14  C   UNL     1      -5.889  -1.237 -33.965  1.00  0.00    -0.009 A 
HETATM   15  C   UNL     1      -4.607  -1.606 -33.537  1.00  0.00     0.014 A 
HETATM   16  C   UNL     1      -4.151  -2.917 -33.703  1.00  0.00     0.007 A 
HETATM   17  C   UNL     1      -4.965  -3.881 -34.306  1.00  0.00    -0.062 A 
HETATM   18  C   UNL     1      -4.489  -5.295 -34.462  1.00  0.00     0.048 C 
HETATM   19  C   UNL     1      -6.254  -3.522 -34.715  1.00  0.00     0.007 A 
HETATM   20  C   UNL     1      -6.709  -2.210 -34.550  1.00  0.00     0.014 A 
ENDBRANCH   1  14
BRANCH   7  21
HETATM   21  C   UNL     1     -10.690   4.204 -34.599  1.00  0.00     0.055 A 
HETATM   22  C   UNL     1     -10.615   5.390 -35.346  1.00  0.00     0.034 A 
HETATM   23  C   UNL     1     -11.771   6.108 -35.674  1.00  0.00     0.044 A 
HETATM   24  C   UNL     1     -13.009   5.645 -35.253  1.00  0.00     0.116 A 
HETATM   25  F   UNL     1     -14.116   6.330 -35.567  1.00  0.00    -0.206 F 
HETATM   26  C   UNL     1     -13.113   4.478 -34.508  1.00  0.00     0.044 A 
HETATM   27  C   UNL     1     -11.957   3.762 -34.181  1.00  0.00     0.034 A 
ENDBRANCH   7  21
TORSDOF 2
ENDMDL
