MODEL 1
REMARK VINA RESULT:      -9.8      0.000      0.000
REMARK  3 active torsions:
REMARK  status: ('A' for Active; 'I' for Inactive)
REMARK    1  A    between atoms: N_4  and  C_5 
REMARK    2  A    between atoms: C_5  and  C_6 
REMARK       I    between atoms: C_6  and  N_7 
REMARK    3  A    between atoms: N_7  and  C_8 
ROOT
HETATM    1  C   UNL     1      -3.362   0.912 -31.551  1.00  0.00     0.257 C 
ENDROOT
BRANCH   1   2
HETATM    2  N   UNL     1      -3.941  -0.012 -32.529  1.00  0.00    -0.225 N 
HETATM    3  N   UNL     1      -5.037   0.464 -33.211  1.00  0.00    -0.173 NA
HETATM    4  C   UNL     1      -5.730  -0.343 -33.954  1.00  0.00     0.062 A 
HETATM    5  C   UNL     1      -6.937   0.225 -34.664  1.00  0.00     0.073 C 
HETATM    6  C   UNL     1      -5.407  -1.773 -34.118  1.00  0.00     0.006 A 
HETATM    7  C   UNL     1      -4.308  -2.257 -33.416  1.00  0.00     0.046 A 
HETATM    8  C   UNL     1      -6.155  -2.637 -34.926  1.00  0.00     0.014 A 
HETATM    9  C   UNL     1      -3.548  -1.346 -32.541  1.00  0.00     0.275 A 
HETATM   10  C   UNL     1      -3.942  -3.605 -33.525  1.00  0.00     0.018 A 
HETATM   11  O   UNL     1      -2.612  -1.783 -31.871  1.00  0.00    -0.266 OA
HETATM   12  C   UNL     1      -4.685  -4.466 -34.333  1.00  0.00     0.001 A 
HETATM   13  C   UNL     1      -5.792  -3.983 -35.029  1.00  0.00     0.001 A 
ENDBRANCH   1   2
BRANCH   1  14
HETATM   14  C   UNL     1      -3.734   2.389 -31.709  1.00  0.00     0.238 C 
HETATM   15  N   UNL     1      -3.043   3.079 -32.678  1.00  0.00    -0.351 N 
HETATM   16  H   UNL     1      -2.361   2.575 -33.245  1.00  0.00     0.163 HD
HETATM   17  O   UNL     1      -4.483   2.956 -30.913  1.00  0.00    -0.272 OA
BRANCH  15  18
HETATM   18  C   UNL     1      -3.085   4.518 -32.757  1.00  0.00     0.118 C 
HETATM   19  C   UNL     1      -1.874   5.187 -32.166  1.00  0.00    -0.029 A 
HETATM   20  C   UNL     1      -1.487   6.282 -32.951  1.00  0.00    -0.050 A 
HETATM   21  C   UNL     1      -1.210   4.894 -30.983  1.00  0.00     0.010 A 
HETATM   22  C   UNL     1      -0.433   7.098 -32.574  1.00  0.00     0.007 A 
HETATM   23  C   UNL     1      -2.391   6.434 -34.134  1.00  0.00     0.041 C 
HETATM   24  C   UNL     1       0.248   6.796 -31.393  1.00  0.00     0.001 A 
HETATM   25  C   UNL     1      -0.136   5.702 -30.604  1.00  0.00     0.001 A 
HETATM   26  C   UNL     1      -3.034   5.042 -34.204  1.00  0.00     0.034 C 
ENDBRANCH  15  18
ENDBRANCH   1  14
TORSDOF 3
ENDMDL
MODEL 2
REMARK VINA RESULT:      -9.4      3.888      7.718
REMARK  3 active torsions:
REMARK  status: ('A' for Active; 'I' for Inactive)
REMARK    1  A    between atoms: N_4  and  C_5 
REMARK    2  A    between atoms: C_5  and  C_6 
REMARK       I    between atoms: C_6  and  N_7 
REMARK    3  A    between atoms: N_7  and  C_8 
ROOT
HETATM    1  C   UNL     1      -6.881   3.500 -32.875  1.00  0.00     0.257 C 
ENDROOT
BRANCH   1   2
HETATM    2  N   UNL     1      -8.251   3.126 -33.230  1.00  0.00    -0.225 N 
HETATM    3  N   UNL     1      -8.628   1.854 -32.864  1.00  0.00    -0.173 NA
HETATM    4  C   UNL     1      -9.749   1.367 -33.299  1.00  0.00     0.062 A 
HETATM    5  C   UNL     1     -10.105  -0.043 -32.886  1.00  0.00     0.073 C 
HETATM    6  C   UNL     1     -10.667   2.110 -34.182  1.00  0.00     0.006 A 
HETATM    7  C   UNL     1     -10.279   3.390 -34.564  1.00  0.00     0.046 A 
HETATM    8  C   UNL     1     -11.879   1.581 -34.644  1.00  0.00     0.014 A 
HETATM    9  C   UNL     1      -8.985   3.924 -34.101  1.00  0.00     0.275 A 
HETATM   10  C   UNL     1     -11.103   4.154 -35.401  1.00  0.00     0.018 A 
HETATM   11  O   UNL     1      -8.610   5.031 -34.484  1.00  0.00    -0.266 OA
HETATM   12  C   UNL     1     -12.312   3.629 -35.858  1.00  0.00     0.001 A 
HETATM   13  C   UNL     1     -12.696   2.343 -35.483  1.00  0.00     0.001 A 
ENDBRANCH   1   2
BRANCH   1  14
HETATM   14  C   UNL     1      -6.012   2.397 -32.262  1.00  0.00     0.238 C 
HETATM   15  N   UNL     1      -5.750   1.320 -33.078  1.00  0.00    -0.351 N 
HETATM   16  H   UNL     1      -6.113   1.330 -34.031  1.00  0.00     0.163 HD
HETATM   17  O   UNL     1      -5.708   2.402 -31.069  1.00  0.00    -0.272 OA
BRANCH  15  18
HETATM   18  C   UNL     1      -5.188   0.099 -32.560  1.00  0.00     0.118 C 
HETATM   19  C   UNL     1      -5.500  -1.110 -33.399  1.00  0.00    -0.029 A 
HETATM   20  C   UNL     1      -4.386  -1.956 -33.476  1.00  0.00    -0.050 A 
HETATM   21  C   UNL     1      -6.704  -1.469 -33.989  1.00  0.00     0.010 A 
HETATM   22  C   UNL     1      -4.449  -3.168 -34.142  1.00  0.00     0.007 A 
HETATM   23  C   UNL     1      -3.233  -1.386 -32.709  1.00  0.00     0.041 C 
HETATM   24  C   UNL     1      -5.653  -3.526 -34.752  1.00  0.00     0.001 A 
HETATM   25  C   UNL     1      -6.772  -2.683 -34.677  1.00  0.00     0.001 A 
HETATM   26  C   UNL     1      -3.648   0.086 -32.588  1.00  0.00     0.034 C 
ENDBRANCH  15  18
ENDBRANCH   1  14
TORSDOF 3
ENDMDL
MODEL 3
REMARK VINA RESULT:      -9.3      1.969      2.790
REMARK  3 active torsions:
REMARK  status: ('A' for Active; 'I' for Inactive)
REMARK    1  A    between atoms: N_4  and  C_5 
REMARK    2  A    between atoms: C_5  and  C_6 
REMARK       I    between atoms: C_6  and  N_7 
REMARK    3  A    between atoms: N_7  and  C_8 
ROOT
HETATM    1  C   UNL     1      -6.418   3.122 -32.727  1.00  0.00     0.257 C 
ENDROOT
BRANCH   1   2
HETATM    2  N   UNL     1      -5.997   1.722 -32.813  1.00  0.00    -0.225 N 
HETATM    3  N   UNL     1      -4.884   1.395 -32.073  1.00  0.00    -0.173 NA
HETATM    4  C   UNL     1      -4.327   0.234 -32.231  1.00  0.00     0.062 A 
HETATM    5  C   UNL     1      -3.094  -0.066 -31.410  1.00  0.00     0.073 C 
HETATM    6  C   UNL     1      -4.824  -0.781 -33.179  1.00  0.00     0.006 A 
HETATM    7  C   UNL     1      -5.939  -0.444 -33.938  1.00  0.00     0.046 A 
HETATM    8  C   UNL     1      -4.221  -2.034 -33.341  1.00  0.00     0.014 A 
HETATM    9  C   UNL     1      -6.545   0.891 -33.784  1.00  0.00     0.275 A 
HETATM   10  C   UNL     1      -6.467  -1.361 -34.857  1.00  0.00     0.018 A 
HETATM   11  O   UNL     1      -7.495   1.215 -34.496  1.00  0.00    -0.266 OA
HETATM   12  C   UNL     1      -5.868  -2.611 -35.017  1.00  0.00     0.001 A 
HETATM   13  C   UNL     1      -4.745  -2.945 -34.263  1.00  0.00     0.001 A 
ENDBRANCH   1   2
BRANCH   1  14
HETATM   14  C   UNL     1      -5.579   4.133 -33.514  1.00  0.00     0.238 C 
HETATM   15  N   UNL     1      -4.265   4.253 -33.122  1.00  0.00    -0.351 N 
HETATM   16  H   UNL     1      -3.923   3.655 -32.369  1.00  0.00     0.163 HD
HETATM   17  O   UNL     1      -6.088   4.900 -34.331  1.00  0.00    -0.272 OA
BRANCH  15  18
HETATM   18  C   UNL     1      -3.437   5.342 -33.575  1.00  0.00     0.118 C 
HETATM   19  C   UNL     1      -2.586   5.942 -32.490  1.00  0.00    -0.029 A 
HETATM   20  C   UNL     1      -1.312   6.257 -32.982  1.00  0.00    -0.050 A 
HETATM   21  C   UNL     1      -2.937   6.255 -31.184  1.00  0.00     0.010 A 
HETATM   22  C   UNL     1      -0.368   6.882 -32.184  1.00  0.00     0.007 A 
HETATM   23  C   UNL     1      -1.195   5.886 -34.428  1.00  0.00     0.041 C 
HETATM   24  C   UNL     1      -0.712   7.183 -30.865  1.00  0.00     0.001 A 
HETATM   25  C   UNL     1      -1.986   6.871 -30.368  1.00  0.00     0.001 A 
HETATM   26  C   UNL     1      -2.360   4.898 -34.583  1.00  0.00     0.034 C 
ENDBRANCH  15  18
ENDBRANCH   1  14
TORSDOF 3
ENDMDL
MODEL 4
REMARK VINA RESULT:      -9.3      5.328      8.159
REMARK  3 active torsions:
REMARK  status: ('A' for Active; 'I' for Inactive)
REMARK    1  A    between atoms: N_4  and  C_5 
REMARK    2  A    between atoms: C_5  and  C_6 
REMARK       I    between atoms: C_6  and  N_7 
REMARK    3  A    between atoms: N_7  and  C_8 
ROOT
HETATM    1  C   UNL     1      -8.039   0.893 -33.084  1.00  0.00     0.257 C 
ENDROOT
BRANCH   1   2
HETATM    2  N   UNL     1      -9.392   1.095 -33.606  1.00  0.00    -0.225 N 
HETATM    3  N   UNL     1      -9.613   2.308 -34.218  1.00  0.00    -0.173 NA
HETATM    4  C   UNL     1     -10.821   2.653 -34.541  1.00  0.00     0.062 A 
HETATM    5  C   UNL     1     -11.011   4.005 -35.190  1.00  0.00     0.073 C 
HETATM    6  C   UNL     1     -12.001   1.806 -34.287  1.00  0.00     0.006 A 
HETATM    7  C   UNL     1     -11.780   0.587 -33.655  1.00  0.00     0.046 A 
HETATM    8  C   UNL     1     -13.302   2.182 -34.644  1.00  0.00     0.014 A 
HETATM    9  C   UNL     1     -10.411   0.216 -33.253  1.00  0.00     0.275 A 
HETATM   10  C   UNL     1     -12.855  -0.270 -33.385  1.00  0.00     0.018 A 
HETATM   11  O   UNL     1     -10.218  -0.833 -32.641  1.00  0.00    -0.266 OA
HETATM   12  C   UNL     1     -14.151   0.103 -33.742  1.00  0.00     0.001 A 
HETATM   13  C   UNL     1     -14.373   1.329 -34.367  1.00  0.00     0.001 A 
ENDBRANCH   1   2
BRANCH   1  14
HETATM   14  C   UNL     1      -7.058   0.159 -34.003  1.00  0.00     0.238 C 
HETATM   15  N   UNL     1      -7.111  -1.216 -33.956  1.00  0.00    -0.351 N 
HETATM   16  H   UNL     1      -7.803  -1.658 -33.351  1.00  0.00     0.163 HD
HETATM   17  O   UNL     1      -6.176   0.757 -34.618  1.00  0.00    -0.272 OA
BRANCH  15  18
HETATM   18  C   UNL     1      -6.081  -2.032 -34.546  1.00  0.00     0.118 C 
HETATM   19  C   UNL     1      -4.983  -2.401 -33.586  1.00  0.00    -0.029 A 
HETATM   20  C   UNL     1      -4.577  -3.727 -33.790  1.00  0.00    -0.050 A 
HETATM   21  C   UNL     1      -4.340  -1.599 -32.653  1.00  0.00     0.010 A 
HETATM   22  C   UNL     1      -3.531  -4.277 -33.067  1.00  0.00     0.007 A 
HETATM   23  C   UNL     1      -5.371  -4.363 -34.888  1.00  0.00     0.041 C 
HETATM   24  C   UNL     1      -2.893  -3.479 -32.115  1.00  0.00     0.001 A 
HETATM   25  C   UNL     1      -3.295  -2.151 -31.909  1.00  0.00     0.001 A 
HETATM   26  C   UNL     1      -6.585  -3.426 -34.966  1.00  0.00     0.034 C 
ENDBRANCH  15  18
ENDBRANCH   1  14
TORSDOF 3
ENDMDL
MODEL 5
REMARK VINA RESULT:      -9.2      1.975      2.805
REMARK  3 active torsions:
REMARK  status: ('A' for Active; 'I' for Inactive)
REMARK    1  A    between atoms: N_4  and  C_5 
REMARK    2  A    between atoms: C_5  and  C_6 
REMARK       I    between atoms: C_6  and  N_7 
REMARK    3  A    between atoms: N_7  and  C_8 
ROOT
HETATM    1  C   UNL     1      -7.051   1.834 -31.307  1.00  0.00     0.257 C 
ENDROOT
BRANCH   1   2
HETATM    2  N   UNL     1      -6.420   0.620 -31.826  1.00  0.00    -0.225 N 
HETATM    3  N   UNL     1      -5.097   0.452 -31.487  1.00  0.00    -0.173 NA
HETATM    4  C   UNL     1      -4.404  -0.489 -32.052  1.00  0.00     0.062 A 
HETATM    5  C   UNL     1      -2.950  -0.615 -31.660  1.00  0.00     0.073 C 
HETATM    6  C   UNL     1      -4.961  -1.412 -33.058  1.00  0.00     0.006 A 
HETATM    7  C   UNL     1      -6.293  -1.232 -33.413  1.00  0.00     0.046 A 
HETATM    8  C   UNL     1      -4.209  -2.429 -33.660  1.00  0.00     0.014 A 
HETATM    9  C   UNL     1      -7.066  -0.137 -32.799  1.00  0.00     0.275 A 
HETATM   10  C   UNL     1      -6.888  -2.075 -34.361  1.00  0.00     0.018 A 
HETATM   11  O   UNL     1      -8.227   0.063 -33.152  1.00  0.00    -0.266 OA
HETATM   12  C   UNL     1      -6.141  -3.090 -34.959  1.00  0.00     0.001 A 
HETATM   13  C   UNL     1      -4.802  -3.263 -34.611  1.00  0.00     0.001 A 
ENDBRANCH   1   2
BRANCH   1  14
HETATM   14  C   UNL     1      -6.722   3.138 -32.041  1.00  0.00     0.238 C 
HETATM   15  N   UNL     1      -5.501   3.175 -32.674  1.00  0.00    -0.351 N 
HETATM   16  H   UNL     1      -4.910   2.344 -32.646  1.00  0.00     0.163 HD
HETATM   17  O   UNL     1      -7.433   4.138 -31.934  1.00  0.00    -0.272 OA
BRANCH  15  18
HETATM   18  C   UNL     1      -4.941   4.409 -33.165  1.00  0.00     0.118 C 
HETATM   19  C   UNL     1      -3.506   4.619 -32.767  1.00  0.00    -0.029 A 
HETATM   20  C   UNL     1      -2.780   5.182 -33.825  1.00  0.00    -0.050 A 
HETATM   21  C   UNL     1      -2.905   4.396 -31.536  1.00  0.00     0.010 A 
HETATM   22  C   UNL     1      -1.447   5.528 -33.678  1.00  0.00     0.007 A 
HETATM   23  C   UNL     1      -3.657   5.387 -35.022  1.00  0.00     0.041 C 
HETATM   24  C   UNL     1      -0.834   5.290 -32.446  1.00  0.00     0.001 A 
HETATM   25  C   UNL     1      -1.557   4.727 -31.383  1.00  0.00     0.001 A 
HETATM   26  C   UNL     1      -4.830   4.450 -34.700  1.00  0.00     0.034 C 
ENDBRANCH  15  18
ENDBRANCH   1  14
TORSDOF 3
ENDMDL
MODEL 6
REMARK VINA RESULT:      -9.0      1.178      1.373
REMARK  3 active torsions:
REMARK  status: ('A' for Active; 'I' for Inactive)
REMARK    1  A    between atoms: N_4  and  C_5 
REMARK    2  A    between atoms: C_5  and  C_6 
REMARK       I    between atoms: C_6  and  N_7 
REMARK    3  A    between atoms: N_7  and  C_8 
ROOT
HETATM    1  C   UNL     1      -5.217   2.315 -31.668  1.00  0.00     0.257 C 
ENDROOT
BRANCH   1   2
HETATM    2  N   UNL     1      -5.111   1.111 -32.495  1.00  0.00    -0.225 N 
HETATM    3  N   UNL     1      -6.035   1.010 -33.510  1.00  0.00    -0.173 NA
HETATM    4  C   UNL     1      -6.142  -0.100 -34.172  1.00  0.00     0.062 A 
HETATM    5  C   UNL     1      -7.187  -0.165 -35.262  1.00  0.00     0.073 C 
HETATM    6  C   UNL     1      -5.315  -1.290 -33.897  1.00  0.00     0.006 A 
HETATM    7  C   UNL     1      -4.393  -1.194 -32.861  1.00  0.00     0.046 A 
HETATM    8  C   UNL     1      -5.432  -2.484 -34.619  1.00  0.00     0.014 A 
HETATM    9  C   UNL     1      -4.303   0.056 -32.085  1.00  0.00     0.275 A 
HETATM   10  C   UNL     1      -3.573  -2.285 -32.546  1.00  0.00     0.018 A 
HETATM   11  O   UNL     1      -3.531   0.126 -31.129  1.00  0.00    -0.266 OA
HETATM   12  C   UNL     1      -3.687  -3.474 -33.267  1.00  0.00     0.001 A 
HETATM   13  C   UNL     1      -4.618  -3.574 -34.299  1.00  0.00     0.001 A 
ENDBRANCH   1   2
BRANCH   1  14
HETATM   14  C   UNL     1      -4.867   3.641 -32.351  1.00  0.00     0.238 C 
HETATM   15  N   UNL     1      -3.575   3.752 -32.812  1.00  0.00    -0.351 N 
HETATM   16  H   UNL     1      -2.947   2.955 -32.705  1.00  0.00     0.163 HD
HETATM   17  O   UNL     1      -5.640   4.598 -32.340  1.00  0.00    -0.272 OA
BRANCH  15  18
HETATM   18  C   UNL     1      -3.025   5.019 -33.222  1.00  0.00     0.118 C 
HETATM   19  C   UNL     1      -2.091   5.625 -32.210  1.00  0.00    -0.029 A 
HETATM   20  C   UNL     1      -0.996   6.221 -32.848  1.00  0.00    -0.050 A 
HETATM   21  C   UNL     1      -2.238   5.706 -30.832  1.00  0.00     0.010 A 
HETATM   22  C   UNL     1      -0.029   6.903 -32.128  1.00  0.00     0.007 A 
HETATM   23  C   UNL     1      -1.093   6.059 -34.333  1.00  0.00     0.041 C 
HETATM   24  C   UNL     1      -0.164   6.972 -30.740  1.00  0.00     0.001 A 
HETATM   25  C   UNL     1      -1.260   6.378 -30.096  1.00  0.00     0.001 A 
HETATM   26  C   UNL     1      -2.098   4.904 -34.446  1.00  0.00     0.034 C 
ENDBRANCH  15  18
ENDBRANCH   1  14
TORSDOF 3
ENDMDL
MODEL 7
REMARK VINA RESULT:      -8.8      1.825      2.439
REMARK  3 active torsions:
REMARK  status: ('A' for Active; 'I' for Inactive)
REMARK    1  A    between atoms: N_4  and  C_5 
REMARK    2  A    between atoms: C_5  and  C_6 
REMARK       I    between atoms: C_6  and  N_7 
REMARK    3  A    between atoms: N_7  and  C_8 
ROOT
HETATM    1  C   UNL     1      -4.122   2.507 -31.480  1.00  0.00     0.257 C 
ENDROOT
BRANCH   1   2
HETATM    2  N   UNL     1      -4.597   1.515 -32.447  1.00  0.00    -0.225 N 
HETATM    3  N   UNL     1      -5.786   1.822 -33.068  1.00  0.00    -0.173 NA
HETATM    4  C   UNL     1      -6.380   0.925 -33.794  1.00  0.00     0.062 A 
HETATM    5  C   UNL     1      -7.694   1.306 -34.436  1.00  0.00     0.073 C 
HETATM    6  C   UNL     1      -5.847  -0.434 -34.000  1.00  0.00     0.006 A 
HETATM    7  C   UNL     1      -4.654  -0.749 -33.359  1.00  0.00     0.046 A 
HETATM    8  C   UNL     1      -6.490  -1.395 -34.789  1.00  0.00     0.014 A 
HETATM    9  C   UNL     1      -4.003   0.259 -32.502  1.00  0.00     0.275 A 
HETATM   10  C   UNL     1      -4.088  -2.022 -33.511  1.00  0.00     0.018 A 
HETATM   11  O   UNL     1      -2.979  -0.034 -31.886  1.00  0.00    -0.266 OA
HETATM   12  C   UNL     1      -4.727  -2.979 -34.300  1.00  0.00     0.001 A 
HETATM   13  C   UNL     1      -5.928  -2.666 -34.934  1.00  0.00     0.001 A 
ENDBRANCH   1   2
BRANCH   1  14
HETATM   14  C   UNL     1      -3.218   3.614 -32.030  1.00  0.00     0.238 C 
HETATM   15  N   UNL     1      -2.307   4.138 -31.141  1.00  0.00    -0.351 N 
HETATM   16  H   UNL     1      -2.264   3.750 -30.199  1.00  0.00     0.163 HD
HETATM   17  O   UNL     1      -3.405   4.110 -33.141  1.00  0.00    -0.272 OA
BRANCH  15  18
HETATM   18  C   UNL     1      -1.588   5.355 -31.425  1.00  0.00     0.118 C 
HETATM   19  C   UNL     1      -1.791   6.428 -30.391  1.00  0.00    -0.029 A 
HETATM   20  C   UNL     1      -0.591   7.108 -30.146  1.00  0.00    -0.050 A 
HETATM   21  C   UNL     1      -2.967   6.822 -29.768  1.00  0.00     0.010 A 
HETATM   22  C   UNL     1      -0.539   8.185 -29.277  1.00  0.00     0.007 A 
HETATM   23  C   UNL     1       0.518   6.545 -30.980  1.00  0.00     0.041 C 
HETATM   24  C   UNL     1      -1.717   8.574 -28.635  1.00  0.00     0.001 A 
HETATM   25  C   UNL     1      -2.922   7.897 -28.878  1.00  0.00     0.001 A 
HETATM   26  C   UNL     1      -0.060   5.177 -31.368  1.00  0.00     0.034 C 
ENDBRANCH  15  18
ENDBRANCH   1  14
TORSDOF 3
ENDMDL
MODEL 8
REMARK VINA RESULT:      -8.8      1.907      8.910
REMARK  3 active torsions:
REMARK  status: ('A' for Active; 'I' for Inactive)
REMARK    1  A    between atoms: N_4  and  C_5 
REMARK    2  A    between atoms: C_5  and  C_6 
REMARK       I    between atoms: C_6  and  N_7 
REMARK    3  A    between atoms: N_7  and  C_8 
ROOT
HETATM    1  C   UNL     1      -3.170   4.341 -32.539  1.00  0.00     0.257 C 
ENDROOT
BRANCH   1   2
HETATM    2  N   UNL     1      -2.244   5.192 -31.791  1.00  0.00    -0.225 N 
HETATM    3  N   UNL     1      -0.968   4.695 -31.653  1.00  0.00    -0.173 NA
HETATM    4  C   UNL     1      -0.134   5.282 -30.851  1.00  0.00     0.062 A 
HETATM    5  C   UNL     1       1.248   4.682 -30.720  1.00  0.00     0.073 C 
HETATM    6  C   UNL     1      -0.477   6.478 -30.059  1.00  0.00     0.006 A 
HETATM    7  C   UNL     1      -1.771   6.971 -30.186  1.00  0.00     0.046 A 
HETATM    8  C   UNL     1       0.430   7.110 -29.199  1.00  0.00     0.014 A 
HETATM    9  C   UNL     1      -2.727   6.277 -31.067  1.00  0.00     0.275 A 
HETATM   10  C   UNL     1      -2.165   8.105 -29.464  1.00  0.00     0.018 A 
HETATM   11  O   UNL     1      -3.890   6.674 -31.137  1.00  0.00    -0.266 OA
HETATM   12  C   UNL     1      -1.261   8.737 -28.610  1.00  0.00     0.001 A 
HETATM   13  C   UNL     1       0.033   8.237 -28.476  1.00  0.00     0.001 A 
ENDBRANCH   1   2
BRANCH   1  14
HETATM   14  C   UNL     1      -3.643   3.065 -31.834  1.00  0.00     0.238 C 
HETATM   15  N   UNL     1      -3.404   1.888 -32.506  1.00  0.00    -0.351 N 
HETATM   16  H   UNL     1      -2.911   1.926 -33.399  1.00  0.00     0.163 HD
HETATM   17  O   UNL     1      -4.332   3.107 -30.815  1.00  0.00    -0.272 OA
BRANCH  15  18
HETATM   18  C   UNL     1      -4.025   0.651 -32.107  1.00  0.00     0.118 C 
HETATM   19  C   UNL     1      -5.021   0.129 -33.107  1.00  0.00    -0.029 A 
HETATM   20  C   UNL     1      -4.922  -1.265 -33.215  1.00  0.00    -0.050 A 
HETATM   21  C   UNL     1      -5.991   0.827 -33.812  1.00  0.00     0.010 A 
HETATM   22  C   UNL     1      -5.783  -1.984 -34.028  1.00  0.00     0.007 A 
HETATM   23  C   UNL     1      -3.851  -1.794 -32.313  1.00  0.00     0.041 C 
HETATM   24  C   UNL     1      -6.749  -1.284 -34.753  1.00  0.00     0.001 A 
HETATM   25  C   UNL     1      -6.852   0.111 -34.647  1.00  0.00     0.001 A 
HETATM   26  C   UNL     1      -3.033  -0.525 -32.038  1.00  0.00     0.034 C 
ENDBRANCH  15  18
ENDBRANCH   1  14
TORSDOF 3
ENDMDL
MODEL 9
REMARK VINA RESULT:      -8.7      5.273      8.987
REMARK  3 active torsions:
REMARK  status: ('A' for Active; 'I' for Inactive)
REMARK    1  A    between atoms: N_4  and  C_5 
REMARK    2  A    between atoms: C_5  and  C_6 
REMARK       I    between atoms: C_6  and  N_7 
REMARK    3  A    between atoms: N_7  and  C_8 
ROOT
HETATM    1  C   UNL     1      -9.341   2.012 -33.765  1.00  0.00     0.257 C 
ENDROOT
BRANCH   1   2
HETATM    2  N   UNL     1     -10.728   2.075 -33.301  1.00  0.00    -0.225 N 
HETATM    3  N   UNL     1     -11.531   1.031 -33.702  1.00  0.00    -0.173 NA
HETATM    4  C   UNL     1     -12.811   1.094 -33.503  1.00  0.00     0.062 A 
HETATM    5  C   UNL     1     -13.650  -0.069 -33.982  1.00  0.00     0.073 C 
HETATM    6  C   UNL     1     -13.476   2.241 -32.858  1.00  0.00     0.006 A 
HETATM    7  C   UNL     1     -12.667   3.303 -32.468  1.00  0.00     0.046 A 
HETATM    8  C   UNL     1     -14.858   2.300 -32.641  1.00  0.00     0.014 A 
HETATM    9  C   UNL     1     -11.218   3.246 -32.732  1.00  0.00     0.275 A 
HETATM   10  C   UNL     1     -13.231   4.425 -31.847  1.00  0.00     0.018 A 
HETATM   11  O   UNL     1     -10.507   4.207 -32.443  1.00  0.00    -0.266 OA
HETATM   12  C   UNL     1     -14.608   4.483 -31.628  1.00  0.00     0.001 A 
HETATM   13  C   UNL     1     -15.420   3.423 -32.028  1.00  0.00     0.001 A 
ENDBRANCH   1   2
BRANCH   1  14
HETATM   14  C   UNL     1      -8.362   1.238 -32.876  1.00  0.00     0.238 C 
HETATM   15  N   UNL     1      -7.129   0.979 -33.431  1.00  0.00    -0.351 N 
HETATM   16  H   UNL     1      -6.929   1.334 -34.366  1.00  0.00     0.163 HD
HETATM   17  O   UNL     1      -8.713   0.742 -31.806  1.00  0.00    -0.272 OA
BRANCH  15  18
HETATM   18  C   UNL     1      -6.215   0.037 -32.835  1.00  0.00     0.118 C 
HETATM   19  C   UNL     1      -6.098  -1.253 -33.599  1.00  0.00    -0.029 A 
HETATM   20  C   UNL     1      -4.768  -1.694 -33.617  1.00  0.00    -0.050 A 
HETATM   21  C   UNL     1      -7.105  -2.017 -34.172  1.00  0.00     0.010 A 
HETATM   22  C   UNL     1      -4.418  -2.897 -34.207  1.00  0.00     0.007 A 
HETATM   23  C   UNL     1      -3.881  -0.738 -32.881  1.00  0.00     0.041 C 
HETATM   24  C   UNL     1      -5.426  -3.661 -34.800  1.00  0.00     0.001 A 
HETATM   25  C   UNL     1      -6.759  -3.224 -34.783  1.00  0.00     0.001 A 
HETATM   26  C   UNL     1      -4.754   0.524 -32.854  1.00  0.00     0.034 C 
ENDBRANCH  15  18
ENDBRANCH   1  14
TORSDOF 3
ENDMDL
MODEL 10
REMARK VINA RESULT:      -8.6      2.291      3.687
REMARK  3 active torsions:
REMARK  status: ('A' for Active; 'I' for Inactive)
REMARK    1  A    between atoms: N_4  and  C_5 
REMARK    2  A    between atoms: C_5  and  C_6 
REMARK       I    between atoms: C_6  and  N_7 
REMARK    3  A    between atoms: N_7  and  C_8 
ROOT
HETATM    1  C   UNL     1      -5.189   4.240 -31.742  1.00  0.00     0.257 C 
ENDROOT
BRANCH   1   2
HETATM    2  N   UNL     1      -5.268   2.815 -32.066  1.00  0.00    -0.225 N 
HETATM    3  N   UNL     1      -4.309   2.022 -31.478  1.00  0.00    -0.173 NA
HETATM    4  C   UNL     1      -4.181   0.787 -31.851  1.00  0.00     0.062 A 
HETATM    5  C   UNL     1      -3.097  -0.034 -31.189  1.00  0.00     0.073 C 
HETATM    6  C   UNL     1      -5.020   0.163 -32.891  1.00  0.00     0.006 A 
HETATM    7  C   UNL     1      -5.979   0.968 -33.497  1.00  0.00     0.046 A 
HETATM    8  C   UNL     1      -4.881  -1.174 -33.285  1.00  0.00     0.014 A 
HETATM    9  C   UNL     1      -6.094   2.383 -33.099  1.00  0.00     0.275 A 
HETATM   10  C   UNL     1      -6.813   0.441 -34.492  1.00  0.00     0.018 A 
HETATM   11  O   UNL     1      -6.900   3.114 -33.673  1.00  0.00    -0.266 OA
HETATM   12  C   UNL     1      -6.676  -0.891 -34.883  1.00  0.00     0.001 A 
HETATM   13  C   UNL     1      -5.709  -1.695 -34.282  1.00  0.00     0.001 A 
ENDBRANCH   1   2
BRANCH   1  14
HETATM   14  C   UNL     1      -3.908   4.964 -32.167  1.00  0.00     0.238 C 
HETATM   15  N   UNL     1      -2.961   5.131 -31.182  1.00  0.00    -0.351 N 
HETATM   16  H   UNL     1      -3.147   4.747 -30.256  1.00  0.00     0.163 HD
HETATM   17  O   UNL     1      -3.803   5.501 -33.270  1.00  0.00    -0.272 OA
BRANCH  15  18
HETATM   18  C   UNL     1      -1.840   6.020 -31.354  1.00  0.00     0.118 C 
HETATM   19  C   UNL     1      -1.489   6.792 -30.111  1.00  0.00    -0.029 A 
HETATM   20  C   UNL     1      -0.098   6.888 -29.970  1.00  0.00    -0.050 A 
HETATM   21  C   UNL     1      -2.337   7.425 -29.213  1.00  0.00     0.010 A 
HETATM   22  C   UNL     1       0.470   7.610 -28.933  1.00  0.00     0.007 A 
HETATM   23  C   UNL     1       0.600   6.184 -31.091  1.00  0.00     0.041 C 
HETATM   24  C   UNL     1      -0.380   8.234 -28.017  1.00  0.00     0.001 A 
HETATM   25  C   UNL     1      -1.774   8.141 -28.156  1.00  0.00     0.001 A 
HETATM   26  C   UNL     1      -0.519   5.277 -31.622  1.00  0.00     0.034 C 
ENDBRANCH  15  18
ENDBRANCH   1  14
TORSDOF 3
ENDMDL
