MODEL 1
REMARK VINA RESULT:      -9.2      0.000      0.000
REMARK  6 active torsions:
REMARK  status: ('A' for Active; 'I' for Inactive)
REMARK    1  A    between atoms: C_3  and  C_4 
REMARK    2  A    between atoms: C_4  and  N_5 
REMARK    3  A    between atoms: C_4  and  C_19 
REMARK    4  A    between atoms: N_9  and  C_10 
REMARK    5  A    between atoms: C_25  and  N_26 
REMARK       I    between atoms: N_26  and  C_27 
REMARK    6  A    between atoms: C_27  and  C_28 
ROOT
HETATM    1  C   UNL     1      -5.110   3.736 -31.711  1.00  0.00     0.259 C 
ENDROOT
BRANCH   1   2
HETATM    2  C   UNL     1      -5.664   4.817 -30.784  1.00  0.00     0.018 A 
HETATM    3  C   UNL     1      -7.113   4.970 -30.559  1.00  0.00    -0.038 A 
HETATM    4  C   UNL     1      -8.180   4.032 -31.059  1.00  0.00     0.050 C 
HETATM    5  C   UNL     1      -7.410   6.111 -29.832  1.00  0.00    -0.013 A 
HETATM    6  S   UNL     1      -6.016   6.968 -29.395  1.00  0.00    -0.076 SA
HETATM    7  C   UNL     1      -8.750   6.641 -29.416  1.00  0.00     0.057 C 
HETATM    8  C   UNL     1      -4.979   5.820 -30.095  1.00  0.00     0.086 A 
BRANCH   8   9
HETATM    9  N   UNL     1      -3.626   5.960 -29.824  1.00  0.00    -0.315 N 
HETATM   10  C   UNL     1      -2.751   6.813 -30.491  1.00  0.00     0.280 C 
HETATM   11  O   UNL     1      -2.994   7.370 -31.553  1.00  0.00    -0.265 OA
HETATM   12  H   UNL     1      -3.185   5.411 -29.100  1.00  0.00     0.170 HD
BRANCH  10  13
HETATM   13  C   UNL     1      -1.435   6.817 -29.886  1.00  0.00     0.142 A 
HETATM   14  O   UNL     1      -0.696   5.659 -29.901  1.00  0.00    -0.317 OA
HETATM   15  C   UNL     1       0.471   5.924 -29.258  1.00  0.00     0.143 A 
HETATM   16  C   UNL     1       0.521   7.244 -28.874  1.00  0.00     0.027 A 
HETATM   17  C   UNL     1      -0.704   7.823 -29.287  1.00  0.00     0.045 A 
ENDBRANCH  10  13
ENDBRANCH   8   9
ENDBRANCH   1   2
BRANCH   1  18
HETATM   18  N   UNL     1      -6.070   2.559 -32.064  1.00  0.00    -0.056 N 
HETATM   19  H   UNL     1      -6.987   2.930 -31.779  1.00  0.00     0.281 HD
HETATM   20  C   UNL     1      -6.215   2.211 -33.530  1.00  0.00     0.256 C 
HETATM   21  C   UNL     1      -7.209   1.047 -33.782  1.00  0.00     0.152 C 
HETATM   22  N   UNL     1      -6.928  -0.124 -32.933  1.00  0.00    -0.364 N 
HETATM   23  C   UNL     1      -6.847   0.200 -31.492  1.00  0.00     0.152 C 
HETATM   24  C   UNL     1      -5.810   1.312 -31.214  1.00  0.00     0.256 C 
BRANCH  22  25
HETATM   25  C   UNL     1      -6.262  -1.206 -33.473  1.00  0.00     0.102 A 
HETATM   26  N   UNL     1      -4.959  -1.374 -33.168  1.00  0.00    -0.352 N 
HETATM   27  H   UNL     1      -4.511  -0.656 -32.605  1.00  0.00     0.166 HD
HETATM   28  C   UNL     1      -4.199  -2.379 -33.631  1.00  0.00     0.089 A 
HETATM   29  C   UNL     1      -4.742  -3.321 -34.487  1.00  0.00     0.017 A 
HETATM   30  C   UNL     1      -6.070  -3.187 -34.866  1.00  0.00     0.005 A 
HETATM   31  C   UNL     1      -6.828  -2.127 -34.368  1.00  0.00     0.048 A 
ENDBRANCH  22  25
ENDBRANCH   1  18
BRANCH   1  32
HETATM   32  C   UNL     1      -4.268   4.332 -32.824  1.00  0.00    -0.005 A 
HETATM   33  C   UNL     1      -4.723   5.192 -33.816  1.00  0.00     0.125 A 
HETATM   34  N   UNL     1      -3.984   5.632 -34.859  1.00  0.00    -0.273 NA
HETATM   35  C   UNL     1      -2.682   5.294 -34.896  1.00  0.00     0.116 A 
HETATM   36  C   UNL     1      -2.090   4.513 -33.928  1.00  0.00     0.020 A 
HETATM   37  C   UNL     1      -2.889   4.035 -32.889  1.00  0.00     0.012 A 
ENDBRANCH   1  32
TORSDOF 6
ENDMDL
MODEL 2
REMARK VINA RESULT:      -8.9      3.015      5.524
REMARK  6 active torsions:
REMARK  status: ('A' for Active; 'I' for Inactive)
REMARK    1  A    between atoms: C_3  and  C_4 
REMARK    2  A    between atoms: C_4  and  N_5 
REMARK    3  A    between atoms: C_4  and  C_19 
REMARK    4  A    between atoms: N_9  and  C_10 
REMARK    5  A    between atoms: C_25  and  N_26 
REMARK       I    between atoms: N_26  and  C_27 
REMARK    6  A    between atoms: C_27  and  C_28 
ROOT
HETATM    1  C   UNL     1      -6.015   3.717 -31.926  1.00  0.00     0.259 C 
ENDROOT
BRANCH   1   2
HETATM    2  C   UNL     1      -6.826   4.838 -31.279  1.00  0.00     0.018 A 
HETATM    3  C   UNL     1      -6.258   5.681 -30.211  1.00  0.00    -0.038 A 
HETATM    4  C   UNL     1      -4.826   5.659 -29.747  1.00  0.00     0.050 C 
HETATM    5  C   UNL     1      -7.209   6.513 -29.643  1.00  0.00    -0.013 A 
HETATM    6  S   UNL     1      -8.729   6.331 -30.368  1.00  0.00    -0.076 SA
HETATM    7  C   UNL     1      -7.052   7.496 -28.521  1.00  0.00     0.057 C 
HETATM    8  C   UNL     1      -8.156   5.200 -31.498  1.00  0.00     0.086 A 
BRANCH   8   9
HETATM    9  N   UNL     1      -9.023   4.857 -32.525  1.00  0.00    -0.315 N 
HETATM   10  C   UNL     1      -9.877   3.758 -32.530  1.00  0.00     0.280 C 
HETATM   11  O   UNL     1      -9.811   2.818 -31.749  1.00  0.00    -0.265 OA
HETATM   12  H   UNL     1      -9.068   5.410 -33.369  1.00  0.00     0.170 HD
BRANCH  10  13
HETATM   13  C   UNL     1     -10.742   3.751 -33.693  1.00  0.00     0.142 A 
HETATM   14  O   UNL     1     -12.098   3.630 -33.507  1.00  0.00    -0.317 OA
HETATM   15  C   UNL     1     -12.668   3.627 -34.741  1.00  0.00     0.143 A 
HETATM   16  C   UNL     1     -11.712   3.797 -35.715  1.00  0.00     0.027 A 
HETATM   17  C   UNL     1     -10.471   3.886 -35.039  1.00  0.00     0.045 A 
ENDBRANCH  10  13
ENDBRANCH   8   9
ENDBRANCH   1   2
BRANCH   1  18
HETATM   18  N   UNL     1      -6.810   2.459 -32.393  1.00  0.00    -0.056 N 
HETATM   19  H   UNL     1      -7.787   2.753 -32.255  1.00  0.00     0.281 HD
HETATM   20  C   UNL     1      -6.704   2.087 -33.857  1.00  0.00     0.256 C 
HETATM   21  C   UNL     1      -7.550   0.841 -34.229  1.00  0.00     0.152 C 
HETATM   22  N   UNL     1      -7.303  -0.295 -33.324  1.00  0.00    -0.364 N 
HETATM   23  C   UNL     1      -7.466   0.047 -31.894  1.00  0.00     0.152 C 
HETATM   24  C   UNL     1      -6.578   1.246 -31.488  1.00  0.00     0.256 C 
BRANCH  22  25
HETATM   25  C   UNL     1      -6.476  -1.321 -33.735  1.00  0.00     0.102 A 
HETATM   26  N   UNL     1      -5.174  -1.272 -33.390  1.00  0.00    -0.352 N 
HETATM   27  H   UNL     1      -4.848  -0.446 -32.895  1.00  0.00     0.166 HD
HETATM   28  C   UNL     1      -4.268  -2.202 -33.732  1.00  0.00     0.089 A 
HETATM   29  C   UNL     1      -4.646  -3.292 -34.496  1.00  0.00     0.017 A 
HETATM   30  C   UNL     1      -5.966  -3.384 -34.912  1.00  0.00     0.005 A 
HETATM   31  C   UNL     1      -6.880  -2.397 -34.541  1.00  0.00     0.048 A 
ENDBRANCH  22  25
ENDBRANCH   1  18
BRANCH   1  32
HETATM   32  C   UNL     1      -4.937   4.264 -32.845  1.00  0.00    -0.005 A 
HETATM   33  C   UNL     1      -5.132   5.182 -33.869  1.00  0.00     0.125 A 
HETATM   34  N   UNL     1      -4.181   5.581 -34.743  1.00  0.00    -0.273 NA
HETATM   35  C   UNL     1      -2.925   5.135 -34.555  1.00  0.00     0.116 A 
HETATM   36  C   UNL     1      -2.585   4.285 -33.526  1.00  0.00     0.020 A 
HETATM   37  C   UNL     1      -3.598   3.853 -32.669  1.00  0.00     0.012 A 
ENDBRANCH   1  32
TORSDOF 6
ENDMDL
MODEL 3
REMARK VINA RESULT:      -8.9      3.244      8.385
REMARK  6 active torsions:
REMARK  status: ('A' for Active; 'I' for Inactive)
REMARK    1  A    between atoms: C_3  and  C_4 
REMARK    2  A    between atoms: C_4  and  N_5 
REMARK    3  A    between atoms: C_4  and  C_19 
REMARK    4  A    between atoms: N_9  and  C_10 
REMARK    5  A    between atoms: C_25  and  N_26 
REMARK       I    between atoms: N_26  and  C_27 
REMARK    6  A    between atoms: C_27  and  C_28 
ROOT
HETATM    1  C   UNL     1      -2.690   7.234 -30.466  1.00  0.00     0.259 C 
ENDROOT
BRANCH   1   2
HETATM    2  C   UNL     1      -4.215   7.189 -30.383  1.00  0.00     0.018 A 
HETATM    3  C   UNL     1      -5.025   8.420 -30.436  1.00  0.00    -0.038 A 
HETATM    4  C   UNL     1      -4.501   9.801 -30.723  1.00  0.00     0.050 C 
HETATM    5  C   UNL     1      -6.362   8.175 -30.168  1.00  0.00    -0.013 A 
HETATM    6  S   UNL     1      -6.665   6.532 -29.891  1.00  0.00    -0.076 SA
HETATM    7  C   UNL     1      -7.502   9.146 -30.097  1.00  0.00     0.057 C 
HETATM    8  C   UNL     1      -5.052   6.090 -30.186  1.00  0.00     0.086 A 
BRANCH   8   9
HETATM    9  N   UNL     1      -4.790   4.732 -30.287  1.00  0.00    -0.315 N 
HETATM   10  C   UNL     1      -5.019   3.944 -31.411  1.00  0.00     0.280 C 
HETATM   11  O   UNL     1      -5.700   4.279 -32.372  1.00  0.00    -0.265 OA
HETATM   12  H   UNL     1      -4.412   4.220 -29.502  1.00  0.00     0.170 HD
BRANCH  10  13
HETATM   13  C   UNL     1      -4.521   2.594 -31.236  1.00  0.00     0.142 A 
HETATM   14  O   UNL     1      -5.361   1.643 -30.710  1.00  0.00    -0.317 OA
HETATM   15  C   UNL     1      -4.651   0.487 -30.630  1.00  0.00     0.143 A 
HETATM   16  C   UNL     1      -3.386   0.662 -31.143  1.00  0.00     0.027 A 
HETATM   17  C   UNL     1      -3.305   2.018 -31.542  1.00  0.00     0.045 A 
ENDBRANCH  10  13
ENDBRANCH   8   9
ENDBRANCH   1   2
BRANCH   1  18
HETATM   18  N   UNL     1      -1.907   6.696 -29.229  1.00  0.00    -0.056 N 
HETATM   19  H   UNL     1      -2.155   5.697 -29.230  1.00  0.00     0.281 HD
HETATM   20  C   UNL     1      -0.395   6.736 -29.307  1.00  0.00     0.256 C 
HETATM   21  C   UNL     1       0.293   6.156 -28.043  1.00  0.00     0.152 C 
HETATM   22  N   UNL     1      -0.239   6.738 -26.798  1.00  0.00    -0.364 N 
HETATM   23  C   UNL     1      -1.711   6.647 -26.688  1.00  0.00     0.152 C 
HETATM   24  C   UNL     1      -2.416   7.282 -27.909  1.00  0.00     0.256 C 
BRANCH  22  25
HETATM   25  C   UNL     1       0.476   7.728 -26.154  1.00  0.00     0.102 A 
HETATM   26  N   UNL     1      -0.206   8.700 -25.516  1.00  0.00    -0.352 N 
HETATM   27  H   UNL     1      -1.219   8.694 -25.594  1.00  0.00     0.166 HD
HETATM   28  C   UNL     1       0.371   9.719 -24.859  1.00  0.00     0.089 A 
HETATM   29  C   UNL     1       1.750   9.826 -24.818  1.00  0.00     0.017 A 
HETATM   30  C   UNL     1       2.510   8.875 -25.482  1.00  0.00     0.005 A 
HETATM   31  C   UNL     1       1.876   7.832 -26.158  1.00  0.00     0.048 A 
ENDBRANCH  22  25
ENDBRANCH   1  18
BRANCH   1  32
HETATM   32  C   UNL     1      -2.193   6.853 -31.849  1.00  0.00    -0.005 A 
HETATM   33  C   UNL     1      -1.915   7.738 -32.883  1.00  0.00     0.125 A 
HETATM   34  N   UNL     1      -1.571   7.376 -34.140  1.00  0.00    -0.273 NA
HETATM   35  C   UNL     1      -1.388   6.067 -34.391  1.00  0.00     0.116 A 
HETATM   36  C   UNL     1      -1.552   5.096 -33.429  1.00  0.00     0.020 A 
HETATM   37  C   UNL     1      -1.954   5.496 -32.154  1.00  0.00     0.012 A 
ENDBRANCH   1  32
TORSDOF 6
ENDMDL
MODEL 4
REMARK VINA RESULT:      -8.4      1.779      2.595
REMARK  6 active torsions:
REMARK  status: ('A' for Active; 'I' for Inactive)
REMARK    1  A    between atoms: C_3  and  C_4 
REMARK    2  A    between atoms: C_4  and  N_5 
REMARK    3  A    between atoms: C_4  and  C_19 
REMARK    4  A    between atoms: N_9  and  C_10 
REMARK    5  A    between atoms: C_25  and  N_26 
REMARK       I    between atoms: N_26  and  C_27 
REMARK    6  A    between atoms: C_27  and  C_28 
ROOT
HETATM    1  C   UNL     1      -5.973   3.747 -31.850  1.00  0.00     0.259 C 
ENDROOT
BRANCH   1   2
HETATM    2  C   UNL     1      -6.071   4.700 -30.659  1.00  0.00     0.018 A 
HETATM    3  C   UNL     1      -7.337   4.888 -29.927  1.00  0.00    -0.038 A 
HETATM    4  C   UNL     1      -8.597   4.093 -30.139  1.00  0.00     0.050 C 
HETATM    5  C   UNL     1      -7.255   5.918 -29.003  1.00  0.00    -0.013 A 
HETATM    6  S   UNL     1      -5.718   6.627 -28.975  1.00  0.00    -0.076 SA
HETATM    7  C   UNL     1      -8.316   6.444 -28.083  1.00  0.00     0.057 C 
HETATM    8  C   UNL     1      -5.098   5.549 -30.131  1.00  0.00     0.086 A 
BRANCH   8   9
HETATM    9  N   UNL     1      -3.726   5.579 -30.333  1.00  0.00    -0.315 N 
HETATM   10  C   UNL     1      -3.082   6.122 -31.441  1.00  0.00     0.280 C 
HETATM   11  O   UNL     1      -3.635   6.426 -32.490  1.00  0.00    -0.265 OA
HETATM   12  H   UNL     1      -3.095   5.174 -29.655  1.00  0.00     0.170 HD
BRANCH  10  13
HETATM   13  C   UNL     1      -1.641   6.108 -31.290  1.00  0.00     0.142 A 
HETATM   14  O   UNL     1      -1.010   4.906 -31.077  1.00  0.00    -0.317 OA
HETATM   15  C   UNL     1       0.316   5.172 -30.947  1.00  0.00     0.143 A 
HETATM   16  C   UNL     1       0.558   6.514 -31.125  1.00  0.00     0.027 A 
HETATM   17  C   UNL     1      -0.702   7.117 -31.355  1.00  0.00     0.045 A 
ENDBRANCH  10  13
ENDBRANCH   8   9
ENDBRANCH   1   2
BRANCH   1  18
HETATM   18  N   UNL     1      -5.522   2.287 -31.542  1.00  0.00    -0.056 N 
HETATM   19  H   UNL     1      -5.099   2.381 -30.608  1.00  0.00     0.281 HD
HETATM   20  C   UNL     1      -6.615   1.251 -31.388  1.00  0.00     0.256 C 
HETATM   21  C   UNL     1      -6.069  -0.163 -31.056  1.00  0.00     0.152 C 
HETATM   22  N   UNL     1      -5.000  -0.582 -31.980  1.00  0.00    -0.364 N 
HETATM   23  C   UNL     1      -3.899   0.399 -32.087  1.00  0.00     0.152 C 
HETATM   24  C   UNL     1      -4.417   1.800 -32.484  1.00  0.00     0.256 C 
BRANCH  22  25
HETATM   25  C   UNL     1      -5.298  -1.455 -33.007  1.00  0.00     0.102 A 
HETATM   26  N   UNL     1      -4.321  -2.266 -33.461  1.00  0.00    -0.352 N 
HETATM   27  H   UNL     1      -3.391  -2.151 -33.068  1.00  0.00     0.166 HD
HETATM   28  C   UNL     1      -4.480  -3.153 -34.457  1.00  0.00     0.089 A 
HETATM   29  C   UNL     1      -5.703  -3.270 -35.093  1.00  0.00     0.017 A 
HETATM   30  C   UNL     1      -6.741  -2.441 -34.695  1.00  0.00     0.005 A 
HETATM   31  C   UNL     1      -6.538  -1.528 -33.660  1.00  0.00     0.048 A 
ENDBRANCH  22  25
ENDBRANCH   1  18
BRANCH   1  32
HETATM   32  C   UNL     1      -7.117   3.952 -32.827  1.00  0.00    -0.005 A 
HETATM   33  C   UNL     1      -7.411   5.133 -33.497  1.00  0.00     0.125 A 
HETATM   34  N   UNL     1      -8.493   5.328 -34.284  1.00  0.00    -0.273 NA
HETATM   35  C   UNL     1      -9.299   4.277 -34.520  1.00  0.00     0.116 A 
HETATM   36  C   UNL     1      -9.070   3.030 -33.980  1.00  0.00     0.020 A 
HETATM   37  C   UNL     1      -7.973   2.872 -33.134  1.00  0.00     0.012 A 
ENDBRANCH   1  32
TORSDOF 6
ENDMDL
MODEL 5
REMARK VINA RESULT:      -8.3      3.681      8.539
REMARK  6 active torsions:
REMARK  status: ('A' for Active; 'I' for Inactive)
REMARK    1  A    between atoms: C_3  and  C_4 
REMARK    2  A    between atoms: C_4  and  N_5 
REMARK    3  A    between atoms: C_4  and  C_19 
REMARK    4  A    between atoms: N_9  and  C_10 
REMARK    5  A    between atoms: C_25  and  N_26 
REMARK       I    between atoms: N_26  and  C_27 
REMARK    6  A    between atoms: C_27  and  C_28 
ROOT
HETATM    1  C   UNL     1      -6.001   2.922 -31.962  1.00  0.00     0.259 C 
ENDROOT
BRANCH   1   2
HETATM    2  C   UNL     1      -6.078   1.607 -32.737  1.00  0.00     0.018 A 
HETATM    3  C   UNL     1      -5.170   0.484 -32.440  1.00  0.00    -0.038 A 
HETATM    4  C   UNL     1      -4.202   0.423 -31.289  1.00  0.00     0.050 C 
HETATM    5  C   UNL     1      -5.287  -0.539 -33.367  1.00  0.00    -0.013 A 
HETATM    6  S   UNL     1      -6.459  -0.202 -34.543  1.00  0.00    -0.076 SA
HETATM    7  C   UNL     1      -4.533  -1.833 -33.442  1.00  0.00     0.057 C 
HETATM    8  C   UNL     1      -6.893   1.272 -33.820  1.00  0.00     0.086 A 
BRANCH   8   9
HETATM    9  N   UNL     1      -8.027   1.896 -34.318  1.00  0.00    -0.315 N 
HETATM   10  C   UNL     1      -9.335   1.636 -33.921  1.00  0.00     0.280 C 
HETATM   11  O   UNL     1      -9.685   0.664 -33.264  1.00  0.00    -0.265 OA
HETATM   12  H   UNL     1      -7.954   2.598 -35.041  1.00  0.00     0.170 HD
BRANCH  10  13
HETATM   13  C   UNL     1     -10.279   2.544 -34.540  1.00  0.00     0.142 A 
HETATM   14  O   UNL     1     -11.537   2.084 -34.845  1.00  0.00    -0.317 OA
HETATM   15  C   UNL     1     -12.205   3.112 -35.429  1.00  0.00     0.143 A 
HETATM   16  C   UNL     1     -11.420   4.242 -35.459  1.00  0.00     0.027 A 
HETATM   17  C   UNL     1     -10.182   3.879 -34.877  1.00  0.00     0.045 A 
ENDBRANCH  10  13
ENDBRANCH   8   9
ENDBRANCH   1   2
BRANCH   1  18
HETATM   18  N   UNL     1      -5.023   4.003 -32.515  1.00  0.00    -0.056 N 
HETATM   19  H   UNL     1      -5.418   4.201 -33.445  1.00  0.00     0.281 HD
HETATM   20  C   UNL     1      -4.998   5.335 -31.796  1.00  0.00     0.256 C 
HETATM   21  C   UNL     1      -4.015   6.352 -32.435  1.00  0.00     0.152 C 
HETATM   22  N   UNL     1      -2.674   5.780 -32.643  1.00  0.00    -0.364 N 
HETATM   23  C   UNL     1      -2.687   4.509 -33.400  1.00  0.00     0.152 C 
HETATM   24  C   UNL     1      -3.609   3.460 -32.738  1.00  0.00     0.256 C 
BRANCH  22  25
HETATM   25  C   UNL     1      -1.663   6.084 -31.753  1.00  0.00     0.102 A 
HETATM   26  N   UNL     1      -0.637   5.219 -31.628  1.00  0.00    -0.352 N 
HETATM   27  H   UNL     1      -0.687   4.348 -32.151  1.00  0.00     0.166 HD
HETATM   28  C   UNL     1       0.401   5.395 -30.795  1.00  0.00     0.089 A 
HETATM   29  C   UNL     1       0.459   6.516 -29.986  1.00  0.00     0.017 A 
HETATM   30  C   UNL     1      -0.583   7.430 -30.043  1.00  0.00     0.005 A 
HETATM   31  C   UNL     1      -1.648   7.212 -30.917  1.00  0.00     0.048 A 
ENDBRANCH  22  25
ENDBRANCH   1  18
BRANCH   1  32
HETATM   32  C   UNL     1      -7.370   3.372 -31.486  1.00  0.00    -0.005 A 
HETATM   33  C   UNL     1      -8.168   2.707 -30.563  1.00  0.00     0.125 A 
HETATM   34  N   UNL     1      -9.427   3.067 -30.226  1.00  0.00    -0.273 NA
HETATM   35  C   UNL     1      -9.917   4.207 -30.746  1.00  0.00     0.116 A 
HETATM   36  C   UNL     1      -9.195   5.000 -31.610  1.00  0.00     0.020 A 
HETATM   37  C   UNL     1      -7.917   4.578 -31.976  1.00  0.00     0.012 A 
ENDBRANCH   1  32
TORSDOF 6
ENDMDL
MODEL 6
REMARK VINA RESULT:      -8.2      2.689      4.388
REMARK  6 active torsions:
REMARK  status: ('A' for Active; 'I' for Inactive)
REMARK    1  A    between atoms: C_3  and  C_4 
REMARK    2  A    between atoms: C_4  and  N_5 
REMARK    3  A    between atoms: C_4  and  C_19 
REMARK    4  A    between atoms: N_9  and  C_10 
REMARK    5  A    between atoms: C_25  and  N_26 
REMARK       I    between atoms: N_26  and  C_27 
REMARK    6  A    between atoms: C_27  and  C_28 
ROOT
HETATM    1  C   UNL     1      -8.676   4.146 -33.058  1.00  0.00     0.259 C 
ENDROOT
BRANCH   1   2
HETATM    2  C   UNL     1      -8.248   5.081 -31.927  1.00  0.00     0.018 A 
HETATM    3  C   UNL     1      -9.135   5.363 -30.784  1.00  0.00    -0.038 A 
HETATM    4  C   UNL     1     -10.448   4.682 -30.507  1.00  0.00     0.050 C 
HETATM    5  C   UNL     1      -8.631   6.364 -29.969  1.00  0.00    -0.013 A 
HETATM    6  S   UNL     1      -7.136   6.939 -30.518  1.00  0.00    -0.076 SA
HETATM    7  C   UNL     1      -9.231   6.962 -28.732  1.00  0.00     0.057 C 
HETATM    8  C   UNL     1      -7.079   5.834 -31.806  1.00  0.00     0.086 A 
BRANCH   8   9
HETATM    9  N   UNL     1      -5.880   5.750 -32.498  1.00  0.00    -0.315 N 
HETATM   10  C   UNL     1      -4.815   4.914 -32.175  1.00  0.00     0.280 C 
HETATM   11  O   UNL     1      -4.690   4.322 -31.111  1.00  0.00    -0.265 OA
HETATM   12  H   UNL     1      -5.709   6.333 -33.305  1.00  0.00     0.170 HD
BRANCH  10  13
HETATM   13  C   UNL     1      -3.761   4.973 -33.168  1.00  0.00     0.142 A 
HETATM   14  O   UNL     1      -3.993   5.656 -34.338  1.00  0.00    -0.317 OA
HETATM   15  C   UNL     1      -2.870   5.538 -35.094  1.00  0.00     0.143 A 
HETATM   16  C   UNL     1      -1.901   4.839 -34.413  1.00  0.00     0.027 A 
HETATM   17  C   UNL     1      -2.472   4.482 -33.168  1.00  0.00     0.045 A 
ENDBRANCH  10  13
ENDBRANCH   8   9
ENDBRANCH   1   2
BRANCH   1  18
HETATM   18  N   UNL     1      -8.704   2.621 -32.731  1.00  0.00    -0.056 N 
HETATM   19  H   UNL     1      -9.581   2.527 -32.200  1.00  0.00     0.281 HD
HETATM   20  C   UNL     1      -8.839   1.673 -33.904  1.00  0.00     0.256 C 
HETATM   21  C   UNL     1      -8.885   0.182 -33.476  1.00  0.00     0.152 C 
HETATM   22  N   UNL     1      -7.782  -0.174 -32.567  1.00  0.00    -0.364 N 
HETATM   23  C   UNL     1      -7.683   0.712 -31.387  1.00  0.00     0.152 C 
HETATM   24  C   UNL     1      -7.568   2.198 -31.796  1.00  0.00     0.256 C 
BRANCH  22  25
HETATM   25  C   UNL     1      -6.682  -0.842 -33.067  1.00  0.00     0.102 A 
HETATM   26  N   UNL     1      -6.848  -1.631 -34.148  1.00  0.00    -0.352 N 
HETATM   27  H   UNL     1      -7.792  -1.747 -34.507  1.00  0.00     0.166 HD
HETATM   28  C   UNL     1      -5.862  -2.337 -34.725  1.00  0.00     0.089 A 
HETATM   29  C   UNL     1      -4.581  -2.292 -34.204  1.00  0.00     0.017 A 
HETATM   30  C   UNL     1      -4.350  -1.524 -33.072  1.00  0.00     0.005 A 
HETATM   31  C   UNL     1      -5.400  -0.807 -32.497  1.00  0.00     0.048 A 
ENDBRANCH  22  25
ENDBRANCH   1  18
BRANCH   1  32
HETATM   32  C   UNL     1      -9.827   4.727 -33.860  1.00  0.00    -0.005 A 
HETATM   33  C   UNL     1     -11.113   4.207 -33.928  1.00  0.00     0.125 A 
HETATM   34  N   UNL     1     -12.097   4.678 -34.726  1.00  0.00    -0.273 NA
HETATM   35  C   UNL     1     -11.851   5.792 -35.440  1.00  0.00     0.116 A 
HETATM   36  C   UNL     1     -10.642   6.450 -35.397  1.00  0.00     0.020 A 
HETATM   37  C   UNL     1      -9.630   5.913 -34.600  1.00  0.00     0.012 A 
ENDBRANCH   1  32
TORSDOF 6
ENDMDL
MODEL 7
REMARK VINA RESULT:      -8.1      3.169      8.387
REMARK  6 active torsions:
REMARK  status: ('A' for Active; 'I' for Inactive)
REMARK    1  A    between atoms: C_3  and  C_4 
REMARK    2  A    between atoms: C_4  and  N_5 
REMARK    3  A    between atoms: C_4  and  C_19 
REMARK    4  A    between atoms: N_9  and  C_10 
REMARK    5  A    between atoms: C_25  and  N_26 
REMARK       I    between atoms: N_26  and  C_27 
REMARK    6  A    between atoms: C_27  and  C_28 
ROOT
HETATM    1  C   UNL     1      -4.491   3.929 -31.130  1.00  0.00     0.259 C 
ENDROOT
BRANCH   1   2
HETATM    2  C   UNL     1      -4.052   4.319 -32.541  1.00  0.00     0.018 A 
HETATM    3  C   UNL     1      -2.636   4.566 -32.866  1.00  0.00    -0.038 A 
HETATM    4  C   UNL     1      -1.472   4.325 -31.943  1.00  0.00     0.050 C 
HETATM    5  C   UNL     1      -2.476   5.076 -34.145  1.00  0.00    -0.013 A 
HETATM    6  S   UNL     1      -3.954   5.233 -34.956  1.00  0.00    -0.076 SA
HETATM    7  C   UNL     1      -1.215   5.484 -34.845  1.00  0.00     0.057 C 
HETATM    8  C   UNL     1      -4.838   4.566 -33.669  1.00  0.00     0.086 A 
BRANCH   8   9
HETATM    9  N   UNL     1      -6.169   4.270 -33.918  1.00  0.00    -0.315 N 
HETATM   10  C   UNL     1      -7.263   4.971 -33.419  1.00  0.00     0.280 C 
HETATM   11  O   UNL     1      -7.212   5.787 -32.507  1.00  0.00    -0.265 OA
HETATM   12  H   UNL     1      -6.423   3.480 -34.496  1.00  0.00     0.170 HD
BRANCH  10  13
HETATM   13  C   UNL     1      -8.513   4.486 -33.968  1.00  0.00     0.142 A 
HETATM   14  O   UNL     1      -8.841   3.163 -33.796  1.00  0.00    -0.317 OA
HETATM   15  C   UNL     1     -10.033   2.966 -34.418  1.00  0.00     0.143 A 
HETATM   16  C   UNL     1     -10.504   4.148 -34.942  1.00  0.00     0.027 A 
HETATM   17  C   UNL     1      -9.530   5.130 -34.644  1.00  0.00     0.045 A 
ENDBRANCH  10  13
ENDBRANCH   8   9
ENDBRANCH   1   2
BRANCH   1  18
HETATM   18  N   UNL     1      -5.092   5.064 -30.246  1.00  0.00    -0.056 N 
HETATM   19  H   UNL     1      -5.971   5.281 -30.736  1.00  0.00     0.281 HD
HETATM   20  C   UNL     1      -5.498   4.690 -28.836  1.00  0.00     0.256 C 
HETATM   21  C   UNL     1      -6.108   5.878 -28.046  1.00  0.00     0.152 C 
HETATM   22  N   UNL     1      -5.265   7.084 -28.106  1.00  0.00    -0.364 N 
HETATM   23  C   UNL     1      -4.917   7.490 -29.485  1.00  0.00     0.152 C 
HETATM   24  C   UNL     1      -4.244   6.339 -30.266  1.00  0.00     0.256 C 
BRANCH  22  25
HETATM   25  C   UNL     1      -4.458   7.400 -27.030  1.00  0.00     0.102 A 
HETATM   26  N   UNL     1      -3.367   6.643 -26.804  1.00  0.00    -0.352 N 
HETATM   27  H   UNL     1      -3.223   5.832 -27.399  1.00  0.00     0.166 HD
HETATM   28  C   UNL     1      -2.508   6.841 -25.790  1.00  0.00     0.089 A 
HETATM   29  C   UNL     1      -2.723   7.871 -24.891  1.00  0.00     0.017 A 
HETATM   30  C   UNL     1      -3.847   8.667 -25.050  1.00  0.00     0.005 A 
HETATM   31  C   UNL     1      -4.720   8.429 -26.112  1.00  0.00     0.048 A 
ENDBRANCH  22  25
ENDBRANCH   1  18
BRANCH   1  32
HETATM   32  C   UNL     1      -5.169   2.571 -31.110  1.00  0.00    -0.005 A 
HETATM   33  C   UNL     1      -6.538   2.349 -31.032  1.00  0.00     0.125 A 
HETATM   34  N   UNL     1      -7.120   1.134 -30.912  1.00  0.00    -0.273 NA
HETATM   35  C   UNL     1      -6.328   0.047 -30.970  1.00  0.00     0.116 A 
HETATM   36  C   UNL     1      -4.963   0.131 -31.128  1.00  0.00     0.020 A 
HETATM   37  C   UNL     1      -4.386   1.400 -31.201  1.00  0.00     0.012 A 
ENDBRANCH   1  32
TORSDOF 6
ENDMDL
MODEL 8
REMARK VINA RESULT:      -8.1      4.278      6.634
REMARK  6 active torsions:
REMARK  status: ('A' for Active; 'I' for Inactive)
REMARK    1  A    between atoms: C_3  and  C_4 
REMARK    2  A    between atoms: C_4  and  N_5 
REMARK    3  A    between atoms: C_4  and  C_19 
REMARK    4  A    between atoms: N_9  and  C_10 
REMARK    5  A    between atoms: C_25  and  N_26 
REMARK       I    between atoms: N_26  and  C_27 
REMARK    6  A    between atoms: C_27  and  C_28 
ROOT
HETATM    1  C   UNL     1     -10.835   3.111 -33.927  1.00  0.00     0.259 C 
ENDROOT
BRANCH   1   2
HETATM    2  C   UNL     1     -10.967   4.631 -34.022  1.00  0.00     0.018 A 
HETATM    3  C   UNL     1     -11.759   5.269 -35.088  1.00  0.00    -0.038 A 
HETATM    4  C   UNL     1     -12.631   4.549 -36.082  1.00  0.00     0.050 C 
HETATM    5  C   UNL     1     -11.604   6.646 -35.098  1.00  0.00    -0.013 A 
HETATM    6  S   UNL     1     -10.576   7.180 -33.864  1.00  0.00    -0.076 SA
HETATM    7  C   UNL     1     -12.208   7.655 -36.029  1.00  0.00     0.057 C 
HETATM    8  C   UNL     1     -10.362   5.616 -33.239  1.00  0.00     0.086 A 
BRANCH   8   9
HETATM    9  N   UNL     1      -9.716   5.519 -32.016  1.00  0.00    -0.315 N 
HETATM   10  C   UNL     1      -8.369   5.788 -31.788  1.00  0.00     0.280 C 
HETATM   11  O   UNL     1      -7.523   5.908 -32.665  1.00  0.00    -0.265 OA
HETATM   12  H   UNL     1     -10.216   5.222 -31.190  1.00  0.00     0.170 HD
BRANCH  10  13
HETATM   13  C   UNL     1      -8.034   5.717 -30.380  1.00  0.00     0.142 A 
HETATM   14  O   UNL     1      -8.729   6.505 -29.495  1.00  0.00    -0.317 OA
HETATM   15  C   UNL     1      -8.210   6.268 -28.262  1.00  0.00     0.143 A 
HETATM   16  C   UNL     1      -7.230   5.304 -28.328  1.00  0.00     0.027 A 
HETATM   17  C   UNL     1      -7.123   4.941 -29.692  1.00  0.00     0.045 A 
ENDBRANCH  10  13
ENDBRANCH   8   9
ENDBRANCH   1   2
BRANCH   1  18
HETATM   18  N   UNL     1      -9.602   2.564 -33.145  1.00  0.00    -0.056 N 
HETATM   19  H   UNL     1      -9.543   3.213 -32.347  1.00  0.00     0.281 HD
HETATM   20  C   UNL     1      -9.737   1.185 -32.533  1.00  0.00     0.256 C 
HETATM   21  C   UNL     1      -8.471   0.741 -31.754  1.00  0.00     0.152 C 
HETATM   22  N   UNL     1      -7.239   0.907 -32.545  1.00  0.00    -0.364 N 
HETATM   23  C   UNL     1      -7.071   2.270 -33.093  1.00  0.00     0.152 C 
HETATM   24  C   UNL     1      -8.296   2.704 -33.931  1.00  0.00     0.256 C 
BRANCH  22  25
HETATM   25  C   UNL     1      -6.672  -0.195 -33.154  1.00  0.00     0.102 A 
HETATM   26  N   UNL     1      -5.358  -0.427 -32.964  1.00  0.00    -0.352 N 
HETATM   27  H   UNL     1      -4.830   0.258 -32.432  1.00  0.00     0.166 HD
HETATM   28  C   UNL     1      -4.688  -1.458 -33.505  1.00  0.00     0.089 A 
HETATM   29  C   UNL     1      -5.346  -2.359 -34.324  1.00  0.00     0.017 A 
HETATM   30  C   UNL     1      -6.693  -2.158 -34.586  1.00  0.00     0.005 A 
HETATM   31  C   UNL     1      -7.355  -1.073 -34.010  1.00  0.00     0.048 A 
ENDBRANCH  22  25
ENDBRANCH   1  18
BRANCH   1  32
HETATM   32  C   UNL     1     -12.181   2.446 -33.699  1.00  0.00    -0.005 A 
HETATM   33  C   UNL     1     -13.134   2.839 -32.768  1.00  0.00     0.125 A 
HETATM   34  N   UNL     1     -14.282   2.175 -32.507  1.00  0.00    -0.273 NA
HETATM   35  C   UNL     1     -14.578   1.106 -33.269  1.00  0.00     0.116 A 
HETATM   36  C   UNL     1     -13.755   0.663 -34.280  1.00  0.00     0.020 A 
HETATM   37  C   UNL     1     -12.554   1.340 -34.493  1.00  0.00     0.012 A 
ENDBRANCH   1  32
TORSDOF 6
ENDMDL
MODEL 9
REMARK VINA RESULT:      -8.0      3.729      7.227
REMARK  6 active torsions:
REMARK  status: ('A' for Active; 'I' for Inactive)
REMARK    1  A    between atoms: C_3  and  C_4 
REMARK    2  A    between atoms: C_4  and  N_5 
REMARK    3  A    between atoms: C_4  and  C_19 
REMARK    4  A    between atoms: N_9  and  C_10 
REMARK    5  A    between atoms: C_25  and  N_26 
REMARK       I    between atoms: N_26  and  C_27 
REMARK    6  A    between atoms: C_27  and  C_28 
ROOT
HETATM    1  C   UNL     1      -7.078   2.072 -32.038  1.00  0.00     0.259 C 
ENDROOT
BRANCH   1   2
HETATM    2  C   UNL     1      -5.660   2.636 -31.964  1.00  0.00     0.018 A 
HETATM    3  C   UNL     1      -5.403   4.017 -31.519  1.00  0.00    -0.038 A 
HETATM    4  C   UNL     1      -6.431   4.960 -30.955  1.00  0.00     0.050 C 
HETATM    5  C   UNL     1      -4.077   4.382 -31.694  1.00  0.00    -0.013 A 
HETATM    6  S   UNL     1      -3.149   3.120 -32.337  1.00  0.00    -0.076 SA
HETATM    7  C   UNL     1      -3.415   5.694 -31.397  1.00  0.00     0.057 C 
HETATM    8  C   UNL     1      -4.456   2.036 -32.338  1.00  0.00     0.086 A 
BRANCH   8   9
HETATM    9  N   UNL     1      -4.159   0.708 -32.608  1.00  0.00    -0.315 N 
HETATM   10  C   UNL     1      -3.951  -0.285 -31.655  1.00  0.00     0.280 C 
HETATM   11  O   UNL     1      -3.761  -0.081 -30.463  1.00  0.00    -0.265 OA
HETATM   12  H   UNL     1      -4.063   0.384 -33.560  1.00  0.00     0.170 HD
BRANCH  10  13
HETATM   13  C   UNL     1      -3.787  -1.590 -32.262  1.00  0.00     0.142 A 
HETATM   14  O   UNL     1      -3.138  -2.572 -31.553  1.00  0.00    -0.317 OA
HETATM   15  C   UNL     1      -3.099  -3.674 -32.347  1.00  0.00     0.143 A 
HETATM   16  C   UNL     1      -3.756  -3.439 -33.532  1.00  0.00     0.027 A 
HETATM   17  C   UNL     1      -4.209  -2.098 -33.475  1.00  0.00     0.045 A 
ENDBRANCH  10  13
ENDBRANCH   8   9
ENDBRANCH   1   2
BRANCH   1  18
HETATM   18  N   UNL     1      -8.246   3.096 -31.896  1.00  0.00    -0.056 N 
HETATM   19  H   UNL     1      -7.754   3.949 -31.594  1.00  0.00     0.281 HD
HETATM   20  C   UNL     1      -8.977   3.480 -33.165  1.00  0.00     0.256 C 
HETATM   21  C   UNL     1     -10.101   4.522 -32.925  1.00  0.00     0.152 C 
HETATM   22  N   UNL     1     -11.006   4.130 -31.831  1.00  0.00    -0.364 N 
HETATM   23  C   UNL     1     -10.301   3.814 -30.570  1.00  0.00     0.152 C 
HETATM   24  C   UNL     1      -9.222   2.726 -30.776  1.00  0.00     0.256 C 
BRANCH  22  25
HETATM   25  C   UNL     1     -12.235   3.578 -32.134  1.00  0.00     0.102 A 
HETATM   26  N   UNL     1     -13.218   3.659 -31.215  1.00  0.00    -0.352 N 
HETATM   27  H   UNL     1     -12.989   4.068 -30.314  1.00  0.00     0.166 HD
HETATM   28  C   UNL     1     -14.452   3.157 -31.385  1.00  0.00     0.089 A 
HETATM   29  C   UNL     1     -14.777   2.497 -32.557  1.00  0.00     0.017 A 
HETATM   30  C   UNL     1     -13.800   2.351 -33.530  1.00  0.00     0.005 A 
HETATM   31  C   UNL     1     -12.527   2.882 -33.318  1.00  0.00     0.048 A 
ENDBRANCH  22  25
ENDBRANCH   1  18
BRANCH   1  32
HETATM   32  C   UNL     1      -7.198   0.993 -33.098  1.00  0.00    -0.005 A 
HETATM   33  C   UNL     1      -7.536  -0.335 -32.871  1.00  0.00     0.125 A 
HETATM   34  N   UNL     1      -7.539  -1.306 -33.812  1.00  0.00    -0.273 NA
HETATM   35  C   UNL     1      -7.290  -0.950 -35.086  1.00  0.00     0.116 A 
HETATM   36  C   UNL     1      -7.022   0.350 -35.454  1.00  0.00     0.020 A 
HETATM   37  C   UNL     1      -6.979   1.321 -34.454  1.00  0.00     0.012 A 
ENDBRANCH   1  32
TORSDOF 6
ENDMDL
MODEL 10
REMARK VINA RESULT:      -8.0     18.091     20.322
REMARK  6 active torsions:
REMARK  status: ('A' for Active; 'I' for Inactive)
REMARK    1  A    between atoms: C_3  and  C_4 
REMARK    2  A    between atoms: C_4  and  N_5 
REMARK    3  A    between atoms: C_4  and  C_19 
REMARK    4  A    between atoms: N_9  and  C_10 
REMARK    5  A    between atoms: C_25  and  N_26 
REMARK       I    between atoms: N_26  and  C_27 
REMARK    6  A    between atoms: C_27  and  C_28 
ROOT
HETATM    1  C   UNL     1      -5.743 -15.449 -36.823  1.00  0.00     0.259 C 
ENDROOT
BRANCH   1   2
HETATM    2  C   UNL     1      -4.997 -14.351 -37.580  1.00  0.00     0.018 A 
HETATM    3  C   UNL     1      -3.526 -14.266 -37.561  1.00  0.00    -0.038 A 
HETATM    4  C   UNL     1      -2.599 -15.287 -36.957  1.00  0.00     0.050 C 
HETATM    5  C   UNL     1      -3.063 -13.105 -38.159  1.00  0.00    -0.013 A 
HETATM    6  S   UNL     1      -4.327 -12.150 -38.757  1.00  0.00    -0.076 SA
HETATM    7  C   UNL     1      -1.651 -12.628 -38.321  1.00  0.00     0.057 C 
HETATM    8  C   UNL     1      -5.515 -13.277 -38.306  1.00  0.00     0.086 A 
BRANCH   8   9
HETATM    9  N   UNL     1      -6.798 -13.048 -38.780  1.00  0.00    -0.315 N 
HETATM   10  C   UNL     1      -7.307 -13.503 -39.993  1.00  0.00     0.280 C 
HETATM   11  O   UNL     1      -6.631 -13.955 -40.908  1.00  0.00    -0.265 OA
HETATM   12  H   UNL     1      -7.456 -12.499 -38.244  1.00  0.00     0.170 HD
BRANCH  10  13
HETATM   13  C   UNL     1      -8.717 -13.203 -40.134  1.00  0.00     0.142 A 
HETATM   14  O   UNL     1      -9.580 -14.221 -40.464  1.00  0.00    -0.317 OA
HETATM   15  C   UNL     1     -10.820 -13.674 -40.556  1.00  0.00     0.143 A 
HETATM   16  C   UNL     1     -10.783 -12.336 -40.241  1.00  0.00     0.027 A 
HETATM   17  C   UNL     1      -9.429 -12.033 -39.960  1.00  0.00     0.045 A 
ENDBRANCH  10  13
ENDBRANCH   8   9
ENDBRANCH   1   2
BRANCH   1  18
HETATM   18  N   UNL     1      -6.247 -15.092 -35.391  1.00  0.00    -0.056 N 
HETATM   19  H   UNL     1      -7.060 -14.493 -35.588  1.00  0.00     0.281 HD
HETATM   20  C   UNL     1      -6.780 -16.233 -34.549  1.00  0.00     0.256 C 
HETATM   21  C   UNL     1      -7.280 -15.774 -33.154  1.00  0.00     0.152 C 
HETATM   22  N   UNL     1      -6.288 -14.946 -32.447  1.00  0.00    -0.364 N 
HETATM   23  C   UNL     1      -5.810 -13.794 -33.242  1.00  0.00     0.152 C 
HETATM   24  C   UNL     1      -5.244 -14.240 -34.610  1.00  0.00     0.256 C 
BRANCH  22  25
HETATM   25  C   UNL     1      -5.513 -15.517 -31.457  1.00  0.00     0.102 A 
HETATM   26  N   UNL     1      -6.133 -16.031 -30.375  1.00  0.00    -0.352 N 
HETATM   27  H   UNL     1      -7.140 -15.916 -30.309  1.00  0.00     0.166 HD
HETATM   28  C   UNL     1      -5.494 -16.606 -29.343  1.00  0.00     0.089 A 
HETATM   29  C   UNL     1      -4.113 -16.689 -29.341  1.00  0.00     0.017 A 
HETATM   30  C   UNL     1      -3.414 -16.149 -30.410  1.00  0.00     0.005 A 
HETATM   31  C   UNL     1      -4.110 -15.555 -31.463  1.00  0.00     0.048 A 
ENDBRANCH  22  25
ENDBRANCH   1  18
BRANCH   1  32
HETATM   32  C   UNL     1      -6.675 -16.225 -37.737  1.00  0.00    -0.005 A 
HETATM   33  C   UNL     1      -6.284 -17.059 -38.777  1.00  0.00     0.125 A 
HETATM   34  N   UNL     1      -7.127 -17.662 -39.645  1.00  0.00    -0.273 NA
HETATM   35  C   UNL     1      -8.449 -17.528 -39.435  1.00  0.00     0.116 A 
HETATM   36  C   UNL     1      -8.965 -16.795 -38.390  1.00  0.00     0.020 A 
HETATM   37  C   UNL     1      -8.071 -16.145 -37.539  1.00  0.00     0.012 A 
ENDBRANCH   1  32
TORSDOF 6
ENDMDL
