MODEL 1
REMARK VINA RESULT:      -9.2      0.000      0.000
REMARK  5 active torsions:
REMARK  status: ('A' for Active; 'I' for Inactive)
REMARK    1  A    between atoms: C_2  and  C_3 
REMARK    2  A    between atoms: C_7  and  N_8 
REMARK    3  A    between atoms: C_13  and  N_14 
REMARK       I    between atoms: N_14  and  C_15 
REMARK    4  A    between atoms: C_15  and  C_16 
REMARK       I    between atoms: C_16  and  N_17 
REMARK    5  A    between atoms: N_17  and  C_18 
ROOT
HETATM    1  N   UNL     1      -7.545  -0.006 -33.032  1.00  0.00    -0.045 N 
HETATM    2  N   UNL     1      -8.804  -0.320 -33.446  1.00  0.00    -0.156 NA
HETATM    3  C   UNL     1      -9.540   0.740 -33.093  1.00  0.00     0.055 A 
HETATM    4  C   UNL     1     -10.998   0.778 -33.378  1.00  0.00     0.072 C 
HETATM    5  C   UNL     1      -8.762   1.737 -32.458  1.00  0.00     0.079 A 
HETATM    6  C   UNL     1      -7.481   1.239 -32.424  1.00  0.00     0.152 A 
ENDROOT
BRANCH   6   7
HETATM    7  N   UNL     1      -6.329   1.814 -31.898  1.00  0.00    -0.303 N 
HETATM    8  C   UNL     1      -5.484   2.731 -32.598  1.00  0.00     0.315 C 
HETATM    9  O   UNL     1      -5.679   3.081 -33.749  1.00  0.00    -0.262 OA
HETATM   10  H   UNL     1      -6.068   1.575 -30.934  1.00  0.00     0.171 HD
BRANCH   8  11
HETATM   11  C   UNL     1      -4.297   3.263 -31.776  1.00  0.00     0.310 C 
HETATM   12  N   UNL     1      -3.944   4.567 -32.058  1.00  0.00    -0.348 N 
HETATM   13  H   UNL     1      -4.418   5.022 -32.836  1.00  0.00     0.163 HD
HETATM   14  O   UNL     1      -3.771   2.522 -30.957  1.00  0.00    -0.262 OA
BRANCH  12  15
HETATM   15  C   UNL     1      -2.799   5.238 -31.453  1.00  0.00     0.085 C 
HETATM   16  C   UNL     1      -3.065   6.749 -31.405  1.00  0.00     0.034 C 
HETATM   17  C   UNL     1      -1.889   7.575 -30.847  1.00  0.00    -0.045 C 
HETATM   18  C   UNL     1      -1.783   7.405 -29.321  1.00  0.00     0.015 C 
HETATM   19  C   UNL     1      -2.167   9.071 -31.116  1.00  0.00     0.015 C 
HETATM   20  C   UNL     1      -0.572   7.189 -31.562  1.00  0.00     0.013 C 
HETATM   21  C   UNL     1      -0.292   5.687 -31.736  1.00  0.00    -0.016 C 
HETATM   22  C   UNL     1      -1.526   4.934 -32.251  1.00  0.00     0.029 C 
HETATM   23  C   UNL     1       0.302   5.028 -30.490  1.00  0.00     0.010 C 
ENDBRANCH  12  15
ENDBRANCH   8  11
ENDBRANCH   6   7
BRANCH   1  24
HETATM   24  C   UNL     1      -6.485  -0.899 -33.231  1.00  0.00     0.732 A 
HETATM   25  N   UNL     1      -6.750  -1.796 -34.220  1.00  0.00    -0.152 N 
HETATM   26  C   UNL     1      -5.852  -2.753 -34.565  1.00  0.00     0.268 A 
HETATM   27  H   UNL     1      -7.636  -1.762 -34.715  1.00  0.00     0.188 HD
HETATM   28  C   UNL     1      -4.575  -2.738 -33.794  1.00  0.00     0.035 A 
HETATM   29  O   UNL     1      -6.083  -3.567 -35.451  1.00  0.00    -0.267 OA
HETATM   30  C   UNL     1      -4.432  -1.794 -32.837  1.00  0.00     0.061 A 
HETATM   31  N   UNL     1      -5.395  -0.848 -32.534  1.00  0.00    -0.067 NA
HETATM   32  C   UNL     1      -3.181  -1.652 -32.005  1.00  0.00     0.072 C 
BRANCH  28  33
HETATM   33  C   UNL     1      -3.590  -3.823 -34.147  1.00  0.00     0.042 C 
HETATM   34  C   UNL     1      -3.847  -5.105 -33.368  1.00  0.00     0.010 C 
ENDBRANCH  28  33
ENDBRANCH   1  24
TORSDOF 5
ENDMDL
MODEL 2
REMARK VINA RESULT:      -9.0      2.543      7.724
REMARK  5 active torsions:
REMARK  status: ('A' for Active; 'I' for Inactive)
REMARK    1  A    between atoms: C_2  and  C_3 
REMARK    2  A    between atoms: C_7  and  N_8 
REMARK    3  A    between atoms: C_13  and  N_14 
REMARK       I    between atoms: N_14  and  C_15 
REMARK    4  A    between atoms: C_15  and  C_16 
REMARK       I    between atoms: C_16  and  N_17 
REMARK    5  A    between atoms: N_17  and  C_18 
ROOT
HETATM    1  N   UNL     1      -4.625   2.132 -32.500  1.00  0.00    -0.045 N 
HETATM    2  N   UNL     1      -3.304   2.381 -32.274  1.00  0.00    -0.156 NA
HETATM    3  C   UNL     1      -3.294   3.567 -31.657  1.00  0.00     0.055 A 
HETATM    4  C   UNL     1      -2.013   4.193 -31.239  1.00  0.00     0.072 C 
HETATM    5  C   UNL     1      -4.601   4.082 -31.479  1.00  0.00     0.079 A 
HETATM    6  C   UNL     1      -5.444   3.147 -32.031  1.00  0.00     0.152 A 
ENDROOT
BRANCH   6   7
HETATM    7  N   UNL     1      -6.831   3.168 -32.132  1.00  0.00    -0.303 N 
HETATM    8  C   UNL     1      -7.730   2.930 -31.045  1.00  0.00     0.315 C 
HETATM    9  O   UNL     1      -7.363   2.655 -29.916  1.00  0.00    -0.262 OA
HETATM   10  H   UNL     1      -7.245   3.378 -33.048  1.00  0.00     0.171 HD
BRANCH   8  11
HETATM   11  C   UNL     1      -9.220   3.058 -31.407  1.00  0.00     0.310 C 
HETATM   12  N   UNL     1      -9.516   2.770 -32.724  1.00  0.00    -0.348 N 
HETATM   13  H   UNL     1      -8.734   2.601 -33.353  1.00  0.00     0.163 HD
HETATM   14  O   UNL     1     -10.010   3.388 -30.534  1.00  0.00    -0.262 OA
BRANCH  12  15
HETATM   15  C   UNL     1     -10.851   2.905 -33.295  1.00  0.00     0.085 C 
HETATM   16  C   UNL     1     -11.577   1.556 -33.212  1.00  0.00     0.034 C 
HETATM   17  C   UNL     1     -12.980   1.559 -33.853  1.00  0.00    -0.045 C 
HETATM   18  C   UNL     1     -13.983   2.310 -32.959  1.00  0.00     0.015 C 
HETATM   19  C   UNL     1     -13.476   0.099 -33.958  1.00  0.00     0.015 C 
HETATM   20  C   UNL     1     -12.920   2.156 -35.280  1.00  0.00     0.013 C 
HETATM   21  C   UNL     1     -12.119   3.457 -35.453  1.00  0.00    -0.016 C 
HETATM   22  C   UNL     1     -10.758   3.386 -34.748  1.00  0.00     0.029 C 
HETATM   23  C   UNL     1     -12.900   4.712 -35.063  1.00  0.00     0.010 C 
ENDBRANCH  12  15
ENDBRANCH   8  11
ENDBRANCH   6   7
BRANCH   1  24
HETATM   24  C   UNL     1      -5.029   0.957 -33.147  1.00  0.00     0.732 A 
HETATM   25  N   UNL     1      -4.195  -0.085 -32.882  1.00  0.00    -0.152 N 
HETATM   26  C   UNL     1      -4.407  -1.314 -33.418  1.00  0.00     0.268 A 
HETATM   27  H   UNL     1      -3.390   0.046 -32.276  1.00  0.00     0.188 HD
HETATM   28  C   UNL     1      -5.608  -1.428 -34.297  1.00  0.00     0.035 A 
HETATM   29  O   UNL     1      -3.660  -2.257 -33.190  1.00  0.00    -0.267 OA
HETATM   30  C   UNL     1      -6.358  -0.318 -34.479  1.00  0.00     0.061 A 
HETATM   31  N   UNL     1      -6.078   0.908 -33.903  1.00  0.00    -0.067 NA
HETATM   32  C   UNL     1      -7.611  -0.305 -35.321  1.00  0.00     0.072 C 
BRANCH  28  33
HETATM   33  C   UNL     1      -5.827  -2.780 -34.926  1.00  0.00     0.042 C 
HETATM   34  C   UNL     1      -6.995  -3.522 -34.293  1.00  0.00     0.010 C 
ENDBRANCH  28  33
ENDBRANCH   1  24
TORSDOF 5
ENDMDL
MODEL 3
REMARK VINA RESULT:      -8.7      2.039      4.616
REMARK  5 active torsions:
REMARK  status: ('A' for Active; 'I' for Inactive)
REMARK    1  A    between atoms: C_2  and  C_3 
REMARK    2  A    between atoms: C_7  and  N_8 
REMARK    3  A    between atoms: C_13  and  N_14 
REMARK       I    between atoms: N_14  and  C_15 
REMARK    4  A    between atoms: C_15  and  C_16 
REMARK       I    between atoms: C_16  and  N_17 
REMARK    5  A    between atoms: N_17  and  C_18 
ROOT
HETATM    1  N   UNL     1      -6.763  -0.741 -34.109  1.00  0.00    -0.045 N 
HETATM    2  N   UNL     1      -7.293  -1.886 -34.624  1.00  0.00    -0.156 NA
HETATM    3  C   UNL     1      -6.290  -2.769 -34.563  1.00  0.00     0.055 A 
HETATM    4  C   UNL     1      -6.477  -4.163 -35.043  1.00  0.00     0.072 C 
HETATM    5  C   UNL     1      -5.118  -2.202 -34.008  1.00  0.00     0.079 A 
HETATM    6  C   UNL     1      -5.440  -0.895 -33.725  1.00  0.00     0.152 A 
ENDROOT
BRANCH   6   7
HETATM    7  N   UNL     1      -4.644   0.105 -33.176  1.00  0.00    -0.303 N 
HETATM    8  C   UNL     1      -4.595   0.436 -31.786  1.00  0.00     0.315 C 
HETATM    9  O   UNL     1      -5.276  -0.115 -30.939  1.00  0.00    -0.262 OA
HETATM   10  H   UNL     1      -4.039   0.641 -33.810  1.00  0.00     0.171 HD
BRANCH   8  11
HETATM   11  C   UNL     1      -3.597   1.551 -31.428  1.00  0.00     0.310 C 
HETATM   12  N   UNL     1      -4.015   2.823 -31.763  1.00  0.00    -0.348 N 
HETATM   13  H   UNL     1      -4.878   2.906 -32.296  1.00  0.00     0.163 HD
HETATM   14  O   UNL     1      -2.544   1.244 -30.886  1.00  0.00    -0.262 OA
BRANCH  12  15
HETATM   15  C   UNL     1      -3.190   4.012 -31.584  1.00  0.00     0.085 C 
HETATM   16  C   UNL     1      -4.098   5.234 -31.390  1.00  0.00     0.034 C 
HETATM   17  C   UNL     1      -3.335   6.568 -31.262  1.00  0.00    -0.045 C 
HETATM   18  C   UNL     1      -2.662   6.677 -29.881  1.00  0.00     0.015 C 
HETATM   19  C   UNL     1      -4.352   7.727 -31.359  1.00  0.00     0.015 C 
HETATM   20  C   UNL     1      -2.314   6.719 -32.415  1.00  0.00     0.013 C 
HETATM   21  C   UNL     1      -1.440   5.493 -32.730  1.00  0.00    -0.016 C 
HETATM   22  C   UNL     1      -2.270   4.204 -32.795  1.00  0.00     0.029 C 
HETATM   23  C   UNL     1      -0.231   5.349 -31.804  1.00  0.00     0.010 C 
ENDBRANCH  12  15
ENDBRANCH   8  11
ENDBRANCH   6   7
BRANCH   1  24
HETATM   24  C   UNL     1      -7.535   0.423 -34.017  1.00  0.00     0.732 A 
HETATM   25  N   UNL     1      -8.867   0.151 -33.962  1.00  0.00    -0.152 N 
HETATM   26  C   UNL     1      -9.788   1.144 -33.876  1.00  0.00     0.268 A 
HETATM   27  H   UNL     1      -9.193  -0.811 -33.989  1.00  0.00     0.188 HD
HETATM   28  C   UNL     1      -9.233   2.529 -33.841  1.00  0.00     0.035 A 
HETATM   29  O   UNL     1     -10.990   0.910 -33.830  1.00  0.00    -0.267 OA
HETATM   30  C   UNL     1      -7.889   2.666 -33.900  1.00  0.00     0.061 A 
HETATM   31  N   UNL     1      -7.007   1.605 -33.992  1.00  0.00    -0.067 NA
HETATM   32  C   UNL     1      -7.199   4.007 -33.846  1.00  0.00     0.072 C 
BRANCH  28  33
HETATM   33  C   UNL     1     -10.253   3.637 -33.784  1.00  0.00     0.042 C 
HETATM   34  C   UNL     1     -10.639   4.130 -35.172  1.00  0.00     0.010 C 
ENDBRANCH  28  33
ENDBRANCH   1  24
TORSDOF 5
ENDMDL
MODEL 4
REMARK VINA RESULT:      -8.6      1.799      2.344
REMARK  5 active torsions:
REMARK  status: ('A' for Active; 'I' for Inactive)
REMARK    1  A    between atoms: C_2  and  C_3 
REMARK    2  A    between atoms: C_7  and  N_8 
REMARK    3  A    between atoms: C_13  and  N_14 
REMARK       I    between atoms: N_14  and  C_15 
REMARK    4  A    between atoms: C_15  and  C_16 
REMARK       I    between atoms: C_16  and  N_17 
REMARK    5  A    between atoms: N_17  and  C_18 
ROOT
HETATM    1  N   UNL     1      -8.354   1.024 -33.300  1.00  0.00    -0.045 N 
HETATM    2  N   UNL     1      -9.525   0.388 -33.585  1.00  0.00    -0.156 NA
HETATM    3  C   UNL     1     -10.454   1.343 -33.468  1.00  0.00     0.055 A 
HETATM    4  C   UNL     1     -11.888   1.038 -33.705  1.00  0.00     0.072 C 
HETATM    5  C   UNL     1      -9.888   2.592 -33.115  1.00  0.00     0.079 A 
HETATM    6  C   UNL     1      -8.536   2.366 -33.007  1.00  0.00     0.152 A 
ENDROOT
BRANCH   6   7
HETATM    7  N   UNL     1      -7.522   3.257 -32.672  1.00  0.00    -0.303 N 
HETATM    8  C   UNL     1      -7.165   3.619 -31.335  1.00  0.00     0.315 C 
HETATM    9  O   UNL     1      -7.741   3.197 -30.347  1.00  0.00    -0.262 OA
HETATM   10  H   UNL     1      -6.981   3.682 -33.435  1.00  0.00     0.171 HD
BRANCH   8  11
HETATM   11  C   UNL     1      -5.975   4.589 -31.230  1.00  0.00     0.310 C 
HETATM   12  N   UNL     1      -4.955   4.342 -32.126  1.00  0.00    -0.348 N 
HETATM   13  H   UNL     1      -5.027   3.502 -32.696  1.00  0.00     0.163 HD
HETATM   14  O   UNL     1      -6.016   5.481 -30.394  1.00  0.00    -0.262 OA
BRANCH  12  15
HETATM   15  C   UNL     1      -3.703   5.090 -32.144  1.00  0.00     0.085 C 
HETATM   16  C   UNL     1      -3.110   5.052 -33.559  1.00  0.00     0.034 C 
HETATM   17  C   UNL     1      -1.743   5.753 -33.684  1.00  0.00    -0.045 C 
HETATM   18  C   UNL     1      -1.912   7.283 -33.648  1.00  0.00     0.015 C 
HETATM   19  C   UNL     1      -1.134   5.401 -35.060  1.00  0.00     0.015 C 
HETATM   20  C   UNL     1      -0.777   5.253 -32.583  1.00  0.00     0.013 C 
HETATM   21  C   UNL     1      -1.340   5.169 -31.154  1.00  0.00    -0.016 C 
HETATM   22  C   UNL     1      -2.721   4.500 -31.125  1.00  0.00     0.029 C 
HETATM   23  C   UNL     1      -1.339   6.509 -30.416  1.00  0.00     0.010 C 
ENDBRANCH  12  15
ENDBRANCH   8  11
ENDBRANCH   6   7
BRANCH   1  24
HETATM   24  C   UNL     1      -7.140   0.324 -33.318  1.00  0.00     0.732 A 
HETATM   25  N   UNL     1      -7.270  -0.912 -33.871  1.00  0.00    -0.152 N 
HETATM   26  C   UNL     1      -6.211  -1.753 -33.977  1.00  0.00     0.268 A 
HETATM   27  H   UNL     1      -8.174  -1.226 -34.212  1.00  0.00     0.188 HD
HETATM   28  C   UNL     1      -4.918  -1.221 -33.455  1.00  0.00     0.035 A 
HETATM   29  O   UNL     1      -6.317  -2.869 -34.470  1.00  0.00    -0.267 OA
HETATM   30  C   UNL     1      -4.919   0.025 -32.931  1.00  0.00     0.061 A 
HETATM   31  N   UNL     1      -6.043   0.828 -32.850  1.00  0.00    -0.067 NA
HETATM   32  C   UNL     1      -3.676   0.692 -32.394  1.00  0.00     0.072 C 
BRANCH  28  33
HETATM   33  C   UNL     1      -3.746  -2.165 -33.536  1.00  0.00     0.042 C 
HETATM   34  C   UNL     1      -3.425  -2.795 -32.187  1.00  0.00     0.010 C 
ENDBRANCH  28  33
ENDBRANCH   1  24
TORSDOF 5
ENDMDL
MODEL 5
REMARK VINA RESULT:      -8.6      2.693      8.519
REMARK  5 active torsions:
REMARK  status: ('A' for Active; 'I' for Inactive)
REMARK    1  A    between atoms: C_2  and  C_3 
REMARK    2  A    between atoms: C_7  and  N_8 
REMARK    3  A    between atoms: C_13  and  N_14 
REMARK       I    between atoms: N_14  and  C_15 
REMARK    4  A    between atoms: C_15  and  C_16 
REMARK       I    between atoms: C_16  and  N_17 
REMARK    5  A    between atoms: N_17  and  C_18 
ROOT
HETATM    1  N   UNL     1      -4.396   0.915 -32.284  1.00  0.00    -0.045 N 
HETATM    2  N   UNL     1      -3.340   0.058 -32.197  1.00  0.00    -0.156 NA
HETATM    3  C   UNL     1      -3.906  -1.146 -32.050  1.00  0.00     0.055 A 
HETATM    4  C   UNL     1      -3.067  -2.365 -31.918  1.00  0.00     0.072 C 
HETATM    5  C   UNL     1      -5.319  -1.070 -32.047  1.00  0.00     0.079 A 
HETATM    6  C   UNL     1      -5.617   0.264 -32.195  1.00  0.00     0.152 A 
ENDROOT
BRANCH   6   7
HETATM    7  N   UNL     1      -6.861   0.885 -32.244  1.00  0.00    -0.303 N 
HETATM    8  C   UNL     1      -7.445   1.623 -31.168  1.00  0.00     0.315 C 
HETATM    9  O   UNL     1      -6.915   1.759 -30.079  1.00  0.00    -0.262 OA
HETATM   10  H   UNL     1      -7.398   0.821 -33.117  1.00  0.00     0.171 HD
BRANCH   8  11
HETATM   11  C   UNL     1      -8.811   2.255 -31.491  1.00  0.00     0.310 C 
HETATM   12  N   UNL     1      -9.307   1.937 -32.738  1.00  0.00    -0.348 N 
HETATM   13  H   UNL     1      -8.700   1.410 -33.363  1.00  0.00     0.163 HD
HETATM   14  O   UNL     1      -9.344   2.964 -30.649  1.00  0.00    -0.262 OA
BRANCH  12  15
HETATM   15  C   UNL     1     -10.545   2.491 -33.275  1.00  0.00     0.085 C 
HETATM   16  C   UNL     1     -11.574   1.365 -33.441  1.00  0.00     0.034 C 
HETATM   17  C   UNL     1     -12.906   1.821 -34.071  1.00  0.00    -0.045 C 
HETATM   18  C   UNL     1     -13.741   2.621 -33.055  1.00  0.00     0.015 C 
HETATM   19  C   UNL     1     -13.730   0.567 -34.441  1.00  0.00     0.015 C 
HETATM   20  C   UNL     1     -12.642   2.629 -35.364  1.00  0.00     0.013 C 
HETATM   21  C   UNL     1     -11.548   3.707 -35.296  1.00  0.00    -0.016 C 
HETATM   22  C   UNL     1     -10.276   3.185 -34.615  1.00  0.00     0.029 C 
HETATM   23  C   UNL     1     -12.025   5.024 -34.682  1.00  0.00     0.010 C 
ENDBRANCH  12  15
ENDBRANCH   8  11
ENDBRANCH   6   7
BRANCH   1  24
HETATM   24  C   UNL     1      -4.187   2.291 -32.442  1.00  0.00     0.732 A 
HETATM   25  N   UNL     1      -3.024   2.701 -31.866  1.00  0.00    -0.152 N 
HETATM   26  C   UNL     1      -2.637   4.001 -31.901  1.00  0.00     0.268 A 
HETATM   27  H   UNL     1      -2.424   2.030 -31.394  1.00  0.00     0.188 HD
HETATM   28  C   UNL     1      -3.569   4.925 -32.612  1.00  0.00     0.035 A 
HETATM   29  O   UNL     1      -1.595   4.381 -31.383  1.00  0.00    -0.267 OA
HETATM   30  C   UNL     1      -4.693   4.393 -33.144  1.00  0.00     0.061 A 
HETATM   31  N   UNL     1      -5.027   3.053 -33.066  1.00  0.00    -0.067 NA
HETATM   32  C   UNL     1      -5.704   5.211 -33.911  1.00  0.00     0.072 C 
BRANCH  28  33
HETATM   33  C   UNL     1      -3.165   6.376 -32.621  1.00  0.00     0.042 C 
HETATM   34  C   UNL     1      -2.283   6.717 -33.814  1.00  0.00     0.010 C 
ENDBRANCH  28  33
ENDBRANCH   1  24
TORSDOF 5
ENDMDL
MODEL 6
REMARK VINA RESULT:      -8.3      3.454      9.461
REMARK  5 active torsions:
REMARK  status: ('A' for Active; 'I' for Inactive)
REMARK    1  A    between atoms: C_2  and  C_3 
REMARK    2  A    between atoms: C_7  and  N_8 
REMARK    3  A    between atoms: C_13  and  N_14 
REMARK       I    between atoms: N_14  and  C_15 
REMARK    4  A    between atoms: C_15  and  C_16 
REMARK       I    between atoms: C_16  and  N_17 
REMARK    5  A    between atoms: N_17  and  C_18 
ROOT
HETATM    1  N   UNL     1      -1.728   7.292 -28.895  1.00  0.00    -0.045 N 
HETATM    2  N   UNL     1      -0.929   8.166 -28.220  1.00  0.00    -0.156 NA
HETATM    3  C   UNL     1       0.314   7.790 -28.543  1.00  0.00     0.055 A 
HETATM    4  C   UNL     1       1.490   8.513 -27.994  1.00  0.00     0.072 C 
HETATM    5  C   UNL     1       0.320   6.684 -29.426  1.00  0.00     0.079 A 
HETATM    6  C   UNL     1      -1.002   6.375 -29.639  1.00  0.00     0.152 A 
ENDROOT
BRANCH   6   7
HETATM    7  N   UNL     1      -1.552   5.362 -30.418  1.00  0.00    -0.303 N 
HETATM    8  C   UNL     1      -2.047   5.536 -31.748  1.00  0.00     0.315 C 
HETATM    9  O   UNL     1      -2.061   6.610 -32.326  1.00  0.00    -0.262 OA
HETATM   10  H   UNL     1      -1.599   4.417 -30.018  1.00  0.00     0.171 HD
BRANCH   8  11
HETATM   11  C   UNL     1      -2.561   4.248 -32.415  1.00  0.00     0.310 C 
HETATM   12  N   UNL     1      -3.368   3.471 -31.610  1.00  0.00    -0.348 N 
HETATM   13  H   UNL     1      -3.471   3.754 -30.637  1.00  0.00     0.163 HD
HETATM   14  O   UNL     1      -2.235   4.014 -33.570  1.00  0.00    -0.262 OA
BRANCH  12  15
HETATM   15  C   UNL     1      -3.896   2.173 -32.015  1.00  0.00     0.085 C 
HETATM   16  C   UNL     1      -5.425   2.183 -31.882  1.00  0.00     0.034 C 
HETATM   17  C   UNL     1      -6.092   0.834 -32.218  1.00  0.00    -0.045 C 
HETATM   18  C   UNL     1      -6.089   0.591 -33.738  1.00  0.00     0.015 C 
HETATM   19  C   UNL     1      -7.571   0.893 -31.775  1.00  0.00     0.015 C 
HETATM   20  C   UNL     1      -5.400  -0.317 -31.448  1.00  0.00     0.013 C 
HETATM   21  C   UNL     1      -3.862  -0.328 -31.456  1.00  0.00    -0.016 C 
HETATM   22  C   UNL     1      -3.281   1.061 -31.158  1.00  0.00     0.029 C 
HETATM   23  C   UNL     1      -3.261  -0.940 -32.722  1.00  0.00     0.010 C 
ENDBRANCH  12  15
ENDBRANCH   8  11
ENDBRANCH   6   7
BRANCH   1  24
HETATM   24  C   UNL     1      -3.122   7.377 -28.792  1.00  0.00     0.732 A 
HETATM   25  N   UNL     1      -3.614   6.561 -27.821  1.00  0.00    -0.152 N 
HETATM   26  C   UNL     1      -4.945   6.489 -27.565  1.00  0.00     0.268 A 
HETATM   27  H   UNL     1      -2.984   5.984 -27.271  1.00  0.00     0.188 HD
HETATM   28  C   UNL     1      -5.806   7.365 -28.413  1.00  0.00     0.035 A 
HETATM   29  O   UNL     1      -5.399   5.756 -26.696  1.00  0.00    -0.267 OA
HETATM   30  C   UNL     1      -5.195   8.132 -29.344  1.00  0.00     0.061 A 
HETATM   31  N   UNL     1      -3.828   8.150 -29.554  1.00  0.00    -0.067 NA
HETATM   32  C   UNL     1      -5.945   9.080 -30.247  1.00  0.00     0.072 C 
BRANCH  28  33
HETATM   33  C   UNL     1      -7.288   7.261 -28.160  1.00  0.00     0.042 C 
HETATM   34  C   UNL     1      -7.938   6.175 -29.005  1.00  0.00     0.010 C 
ENDBRANCH  28  33
ENDBRANCH   1  24
TORSDOF 5
ENDMDL
MODEL 7
REMARK VINA RESULT:      -8.2      1.824      2.862
REMARK  5 active torsions:
REMARK  status: ('A' for Active; 'I' for Inactive)
REMARK    1  A    between atoms: C_2  and  C_3 
REMARK    2  A    between atoms: C_7  and  N_8 
REMARK    3  A    between atoms: C_13  and  N_14 
REMARK       I    between atoms: N_14  and  C_15 
REMARK    4  A    between atoms: C_15  and  C_16 
REMARK       I    between atoms: C_16  and  N_17 
REMARK    5  A    between atoms: N_17  and  C_18 
ROOT
HETATM    1  N   UNL     1      -7.608   0.703 -33.245  1.00  0.00    -0.045 N 
HETATM    2  N   UNL     1      -8.825   0.090 -33.242  1.00  0.00    -0.156 NA
HETATM    3  C   UNL     1      -9.695   1.085 -33.447  1.00  0.00     0.055 A 
HETATM    4  C   UNL     1     -11.154   0.814 -33.510  1.00  0.00     0.072 C 
HETATM    5  C   UNL     1      -9.046   2.335 -33.588  1.00  0.00     0.079 A 
HETATM    6  C   UNL     1      -7.703   2.071 -33.451  1.00  0.00     0.152 A 
ENDROOT
BRANCH   6   7
HETATM    7  N   UNL     1      -6.627   2.951 -33.494  1.00  0.00    -0.303 N 
HETATM    8  C   UNL     1      -6.712   4.322 -33.892  1.00  0.00     0.315 C 
HETATM    9  O   UNL     1      -7.745   4.852 -34.264  1.00  0.00    -0.262 OA
HETATM   10  H   UNL     1      -5.705   2.599 -33.212  1.00  0.00     0.171 HD
BRANCH   8  11
HETATM   11  C   UNL     1      -5.386   5.097 -33.807  1.00  0.00     0.310 C 
HETATM   12  N   UNL     1      -5.019   5.464 -32.529  1.00  0.00    -0.348 N 
HETATM   13  H   UNL     1      -5.687   5.287 -31.781  1.00  0.00     0.163 HD
HETATM   14  O   UNL     1      -4.769   5.321 -34.840  1.00  0.00    -0.262 OA
BRANCH  12  15
HETATM   15  C   UNL     1      -3.841   6.272 -32.232  1.00  0.00     0.085 C 
HETATM   16  C   UNL     1      -2.605   5.364 -32.175  1.00  0.00     0.034 C 
HETATM   17  C   UNL     1      -1.304   6.101 -31.796  1.00  0.00    -0.045 C 
HETATM   18  C   UNL     1      -0.798   6.948 -32.977  1.00  0.00     0.015 C 
HETATM   19  C   UNL     1      -0.213   5.049 -31.497  1.00  0.00     0.015 C 
HETATM   20  C   UNL     1      -1.518   6.954 -30.523  1.00  0.00     0.013 C 
HETATM   21  C   UNL     1      -2.794   7.812 -30.471  1.00  0.00    -0.016 C 
HETATM   22  C   UNL     1      -4.032   7.017 -30.906  1.00  0.00     0.029 C 
HETATM   23  C   UNL     1      -2.671   9.137 -31.225  1.00  0.00     0.010 C 
ENDBRANCH  12  15
ENDBRANCH   8  11
ENDBRANCH   6   7
BRANCH   1  24
HETATM   24  C   UNL     1      -6.435  -0.038 -33.050  1.00  0.00     0.732 A 
HETATM   25  N   UNL     1      -5.805   0.298 -31.891  1.00  0.00    -0.152 N 
HETATM   26  C   UNL     1      -4.646  -0.301 -31.519  1.00  0.00     0.268 A 
HETATM   27  H   UNL     1      -6.198   1.012 -31.285  1.00  0.00     0.188 HD
HETATM   28  C   UNL     1      -4.132  -1.339 -32.460  1.00  0.00     0.035 A 
HETATM   29  O   UNL     1      -4.068  -0.004 -30.480  1.00  0.00    -0.267 OA
HETATM   30  C   UNL     1      -4.852  -1.582 -33.578  1.00  0.00     0.061 A 
HETATM   31  N   UNL     1      -6.029  -0.927 -33.898  1.00  0.00    -0.067 NA
HETATM   32  C   UNL     1      -4.459  -2.624 -34.597  1.00  0.00     0.072 C 
BRANCH  28  33
HETATM   33  C   UNL     1      -2.825  -1.980 -32.071  1.00  0.00     0.042 C 
HETATM   34  C   UNL     1      -3.001  -3.435 -31.662  1.00  0.00     0.010 C 
ENDBRANCH  28  33
ENDBRANCH   1  24
TORSDOF 5
ENDMDL
MODEL 8
REMARK VINA RESULT:      -8.1      3.125      9.328
REMARK  5 active torsions:
REMARK  status: ('A' for Active; 'I' for Inactive)
REMARK    1  A    between atoms: C_2  and  C_3 
REMARK    2  A    between atoms: C_7  and  N_8 
REMARK    3  A    between atoms: C_13  and  N_14 
REMARK       I    between atoms: N_14  and  C_15 
REMARK    4  A    between atoms: C_15  and  C_16 
REMARK       I    between atoms: C_16  and  N_17 
REMARK    5  A    between atoms: N_17  and  C_18 
ROOT
HETATM    1  N   UNL     1      -4.051   8.364 -30.581  1.00  0.00    -0.045 N 
HETATM    2  N   UNL     1      -4.578   9.614 -30.454  1.00  0.00    -0.156 NA
HETATM    3  C   UNL     1      -5.758   9.539 -31.079  1.00  0.00     0.055 A 
HETATM    4  C   UNL     1      -6.650  10.724 -31.159  1.00  0.00     0.072 C 
HETATM    5  C   UNL     1      -5.998   8.246 -31.604  1.00  0.00     0.079 A 
HETATM    6  C   UNL     1      -4.887   7.504 -31.277  1.00  0.00     0.152 A 
ENDROOT
BRANCH   6   7
HETATM    7  N   UNL     1      -4.606   6.173 -31.565  1.00  0.00    -0.303 N 
HETATM    8  C   UNL     1      -4.000   5.712 -32.775  1.00  0.00     0.315 C 
HETATM    9  O   UNL     1      -3.691   6.448 -33.696  1.00  0.00    -0.262 OA
HETATM   10  H   UNL     1      -4.840   5.466 -30.857  1.00  0.00     0.171 HD
BRANCH   8  11
HETATM   11  C   UNL     1      -3.751   4.194 -32.830  1.00  0.00     0.310 C 
HETATM   12  N   UNL     1      -4.879   3.422 -32.646  1.00  0.00    -0.348 N 
HETATM   13  H   UNL     1      -5.740   3.904 -32.395  1.00  0.00     0.163 HD
HETATM   14  O   UNL     1      -2.612   3.792 -33.030  1.00  0.00    -0.262 OA
BRANCH  12  15
HETATM   15  C   UNL     1      -4.854   1.965 -32.580  1.00  0.00     0.085 C 
HETATM   16  C   UNL     1      -6.193   1.412 -33.087  1.00  0.00     0.034 C 
HETATM   17  C   UNL     1      -6.311  -0.123 -32.998  1.00  0.00    -0.045 C 
HETATM   18  C   UNL     1      -5.462  -0.796 -34.092  1.00  0.00     0.015 C 
HETATM   19  C   UNL     1      -7.781  -0.520 -33.261  1.00  0.00     0.015 C 
HETATM   20  C   UNL     1      -5.921  -0.613 -31.582  1.00  0.00     0.013 C 
HETATM   21  C   UNL     1      -4.640  -0.019 -30.972  1.00  0.00    -0.016 C 
HETATM   22  C   UNL     1      -4.582   1.505 -31.144  1.00  0.00     0.029 C 
HETATM   23  C   UNL     1      -3.360  -0.698 -31.457  1.00  0.00     0.010 C 
ENDBRANCH  12  15
ENDBRANCH   8  11
ENDBRANCH   6   7
BRANCH   1  24
HETATM   24  C   UNL     1      -2.794   8.061 -30.043  1.00  0.00     0.732 A 
HETATM   25  N   UNL     1      -2.751   8.266 -28.699  1.00  0.00    -0.152 N 
HETATM   26  C   UNL     1      -1.619   8.037 -27.985  1.00  0.00     0.268 A 
HETATM   27  H   UNL     1      -3.574   8.601 -28.206  1.00  0.00     0.188 HD
HETATM   28  C   UNL     1      -0.453   7.547 -28.778  1.00  0.00     0.035 A 
HETATM   29  O   UNL     1      -1.568   8.222 -26.776  1.00  0.00    -0.267 OA
HETATM   30  C   UNL     1      -0.625   7.381 -30.108  1.00  0.00     0.061 A 
HETATM   31  N   UNL     1      -1.811   7.640 -30.772  1.00  0.00    -0.067 NA
HETATM   32  C   UNL     1       0.463   6.866 -31.018  1.00  0.00     0.072 C 
BRANCH  28  33
HETATM   33  C   UNL     1       0.817   7.328 -27.997  1.00  0.00     0.042 C 
HETATM   34  C   UNL     1       1.617   8.612 -27.835  1.00  0.00     0.010 C 
ENDBRANCH  28  33
ENDBRANCH   1  24
TORSDOF 5
ENDMDL
MODEL 9
REMARK VINA RESULT:      -8.1      2.089      3.024
REMARK  5 active torsions:
REMARK  status: ('A' for Active; 'I' for Inactive)
REMARK    1  A    between atoms: C_2  and  C_3 
REMARK    2  A    between atoms: C_7  and  N_8 
REMARK    3  A    between atoms: C_13  and  N_14 
REMARK       I    between atoms: N_14  and  C_15 
REMARK    4  A    between atoms: C_15  and  C_16 
REMARK       I    between atoms: C_16  and  N_17 
REMARK    5  A    between atoms: N_17  and  C_18 
ROOT
HETATM    1  N   UNL     1      -9.184   1.188 -33.418  1.00  0.00    -0.045 N 
HETATM    2  N   UNL     1     -10.418   0.611 -33.407  1.00  0.00    -0.156 NA
HETATM    3  C   UNL     1     -11.259   1.630 -33.617  1.00  0.00     0.055 A 
HETATM    4  C   UNL     1     -12.726   1.402 -33.674  1.00  0.00     0.072 C 
HETATM    5  C   UNL     1     -10.574   2.859 -33.769  1.00  0.00     0.079 A 
HETATM    6  C   UNL     1      -9.240   2.556 -33.634  1.00  0.00     0.152 A 
ENDROOT
BRANCH   6   7
HETATM    7  N   UNL     1      -8.138   3.404 -33.687  1.00  0.00    -0.303 N 
HETATM    8  C   UNL     1      -7.453   3.921 -32.543  1.00  0.00     0.315 C 
HETATM    9  O   UNL     1      -7.790   3.688 -31.395  1.00  0.00    -0.262 OA
HETATM   10  H   UNL     1      -7.781   3.674 -34.612  1.00  0.00     0.171 HD
BRANCH   8  11
HETATM   11  C   UNL     1      -6.233   4.801 -32.870  1.00  0.00     0.310 C 
HETATM   12  N   UNL     1      -5.017   4.164 -32.736  1.00  0.00    -0.348 N 
HETATM   13  H   UNL     1      -5.022   3.224 -32.344  1.00  0.00     0.163 HD
HETATM   14  O   UNL     1      -6.420   5.958 -33.219  1.00  0.00    -0.262 OA
BRANCH  12  15
HETATM   15  C   UNL     1      -3.735   4.834 -32.918  1.00  0.00     0.085 C 
HETATM   16  C   UNL     1      -3.579   5.929 -31.854  1.00  0.00     0.034 C 
HETATM   17  C   UNL     1      -2.285   6.757 -31.991  1.00  0.00    -0.045 C 
HETATM   18  C   UNL     1      -1.066   5.940 -31.527  1.00  0.00     0.015 C 
HETATM   19  C   UNL     1      -2.386   7.984 -31.058  1.00  0.00     0.015 C 
HETATM   20  C   UNL     1      -2.121   7.263 -33.444  1.00  0.00     0.013 C 
HETATM   21  C   UNL     1      -2.364   6.239 -34.566  1.00  0.00    -0.016 C 
HETATM   22  C   UNL     1      -3.645   5.429 -34.328  1.00  0.00     0.029 C 
HETATM   23  C   UNL     1      -1.160   5.339 -34.843  1.00  0.00     0.010 C 
ENDBRANCH  12  15
ENDBRANCH   8  11
ENDBRANCH   6   7
BRANCH   1  24
HETATM   24  C   UNL     1      -8.033   0.415 -33.220  1.00  0.00     0.732 A 
HETATM   25  N   UNL     1      -7.469   0.639 -32.003  1.00  0.00    -0.152 N 
HETATM   26  C   UNL     1      -6.340  -0.008 -31.617  1.00  0.00     0.268 A 
HETATM   27  H   UNL     1      -7.889   1.304 -31.360  1.00  0.00     0.188 HD
HETATM   28  C   UNL     1      -5.783  -0.969 -32.614  1.00  0.00     0.035 A 
HETATM   29  O   UNL     1      -5.822   0.188 -30.525  1.00  0.00    -0.267 OA
HETATM   30  C   UNL     1      -6.439  -1.103 -33.789  1.00  0.00     0.061 A 
HETATM   31  N   UNL     1      -7.587  -0.405 -34.118  1.00  0.00    -0.067 NA
HETATM   32  C   UNL     1      -5.997  -2.059 -34.870  1.00  0.00     0.072 C 
BRANCH  28  33
HETATM   33  C   UNL     1      -4.508  -1.662 -32.207  1.00  0.00     0.042 C 
HETATM   34  C   UNL     1      -3.274  -0.843 -32.560  1.00  0.00     0.010 C 
ENDBRANCH  28  33
ENDBRANCH   1  24
TORSDOF 5
ENDMDL
MODEL 10
REMARK VINA RESULT:      -8.0     16.321     18.002
REMARK  5 active torsions:
REMARK  status: ('A' for Active; 'I' for Inactive)
REMARK    1  A    between atoms: C_2  and  C_3 
REMARK    2  A    between atoms: C_7  and  N_8 
REMARK    3  A    between atoms: C_13  and  N_14 
REMARK       I    between atoms: N_14  and  C_15 
REMARK    4  A    between atoms: C_15  and  C_16 
REMARK       I    between atoms: C_16  and  N_17 
REMARK    5  A    between atoms: N_17  and  C_18 
ROOT
HETATM    1  N   UNL     1      -7.563 -13.431 -38.472  1.00  0.00    -0.045 N 
HETATM    2  N   UNL     1      -8.794 -12.862 -38.603  1.00  0.00    -0.156 NA
HETATM    3  C   UNL     1      -8.834 -12.453 -39.876  1.00  0.00     0.055 A 
HETATM    4  C   UNL     1     -10.038 -11.769 -40.415  1.00  0.00     0.072 C 
HETATM    5  C   UNL     1      -7.637 -12.759 -40.568  1.00  0.00     0.079 A 
HETATM    6  C   UNL     1      -6.830 -13.385 -39.648  1.00  0.00     0.152 A 
ENDROOT
BRANCH   6   7
HETATM    7  N   UNL     1      -5.540 -13.880 -39.806  1.00  0.00    -0.303 N 
HETATM    8  C   UNL     1      -4.347 -13.176 -39.450  1.00  0.00     0.315 C 
HETATM    9  O   UNL     1      -4.345 -12.047 -38.992  1.00  0.00    -0.262 OA
HETATM   10  H   UNL     1      -5.430 -14.824 -40.198  1.00  0.00     0.171 HD
BRANCH   8  11
HETATM   11  C   UNL     1      -3.045 -13.963 -39.681  1.00  0.00     0.310 C 
HETATM   12  N   UNL     1      -2.439 -14.416 -38.527  1.00  0.00    -0.348 N 
HETATM   13  H   UNL     1      -2.837 -14.114 -37.640  1.00  0.00     0.163 HD
HETATM   14  O   UNL     1      -2.655 -14.130 -40.828  1.00  0.00    -0.262 OA
BRANCH  12  15
HETATM   15  C   UNL     1      -1.158 -15.113 -38.513  1.00  0.00     0.085 C 
HETATM   16  C   UNL     1      -1.091 -16.026 -37.281  1.00  0.00     0.034 C 
HETATM   17  C   UNL     1       0.254 -16.764 -37.122  1.00  0.00    -0.045 C 
HETATM   18  C   UNL     1       0.369 -17.908 -38.146  1.00  0.00     0.015 C 
HETATM   19  C   UNL     1       0.296 -17.411 -35.719  1.00  0.00     0.015 C 
HETATM   20  C   UNL     1       1.433 -15.768 -37.233  1.00  0.00     0.013 C 
HETATM   21  C   UNL     1       1.377 -14.755 -38.389  1.00  0.00    -0.016 C 
HETATM   22  C   UNL     1      -0.006 -14.101 -38.506  1.00  0.00     0.029 C 
HETATM   23  C   UNL     1       1.855 -15.326 -39.725  1.00  0.00     0.010 C 
ENDBRANCH  12  15
ENDBRANCH   8  11
ENDBRANCH   6   7
BRANCH   1  24
HETATM   24  C   UNL     1      -7.156 -13.977 -37.248  1.00  0.00     0.732 A 
HETATM   25  N   UNL     1      -7.438 -13.154 -36.202  1.00  0.00    -0.152 N 
HETATM   26  C   UNL     1      -7.118 -13.495 -34.928  1.00  0.00     0.268 A 
HETATM   27  H   UNL     1      -7.894 -12.261 -36.363  1.00  0.00     0.188 HD
HETATM   28  C   UNL     1      -6.451 -14.822 -34.771  1.00  0.00     0.035 A 
HETATM   29  O   UNL     1      -7.364 -12.761 -33.980  1.00  0.00    -0.267 OA
HETATM   30  C   UNL     1      -6.228 -15.547 -35.890  1.00  0.00     0.061 A 
HETATM   31  N   UNL     1      -6.578 -15.132 -37.163  1.00  0.00    -0.067 NA
HETATM   32  C   UNL     1      -5.588 -16.913 -35.868  1.00  0.00     0.072 C 
BRANCH  28  33
HETATM   33  C   UNL     1      -6.059 -15.189 -33.363  1.00  0.00     0.042 C 
HETATM   34  C   UNL     1      -7.150 -15.978 -32.653  1.00  0.00     0.010 C 
ENDBRANCH  28  33
ENDBRANCH   1  24
TORSDOF 5
ENDMDL
