MODEL 1
REMARK VINA RESULT:      -8.7      0.000      0.000
REMARK  8 active torsions:
REMARK  status: ('A' for Active; 'I' for Inactive)
REMARK    1  A    between atoms: C_4  and  C_5 
REMARK    2  A    between atoms: C_5  and  N_6 
REMARK    3  A    between atoms: C_8  and  N_9 
REMARK       I    between atoms: N_9  and  C_10 
REMARK       I    between atoms: C_10  and  N_11 
REMARK    4  A    between atoms: N_11  and  C_12 
REMARK    5  A    between atoms: C_12  and  C_13 
REMARK    6  A    between atoms: C_13  and  N_14 
REMARK       I    between atoms: N_14  and  C_15 
REMARK    7  A    between atoms: C_15  and  C_16 
REMARK    8  A    between atoms: C_17  and  O_18 
ROOT
HETATM    1  N   UNL     1      -8.474   1.285 -30.804  1.00  0.00    -0.292 N 
HETATM    2  C   UNL     1      -8.907   2.560 -31.009  1.00  0.00     0.321 C 
HETATM    3  N   UNL     1      -8.172   3.341 -31.843  1.00  0.00    -0.341 N 
HETATM    4  O   UNL     1      -9.910   2.965 -30.424  1.00  0.00    -0.247 OA
HETATM    5  H   UNL     1      -9.022   0.771 -30.131  1.00  0.00     0.172 HD
HETATM    6  H   UNL     1      -7.449   2.854 -32.371  1.00  0.00     0.164 HD
ENDROOT
BRANCH   1   7
HETATM    7  C   UNL     1      -7.434   0.621 -31.413  1.00  0.00     0.153 A 
HETATM    8  N   UNL     1      -7.288   0.481 -32.735  1.00  0.00    -0.154 NA
HETATM    9  N   UNL     1      -6.153  -0.238 -32.872  1.00  0.00    -0.275 N 
HETATM   10  C   UNL     1      -5.583  -0.572 -31.677  1.00  0.00     0.116 A 
HETATM   11  C   UNL     1      -6.391  -0.027 -30.710  1.00  0.00     0.071 A 
BRANCH   9  12
HETATM   12  C   UNL     1      -5.702  -0.649 -34.196  1.00  0.00     0.189 C 
BRANCH  12  13
HETATM   13  C   UNL     1      -5.606  -2.149 -34.323  1.00  0.00    -0.038 A 
HETATM   14  C   UNL     1      -6.726  -2.907 -34.695  1.00  0.00     0.009 A 
HETATM   15  C   UNL     1      -6.628  -4.292 -34.838  1.00  0.00     0.001 A 
HETATM   16  C   UNL     1      -5.412  -4.934 -34.612  1.00  0.00     0.000 A 
HETATM   17  C   UNL     1      -4.292  -4.193 -34.243  1.00  0.00     0.001 A 
HETATM   18  C   UNL     1      -4.386  -2.807 -34.101  1.00  0.00     0.009 A 
ENDBRANCH  12  13
ENDBRANCH   9  12
ENDBRANCH   1   7
BRANCH   3  19
HETATM   19  C   UNL     1      -8.578   4.674 -32.228  1.00  0.00     0.144 C 
BRANCH  19  20
HETATM   20  C   UNL     1      -9.230   4.730 -33.616  1.00  0.00     0.142 C 
BRANCH  20  21
HETATM   21  N   UNL     1     -10.410   3.886 -33.706  1.00  0.00    -0.355 N 
HETATM   22  C   UNL     1     -10.346   2.600 -34.193  1.00  0.00     0.254 C 
HETATM   23  O   UNL     1      -9.307   2.092 -34.610  1.00  0.00    -0.268 OA
HETATM   24  H   UNL     1     -11.216   4.189 -33.178  1.00  0.00     0.162 HD
BRANCH  22  25
HETATM   25  C   UNL     1     -11.592   1.781 -34.151  1.00  0.00     0.065 A 
HETATM   26  C   UNL     1     -11.586   0.547 -33.481  1.00  0.00     0.081 A 
HETATM   27  C   UNL     1     -12.743  -0.228 -33.401  1.00  0.00     0.037 A 
HETATM   28  C   UNL     1     -13.919   0.213 -34.004  1.00  0.00     0.003 A 
HETATM   29  C   UNL     1     -13.936   1.423 -34.696  1.00  0.00     0.001 A 
HETATM   30  C   UNL     1     -12.777   2.204 -34.775  1.00  0.00     0.020 A 
BRANCH  26  31
HETATM   31  O   UNL     1     -10.472   0.027 -32.875  1.00  0.00    -0.360 OA
HETATM   32  H   UNL     1      -9.812   0.752 -32.793  1.00  0.00     0.217 HD
ENDBRANCH  26  31
ENDBRANCH  22  25
ENDBRANCH  20  21
ENDBRANCH  19  20
ENDBRANCH   3  19
TORSDOF 8
ENDMDL
MODEL 2
REMARK VINA RESULT:      -8.5      5.695      8.139
REMARK  8 active torsions:
REMARK  status: ('A' for Active; 'I' for Inactive)
REMARK    1  A    between atoms: C_4  and  C_5 
REMARK    2  A    between atoms: C_5  and  N_6 
REMARK    3  A    between atoms: C_8  and  N_9 
REMARK       I    between atoms: N_9  and  C_10 
REMARK       I    between atoms: C_10  and  N_11 
REMARK    4  A    between atoms: N_11  and  C_12 
REMARK    5  A    between atoms: C_12  and  C_13 
REMARK    6  A    between atoms: C_13  and  N_14 
REMARK       I    between atoms: N_14  and  C_15 
REMARK    7  A    between atoms: C_15  and  C_16 
REMARK    8  A    between atoms: C_17  and  O_18 
ROOT
HETATM    1  N   UNL     1      -5.671   2.816 -31.352  1.00  0.00    -0.292 N 
HETATM    2  C   UNL     1      -5.031   3.893 -31.885  1.00  0.00     0.321 C 
HETATM    3  N   UNL     1      -4.356   3.704 -33.050  1.00  0.00    -0.341 N 
HETATM    4  O   UNL     1      -5.058   4.972 -31.296  1.00  0.00    -0.247 OA
HETATM    5  H   UNL     1      -6.104   2.999 -30.460  1.00  0.00     0.172 HD
HETATM    6  H   UNL     1      -4.523   2.809 -33.509  1.00  0.00     0.164 HD
ENDROOT
BRANCH   1   7
HETATM    7  C   UNL     1      -5.827   1.557 -31.885  1.00  0.00     0.153 A 
HETATM    8  N   UNL     1      -5.927   1.288 -33.192  1.00  0.00    -0.154 NA
HETATM    9  N   UNL     1      -6.076  -0.054 -33.245  1.00  0.00    -0.275 N 
HETATM   10  C   UNL     1      -6.089  -0.642 -32.014  1.00  0.00     0.116 A 
HETATM   11  C   UNL     1      -5.927   0.379 -31.109  1.00  0.00     0.071 A 
BRANCH   9  12
HETATM   12  C   UNL     1      -6.285  -0.715 -34.528  1.00  0.00     0.189 C 
BRANCH  12  13
HETATM   13  C   UNL     1      -5.869  -2.165 -34.493  1.00  0.00    -0.038 A 
HETATM   14  C   UNL     1      -6.800  -3.181 -34.761  1.00  0.00     0.009 A 
HETATM   15  C   UNL     1      -6.407  -4.520 -34.754  1.00  0.00     0.001 A 
HETATM   16  C   UNL     1      -5.084  -4.860 -34.481  1.00  0.00     0.000 A 
HETATM   17  C   UNL     1      -4.150  -3.862 -34.214  1.00  0.00     0.001 A 
HETATM   18  C   UNL     1      -4.538  -2.520 -34.222  1.00  0.00     0.009 A 
ENDBRANCH  12  13
ENDBRANCH   9  12
ENDBRANCH   1   7
BRANCH   3  19
HETATM   19  C   UNL     1      -3.725   4.784 -33.774  1.00  0.00     0.144 C 
BRANCH  19  20
HETATM   20  C   UNL     1      -2.192   4.731 -33.723  1.00  0.00     0.142 C 
BRANCH  20  21
HETATM   21  N   UNL     1      -1.650   5.513 -32.624  1.00  0.00    -0.355 N 
HETATM   22  C   UNL     1      -1.416   4.958 -31.386  1.00  0.00     0.254 C 
HETATM   23  O   UNL     1      -1.675   3.787 -31.116  1.00  0.00    -0.268 OA
HETATM   24  H   UNL     1      -1.231   6.398 -32.870  1.00  0.00     0.162 HD
BRANCH  22  25
HETATM   25  C   UNL     1      -0.765   5.817 -30.354  1.00  0.00     0.065 A 
HETATM   26  C   UNL     1       0.261   5.282 -29.557  1.00  0.00     0.081 A 
HETATM   27  C   UNL     1       0.907   6.069 -28.604  1.00  0.00     0.037 A 
HETATM   28  C   UNL     1       0.526   7.396 -28.422  1.00  0.00     0.003 A 
HETATM   29  C   UNL     1      -0.508   7.934 -29.185  1.00  0.00     0.001 A 
HETATM   30  C   UNL     1      -1.156   7.149 -30.145  1.00  0.00     0.020 A 
BRANCH  26  31
HETATM   31  O   UNL     1       0.688   3.984 -29.655  1.00  0.00    -0.360 OA
HETATM   32  H   UNL     1       1.624   3.955 -29.353  1.00  0.00     0.217 HD
ENDBRANCH  26  31
ENDBRANCH  22  25
ENDBRANCH  20  21
ENDBRANCH  19  20
ENDBRANCH   3  19
TORSDOF 8
ENDMDL
MODEL 3
REMARK VINA RESULT:      -8.3      3.311      5.532
REMARK  8 active torsions:
REMARK  status: ('A' for Active; 'I' for Inactive)
REMARK    1  A    between atoms: C_4  and  C_5 
REMARK    2  A    between atoms: C_5  and  N_6 
REMARK    3  A    between atoms: C_8  and  N_9 
REMARK       I    between atoms: N_9  and  C_10 
REMARK       I    between atoms: C_10  and  N_11 
REMARK    4  A    between atoms: N_11  and  C_12 
REMARK    5  A    between atoms: C_12  and  C_13 
REMARK    6  A    between atoms: C_13  and  N_14 
REMARK       I    between atoms: N_14  and  C_15 
REMARK    7  A    between atoms: C_15  and  C_16 
REMARK    8  A    between atoms: C_17  and  O_18 
ROOT
HETATM    1  N   UNL     1      -8.751   1.460 -30.913  1.00  0.00    -0.292 N 
HETATM    2  C   UNL     1      -9.064   2.781 -31.025  1.00  0.00     0.321 C 
HETATM    3  N   UNL     1      -8.185   3.575 -31.692  1.00  0.00    -0.341 N 
HETATM    4  O   UNL     1     -10.094   3.210 -30.508  1.00  0.00    -0.247 OA
HETATM    5  H   UNL     1      -9.407   0.931 -30.359  1.00  0.00     0.172 HD
HETATM    6  H   UNL     1      -7.445   3.082 -32.191  1.00  0.00     0.164 HD
ENDROOT
BRANCH   1   7
HETATM    7  C   UNL     1      -7.701   0.773 -31.478  1.00  0.00     0.153 A 
HETATM    8  N   UNL     1      -7.481   0.663 -32.793  1.00  0.00    -0.154 NA
HETATM    9  N   UNL     1      -6.367  -0.096 -32.882  1.00  0.00    -0.275 N 
HETATM   10  C   UNL     1      -5.882  -0.482 -31.666  1.00  0.00     0.116 A 
HETATM   11  C   UNL     1      -6.727   0.068 -30.733  1.00  0.00     0.071 A 
BRANCH   9  12
HETATM   12  C   UNL     1      -5.852  -0.488 -34.189  1.00  0.00     0.189 C 
BRANCH  12  13
HETATM   13  C   UNL     1      -5.746  -1.986 -34.329  1.00  0.00    -0.038 A 
HETATM   14  C   UNL     1      -6.875  -2.755 -34.651  1.00  0.00     0.009 A 
HETATM   15  C   UNL     1      -6.769  -4.138 -34.807  1.00  0.00     0.001 A 
HETATM   16  C   UNL     1      -5.536  -4.767 -34.646  1.00  0.00     0.000 A 
HETATM   17  C   UNL     1      -4.407  -4.017 -34.328  1.00  0.00     0.001 A 
HETATM   18  C   UNL     1      -4.509  -2.633 -34.173  1.00  0.00     0.009 A 
ENDBRANCH  12  13
ENDBRANCH   9  12
ENDBRANCH   1   7
BRANCH   3  19
HETATM   19  C   UNL     1      -8.446   4.969 -31.973  1.00  0.00     0.144 C 
BRANCH  19  20
HETATM   20  C   UNL     1      -7.863   5.434 -33.314  1.00  0.00     0.142 C 
BRANCH  20  21
HETATM   21  N   UNL     1      -6.415   5.555 -33.273  1.00  0.00    -0.355 N 
HETATM   22  C   UNL     1      -5.592   4.570 -33.773  1.00  0.00     0.254 C 
HETATM   23  O   UNL     1      -6.015   3.521 -34.252  1.00  0.00    -0.268 OA
HETATM   24  H   UNL     1      -6.049   6.478 -33.092  1.00  0.00     0.162 HD
BRANCH  22  25
HETATM   25  C   UNL     1      -4.123   4.832 -33.775  1.00  0.00     0.065 A 
HETATM   26  C   UNL     1      -3.408   4.769 -32.567  1.00  0.00     0.081 A 
HETATM   27  C   UNL     1      -2.030   4.982 -32.542  1.00  0.00     0.037 A 
HETATM   28  C   UNL     1      -1.349   5.277 -33.720  1.00  0.00     0.003 A 
HETATM   29  C   UNL     1      -2.047   5.370 -34.923  1.00  0.00     0.001 A 
HETATM   30  C   UNL     1      -3.429   5.154 -34.952  1.00  0.00     0.020 A 
BRANCH  26  31
HETATM   31  O   UNL     1      -3.998   4.503 -31.359  1.00  0.00    -0.360 OA
HETATM   32  H   UNL     1      -3.318   4.088 -30.781  1.00  0.00     0.217 HD
ENDBRANCH  26  31
ENDBRANCH  22  25
ENDBRANCH  20  21
ENDBRANCH  19  20
ENDBRANCH   3  19
TORSDOF 8
ENDMDL
MODEL 4
REMARK VINA RESULT:      -8.1      5.711      8.174
REMARK  8 active torsions:
REMARK  status: ('A' for Active; 'I' for Inactive)
REMARK    1  A    between atoms: C_4  and  C_5 
REMARK    2  A    between atoms: C_5  and  N_6 
REMARK    3  A    between atoms: C_8  and  N_9 
REMARK       I    between atoms: N_9  and  C_10 
REMARK       I    between atoms: C_10  and  N_11 
REMARK    4  A    between atoms: N_11  and  C_12 
REMARK    5  A    between atoms: C_12  and  C_13 
REMARK    6  A    between atoms: C_13  and  N_14 
REMARK       I    between atoms: N_14  and  C_15 
REMARK    7  A    between atoms: C_15  and  C_16 
REMARK    8  A    between atoms: C_17  and  O_18 
ROOT
HETATM    1  N   UNL     1      -5.540   4.467 -31.703  1.00  0.00    -0.292 N 
HETATM    2  C   UNL     1      -4.900   5.162 -32.683  1.00  0.00     0.321 C 
HETATM    3  N   UNL     1      -4.490   4.466 -33.776  1.00  0.00    -0.341 N 
HETATM    4  O   UNL     1      -4.692   6.366 -32.540  1.00  0.00    -0.247 OA
HETATM    5  H   UNL     1      -5.769   5.020 -30.892  1.00  0.00     0.172 HD
HETATM    6  H   UNL     1      -4.841   3.512 -33.841  1.00  0.00     0.164 HD
ENDROOT
BRANCH   1   7
HETATM    7  C   UNL     1      -5.936   3.149 -31.702  1.00  0.00     0.153 A 
HETATM    8  N   UNL     1      -6.467   2.510 -32.751  1.00  0.00    -0.154 NA
HETATM    9  N   UNL     1      -6.707   1.261 -32.295  1.00  0.00    -0.275 N 
HETATM   10  C   UNL     1      -6.360   1.092 -30.986  1.00  0.00     0.116 A 
HETATM   11  C   UNL     1      -5.854   2.301 -30.573  1.00  0.00     0.071 A 
BRANCH   9  12
HETATM   12  C   UNL     1      -7.357   0.280 -33.156  1.00  0.00     0.189 C 
BRANCH  12  13
HETATM   13  C   UNL     1      -6.405  -0.801 -33.603  1.00  0.00    -0.038 A 
HETATM   14  C   UNL     1      -6.865  -1.888 -34.361  1.00  0.00     0.009 A 
HETATM   15  C   UNL     1      -5.978  -2.874 -34.796  1.00  0.00     0.001 A 
HETATM   16  C   UNL     1      -4.624  -2.784 -34.482  1.00  0.00     0.000 A 
HETATM   17  C   UNL     1      -4.153  -1.710 -33.731  1.00  0.00     0.001 A 
HETATM   18  C   UNL     1      -5.038  -0.720 -33.296  1.00  0.00     0.009 A 
ENDBRANCH  12  13
ENDBRANCH   9  12
ENDBRANCH   1   7
BRANCH   3  19
HETATM   19  C   UNL     1      -3.894   5.101 -34.931  1.00  0.00     0.144 C 
BRANCH  19  20
HETATM   20  C   UNL     1      -2.360   5.103 -34.894  1.00  0.00     0.142 C 
BRANCH  20  21
HETATM   21  N   UNL     1      -1.840   5.513 -33.601  1.00  0.00    -0.355 N 
HETATM   22  C   UNL     1      -1.507   6.823 -33.336  1.00  0.00     0.254 C 
HETATM   23  O   UNL     1      -1.594   7.719 -34.172  1.00  0.00    -0.268 OA
HETATM   24  H   UNL     1      -1.962   4.858 -32.842  1.00  0.00     0.162 HD
BRANCH  22  25
HETATM   25  C   UNL     1      -1.076   7.160 -31.948  1.00  0.00     0.065 A 
HETATM   26  C   UNL     1      -1.832   8.071 -31.192  1.00  0.00     0.081 A 
HETATM   27  C   UNL     1      -1.470   8.384 -29.882  1.00  0.00     0.037 A 
HETATM   28  C   UNL     1      -0.338   7.805 -29.315  1.00  0.00     0.003 A 
HETATM   29  C   UNL     1       0.439   6.920 -30.060  1.00  0.00     0.001 A 
HETATM   30  C   UNL     1       0.077   6.601 -31.373  1.00  0.00     0.020 A 
BRANCH  26  31
HETATM   31  O   UNL     1      -2.949   8.701 -31.674  1.00  0.00    -0.360 OA
HETATM   32  H   UNL     1      -3.409   8.074 -32.276  1.00  0.00     0.217 HD
ENDBRANCH  26  31
ENDBRANCH  22  25
ENDBRANCH  20  21
ENDBRANCH  19  20
ENDBRANCH   3  19
TORSDOF 8
ENDMDL
MODEL 5
REMARK VINA RESULT:      -8.1      5.788      8.307
REMARK  8 active torsions:
REMARK  status: ('A' for Active; 'I' for Inactive)
REMARK    1  A    between atoms: C_4  and  C_5 
REMARK    2  A    between atoms: C_5  and  N_6 
REMARK    3  A    between atoms: C_8  and  N_9 
REMARK       I    between atoms: N_9  and  C_10 
REMARK       I    between atoms: C_10  and  N_11 
REMARK    4  A    between atoms: N_11  and  C_12 
REMARK    5  A    between atoms: C_12  and  C_13 
REMARK    6  A    between atoms: C_13  and  N_14 
REMARK       I    between atoms: N_14  and  C_15 
REMARK    7  A    between atoms: C_15  and  C_16 
REMARK    8  A    between atoms: C_17  and  O_18 
ROOT
HETATM    1  N   UNL     1      -4.605   5.174 -34.610  1.00  0.00    -0.292 N 
HETATM    2  C   UNL     1      -5.566   4.669 -33.788  1.00  0.00     0.321 C 
HETATM    3  N   UNL     1      -5.213   4.409 -32.501  1.00  0.00    -0.341 N 
HETATM    4  O   UNL     1      -6.691   4.443 -34.231  1.00  0.00    -0.247 OA
HETATM    5  H   UNL     1      -4.905   5.291 -35.566  1.00  0.00     0.172 HD
HETATM    6  H   UNL     1      -4.301   4.767 -32.220  1.00  0.00     0.164 HD
ENDROOT
BRANCH   1   7
HETATM    7  C   UNL     1      -3.324   5.567 -34.296  1.00  0.00     0.153 A 
HETATM    8  N   UNL     1      -3.010   6.458 -33.349  1.00  0.00    -0.154 NA
HETATM    9  N   UNL     1      -1.662   6.539 -33.401  1.00  0.00    -0.275 N 
HETATM   10  C   UNL     1      -1.114   5.740 -34.362  1.00  0.00     0.116 A 
HETATM   11  C   UNL     1      -2.168   5.094 -34.960  1.00  0.00     0.071 A 
BRANCH   9  12
HETATM   12  C   UNL     1      -0.952   7.479 -32.541  1.00  0.00     0.189 C 
BRANCH  12  13
HETATM   13  C   UNL     1      -0.446   6.822 -31.281  1.00  0.00    -0.038 A 
HETATM   14  C   UNL     1       0.086   5.524 -31.317  1.00  0.00     0.009 A 
HETATM   15  C   UNL     1       0.578   4.928 -30.155  1.00  0.00     0.001 A 
HETATM   16  C   UNL     1       0.548   5.622 -28.947  1.00  0.00     0.000 A 
HETATM   17  C   UNL     1       0.025   6.912 -28.897  1.00  0.00     0.001 A 
HETATM   18  C   UNL     1      -0.467   7.512 -30.058  1.00  0.00     0.009 A 
ENDBRANCH  12  13
ENDBRANCH   9  12
ENDBRANCH   1   7
BRANCH   3  19
HETATM   19  C   UNL     1      -6.161   3.973 -31.501  1.00  0.00     0.144 C 
BRANCH  19  20
HETATM   20  C   UNL     1      -5.772   2.645 -30.838  1.00  0.00     0.142 C 
BRANCH  20  21
HETATM   21  N   UNL     1      -5.972   1.508 -31.721  1.00  0.00    -0.355 N 
HETATM   22  C   UNL     1      -4.951   1.000 -32.492  1.00  0.00     0.254 C 
HETATM   23  O   UNL     1      -3.821   1.485 -32.512  1.00  0.00    -0.268 OA
HETATM   24  H   UNL     1      -6.808   0.964 -31.565  1.00  0.00     0.162 HD
BRANCH  22  25
HETATM   25  C   UNL     1      -5.231  -0.229 -33.290  1.00  0.00     0.065 A 
HETATM   26  C   UNL     1      -4.328  -1.304 -33.242  1.00  0.00     0.081 A 
HETATM   27  C   UNL     1      -4.577  -2.477 -33.954  1.00  0.00     0.037 A 
HETATM   28  C   UNL     1      -5.723  -2.586 -34.737  1.00  0.00     0.003 A 
HETATM   29  C   UNL     1      -6.617  -1.519 -34.817  1.00  0.00     0.001 A 
HETATM   30  C   UNL     1      -6.371  -0.342 -34.101  1.00  0.00     0.020 A 
BRANCH  26  31
HETATM   31  O   UNL     1      -3.167  -1.278 -32.514  1.00  0.00    -0.360 OA
HETATM   32  H   UNL     1      -2.457  -1.669 -33.071  1.00  0.00     0.217 HD
ENDBRANCH  26  31
ENDBRANCH  22  25
ENDBRANCH  20  21
ENDBRANCH  19  20
ENDBRANCH   3  19
TORSDOF 8
ENDMDL
MODEL 6
REMARK VINA RESULT:      -8.0      4.694      7.196
REMARK  8 active torsions:
REMARK  status: ('A' for Active; 'I' for Inactive)
REMARK    1  A    between atoms: C_4  and  C_5 
REMARK    2  A    between atoms: C_5  and  N_6 
REMARK    3  A    between atoms: C_8  and  N_9 
REMARK       I    between atoms: N_9  and  C_10 
REMARK       I    between atoms: C_10  and  N_11 
REMARK    4  A    between atoms: N_11  and  C_12 
REMARK    5  A    between atoms: C_12  and  C_13 
REMARK    6  A    between atoms: C_13  and  N_14 
REMARK       I    between atoms: N_14  and  C_15 
REMARK    7  A    between atoms: C_15  and  C_16 
REMARK    8  A    between atoms: C_17  and  O_18 
ROOT
HETATM    1  N   UNL     1      -7.214   2.168 -31.858  1.00  0.00    -0.292 N 
HETATM    2  C   UNL     1      -7.126   3.400 -32.431  1.00  0.00     0.321 C 
HETATM    3  N   UNL     1      -5.986   3.691 -33.112  1.00  0.00    -0.341 N 
HETATM    4  O   UNL     1      -8.047   4.203 -32.293  1.00  0.00    -0.247 OA
HETATM    5  H   UNL     1      -8.054   2.027 -31.317  1.00  0.00     0.172 HD
HETATM    6  H   UNL     1      -5.362   2.902 -33.272  1.00  0.00     0.164 HD
ENDROOT
BRANCH   1   7
HETATM    7  C   UNL     1      -6.341   1.108 -31.957  1.00  0.00     0.153 A 
HETATM    8  N   UNL     1      -5.697   0.752 -33.074  1.00  0.00    -0.154 NA
HETATM    9  N   UNL     1      -4.972  -0.329 -32.711  1.00  0.00    -0.275 N 
HETATM   10  C   UNL     1      -5.147  -0.677 -31.403  1.00  0.00     0.116 A 
HETATM   11  C   UNL     1      -6.030   0.239 -30.886  1.00  0.00     0.071 A 
BRANCH   9  12
HETATM   12  C   UNL     1      -4.178  -1.043 -33.703  1.00  0.00     0.189 C 
BRANCH  12  13
HETATM   13  C   UNL     1      -4.825  -2.340 -34.121  1.00  0.00    -0.038 A 
HETATM   14  C   UNL     1      -4.144  -3.558 -33.972  1.00  0.00     0.009 A 
HETATM   15  C   UNL     1      -4.755  -4.760 -34.335  1.00  0.00     0.001 A 
HETATM   16  C   UNL     1      -6.051  -4.759 -34.847  1.00  0.00     0.000 A 
HETATM   17  C   UNL     1      -6.738  -3.557 -34.999  1.00  0.00     0.001 A 
HETATM   18  C   UNL     1      -6.131  -2.353 -34.635  1.00  0.00     0.009 A 
ENDBRANCH  12  13
ENDBRANCH   9  12
ENDBRANCH   1   7
BRANCH   3  19
HETATM   19  C   UNL     1      -5.809   4.920 -33.853  1.00  0.00     0.144 C 
BRANCH  19  20
HETATM   20  C   UNL     1      -5.446   6.115 -32.962  1.00  0.00     0.142 C 
BRANCH  20  21
HETATM   21  N   UNL     1      -4.169   5.936 -32.292  1.00  0.00    -0.355 N 
HETATM   22  C   UNL     1      -2.974   6.178 -32.933  1.00  0.00     0.254 C 
HETATM   23  O   UNL     1      -2.903   6.527 -34.109  1.00  0.00    -0.268 OA
HETATM   24  H   UNL     1      -4.199   5.865 -31.285  1.00  0.00     0.162 HD
BRANCH  22  25
HETATM   25  C   UNL     1      -1.722   6.061 -32.130  1.00  0.00     0.065 A 
HETATM   26  C   UNL     1      -1.493   4.899 -31.374  1.00  0.00     0.081 A 
HETATM   27  C   UNL     1      -0.319   4.749 -30.636  1.00  0.00     0.037 A 
HETATM   28  C   UNL     1       0.635   5.763 -30.630  1.00  0.00     0.003 A 
HETATM   29  C   UNL     1       0.411   6.934 -31.354  1.00  0.00     0.001 A 
HETATM   30  C   UNL     1      -0.764   7.086 -32.098  1.00  0.00     0.020 A 
BRANCH  26  31
HETATM   31  O   UNL     1      -2.382   3.859 -31.307  1.00  0.00    -0.360 OA
HETATM   32  H   UNL     1      -2.255   3.306 -32.111  1.00  0.00     0.217 HD
ENDBRANCH  26  31
ENDBRANCH  22  25
ENDBRANCH  20  21
ENDBRANCH  19  20
ENDBRANCH   3  19
TORSDOF 8
ENDMDL
MODEL 7
REMARK VINA RESULT:      -8.0      6.823      9.547
REMARK  8 active torsions:
REMARK  status: ('A' for Active; 'I' for Inactive)
REMARK    1  A    between atoms: C_4  and  C_5 
REMARK    2  A    between atoms: C_5  and  N_6 
REMARK    3  A    between atoms: C_8  and  N_9 
REMARK       I    between atoms: N_9  and  C_10 
REMARK       I    between atoms: C_10  and  N_11 
REMARK    4  A    between atoms: N_11  and  C_12 
REMARK    5  A    between atoms: C_12  and  C_13 
REMARK    6  A    between atoms: C_13  and  N_14 
REMARK       I    between atoms: N_14  and  C_15 
REMARK    7  A    between atoms: C_15  and  C_16 
REMARK    8  A    between atoms: C_17  and  O_18 
ROOT
HETATM    1  N   UNL     1      -5.129   4.381 -34.442  1.00  0.00    -0.292 N 
HETATM    2  C   UNL     1      -4.141   5.258 -34.115  1.00  0.00     0.321 C 
HETATM    3  N   UNL     1      -3.830   5.384 -32.797  1.00  0.00    -0.341 N 
HETATM    4  O   UNL     1      -3.591   5.915 -34.997  1.00  0.00    -0.247 OA
HETATM    5  H   UNL     1      -5.359   4.371 -35.424  1.00  0.00     0.172 HD
HETATM    6  H   UNL     1      -4.253   4.690 -32.182  1.00  0.00     0.164 HD
ENDROOT
BRANCH   1   7
HETATM    7  C   UNL     1      -5.807   3.504 -33.626  1.00  0.00     0.153 A 
HETATM    8  N   UNL     1      -5.295   2.372 -33.130  1.00  0.00    -0.154 NA
HETATM    9  N   UNL     1      -6.303   1.837 -32.408  1.00  0.00    -0.275 N 
HETATM   10  C   UNL     1      -7.444   2.587 -32.442  1.00  0.00     0.116 A 
HETATM   11  C   UNL     1      -7.152   3.678 -33.225  1.00  0.00     0.071 A 
BRANCH   9  12
HETATM   12  C   UNL     1      -6.133   0.542 -31.761  1.00  0.00     0.189 C 
BRANCH  12  13
HETATM   13  C   UNL     1      -5.955  -0.573 -32.762  1.00  0.00    -0.038 A 
HETATM   14  C   UNL     1      -7.012  -0.950 -33.605  1.00  0.00     0.009 A 
HETATM   15  C   UNL     1      -6.837  -1.964 -34.549  1.00  0.00     0.001 A 
HETATM   16  C   UNL     1      -5.607  -2.609 -34.662  1.00  0.00     0.000 A 
HETATM   17  C   UNL     1      -4.550  -2.244 -33.832  1.00  0.00     0.001 A 
HETATM   18  C   UNL     1      -4.721  -1.229 -32.888  1.00  0.00     0.009 A 
ENDBRANCH  12  13
ENDBRANCH   9  12
ENDBRANCH   1   7
BRANCH   3  19
HETATM   19  C   UNL     1      -2.732   6.198 -32.326  1.00  0.00     0.144 C 
BRANCH  19  20
HETATM   20  C   UNL     1      -1.729   5.420 -31.465  1.00  0.00     0.142 C 
BRANCH  20  21
HETATM   21  N   UNL     1      -1.181   6.229 -30.389  1.00  0.00    -0.355 N 
HETATM   22  C   UNL     1      -0.167   5.767 -29.579  1.00  0.00     0.254 C 
HETATM   23  O   UNL     1       0.317   4.643 -29.687  1.00  0.00    -0.268 OA
HETATM   24  H   UNL     1      -1.399   7.214 -30.417  1.00  0.00     0.162 HD
BRANCH  22  25
HETATM   25  C   UNL     1       0.394   6.709 -28.568  1.00  0.00     0.065 A 
HETATM   26  C   UNL     1       0.259   6.417 -27.201  1.00  0.00     0.081 A 
HETATM   27  C   UNL     1       0.798   7.264 -26.233  1.00  0.00     0.037 A 
HETATM   28  C   UNL     1       1.465   8.424 -26.617  1.00  0.00     0.003 A 
HETATM   29  C   UNL     1       1.585   8.744 -27.969  1.00  0.00     0.001 A 
HETATM   30  C   UNL     1       1.049   7.894 -28.942  1.00  0.00     0.020 A 
BRANCH  26  31
HETATM   31  O   UNL     1      -0.396   5.308 -26.732  1.00  0.00    -0.360 OA
HETATM   32  H   UNL     1      -0.198   5.229 -25.771  1.00  0.00     0.217 HD
ENDBRANCH  26  31
ENDBRANCH  22  25
ENDBRANCH  20  21
ENDBRANCH  19  20
ENDBRANCH   3  19
TORSDOF 8
ENDMDL
MODEL 8
REMARK VINA RESULT:      -7.7      4.534      7.082
REMARK  8 active torsions:
REMARK  status: ('A' for Active; 'I' for Inactive)
REMARK    1  A    between atoms: C_4  and  C_5 
REMARK    2  A    between atoms: C_5  and  N_6 
REMARK    3  A    between atoms: C_8  and  N_9 
REMARK       I    between atoms: N_9  and  C_10 
REMARK       I    between atoms: C_10  and  N_11 
REMARK    4  A    between atoms: N_11  and  C_12 
REMARK    5  A    between atoms: C_12  and  C_13 
REMARK    6  A    between atoms: C_13  and  N_14 
REMARK       I    between atoms: N_14  and  C_15 
REMARK    7  A    between atoms: C_15  and  C_16 
REMARK    8  A    between atoms: C_17  and  O_18 
ROOT
HETATM    1  N   UNL     1      -7.947   2.237 -30.666  1.00  0.00    -0.292 N 
HETATM    2  C   UNL     1      -7.632   3.557 -30.772  1.00  0.00     0.321 C 
HETATM    3  N   UNL     1      -7.446   4.056 -32.022  1.00  0.00    -0.341 N 
HETATM    4  O   UNL     1      -7.500   4.236 -29.754  1.00  0.00    -0.247 OA
HETATM    5  H   UNL     1      -8.015   1.907 -29.715  1.00  0.00     0.172 HD
HETATM    6  H   UNL     1      -7.718   3.435 -32.783  1.00  0.00     0.164 HD
ENDROOT
BRANCH   1   7
HETATM    7  C   UNL     1      -8.214   1.333 -31.669  1.00  0.00     0.153 A 
HETATM    8  N   UNL     1      -7.432   1.121 -32.734  1.00  0.00    -0.154 NA
HETATM    9  N   UNL     1      -8.084   0.174 -33.443  1.00  0.00    -0.275 N 
HETATM   10  C   UNL     1      -9.261  -0.211 -32.869  1.00  0.00     0.116 A 
HETATM   11  C   UNL     1      -9.373   0.523 -31.714  1.00  0.00     0.071 A 
BRANCH   9  12
HETATM   12  C   UNL     1      -7.555  -0.272 -34.727  1.00  0.00     0.189 C 
BRANCH  12  13
HETATM   13  C   UNL     1      -6.506  -1.344 -34.566  1.00  0.00    -0.038 A 
HETATM   14  C   UNL     1      -5.264  -1.046 -33.987  1.00  0.00     0.009 A 
HETATM   15  C   UNL     1      -4.304  -2.045 -33.815  1.00  0.00     0.001 A 
HETATM   16  C   UNL     1      -4.576  -3.351 -34.217  1.00  0.00     0.000 A 
HETATM   17  C   UNL     1      -5.805  -3.662 -34.793  1.00  0.00     0.001 A 
HETATM   18  C   UNL     1      -6.768  -2.665 -34.964  1.00  0.00     0.009 A 
ENDBRANCH  12  13
ENDBRANCH   9  12
ENDBRANCH   1   7
BRANCH   3  19
HETATM   19  C   UNL     1      -7.212   5.460 -32.279  1.00  0.00     0.144 C 
BRANCH  19  20
HETATM   20  C   UNL     1      -6.084   5.709 -33.289  1.00  0.00     0.142 C 
BRANCH  20  21
HETATM   21  N   UNL     1      -4.776   5.739 -32.657  1.00  0.00    -0.355 N 
HETATM   22  C   UNL     1      -3.614   5.729 -33.396  1.00  0.00     0.254 C 
HETATM   23  O   UNL     1      -3.600   5.664 -34.624  1.00  0.00    -0.268 OA
HETATM   24  H   UNL     1      -4.755   6.010 -31.685  1.00  0.00     0.162 HD
BRANCH  22  25
HETATM   25  C   UNL     1      -2.323   5.863 -32.659  1.00  0.00     0.065 A 
HETATM   26  C   UNL     1      -1.480   6.951 -32.935  1.00  0.00     0.081 A 
HETATM   27  C   UNL     1      -0.281   7.118 -32.243  1.00  0.00     0.037 A 
HETATM   28  C   UNL     1       0.100   6.191 -31.276  1.00  0.00     0.003 A 
HETATM   29  C   UNL     1      -0.712   5.090 -31.009  1.00  0.00     0.001 A 
HETATM   30  C   UNL     1      -1.917   4.922 -31.699  1.00  0.00     0.020 A 
BRANCH  26  31
HETATM   31  O   UNL     1      -1.765   7.901 -33.881  1.00  0.00    -0.360 OA
HETATM   32  H   UNL     1      -1.047   7.879 -34.553  1.00  0.00     0.217 HD
ENDBRANCH  26  31
ENDBRANCH  22  25
ENDBRANCH  20  21
ENDBRANCH  19  20
ENDBRANCH   3  19
TORSDOF 8
ENDMDL
MODEL 9
REMARK VINA RESULT:      -7.7      7.665     10.674
REMARK  8 active torsions:
REMARK  status: ('A' for Active; 'I' for Inactive)
REMARK    1  A    between atoms: C_4  and  C_5 
REMARK    2  A    between atoms: C_5  and  N_6 
REMARK    3  A    between atoms: C_8  and  N_9 
REMARK       I    between atoms: N_9  and  C_10 
REMARK       I    between atoms: C_10  and  N_11 
REMARK    4  A    between atoms: N_11  and  C_12 
REMARK    5  A    between atoms: C_12  and  C_13 
REMARK    6  A    between atoms: C_13  and  N_14 
REMARK       I    between atoms: N_14  and  C_15 
REMARK    7  A    between atoms: C_15  and  C_16 
REMARK    8  A    between atoms: C_17  and  O_18 
ROOT
HETATM    1  N   UNL     1      -6.315   4.362 -30.203  1.00  0.00    -0.292 N 
HETATM    2  C   UNL     1      -6.407   4.978 -28.992  1.00  0.00     0.321 C 
HETATM    3  N   UNL     1      -5.275   5.049 -28.241  1.00  0.00    -0.341 N 
HETATM    4  O   UNL     1      -7.491   5.415 -28.610  1.00  0.00    -0.247 OA
HETATM    5  H   UNL     1      -7.195   4.285 -30.690  1.00  0.00     0.172 HD
HETATM    6  H   UNL     1      -4.418   4.778 -28.721  1.00  0.00     0.164 HD
ENDROOT
BRANCH   1   7
HETATM    7  C   UNL     1      -5.195   3.881 -30.841  1.00  0.00     0.153 A 
HETATM    8  N   UNL     1      -4.344   4.627 -31.556  1.00  0.00    -0.154 NA
HETATM    9  N   UNL     1      -3.419   3.747 -31.998  1.00  0.00    -0.275 N 
HETATM   10  C   UNL     1      -3.665   2.465 -31.599  1.00  0.00     0.116 A 
HETATM   11  C   UNL     1      -4.812   2.520 -30.845  1.00  0.00     0.071 A 
BRANCH   9  12
HETATM   12  C   UNL     1      -2.348   4.193 -32.881  1.00  0.00     0.189 C 
BRANCH  12  13
HETATM   13  C   UNL     1      -1.355   5.076 -32.166  1.00  0.00    -0.038 A 
HETATM   14  C   UNL     1      -1.057   6.357 -32.656  1.00  0.00     0.009 A 
HETATM   15  C   UNL     1      -0.158   7.183 -31.979  1.00  0.00     0.001 A 
HETATM   16  C   UNL     1       0.451   6.740 -30.806  1.00  0.00     0.000 A 
HETATM   17  C   UNL     1       0.163   5.471 -30.308  1.00  0.00     0.001 A 
HETATM   18  C   UNL     1      -0.737   4.644 -30.982  1.00  0.00     0.009 A 
ENDBRANCH  12  13
ENDBRANCH   9  12
ENDBRANCH   1   7
BRANCH   3  19
HETATM   19  C   UNL     1      -5.211   5.766 -26.988  1.00  0.00     0.144 C 
BRANCH  19  20
HETATM   20  C   UNL     1      -4.803   7.236 -27.153  1.00  0.00     0.142 C 
BRANCH  20  21
HETATM   21  N   UNL     1      -3.385   7.445 -26.915  1.00  0.00    -0.355 N 
HETATM   22  C   UNL     1      -2.461   7.374 -27.933  1.00  0.00     0.254 C 
HETATM   23  O   UNL     1      -2.761   7.102 -29.093  1.00  0.00    -0.268 OA
HETATM   24  H   UNL     1      -3.140   7.878 -26.036  1.00  0.00     0.162 HD
BRANCH  22  25
HETATM   25  C   UNL     1      -1.043   7.702 -27.604  1.00  0.00     0.065 A 
HETATM   26  C   UNL     1      -0.272   6.782 -26.874  1.00  0.00     0.081 A 
HETATM   27  C   UNL     1       1.064   7.048 -26.576  1.00  0.00     0.037 A 
HETATM   28  C   UNL     1       1.644   8.245 -26.988  1.00  0.00     0.003 A 
HETATM   29  C   UNL     1       0.887   9.181 -27.691  1.00  0.00     0.001 A 
HETATM   30  C   UNL     1      -0.453   8.915 -27.994  1.00  0.00     0.020 A 
BRANCH  26  31
HETATM   31  O   UNL     1      -0.765   5.590 -26.413  1.00  0.00    -0.360 OA
HETATM   32  H   UNL     1      -0.133   4.884 -26.678  1.00  0.00     0.217 HD
ENDBRANCH  26  31
ENDBRANCH  22  25
ENDBRANCH  20  21
ENDBRANCH  19  20
ENDBRANCH   3  19
TORSDOF 8
ENDMDL
MODEL 10
REMARK VINA RESULT:      -7.7      5.863      8.504
REMARK  8 active torsions:
REMARK  status: ('A' for Active; 'I' for Inactive)
REMARK    1  A    between atoms: C_4  and  C_5 
REMARK    2  A    between atoms: C_5  and  N_6 
REMARK    3  A    between atoms: C_8  and  N_9 
REMARK       I    between atoms: N_9  and  C_10 
REMARK       I    between atoms: C_10  and  N_11 
REMARK    4  A    between atoms: N_11  and  C_12 
REMARK    5  A    between atoms: C_12  and  C_13 
REMARK    6  A    between atoms: C_13  and  N_14 
REMARK       I    between atoms: N_14  and  C_15 
REMARK    7  A    between atoms: C_15  and  C_16 
REMARK    8  A    between atoms: C_17  and  O_18 
ROOT
HETATM    1  N   UNL     1      -3.239   1.816 -31.393  1.00  0.00    -0.292 N 
HETATM    2  C   UNL     1      -3.006   3.112 -31.741  1.00  0.00     0.321 C 
HETATM    3  N   UNL     1      -3.840   3.671 -32.657  1.00  0.00    -0.341 N 
HETATM    4  O   UNL     1      -2.054   3.714 -31.248  1.00  0.00    -0.247 OA
HETATM    5  H   UNL     1      -2.556   1.435 -30.757  1.00  0.00     0.172 HD
HETATM    6  H   UNL     1      -4.668   3.122 -32.885  1.00  0.00     0.164 HD
ENDROOT
BRANCH   1   7
HETATM    7  C   UNL     1      -4.283   1.000 -31.764  1.00  0.00     0.153 A 
HETATM    8  N   UNL     1      -4.517   0.579 -33.013  1.00  0.00    -0.154 NA
HETATM    9  N   UNL     1      -5.632  -0.175 -32.908  1.00  0.00    -0.275 N 
HETATM   10  C   UNL     1      -6.122  -0.235 -31.635  1.00  0.00     0.116 A 
HETATM   11  C   UNL     1      -5.266   0.518 -30.868  1.00  0.00     0.071 A 
BRANCH   9  12
HETATM   12  C   UNL     1      -6.236  -0.759 -34.100  1.00  0.00     0.189 C 
BRANCH  12  13
HETATM   13  C   UNL     1      -5.878  -2.215 -34.262  1.00  0.00    -0.038 A 
HETATM   14  C   UNL     1      -6.832  -3.139 -34.716  1.00  0.00     0.009 A 
HETATM   15  C   UNL     1      -6.491  -4.481 -34.891  1.00  0.00     0.001 A 
HETATM   16  C   UNL     1      -5.196  -4.915 -34.615  1.00  0.00     0.000 A 
HETATM   17  C   UNL     1      -4.239  -4.010 -34.165  1.00  0.00     0.001 A 
HETATM   18  C   UNL     1      -4.576  -2.666 -33.991  1.00  0.00     0.009 A 
ENDBRANCH  12  13
ENDBRANCH   9  12
ENDBRANCH   1   7
BRANCH   3  19
HETATM   19  C   UNL     1      -3.768   5.066 -33.033  1.00  0.00     0.144 C 
BRANCH  19  20
HETATM   20  C   UNL     1      -4.263   6.014 -31.932  1.00  0.00     0.142 C 
BRANCH  20  21
HETATM   21  N   UNL     1      -3.206   6.380 -31.004  1.00  0.00    -0.355 N 
HETATM   22  C   UNL     1      -2.497   7.553 -31.140  1.00  0.00     0.254 C 
HETATM   23  O   UNL     1      -2.683   8.346 -32.060  1.00  0.00    -0.268 OA
HETATM   24  H   UNL     1      -3.180   5.870 -30.133  1.00  0.00     0.162 HD
BRANCH  22  25
HETATM   25  C   UNL     1      -1.501   7.886 -30.080  1.00  0.00     0.065 A 
HETATM   26  C   UNL     1      -1.795   8.895 -29.148  1.00  0.00     0.081 A 
HETATM   27  C   UNL     1      -0.897   9.209 -28.129  1.00  0.00     0.037 A 
HETATM   28  C   UNL     1       0.316   8.531 -28.036  1.00  0.00     0.003 A 
HETATM   29  C   UNL     1       0.636   7.545 -28.969  1.00  0.00     0.001 A 
HETATM   30  C   UNL     1      -0.265   7.225 -29.990  1.00  0.00     0.020 A 
BRANCH  26  31
HETATM   31  O   UNL     1      -2.955   9.625 -29.173  1.00  0.00    -0.360 OA
HETATM   32  H   UNL     1      -3.012  10.063 -30.052  1.00  0.00     0.217 HD
ENDBRANCH  26  31
ENDBRANCH  22  25
ENDBRANCH  20  21
ENDBRANCH  19  20
ENDBRANCH   3  19
TORSDOF 8
ENDMDL
