MODEL 1
REMARK VINA RESULT:      -8.7      0.000      0.000
REMARK  7 active torsions:
REMARK  status: ('A' for Active; 'I' for Inactive)
REMARK    1  A    between atoms: C_4  and  C_5 
REMARK    2  A    between atoms: C_5  and  N_6 
REMARK       I    between atoms: N_6  and  C_7 
REMARK       I    between atoms: C_7  and  N_8 
REMARK    3  A    between atoms: N_8  and  C_9 
REMARK    4  A    between atoms: C_9  and  C_10 
REMARK    5  A    between atoms: C_12  and  O_13 
REMARK    6  A    between atoms: O_13  and  C_14 
REMARK    7  A    between atoms: C_23  and  O_24 
ROOT
HETATM    1  N   UNL     1      -6.458   1.637 -32.704  1.00  0.00    -0.335 N 
HETATM    2  C   UNL     1      -6.480   2.139 -33.965  1.00  0.00     0.316 C 
HETATM    3  N   UNL     1      -6.135   3.442 -34.106  1.00  0.00    -0.339 N 
HETATM    4  O   UNL     1      -6.777   1.503 -34.971  1.00  0.00    -0.247 OA
HETATM    5  H   UNL     1      -6.604   2.307 -31.970  1.00  0.00     0.165 HD
HETATM    6  H   UNL     1      -6.102   3.710 -35.082  1.00  0.00     0.164 HD
ENDROOT
BRANCH   1   7
HETATM    7  C   UNL     1      -6.849   0.278 -32.318  1.00  0.00     0.118 C 
HETATM    8  C   UNL     1      -6.932   0.016 -30.814  1.00  0.00     0.037 C 
BRANCH   7   9
HETATM    9  C   UNL     1      -6.028  -0.787 -33.038  1.00  0.00    -0.002 A 
HETATM   10  C   UNL     1      -6.667  -1.800 -33.780  1.00  0.00     0.018 A 
HETATM   11  C   UNL     1      -5.938  -2.798 -34.435  1.00  0.00    -0.061 A 
HETATM   12  C   UNL     1      -6.650  -3.856 -35.225  1.00  0.00     0.048 C 
HETATM   13  C   UNL     1      -4.545  -2.756 -34.389  1.00  0.00     0.009 A 
HETATM   14  C   UNL     1      -3.891  -1.744 -33.683  1.00  0.00     0.038 A 
HETATM   15  C   UNL     1      -4.618  -0.757 -33.009  1.00  0.00     0.076 A 
BRANCH  15  16
HETATM   16  O   UNL     1      -4.048   0.271 -32.301  1.00  0.00    -0.355 OA
HETATM   17  C   UNL     1      -3.220  -0.069 -31.197  1.00  0.00     0.210 C 
ENDBRANCH  15  16
ENDBRANCH   7   9
ENDBRANCH   1   7
BRANCH   3  18
HETATM   18  C   UNL     1      -5.555   4.366 -33.156  1.00  0.00     0.163 C 
BRANCH  18  19
HETATM   19  C   UNL     1      -4.113   4.646 -33.478  1.00  0.00    -0.035 A 
HETATM   20  C   UNL     1      -3.121   4.477 -32.508  1.00  0.00     0.066 A 
HETATM   21  C   UNL     1      -1.806   4.755 -32.848  1.00  0.00     0.164 A 
HETATM   22  N   UNL     1      -1.415   5.173 -34.069  1.00  0.00    -0.237 NA
HETATM   23  C   UNL     1      -2.385   5.308 -34.997  1.00  0.00     0.120 A 
HETATM   24  C   UNL     1      -3.727   5.060 -34.756  1.00  0.00     0.028 A 
BRANCH  21  25
HETATM   25  O   UNL     1      -0.862   4.592 -31.852  1.00  0.00    -0.329 OA
BRANCH  25  26
HETATM   26  C   UNL     1      -0.855   5.596 -30.815  1.00  0.00     0.130 C 
HETATM   27  C   UNL     1       0.264   5.493 -29.744  1.00  0.00     0.032 C 
HETATM   28  C   UNL     1       0.382   7.026 -29.807  1.00  0.00     0.005 C 
HETATM   29  C   UNL     1      -0.208   6.945 -31.225  1.00  0.00     0.032 C 
ENDBRANCH  25  26
ENDBRANCH  21  25
ENDBRANCH  18  19
ENDBRANCH   3  18
TORSDOF 7
ENDMDL
MODEL 2
REMARK VINA RESULT:      -8.6      2.153      2.930
REMARK  7 active torsions:
REMARK  status: ('A' for Active; 'I' for Inactive)
REMARK    1  A    between atoms: C_4  and  C_5 
REMARK    2  A    between atoms: C_5  and  N_6 
REMARK       I    between atoms: N_6  and  C_7 
REMARK       I    between atoms: C_7  and  N_8 
REMARK    3  A    between atoms: N_8  and  C_9 
REMARK    4  A    between atoms: C_9  and  C_10 
REMARK    5  A    between atoms: C_12  and  O_13 
REMARK    6  A    between atoms: O_13  and  C_14 
REMARK    7  A    between atoms: C_23  and  O_24 
ROOT
HETATM    1  N   UNL     1      -4.650   1.947 -32.148  1.00  0.00    -0.335 N 
HETATM    2  C   UNL     1      -4.837   3.054 -31.386  1.00  0.00     0.316 C 
HETATM    3  N   UNL     1      -4.670   4.250 -32.002  1.00  0.00    -0.339 N 
HETATM    4  O   UNL     1      -5.150   3.048 -30.200  1.00  0.00    -0.247 OA
HETATM    5  H   UNL     1      -4.027   2.060 -32.928  1.00  0.00     0.165 HD
HETATM    6  H   UNL     1      -4.905   5.017 -31.384  1.00  0.00     0.164 HD
ENDROOT
BRANCH   1   7
HETATM    7  C   UNL     1      -4.721   0.561 -31.675  1.00  0.00     0.118 C 
HETATM    8  C   UNL     1      -3.397  -0.049 -31.215  1.00  0.00     0.037 C 
BRANCH   7   9
HETATM    9  C   UNL     1      -5.458  -0.347 -32.653  1.00  0.00    -0.002 A 
HETATM   10  C   UNL     1      -4.789  -1.421 -33.272  1.00  0.00     0.018 A 
HETATM   11  C   UNL     1      -5.437  -2.259 -34.186  1.00  0.00    -0.061 A 
HETATM   12  C   UNL     1      -4.697  -3.399 -34.820  1.00  0.00     0.048 C 
HETATM   13  C   UNL     1      -6.791  -2.051 -34.450  1.00  0.00     0.009 A 
HETATM   14  C   UNL     1      -7.481  -1.010 -33.825  1.00  0.00     0.038 A 
HETATM   15  C   UNL     1      -6.829  -0.157 -32.927  1.00  0.00     0.076 A 
BRANCH  15  16
HETATM   16  O   UNL     1      -7.439   0.881 -32.270  1.00  0.00    -0.355 OA
HETATM   17  C   UNL     1      -8.720   0.640 -31.702  1.00  0.00     0.210 C 
ENDBRANCH  15  16
ENDBRANCH   7   9
ENDBRANCH   1   7
BRANCH   3  18
HETATM   18  C   UNL     1      -4.506   4.568 -33.403  1.00  0.00     0.163 C 
BRANCH  18  19
HETATM   19  C   UNL     1      -3.278   5.404 -33.633  1.00  0.00    -0.035 A 
HETATM   20  C   UNL     1      -3.117   6.630 -32.982  1.00  0.00     0.066 A 
HETATM   21  C   UNL     1      -1.971   7.369 -33.231  1.00  0.00     0.164 A 
HETATM   22  N   UNL     1      -0.985   6.975 -34.062  1.00  0.00    -0.237 NA
HETATM   23  C   UNL     1      -1.148   5.778 -34.662  1.00  0.00     0.120 A 
HETATM   24  C   UNL     1      -2.258   4.967 -34.484  1.00  0.00     0.028 A 
BRANCH  21  25
HETATM   25  O   UNL     1      -1.865   8.584 -32.580  1.00  0.00    -0.329 OA
BRANCH  25  26
HETATM   26  C   UNL     1      -2.425   8.642 -31.251  1.00  0.00     0.130 C 
HETATM   27  C   UNL     1      -1.505   8.203 -30.080  1.00  0.00     0.032 C 
HETATM   28  C   UNL     1      -2.084   9.373 -29.266  1.00  0.00     0.005 C 
HETATM   29  C   UNL     1      -2.415  10.053 -30.606  1.00  0.00     0.032 C 
ENDBRANCH  25  26
ENDBRANCH  21  25
ENDBRANCH  18  19
ENDBRANCH   3  18
TORSDOF 7
ENDMDL
MODEL 3
REMARK VINA RESULT:      -8.5      1.445      2.350
REMARK  7 active torsions:
REMARK  status: ('A' for Active; 'I' for Inactive)
REMARK    1  A    between atoms: C_4  and  C_5 
REMARK    2  A    between atoms: C_5  and  N_6 
REMARK       I    between atoms: N_6  and  C_7 
REMARK       I    between atoms: C_7  and  N_8 
REMARK    3  A    between atoms: N_8  and  C_9 
REMARK    4  A    between atoms: C_9  and  C_10 
REMARK    5  A    between atoms: C_12  and  O_13 
REMARK    6  A    between atoms: O_13  and  C_14 
REMARK    7  A    between atoms: C_23  and  O_24 
ROOT
HETATM    1  N   UNL     1      -5.261   1.983 -31.856  1.00  0.00    -0.335 N 
HETATM    2  C   UNL     1      -5.528   3.016 -31.018  1.00  0.00     0.316 C 
HETATM    3  N   UNL     1      -5.441   4.263 -31.544  1.00  0.00    -0.339 N 
HETATM    4  O   UNL     1      -5.845   2.902 -29.839  1.00  0.00    -0.247 OA
HETATM    5  H   UNL     1      -4.643   2.195 -32.620  1.00  0.00     0.165 HD
HETATM    6  H   UNL     1      -5.732   4.965 -30.874  1.00  0.00     0.164 HD
ENDROOT
BRANCH   1   7
HETATM    7  C   UNL     1      -5.238   0.565 -31.486  1.00  0.00     0.118 C 
HETATM    8  C   UNL     1      -3.909   0.048 -30.932  1.00  0.00     0.037 C 
BRANCH   7   9
HETATM    9  C   UNL     1      -5.781  -0.332 -32.593  1.00  0.00    -0.002 A 
HETATM   10  C   UNL     1      -4.989  -1.368 -33.125  1.00  0.00     0.018 A 
HETATM   11  C   UNL     1      -5.457  -2.193 -34.153  1.00  0.00    -0.061 A 
HETATM   12  C   UNL     1      -4.591  -3.293 -34.690  1.00  0.00     0.048 C 
HETATM   13  C   UNL     1      -6.757  -2.013 -34.624  1.00  0.00     0.009 A 
HETATM   14  C   UNL     1      -7.570  -1.010 -34.090  1.00  0.00     0.038 A 
HETATM   15  C   UNL     1      -7.096  -0.169 -33.077  1.00  0.00     0.076 A 
BRANCH  15  16
HETATM   16  O   UNL     1      -7.835   0.832 -32.499  1.00  0.00    -0.355 OA
HETATM   17  C   UNL     1      -9.061   0.471 -31.877  1.00  0.00     0.210 C 
ENDBRANCH  15  16
ENDBRANCH   7   9
ENDBRANCH   1   7
BRANCH   3  18
HETATM   18  C   UNL     1      -5.293   4.693 -32.916  1.00  0.00     0.163 C 
BRANCH  18  19
HETATM   19  C   UNL     1      -3.848   4.909 -33.268  1.00  0.00    -0.035 A 
HETATM   20  C   UNL     1      -2.844   4.707 -32.315  1.00  0.00     0.066 A 
HETATM   21  C   UNL     1      -1.526   4.927 -32.683  1.00  0.00     0.164 A 
HETATM   22  N   UNL     1      -1.142   5.317 -33.915  1.00  0.00    -0.237 NA
HETATM   23  C   UNL     1      -2.122   5.484 -34.826  1.00  0.00     0.120 A 
HETATM   24  C   UNL     1      -3.469   5.295 -34.557  1.00  0.00     0.028 A 
BRANCH  21  25
HETATM   25  O   UNL     1      -0.570   4.734 -31.703  1.00  0.00    -0.329 OA
BRANCH  25  26
HETATM   26  C   UNL     1      -0.625   5.636 -30.578  1.00  0.00     0.130 C 
HETATM   27  C   UNL     1       0.477   5.478 -29.496  1.00  0.00     0.032 C 
HETATM   28  C   UNL     1       0.532   7.014 -29.414  1.00  0.00     0.005 C 
HETATM   29  C   UNL     1      -0.027   7.042 -30.847  1.00  0.00     0.032 C 
ENDBRANCH  25  26
ENDBRANCH  21  25
ENDBRANCH  18  19
ENDBRANCH   3  18
TORSDOF 7
ENDMDL
MODEL 4
REMARK VINA RESULT:      -8.4      2.016      3.131
REMARK  7 active torsions:
REMARK  status: ('A' for Active; 'I' for Inactive)
REMARK    1  A    between atoms: C_4  and  C_5 
REMARK    2  A    between atoms: C_5  and  N_6 
REMARK       I    between atoms: N_6  and  C_7 
REMARK       I    between atoms: C_7  and  N_8 
REMARK    3  A    between atoms: N_8  and  C_9 
REMARK    4  A    between atoms: C_9  and  C_10 
REMARK    5  A    between atoms: C_12  and  O_13 
REMARK    6  A    between atoms: O_13  and  C_14 
REMARK    7  A    between atoms: C_23  and  O_24 
ROOT
HETATM    1  N   UNL     1      -5.170   1.973 -31.393  1.00  0.00    -0.335 N 
HETATM    2  C   UNL     1      -5.047   3.150 -30.729  1.00  0.00     0.316 C 
HETATM    3  N   UNL     1      -3.861   3.795 -30.851  1.00  0.00    -0.339 N 
HETATM    4  O   UNL     1      -5.923   3.666 -30.043  1.00  0.00    -0.247 OA
HETATM    5  H   UNL     1      -4.311   1.479 -31.558  1.00  0.00     0.165 HD
HETATM    6  H   UNL     1      -3.884   4.697 -30.390  1.00  0.00     0.164 HD
ENDROOT
BRANCH   1   7
HETATM    7  C   UNL     1      -6.337   1.087 -31.353  1.00  0.00     0.118 C 
HETATM    8  C   UNL     1      -6.290  -0.019 -30.299  1.00  0.00     0.037 C 
BRANCH   7   9
HETATM    9  C   UNL     1      -6.700   0.546 -32.732  1.00  0.00    -0.002 A 
HETATM   10  C   UNL     1      -6.579  -0.830 -33.013  1.00  0.00     0.018 A 
HETATM   11  C   UNL     1      -6.889  -1.350 -34.274  1.00  0.00    -0.061 A 
HETATM   12  C   UNL     1      -6.759  -2.821 -34.536  1.00  0.00     0.048 C 
HETATM   13  C   UNL     1      -7.374  -0.489 -35.258  1.00  0.00     0.009 A 
HETATM   14  C   UNL     1      -7.529   0.873 -34.992  1.00  0.00     0.038 A 
HETATM   15  C   UNL     1      -7.198   1.400 -33.738  1.00  0.00     0.076 A 
BRANCH  15  16
HETATM   16  O   UNL     1      -7.329   2.722 -33.399  1.00  0.00    -0.355 OA
HETATM   17  C   UNL     1      -8.645   3.241 -33.259  1.00  0.00     0.210 C 
ENDBRANCH  15  16
ENDBRANCH   7   9
ENDBRANCH   1   7
BRANCH   3  18
HETATM   18  C   UNL     1      -2.742   3.542 -31.732  1.00  0.00     0.163 C 
BRANCH  18  19
HETATM   19  C   UNL     1      -2.007   4.812 -32.061  1.00  0.00    -0.035 A 
HETATM   20  C   UNL     1      -1.011   5.298 -31.210  1.00  0.00     0.066 A 
HETATM   21  C   UNL     1      -0.365   6.477 -31.550  1.00  0.00     0.164 A 
HETATM   22  N   UNL     1      -0.630   7.188 -32.664  1.00  0.00    -0.237 NA
HETATM   23  C   UNL     1      -1.578   6.689 -33.484  1.00  0.00     0.120 A 
HETATM   24  C   UNL     1      -2.284   5.522 -33.231  1.00  0.00     0.028 A 
BRANCH  21  25
HETATM   25  O   UNL     1       0.599   6.931 -30.669  1.00  0.00    -0.329 OA
BRANCH  25  26
HETATM   26  C   UNL     1       0.188   7.059 -29.291  1.00  0.00     0.130 C 
HETATM   27  C   UNL     1       0.694   5.973 -28.303  1.00  0.00     0.032 C 
HETATM   28  C   UNL     1       0.908   7.096 -27.273  1.00  0.00     0.005 C 
HETATM   29  C   UNL     1       1.021   8.070 -28.459  1.00  0.00     0.032 C 
ENDBRANCH  25  26
ENDBRANCH  21  25
ENDBRANCH  18  19
ENDBRANCH   3  18
TORSDOF 7
ENDMDL
MODEL 5
REMARK VINA RESULT:      -8.3      2.215      3.401
REMARK  7 active torsions:
REMARK  status: ('A' for Active; 'I' for Inactive)
REMARK    1  A    between atoms: C_4  and  C_5 
REMARK    2  A    between atoms: C_5  and  N_6 
REMARK       I    between atoms: N_6  and  C_7 
REMARK       I    between atoms: C_7  and  N_8 
REMARK    3  A    between atoms: N_8  and  C_9 
REMARK    4  A    between atoms: C_9  and  C_10 
REMARK    5  A    between atoms: C_12  and  O_13 
REMARK    6  A    between atoms: O_13  and  C_14 
REMARK    7  A    between atoms: C_23  and  O_24 
ROOT
HETATM    1  N   UNL     1      -6.207   0.693 -32.705  1.00  0.00    -0.335 N 
HETATM    2  C   UNL     1      -7.350   0.574 -31.982  1.00  0.00     0.316 C 
HETATM    3  N   UNL     1      -7.311   1.030 -30.706  1.00  0.00    -0.339 N 
HETATM    4  O   UNL     1      -8.401   0.098 -32.399  1.00  0.00    -0.247 OA
HETATM    5  H   UNL     1      -5.357   0.702 -32.170  1.00  0.00     0.165 HD
HETATM    6  H   UNL     1      -8.223   0.974 -30.269  1.00  0.00     0.164 HD
ENDROOT
BRANCH   1   7
HETATM    7  C   UNL     1      -6.010   0.216 -34.077  1.00  0.00     0.118 C 
HETATM    8  C   UNL     1      -7.167   0.480 -35.041  1.00  0.00     0.037 C 
BRANCH   7   9
HETATM    9  C   UNL     1      -5.549  -1.237 -34.123  1.00  0.00    -0.002 A 
HETATM   10  C   UNL     1      -6.343  -2.218 -34.749  1.00  0.00     0.018 A 
HETATM   11  C   UNL     1      -5.952  -3.560 -34.790  1.00  0.00    -0.061 A 
HETATM   12  C   UNL     1      -6.817  -4.577 -35.473  1.00  0.00     0.048 C 
HETATM   13  C   UNL     1      -4.722  -3.921 -34.241  1.00  0.00     0.009 A 
HETATM   14  C   UNL     1      -3.905  -2.960 -33.641  1.00  0.00     0.038 A 
HETATM   15  C   UNL     1      -4.305  -1.620 -33.579  1.00  0.00     0.076 A 
BRANCH  15  16
HETATM   16  O   UNL     1      -3.557  -0.619 -33.014  1.00  0.00    -0.355 OA
HETATM   17  C   UNL     1      -2.779  -0.943 -31.869  1.00  0.00     0.210 C 
ENDBRANCH  15  16
ENDBRANCH   7   9
ENDBRANCH   1   7
BRANCH   3  18
HETATM   18  C   UNL     1      -6.304   1.807 -30.018  1.00  0.00     0.163 C 
BRANCH  18  19
HETATM   19  C   UNL     1      -6.182   3.185 -30.606  1.00  0.00    -0.035 A 
HETATM   20  C   UNL     1      -4.943   3.672 -31.032  1.00  0.00     0.066 A 
HETATM   21  C   UNL     1      -4.878   4.952 -31.561  1.00  0.00     0.164 A 
HETATM   22  N   UNL     1      -5.945   5.764 -31.702  1.00  0.00    -0.237 NA
HETATM   23  C   UNL     1      -7.135   5.267 -31.308  1.00  0.00     0.120 A 
HETATM   24  C   UNL     1      -7.304   4.003 -30.763  1.00  0.00     0.028 A 
BRANCH  21  25
HETATM   25  O   UNL     1      -3.629   5.397 -31.950  1.00  0.00    -0.329 OA
BRANCH  25  26
HETATM   26  C   UNL     1      -3.053   4.746 -33.101  1.00  0.00     0.130 C 
HETATM   27  C   UNL     1      -3.379   5.356 -34.491  1.00  0.00     0.032 C 
HETATM   28  C   UNL     1      -1.917   5.084 -34.886  1.00  0.00     0.005 C 
HETATM   29  C   UNL     1      -1.576   5.122 -33.387  1.00  0.00     0.032 C 
ENDBRANCH  25  26
ENDBRANCH  21  25
ENDBRANCH  18  19
ENDBRANCH   3  18
TORSDOF 7
ENDMDL
MODEL 6
REMARK VINA RESULT:      -8.0      1.905      2.902
REMARK  7 active torsions:
REMARK  status: ('A' for Active; 'I' for Inactive)
REMARK    1  A    between atoms: C_4  and  C_5 
REMARK    2  A    between atoms: C_5  and  N_6 
REMARK       I    between atoms: N_6  and  C_7 
REMARK       I    between atoms: C_7  and  N_8 
REMARK    3  A    between atoms: N_8  and  C_9 
REMARK    4  A    between atoms: C_9  and  C_10 
REMARK    5  A    between atoms: C_12  and  O_13 
REMARK    6  A    between atoms: O_13  and  C_14 
REMARK    7  A    between atoms: C_23  and  O_24 
ROOT
HETATM    1  N   UNL     1      -5.089   1.923 -31.990  1.00  0.00    -0.335 N 
HETATM    2  C   UNL     1      -5.374   3.160 -32.471  1.00  0.00     0.316 C 
HETATM    3  N   UNL     1      -4.318   3.978 -32.706  1.00  0.00    -0.339 N 
HETATM    4  O   UNL     1      -6.501   3.579 -32.713  1.00  0.00    -0.247 OA
HETATM    5  H   UNL     1      -4.234   1.850 -31.467  1.00  0.00     0.165 HD
HETATM    6  H   UNL     1      -4.615   4.846 -33.135  1.00  0.00     0.164 HD
ENDROOT
BRANCH   1   7
HETATM    7  C   UNL     1      -6.074   0.905 -31.613  1.00  0.00     0.118 C 
HETATM    8  C   UNL     1      -5.895   0.295 -30.222  1.00  0.00     0.037 C 
BRANCH   7   9
HETATM    9  C   UNL     1      -6.241  -0.164 -32.687  1.00  0.00    -0.002 A 
HETATM   10  C   UNL     1      -5.209  -1.090 -32.938  1.00  0.00     0.018 A 
HETATM   11  C   UNL     1      -5.329  -2.070 -33.930  1.00  0.00    -0.061 A 
HETATM   12  C   UNL     1      -4.216  -3.047 -34.164  1.00  0.00     0.048 C 
HETATM   13  C   UNL     1      -6.520  -2.158 -34.650  1.00  0.00     0.009 A 
HETATM   14  C   UNL     1      -7.566  -1.268 -34.398  1.00  0.00     0.038 A 
HETATM   15  C   UNL     1      -7.440  -0.273 -33.422  1.00  0.00     0.076 A 
BRANCH  15  16
HETATM   16  O   UNL     1      -8.423   0.632 -33.113  1.00  0.00    -0.355 OA
HETATM   17  C   UNL     1      -9.670   0.121 -32.660  1.00  0.00     0.210 C 
ENDBRANCH  15  16
ENDBRANCH   7   9
ENDBRANCH   1   7
BRANCH   3  18
HETATM   18  C   UNL     1      -2.899   3.699 -32.710  1.00  0.00     0.163 C 
BRANCH  18  19
HETATM   19  C   UNL     1      -2.099   4.935 -32.409  1.00  0.00    -0.035 A 
HETATM   20  C   UNL     1      -1.982   5.407 -31.098  1.00  0.00     0.066 A 
HETATM   21  C   UNL     1      -1.240   6.555 -30.869  1.00  0.00     0.164 A 
HETATM   22  N   UNL     1      -0.608   7.250 -31.837  1.00  0.00    -0.237 NA
HETATM   23  C   UNL     1      -0.714   6.766 -33.091  1.00  0.00     0.120 A 
HETATM   24  C   UNL     1      -1.436   5.630 -33.424  1.00  0.00     0.028 A 
BRANCH  21  25
HETATM   25  O   UNL     1      -1.168   6.994 -29.560  1.00  0.00    -0.329 OA
BRANCH  25  26
HETATM   26  C   UNL     1       0.081   6.755 -28.879  1.00  0.00     0.130 C 
HETATM   27  C   UNL     1       0.885   8.003 -28.424  1.00  0.00     0.032 C 
HETATM   28  C   UNL     1       1.211   7.246 -27.125  1.00  0.00     0.005 C 
HETATM   29  C   UNL     1      -0.060   6.414 -27.372  1.00  0.00     0.032 C 
ENDBRANCH  25  26
ENDBRANCH  21  25
ENDBRANCH  18  19
ENDBRANCH   3  18
TORSDOF 7
ENDMDL
MODEL 7
REMARK VINA RESULT:      -7.9      1.505      1.904
REMARK  7 active torsions:
REMARK  status: ('A' for Active; 'I' for Inactive)
REMARK    1  A    between atoms: C_4  and  C_5 
REMARK    2  A    between atoms: C_5  and  N_6 
REMARK       I    between atoms: N_6  and  C_7 
REMARK       I    between atoms: C_7  and  N_8 
REMARK    3  A    between atoms: N_8  and  C_9 
REMARK    4  A    between atoms: C_9  and  C_10 
REMARK    5  A    between atoms: C_12  and  O_13 
REMARK    6  A    between atoms: O_13  and  C_14 
REMARK    7  A    between atoms: C_23  and  O_24 
ROOT
HETATM    1  N   UNL     1      -6.710   1.628 -33.284  1.00  0.00    -0.335 N 
HETATM    2  C   UNL     1      -7.532   2.685 -33.507  1.00  0.00     0.316 C 
HETATM    3  N   UNL     1      -6.942   3.837 -33.910  1.00  0.00    -0.339 N 
HETATM    4  O   UNL     1      -8.751   2.669 -33.379  1.00  0.00    -0.247 OA
HETATM    5  H   UNL     1      -5.767   1.861 -33.026  1.00  0.00     0.165 HD
HETATM    6  H   UNL     1      -7.632   4.546 -34.128  1.00  0.00     0.164 HD
ENDROOT
BRANCH   1   7
HETATM    7  C   UNL     1      -7.126   0.312 -32.789  1.00  0.00     0.118 C 
HETATM    8  C   UNL     1      -7.302   0.201 -31.274  1.00  0.00     0.037 C 
BRANCH   7   9
HETATM    9  C   UNL     1      -6.263  -0.815 -33.347  1.00  0.00    -0.002 A 
HETATM   10  C   UNL     1      -6.856  -1.900 -34.022  1.00  0.00     0.018 A 
HETATM   11  C   UNL     1      -6.090  -2.955 -34.529  1.00  0.00    -0.061 A 
HETATM   12  C   UNL     1      -6.753  -4.090 -35.251  1.00  0.00     0.048 C 
HETATM   13  C   UNL     1      -4.702  -2.902 -34.402  1.00  0.00     0.009 A 
HETATM   14  C   UNL     1      -4.091  -1.821 -33.762  1.00  0.00     0.038 A 
HETATM   15  C   UNL     1      -4.858  -0.775 -33.235  1.00  0.00     0.076 A 
BRANCH  15  16
HETATM   16  O   UNL     1      -4.332   0.320 -32.600  1.00  0.00    -0.355 OA
HETATM   17  C   UNL     1      -3.530   0.093 -31.448  1.00  0.00     0.210 C 
ENDBRANCH  15  16
ENDBRANCH   7   9
ENDBRANCH   1   7
BRANCH   3  18
HETATM   18  C   UNL     1      -5.584   4.097 -34.335  1.00  0.00     0.163 C 
BRANCH  18  19
HETATM   19  C   UNL     1      -4.942   5.161 -33.490  1.00  0.00    -0.035 A 
HETATM   20  C   UNL     1      -3.706   5.707 -33.849  1.00  0.00     0.066 A 
HETATM   21  C   UNL     1      -3.149   6.681 -33.035  1.00  0.00     0.164 A 
HETATM   22  N   UNL     1      -3.732   7.150 -31.913  1.00  0.00    -0.237 NA
HETATM   23  C   UNL     1      -4.934   6.628 -31.597  1.00  0.00     0.120 A 
HETATM   24  C   UNL     1      -5.572   5.647 -32.341  1.00  0.00     0.028 A 
BRANCH  21  25
HETATM   25  O   UNL     1      -1.917   7.177 -33.418  1.00  0.00    -0.329 OA
BRANCH  25  26
HETATM   26  C   UNL     1      -0.765   6.459 -32.929  1.00  0.00     0.130 C 
HETATM   27  C   UNL     1      -0.148   6.947 -31.590  1.00  0.00     0.032 C 
HETATM   28  C   UNL     1       0.050   5.469 -31.213  1.00  0.00     0.005 C 
HETATM   29  C   UNL     1      -1.093   5.137 -32.188  1.00  0.00     0.032 C 
ENDBRANCH  25  26
ENDBRANCH  21  25
ENDBRANCH  18  19
ENDBRANCH   3  18
TORSDOF 7
ENDMDL
MODEL 8
REMARK VINA RESULT:      -7.8      2.465      3.957
REMARK  7 active torsions:
REMARK  status: ('A' for Active; 'I' for Inactive)
REMARK    1  A    between atoms: C_4  and  C_5 
REMARK    2  A    between atoms: C_5  and  N_6 
REMARK       I    between atoms: N_6  and  C_7 
REMARK       I    between atoms: C_7  and  N_8 
REMARK    3  A    between atoms: N_8  and  C_9 
REMARK    4  A    between atoms: C_9  and  C_10 
REMARK    5  A    between atoms: C_12  and  O_13 
REMARK    6  A    between atoms: O_13  and  C_14 
REMARK    7  A    between atoms: C_23  and  O_24 
ROOT
HETATM    1  N   UNL     1      -5.423   1.691 -31.246  1.00  0.00    -0.335 N 
HETATM    2  C   UNL     1      -5.833   1.614 -29.955  1.00  0.00     0.316 C 
HETATM    3  N   UNL     1      -6.334   2.749 -29.409  1.00  0.00    -0.339 N 
HETATM    4  O   UNL     1      -5.791   0.603 -29.262  1.00  0.00    -0.247 OA
HETATM    5  H   UNL     1      -5.130   2.602 -31.553  1.00  0.00     0.165 HD
HETATM    6  H   UNL     1      -6.687   2.582 -28.474  1.00  0.00     0.164 HD
ENDROOT
BRANCH   1   7
HETATM    7  C   UNL     1      -4.799   0.607 -32.011  1.00  0.00     0.118 C 
HETATM    8  C   UNL     1      -3.357   0.856 -32.454  1.00  0.00     0.037 C 
BRANCH   7   9
HETATM    9  C   UNL     1      -5.676   0.134 -33.165  1.00  0.00    -0.002 A 
HETATM   10  C   UNL     1      -5.873  -1.242 -33.394  1.00  0.00     0.018 A 
HETATM   11  C   UNL     1      -6.659  -1.703 -34.456  1.00  0.00    -0.061 A 
HETATM   12  C   UNL     1      -6.855  -3.175 -34.665  1.00  0.00     0.048 C 
HETATM   13  C   UNL     1      -7.299  -0.774 -35.274  1.00  0.00     0.009 A 
HETATM   14  C   UNL     1      -7.141   0.595 -35.047  1.00  0.00     0.038 A 
HETATM   15  C   UNL     1      -6.338   1.059 -33.999  1.00  0.00     0.076 A 
BRANCH  15  16
HETATM   16  O   UNL     1      -6.139   2.385 -33.710  1.00  0.00    -0.355 OA
HETATM   17  C   UNL     1      -7.258   3.257 -33.810  1.00  0.00     0.210 C 
ENDBRANCH  15  16
ENDBRANCH   7   9
ENDBRANCH   1   7
BRANCH   3  18
HETATM   18  C   UNL     1      -6.690   4.008 -30.025  1.00  0.00     0.163 C 
BRANCH  18  19
HETATM   19  C   UNL     1      -5.581   5.014 -29.891  1.00  0.00    -0.035 A 
HETATM   20  C   UNL     1      -4.504   5.011 -30.782  1.00  0.00     0.066 A 
HETATM   21  C   UNL     1      -3.502   5.954 -30.615  1.00  0.00     0.164 A 
HETATM   22  N   UNL     1      -3.501   6.890 -29.644  1.00  0.00    -0.237 NA
HETATM   23  C   UNL     1      -4.560   6.891 -28.809  1.00  0.00     0.120 A 
HETATM   24  C   UNL     1      -5.610   5.989 -28.890  1.00  0.00     0.028 A 
BRANCH  21  25
HETATM   25  O   UNL     1      -2.447   5.900 -31.507  1.00  0.00    -0.329 OA
BRANCH  25  26
HETATM   26  C   UNL     1      -2.800   5.718 -32.894  1.00  0.00     0.130 C 
HETATM   27  C   UNL     1      -1.949   6.485 -33.943  1.00  0.00     0.032 C 
HETATM   28  C   UNL     1      -2.011   5.226 -34.825  1.00  0.00     0.005 C 
HETATM   29  C   UNL     1      -2.249   4.418 -33.537  1.00  0.00     0.032 C 
ENDBRANCH  25  26
ENDBRANCH  21  25
ENDBRANCH  18  19
ENDBRANCH   3  18
TORSDOF 7
ENDMDL
MODEL 9
REMARK VINA RESULT:      -7.8      2.938      4.627
REMARK  7 active torsions:
REMARK  status: ('A' for Active; 'I' for Inactive)
REMARK    1  A    between atoms: C_4  and  C_5 
REMARK    2  A    between atoms: C_5  and  N_6 
REMARK       I    between atoms: N_6  and  C_7 
REMARK       I    between atoms: C_7  and  N_8 
REMARK    3  A    between atoms: N_8  and  C_9 
REMARK    4  A    between atoms: C_9  and  C_10 
REMARK    5  A    between atoms: C_12  and  O_13 
REMARK    6  A    between atoms: O_13  and  C_14 
REMARK    7  A    between atoms: C_23  and  O_24 
ROOT
HETATM    1  N   UNL     1      -6.074   0.697 -31.887  1.00  0.00    -0.335 N 
HETATM    2  C   UNL     1      -6.451   1.315 -30.739  1.00  0.00     0.316 C 
HETATM    3  N   UNL     1      -7.680   1.887 -30.733  1.00  0.00    -0.339 N 
HETATM    4  O   UNL     1      -5.772   1.384 -29.720  1.00  0.00    -0.247 OA
HETATM    5  H   UNL     1      -6.500   1.048 -32.726  1.00  0.00     0.165 HD
HETATM    6  H   UNL     1      -7.910   2.255 -29.818  1.00  0.00     0.164 HD
ENDROOT
BRANCH   1   7
HETATM    7  C   UNL     1      -4.772   0.068 -32.131  1.00  0.00     0.118 C 
HETATM    8  C   UNL     1      -3.640   1.020 -32.519  1.00  0.00     0.037 C 
BRANCH   7   9
HETATM    9  C   UNL     1      -4.872  -1.118 -33.084  1.00  0.00    -0.002 A 
HETATM   10  C   UNL     1      -4.135  -2.293 -32.841  1.00  0.00     0.018 A 
HETATM   11  C   UNL     1      -4.196  -3.389 -33.709  1.00  0.00    -0.061 A 
HETATM   12  C   UNL     1      -3.405  -4.629 -33.414  1.00  0.00     0.048 C 
HETATM   13  C   UNL     1      -5.045  -3.328 -34.813  1.00  0.00     0.009 A 
HETATM   14  C   UNL     1      -5.806  -2.183 -35.058  1.00  0.00     0.038 A 
HETATM   15  C   UNL     1      -5.731  -1.078 -34.203  1.00  0.00     0.076 A 
BRANCH  15  16
HETATM   16  O   UNL     1      -6.451   0.077 -34.373  1.00  0.00    -0.355 OA
HETATM   17  C   UNL     1      -7.638   0.006 -35.152  1.00  0.00     0.210 C 
ENDBRANCH  15  16
ENDBRANCH   7   9
ENDBRANCH   1   7
BRANCH   3  18
HETATM   18  C   UNL     1      -8.761   1.795 -31.690  1.00  0.00     0.163 C 
BRANCH  18  19
HETATM   19  C   UNL     1      -8.741   2.953 -32.649  1.00  0.00    -0.035 A 
HETATM   20  C   UNL     1      -7.562   3.668 -32.879  1.00  0.00     0.066 A 
HETATM   21  C   UNL     1      -7.594   4.733 -33.766  1.00  0.00     0.164 A 
HETATM   22  N   UNL     1      -8.697   5.122 -34.437  1.00  0.00    -0.237 NA
HETATM   23  C   UNL     1      -9.818   4.405 -34.220  1.00  0.00     0.120 A 
HETATM   24  C   UNL     1      -9.891   3.327 -33.349  1.00  0.00     0.028 A 
BRANCH  21  25
HETATM   25  O   UNL     1      -6.410   5.423 -33.947  1.00  0.00    -0.329 OA
BRANCH  25  26
HETATM   26  C   UNL     1      -5.208   4.626 -33.959  1.00  0.00     0.130 C 
HETATM   27  C   UNL     1      -4.091   5.052 -34.951  1.00  0.00     0.032 C 
HETATM   28  C   UNL     1      -3.070   4.726 -33.846  1.00  0.00     0.005 C 
HETATM   29  C   UNL     1      -4.200   4.958 -32.828  1.00  0.00     0.032 C 
ENDBRANCH  25  26
ENDBRANCH  21  25
ENDBRANCH  18  19
ENDBRANCH   3  18
TORSDOF 7
ENDMDL
MODEL 10
REMARK VINA RESULT:      -7.6      4.084      7.688
REMARK  7 active torsions:
REMARK  status: ('A' for Active; 'I' for Inactive)
REMARK    1  A    between atoms: C_4  and  C_5 
REMARK    2  A    between atoms: C_5  and  N_6 
REMARK       I    between atoms: N_6  and  C_7 
REMARK       I    between atoms: C_7  and  N_8 
REMARK    3  A    between atoms: N_8  and  C_9 
REMARK    4  A    between atoms: C_9  and  C_10 
REMARK    5  A    between atoms: C_12  and  O_13 
REMARK    6  A    between atoms: O_13  and  C_14 
REMARK    7  A    between atoms: C_23  and  O_24 
ROOT
HETATM    1  N   UNL     1      -6.240   0.373 -31.765  1.00  0.00    -0.335 N 
HETATM    2  C   UNL     1      -6.448   1.391 -30.892  1.00  0.00     0.316 C 
HETATM    3  N   UNL     1      -7.729   1.809 -30.742  1.00  0.00    -0.339 N 
HETATM    4  O   UNL     1      -5.574   1.943 -30.233  1.00  0.00    -0.247 OA
HETATM    5  H   UNL     1      -6.914   0.295 -32.506  1.00  0.00     0.165 HD
HETATM    6  H   UNL     1      -7.803   2.513 -30.018  1.00  0.00     0.164 HD
ENDROOT
BRANCH   1   7
HETATM    7  C   UNL     1      -4.936  -0.194 -32.122  1.00  0.00     0.118 C 
HETATM    8  C   UNL     1      -3.876   0.815 -32.566  1.00  0.00     0.037 C 
BRANCH   7   9
HETATM    9  C   UNL     1      -5.059  -1.359 -33.099  1.00  0.00    -0.002 A 
HETATM   10  C   UNL     1      -4.183  -2.459 -33.011  1.00  0.00     0.018 A 
HETATM   11  C   UNL     1      -4.263  -3.532 -33.904  1.00  0.00    -0.061 A 
HETATM   12  C   UNL     1      -3.321  -4.692 -33.776  1.00  0.00     0.048 C 
HETATM   13  C   UNL     1      -5.266  -3.530 -34.873  1.00  0.00     0.009 A 
HETATM   14  C   UNL     1      -6.163  -2.463 -34.959  1.00  0.00     0.038 A 
HETATM   15  C   UNL     1      -6.071  -1.378 -34.081  1.00  0.00     0.076 A 
BRANCH  15  16
HETATM   16  O   UNL     1      -6.917  -0.298 -34.099  1.00  0.00    -0.355 OA
HETATM   17  C   UNL     1      -7.534   0.036 -35.335  1.00  0.00     0.210 C 
ENDBRANCH  15  16
ENDBRANCH   7   9
ENDBRANCH   1   7
BRANCH   3  18
HETATM   18  C   UNL     1      -8.966   1.230 -31.217  1.00  0.00     0.163 C 
BRANCH  18  19
HETATM   19  C   UNL     1      -9.480   1.959 -32.428  1.00  0.00    -0.035 A 
HETATM   20  C   UNL     1     -10.483   1.399 -33.224  1.00  0.00     0.066 A 
HETATM   21  C   UNL     1     -10.920   2.104 -34.335  1.00  0.00     0.164 A 
HETATM   22  N   UNL     1     -10.444   3.312 -34.696  1.00  0.00    -0.237 NA
HETATM   23  C   UNL     1      -9.493   3.846 -33.902  1.00  0.00     0.120 A 
HETATM   24  C   UNL     1      -8.986   3.219 -32.774  1.00  0.00     0.028 A 
BRANCH  21  25
HETATM   25  O   UNL     1     -11.899   1.502 -35.103  1.00  0.00    -0.329 OA
BRANCH  25  26
HETATM   26  C   UNL     1     -13.263   1.817 -34.752  1.00  0.00     0.130 C 
HETATM   27  C   UNL     1     -14.150   0.644 -34.253  1.00  0.00     0.032 C 
HETATM   28  C   UNL     1     -14.739   1.613 -33.213  1.00  0.00     0.005 C 
HETATM   29  C   UNL     1     -13.442   2.431 -33.339  1.00  0.00     0.032 C 
ENDBRANCH  25  26
ENDBRANCH  21  25
ENDBRANCH  18  19
ENDBRANCH   3  18
TORSDOF 7
ENDMDL
