MODEL 1
REMARK VINA RESULT:      -8.0      0.000      0.000
REMARK  9 active torsions:
REMARK  status: ('A' for Active; 'I' for Inactive)
REMARK    1  A    between atoms: C_6  and  S_7 
REMARK    2  A    between atoms: S_7  and  C_8 
REMARK    3  A    between atoms: C_8  and  C_9 
REMARK       I    between atoms: C_9  and  N_10 
REMARK    4  A    between atoms: N_10  and  N_11 
REMARK    5  A    between atoms: N_11  and  C_12 
REMARK    6  A    between atoms: C_12  and  N_13 
REMARK    7  A    between atoms: N_13  and  C_14 
REMARK    8  A    between atoms: C_17  and  O_18 
REMARK    9  A    between atoms: O_18  and  C_19 
ROOT
HETATM    1  C   UNL     1      -7.313   2.632 -30.179  1.00  0.00     0.245 C 
HETATM    2  N   UNL     1      -8.639   2.374 -30.506  1.00  0.00    -0.267 N 
HETATM    3  O   UNL     1      -6.441   1.768 -30.089  1.00  0.00    -0.271 OA
HETATM    4  H   UNL     1      -9.145   3.117 -30.986  1.00  0.00     0.190 HD
ENDROOT
BRANCH   2   5
HETATM    5  N   UNL     1      -8.958   1.076 -30.926  1.00  0.00    -0.274 N 
HETATM    6  H   UNL     1      -9.198   0.420 -30.192  1.00  0.00     0.189 HD
BRANCH   5   7
HETATM    7  C   UNL     1      -8.970   0.706 -32.246  1.00  0.00     0.191 C 
HETATM    8  S   UNL     1     -10.345   0.322 -33.127  1.00  0.00    -0.039 SA
BRANCH   7   9
HETATM    9  N   UNL     1      -7.781   0.761 -32.922  1.00  0.00    -0.332 N 
HETATM   10  H   UNL     1      -7.521   1.707 -33.181  1.00  0.00     0.168 HD
BRANCH   9  11
HETATM   11  C   UNL     1      -6.891  -0.259 -33.309  1.00  0.00     0.034 A 
HETATM   12  C   UNL     1      -5.700  -0.544 -32.644  1.00  0.00     0.032 A 
HETATM   13  C   UNL     1      -4.846  -1.543 -33.123  1.00  0.00     0.039 A 
HETATM   14  C   UNL     1      -5.184  -2.293 -34.252  1.00  0.00     0.075 A 
HETATM   15  C   UNL     1      -6.403  -2.051 -34.884  1.00  0.00     0.039 A 
HETATM   16  C   UNL     1      -7.257  -1.049 -34.404  1.00  0.00     0.032 A 
BRANCH  14  17
HETATM   17  O   UNL     1      -4.245  -3.211 -34.626  1.00  0.00    -0.290 OA
BRANCH  17  18
HETATM   18  C   UNL     1      -4.224  -4.438 -33.916  1.00  0.00     0.505 C 
HETATM   19  F   UNL     1      -4.727  -5.422 -34.703  1.00  0.00    -0.184 F 
HETATM   20  F   UNL     1      -2.924  -4.751 -33.689  1.00  0.00    -0.184 F 
ENDBRANCH  17  18
ENDBRANCH  14  17
ENDBRANCH   9  11
ENDBRANCH   7   9
ENDBRANCH   5   7
ENDBRANCH   2   5
BRANCH   1  21
HETATM   21  C   UNL     1      -7.036   4.110 -29.957  1.00  0.00     0.187 C 
BRANCH  21  22
HETATM   22  S   UNL     1      -7.537   5.090 -31.399  1.00  0.00    -0.083 SA
BRANCH  22  23
HETATM   23  C   UNL     1      -6.060   5.142 -32.286  1.00  0.00     0.168 A 
HETATM   24  N   UNL     1      -5.904   5.345 -33.573  1.00  0.00    -0.223 NA
HETATM   25  C   UNL     1      -4.547   5.210 -33.776  1.00  0.00     0.086 A 
HETATM   26  C   UNL     1      -3.885   4.929 -32.582  1.00  0.00     0.063 A 
HETATM   27  C   UNL     1      -3.805   5.301 -34.962  1.00  0.00     0.034 A 
HETATM   28  C   UNL     1      -2.506   4.729 -32.496  1.00  0.00     0.032 A 
HETATM   29  N   UNL     1      -4.883   4.907 -31.643  1.00  0.00    -0.333 N 
HETATM   30  C   UNL     1      -1.785   4.821 -33.691  1.00  0.00     0.002 A 
HETATM   31  C   UNL     1      -2.418   5.102 -34.903  1.00  0.00     0.002 A 
HETATM   32  H   UNL     1      -4.784   4.715 -30.657  1.00  0.00     0.168 HD
ENDBRANCH  22  23
ENDBRANCH  21  22
ENDBRANCH   1  21
TORSDOF 9
ENDMDL
MODEL 2
REMARK VINA RESULT:      -8.0      5.546      9.538
REMARK  9 active torsions:
REMARK  status: ('A' for Active; 'I' for Inactive)
REMARK    1  A    between atoms: C_6  and  S_7 
REMARK    2  A    between atoms: S_7  and  C_8 
REMARK    3  A    between atoms: C_8  and  C_9 
REMARK       I    between atoms: C_9  and  N_10 
REMARK    4  A    between atoms: N_10  and  N_11 
REMARK    5  A    between atoms: N_11  and  C_12 
REMARK    6  A    between atoms: C_12  and  N_13 
REMARK    7  A    between atoms: N_13  and  C_14 
REMARK    8  A    between atoms: C_17  and  O_18 
REMARK    9  A    between atoms: O_18  and  C_19 
ROOT
HETATM    1  C   UNL     1      -4.813   2.280 -30.894  1.00  0.00     0.245 C 
HETATM    2  N   UNL     1      -3.549   2.391 -31.462  1.00  0.00    -0.267 N 
HETATM    3  O   UNL     1      -5.261   3.051 -30.046  1.00  0.00    -0.271 OA
HETATM    4  H   UNL     1      -3.442   2.038 -32.412  1.00  0.00     0.190 HD
ENDROOT
BRANCH   2   5
HETATM    5  N   UNL     1      -2.814   3.549 -31.176  1.00  0.00    -0.274 N 
HETATM    6  H   UNL     1      -2.653   3.739 -30.194  1.00  0.00     0.189 HD
BRANCH   5   7
HETATM    7  C   UNL     1      -2.317   4.371 -32.153  1.00  0.00     0.191 C 
HETATM    8  S   UNL     1      -3.104   4.753 -33.584  1.00  0.00    -0.039 SA
BRANCH   7   9
HETATM    9  N   UNL     1      -1.137   5.014 -31.891  1.00  0.00    -0.332 N 
HETATM   10  H   UNL     1      -0.565   5.137 -32.720  1.00  0.00     0.168 HD
BRANCH   9  11
HETATM   11  C   UNL     1      -0.604   5.511 -30.687  1.00  0.00     0.034 A 
HETATM   12  C   UNL     1       0.467   4.927 -30.011  1.00  0.00     0.032 A 
HETATM   13  C   UNL     1       0.904   5.457 -28.792  1.00  0.00     0.039 A 
HETATM   14  C   UNL     1       0.303   6.593 -28.248  1.00  0.00     0.075 A 
HETATM   15  C   UNL     1      -0.728   7.215 -28.951  1.00  0.00     0.039 A 
HETATM   16  C   UNL     1      -1.167   6.683 -30.171  1.00  0.00     0.032 A 
BRANCH  14  17
HETATM   17  O   UNL     1       0.809   6.981 -27.040  1.00  0.00    -0.290 OA
BRANCH  17  18
HETATM   18  C   UNL     1       1.402   8.266 -26.972  1.00  0.00     0.505 C 
HETATM   19  F   UNL     1       2.443   8.237 -26.103  1.00  0.00    -0.184 F 
HETATM   20  F   UNL     1       1.928   8.533 -28.194  1.00  0.00    -0.184 F 
ENDBRANCH  17  18
ENDBRANCH  14  17
ENDBRANCH   9  11
ENDBRANCH   7   9
ENDBRANCH   5   7
ENDBRANCH   2   5
BRANCH   1  21
HETATM   21  C   UNL     1      -5.607   1.107 -31.444  1.00  0.00     0.187 C 
BRANCH  21  22
HETATM   22  S   UNL     1      -5.859   1.272 -33.233  1.00  0.00    -0.083 SA
BRANCH  22  23
HETATM   23  C   UNL     1      -5.794  -0.379 -33.724  1.00  0.00     0.168 A 
HETATM   24  N   UNL     1      -6.758  -1.098 -34.249  1.00  0.00    -0.223 NA
HETATM   25  C   UNL     1      -6.211  -2.356 -34.380  1.00  0.00     0.086 A 
HETATM   26  C   UNL     1      -4.892  -2.381 -33.931  1.00  0.00     0.063 A 
HETATM   27  C   UNL     1      -6.788  -3.538 -34.865  1.00  0.00     0.034 A 
HETATM   28  C   UNL     1      -4.099  -3.530 -33.934  1.00  0.00     0.032 A 
HETATM   29  N   UNL     1      -4.650  -1.092 -33.530  1.00  0.00    -0.333 N 
HETATM   30  C   UNL     1      -4.695  -4.699 -34.419  1.00  0.00     0.002 A 
HETATM   31  C   UNL     1      -6.015  -4.707 -34.877  1.00  0.00     0.002 A 
HETATM   32  H   UNL     1      -3.798  -0.732 -33.128  1.00  0.00     0.168 HD
ENDBRANCH  22  23
ENDBRANCH  21  22
ENDBRANCH   1  21
TORSDOF 9
ENDMDL
MODEL 3
REMARK VINA RESULT:      -7.9      3.725      7.244
REMARK  9 active torsions:
REMARK  status: ('A' for Active; 'I' for Inactive)
REMARK    1  A    between atoms: C_6  and  S_7 
REMARK    2  A    between atoms: S_7  and  C_8 
REMARK    3  A    between atoms: C_8  and  C_9 
REMARK       I    between atoms: C_9  and  N_10 
REMARK    4  A    between atoms: N_10  and  N_11 
REMARK    5  A    between atoms: N_11  and  C_12 
REMARK    6  A    between atoms: C_12  and  N_13 
REMARK    7  A    between atoms: N_13  and  C_14 
REMARK    8  A    between atoms: C_17  and  O_18 
REMARK    9  A    between atoms: O_18  and  C_19 
ROOT
HETATM    1  C   UNL     1      -6.257   1.183 -30.524  1.00  0.00     0.245 C 
HETATM    2  N   UNL     1      -6.304   2.012 -29.408  1.00  0.00    -0.267 N 
HETATM    3  O   UNL     1      -7.165   1.082 -31.349  1.00  0.00    -0.271 OA
HETATM    4  H   UNL     1      -5.413   2.371 -29.068  1.00  0.00     0.190 HD
ENDROOT
BRANCH   2   5
HETATM    5  N   UNL     1      -7.376   2.909 -29.317  1.00  0.00    -0.274 N 
HETATM    6  H   UNL     1      -8.271   2.505 -29.069  1.00  0.00     0.189 HD
BRANCH   5   7
HETATM    7  C   UNL     1      -7.234   4.256 -29.525  1.00  0.00     0.191 C 
HETATM    8  S   UNL     1      -7.191   5.419 -28.317  1.00  0.00    -0.039 SA
BRANCH   7   9
HETATM    9  N   UNL     1      -7.002   4.671 -30.810  1.00  0.00    -0.332 N 
HETATM   10  H   UNL     1      -7.826   5.073 -31.245  1.00  0.00     0.168 HD
BRANCH   9  11
HETATM   11  C   UNL     1      -5.839   4.623 -31.600  1.00  0.00     0.034 A 
HETATM   12  C   UNL     1      -5.844   4.427 -32.980  1.00  0.00     0.032 A 
HETATM   13  C   UNL     1      -4.639   4.343 -33.685  1.00  0.00     0.039 A 
HETATM   14  C   UNL     1      -3.415   4.486 -33.030  1.00  0.00     0.075 A 
HETATM   15  C   UNL     1      -3.407   4.742 -31.659  1.00  0.00     0.039 A 
HETATM   16  C   UNL     1      -4.615   4.824 -30.953  1.00  0.00     0.032 A 
BRANCH  14  17
HETATM   17  O   UNL     1      -2.320   4.349 -33.835  1.00  0.00    -0.290 OA
BRANCH  17  18
HETATM   18  C   UNL     1      -2.141   5.322 -34.851  1.00  0.00     0.505 C 
HETATM   19  F   UNL     1      -2.173   6.560 -34.299  1.00  0.00    -0.184 F 
HETATM   20  F   UNL     1      -0.893   5.154 -35.355  1.00  0.00    -0.184 F 
ENDBRANCH  17  18
ENDBRANCH  14  17
ENDBRANCH   9  11
ENDBRANCH   7   9
ENDBRANCH   5   7
ENDBRANCH   2   5
BRANCH   1  21
HETATM   21  C   UNL     1      -4.949   0.418 -30.637  1.00  0.00     0.187 C 
BRANCH  21  22
HETATM   22  S   UNL     1      -4.185   0.672 -32.262  1.00  0.00    -0.083 SA
BRANCH  22  23
HETATM   23  C   UNL     1      -4.700  -0.749 -33.090  1.00  0.00     0.168 A 
HETATM   24  N   UNL     1      -5.861  -0.968 -33.661  1.00  0.00    -0.223 NA
HETATM   25  C   UNL     1      -5.783  -2.272 -34.102  1.00  0.00     0.086 A 
HETATM   26  C   UNL     1      -4.546  -2.834 -33.792  1.00  0.00     0.063 A 
HETATM   27  C   UNL     1      -6.739  -3.052 -34.767  1.00  0.00     0.034 A 
HETATM   28  C   UNL     1      -4.197  -4.148 -34.108  1.00  0.00     0.032 A 
HETATM   29  N   UNL     1      -3.869  -1.826 -33.156  1.00  0.00    -0.333 N 
HETATM   30  C   UNL     1      -5.166  -4.911 -34.768  1.00  0.00     0.002 A 
HETATM   31  C   UNL     1      -6.415  -4.376 -35.094  1.00  0.00     0.002 A 
HETATM   32  H   UNL     1      -2.939  -1.871 -32.768  1.00  0.00     0.168 HD
ENDBRANCH  22  23
ENDBRANCH  21  22
ENDBRANCH   1  21
TORSDOF 9
ENDMDL
MODEL 4
REMARK VINA RESULT:      -7.8      2.564      4.325
REMARK  9 active torsions:
REMARK  status: ('A' for Active; 'I' for Inactive)
REMARK    1  A    between atoms: C_6  and  S_7 
REMARK    2  A    between atoms: S_7  and  C_8 
REMARK    3  A    between atoms: C_8  and  C_9 
REMARK       I    between atoms: C_9  and  N_10 
REMARK    4  A    between atoms: N_10  and  N_11 
REMARK    5  A    between atoms: N_11  and  C_12 
REMARK    6  A    between atoms: C_12  and  N_13 
REMARK    7  A    between atoms: N_13  and  C_14 
REMARK    8  A    between atoms: C_17  and  O_18 
REMARK    9  A    between atoms: O_18  and  C_19 
ROOT
HETATM    1  C   UNL     1      -4.790   5.843 -33.308  1.00  0.00     0.245 C 
HETATM    2  N   UNL     1      -6.108   5.802 -32.867  1.00  0.00    -0.267 N 
HETATM    3  O   UNL     1      -4.430   5.521 -34.440  1.00  0.00    -0.271 OA
HETATM    4  H   UNL     1      -6.370   6.473 -32.145  1.00  0.00     0.190 HD
ENDROOT
BRANCH   2   5
HETATM    5  N   UNL     1      -7.100   5.543 -33.821  1.00  0.00    -0.274 N 
HETATM    6  H   UNL     1      -7.052   6.096 -34.669  1.00  0.00     0.189 HD
BRANCH   5   7
HETATM    7  C   UNL     1      -8.068   4.590 -33.644  1.00  0.00     0.191 C 
HETATM    8  S   UNL     1      -9.583   4.607 -34.364  1.00  0.00    -0.039 SA
BRANCH   7   9
HETATM    9  N   UNL     1      -7.732   3.485 -32.907  1.00  0.00    -0.332 N 
HETATM   10  H   UNL     1      -7.494   3.713 -31.947  1.00  0.00     0.168 HD
BRANCH   9  11
HETATM   11  C   UNL     1      -7.660   2.125 -33.262  1.00  0.00     0.034 A 
HETATM   12  C   UNL     1      -8.504   1.142 -32.746  1.00  0.00     0.032 A 
HETATM   13  C   UNL     1      -8.335  -0.197 -33.114  1.00  0.00     0.039 A 
HETATM   14  C   UNL     1      -7.345  -0.569 -34.026  1.00  0.00     0.075 A 
HETATM   15  C   UNL     1      -6.539   0.419 -34.590  1.00  0.00     0.039 A 
HETATM   16  C   UNL     1      -6.708   1.760 -34.219  1.00  0.00     0.032 A 
BRANCH  14  17
HETATM   17  O   UNL     1      -7.272  -1.911 -34.269  1.00  0.00    -0.290 OA
BRANCH  17  18
HETATM   18  C   UNL     1      -6.058  -2.403 -34.810  1.00  0.00     0.505 C 
HETATM   19  F   UNL     1      -5.153  -2.567 -33.813  1.00  0.00    -0.184 F 
HETATM   20  F   UNL     1      -6.310  -3.638 -35.310  1.00  0.00    -0.184 F 
ENDBRANCH  17  18
ENDBRANCH  14  17
ENDBRANCH   9  11
ENDBRANCH   7   9
ENDBRANCH   5   7
ENDBRANCH   2   5
BRANCH   1  21
HETATM   21  C   UNL     1      -3.827   6.349 -32.248  1.00  0.00     0.187 C 
BRANCH  21  22
HETATM   22  S   UNL     1      -2.397   5.244 -32.087  1.00  0.00    -0.083 SA
BRANCH  22  23
HETATM   23  C   UNL     1      -3.177   3.754 -31.711  1.00  0.00     0.168 A 
HETATM   24  N   UNL     1      -2.969   2.579 -32.256  1.00  0.00    -0.223 NA
HETATM   25  C   UNL     1      -3.898   1.756 -31.657  1.00  0.00     0.086 A 
HETATM   26  C   UNL     1      -4.669   2.457 -30.731  1.00  0.00     0.063 A 
HETATM   27  C   UNL     1      -4.153   0.393 -31.863  1.00  0.00     0.034 A 
HETATM   28  C   UNL     1      -5.696   1.876 -29.988  1.00  0.00     0.032 A 
HETATM   29  N   UNL     1      -4.171   3.734 -30.780  1.00  0.00    -0.333 N 
HETATM   30  C   UNL     1      -5.937   0.516 -30.211  1.00  0.00     0.002 A 
HETATM   31  C   UNL     1      -5.182  -0.216 -31.130  1.00  0.00     0.002 A 
HETATM   32  H   UNL     1      -4.497   4.532 -30.255  1.00  0.00     0.168 HD
ENDBRANCH  22  23
ENDBRANCH  21  22
ENDBRANCH   1  21
TORSDOF 9
ENDMDL
MODEL 5
REMARK VINA RESULT:      -7.8      3.460      5.869
REMARK  9 active torsions:
REMARK  status: ('A' for Active; 'I' for Inactive)
REMARK    1  A    between atoms: C_6  and  S_7 
REMARK    2  A    between atoms: S_7  and  C_8 
REMARK    3  A    between atoms: C_8  and  C_9 
REMARK       I    between atoms: C_9  and  N_10 
REMARK    4  A    between atoms: N_10  and  N_11 
REMARK    5  A    between atoms: N_11  and  C_12 
REMARK    6  A    between atoms: C_12  and  N_13 
REMARK    7  A    between atoms: N_13  and  C_14 
REMARK    8  A    between atoms: C_17  and  O_18 
REMARK    9  A    between atoms: O_18  and  C_19 
ROOT
HETATM    1  C   UNL     1      -8.999   3.436 -30.632  1.00  0.00     0.245 C 
HETATM    2  N   UNL     1      -9.560   2.167 -30.555  1.00  0.00    -0.267 N 
HETATM    3  O   UNL     1      -7.816   3.655 -30.894  1.00  0.00    -0.271 OA
HETATM    4  H   UNL     1     -10.550   2.090 -30.787  1.00  0.00     0.190 HD
ENDROOT
BRANCH   2   5
HETATM    5  N   UNL     1      -8.770   1.087 -30.971  1.00  0.00    -0.274 N 
HETATM    6  H   UNL     1      -8.136   0.710 -30.278  1.00  0.00     0.189 HD
BRANCH   5   7
HETATM    7  C   UNL     1      -8.856   0.548 -32.229  1.00  0.00     0.191 C 
HETATM    8  S   UNL     1     -10.261  -0.034 -32.936  1.00  0.00    -0.039 SA
BRANCH   7   9
HETATM    9  N   UNL     1      -7.728   0.589 -33.005  1.00  0.00    -0.332 N 
HETATM   10  H   UNL     1      -7.562   1.506 -33.406  1.00  0.00     0.168 HD
BRANCH   9  11
HETATM   11  C   UNL     1      -6.794  -0.413 -33.330  1.00  0.00     0.034 A 
HETATM   12  C   UNL     1      -5.598  -0.613 -32.640  1.00  0.00     0.032 A 
HETATM   13  C   UNL     1      -4.700  -1.601 -33.058  1.00  0.00     0.039 A 
HETATM   14  C   UNL     1      -4.996  -2.423 -34.147  1.00  0.00     0.075 A 
HETATM   15  C   UNL     1      -6.218  -2.266 -34.801  1.00  0.00     0.039 A 
HETATM   16  C   UNL     1      -7.116  -1.275 -34.383  1.00  0.00     0.032 A 
BRANCH  14  17
HETATM   17  O   UNL     1      -4.017  -3.321 -34.463  1.00  0.00    -0.290 OA
BRANCH  17  18
HETATM   18  C   UNL     1      -3.960  -4.510 -33.694  1.00  0.00     0.505 C 
HETATM   19  F   UNL     1      -4.923  -5.366 -34.117  1.00  0.00    -0.184 F 
HETATM   20  F   UNL     1      -2.770  -5.105 -33.960  1.00  0.00    -0.184 F 
ENDBRANCH  17  18
ENDBRANCH  14  17
ENDBRANCH   9  11
ENDBRANCH   7   9
ENDBRANCH   5   7
ENDBRANCH   2   5
BRANCH   1  21
HETATM   21  C   UNL     1     -10.006   4.545 -30.374  1.00  0.00     0.187 C 
BRANCH  21  22
HETATM   22  S   UNL     1     -10.547   5.307 -31.929  1.00  0.00    -0.083 SA
BRANCH  22  23
HETATM   23  C   UNL     1     -11.828   4.247 -32.383  1.00  0.00     0.168 A 
HETATM   24  N   UNL     1     -12.928   3.986 -31.717  1.00  0.00    -0.223 NA
HETATM   25  C   UNL     1     -13.564   3.026 -32.473  1.00  0.00     0.086 A 
HETATM   26  C   UNL     1     -12.830   2.717 -33.616  1.00  0.00     0.063 A 
HETATM   27  C   UNL     1     -14.775   2.358 -32.240  1.00  0.00     0.034 A 
HETATM   28  C   UNL     1     -13.232   1.766 -34.556  1.00  0.00     0.032 A 
HETATM   29  N   UNL     1     -11.728   3.528 -33.535  1.00  0.00    -0.333 N 
HETATM   30  C   UNL     1     -14.440   1.109 -34.302  1.00  0.00     0.002 A 
HETATM   31  C   UNL     1     -15.201   1.396 -33.167  1.00  0.00     0.002 A 
HETATM   32  H   UNL     1     -10.956   3.569 -34.184  1.00  0.00     0.168 HD
ENDBRANCH  22  23
ENDBRANCH  21  22
ENDBRANCH   1  21
TORSDOF 9
ENDMDL
MODEL 6
REMARK VINA RESULT:      -7.8      3.894      4.951
REMARK  9 active torsions:
REMARK  status: ('A' for Active; 'I' for Inactive)
REMARK    1  A    between atoms: C_6  and  S_7 
REMARK    2  A    between atoms: S_7  and  C_8 
REMARK    3  A    between atoms: C_8  and  C_9 
REMARK       I    between atoms: C_9  and  N_10 
REMARK    4  A    between atoms: N_10  and  N_11 
REMARK    5  A    between atoms: N_11  and  C_12 
REMARK    6  A    between atoms: C_12  and  N_13 
REMARK    7  A    between atoms: N_13  and  C_14 
REMARK    8  A    between atoms: C_17  and  O_18 
REMARK    9  A    between atoms: O_18  and  C_19 
ROOT
HETATM    1  C   UNL     1      -3.249   4.106 -31.589  1.00  0.00     0.245 C 
HETATM    2  N   UNL     1      -4.624   4.196 -31.405  1.00  0.00    -0.267 N 
HETATM    3  O   UNL     1      -2.608   3.058 -31.508  1.00  0.00    -0.271 OA
HETATM    4  H   UNL     1      -5.106   4.938 -31.913  1.00  0.00     0.190 HD
ENDROOT
BRANCH   2   5
HETATM    5  N   UNL     1      -5.339   2.998 -31.290  1.00  0.00    -0.274 N 
HETATM    6  H   UNL     1      -5.337   2.567 -30.373  1.00  0.00     0.189 HD
BRANCH   5   7
HETATM    7  C   UNL     1      -6.024   2.441 -32.339  1.00  0.00     0.191 C 
HETATM    8  S   UNL     1      -6.269   3.172 -33.829  1.00  0.00    -0.039 SA
BRANCH   7   9
HETATM    9  N   UNL     1      -6.445   1.145 -32.195  1.00  0.00    -0.332 N 
HETATM   10  H   UNL     1      -7.010   1.009 -31.363  1.00  0.00     0.168 HD
BRANCH   9  11
HETATM   11  C   UNL     1      -6.220   0.007 -32.991  1.00  0.00     0.034 A 
HETATM   12  C   UNL     1      -5.032  -0.723 -32.984  1.00  0.00     0.032 A 
HETATM   13  C   UNL     1      -4.871  -1.816 -33.843  1.00  0.00     0.039 A 
HETATM   14  C   UNL     1      -5.902  -2.215 -34.695  1.00  0.00     0.075 A 
HETATM   15  C   UNL     1      -7.113  -1.524 -34.661  1.00  0.00     0.039 A 
HETATM   16  C   UNL     1      -7.273  -0.429 -33.801  1.00  0.00     0.032 A 
BRANCH  14  17
HETATM   17  O   UNL     1      -5.596  -3.275 -35.500  1.00  0.00    -0.290 OA
BRANCH  17  18
HETATM   18  C   UNL     1      -6.333  -4.469 -35.301  1.00  0.00     0.505 C 
HETATM   19  F   UNL     1      -5.483  -5.475 -34.980  1.00  0.00    -0.184 F 
HETATM   20  F   UNL     1      -7.130  -4.276 -34.220  1.00  0.00    -0.184 F 
ENDBRANCH  17  18
ENDBRANCH  14  17
ENDBRANCH   9  11
ENDBRANCH   7   9
ENDBRANCH   5   7
ENDBRANCH   2   5
BRANCH   1  21
HETATM   21  C   UNL     1      -2.608   5.442 -31.925  1.00  0.00     0.187 C 
BRANCH  21  22
HETATM   22  S   UNL     1      -0.801   5.294 -32.009  1.00  0.00    -0.083 SA
BRANCH  22  23
HETATM   23  C   UNL     1      -0.342   6.090 -30.551  1.00  0.00     0.168 A 
HETATM   24  N   UNL     1       0.415   7.153 -30.421  1.00  0.00    -0.223 NA
HETATM   25  C   UNL     1       0.531   7.325 -29.059  1.00  0.00     0.086 A 
HETATM   26  C   UNL     1      -0.180   6.347 -28.366  1.00  0.00     0.063 A 
HETATM   27  C   UNL     1       1.242   8.292 -28.334  1.00  0.00     0.034 A 
HETATM   28  C   UNL     1      -0.226   6.270 -26.973  1.00  0.00     0.032 A 
HETATM   29  N   UNL     1      -0.741   5.578 -29.353  1.00  0.00    -0.333 N 
HETATM   30  C   UNL     1       0.492   7.243 -26.269  1.00  0.00     0.002 A 
HETATM   31  C   UNL     1       1.214   8.237 -26.934  1.00  0.00     0.002 A 
HETATM   32  H   UNL     1      -1.315   4.758 -29.230  1.00  0.00     0.168 HD
ENDBRANCH  22  23
ENDBRANCH  21  22
ENDBRANCH   1  21
TORSDOF 9
ENDMDL
MODEL 7
REMARK VINA RESULT:      -7.8      3.578      6.834
REMARK  9 active torsions:
REMARK  status: ('A' for Active; 'I' for Inactive)
REMARK    1  A    between atoms: C_6  and  S_7 
REMARK    2  A    between atoms: S_7  and  C_8 
REMARK    3  A    between atoms: C_8  and  C_9 
REMARK       I    between atoms: C_9  and  N_10 
REMARK    4  A    between atoms: N_10  and  N_11 
REMARK    5  A    between atoms: N_11  and  C_12 
REMARK    6  A    between atoms: C_12  and  N_13 
REMARK    7  A    between atoms: N_13  and  C_14 
REMARK    8  A    between atoms: C_17  and  O_18 
REMARK    9  A    between atoms: O_18  and  C_19 
ROOT
HETATM    1  C   UNL     1      -9.533   1.205 -33.259  1.00  0.00     0.245 C 
HETATM    2  N   UNL     1      -8.868   0.970 -32.061  1.00  0.00    -0.267 N 
HETATM    3  O   UNL     1     -10.606   1.801 -33.350  1.00  0.00    -0.271 OA
HETATM    4  H   UNL     1      -7.852   0.902 -32.108  1.00  0.00     0.190 HD
ENDROOT
BRANCH   2   5
HETATM    5  N   UNL     1      -9.366   1.601 -30.914  1.00  0.00    -0.274 N 
HETATM    6  H   UNL     1     -10.106   1.112 -30.425  1.00  0.00     0.189 HD
BRANCH   5   7
HETATM    7  C   UNL     1      -8.876   2.796 -30.454  1.00  0.00     0.191 C 
HETATM    8  S   UNL     1      -9.712   4.250 -30.466  1.00  0.00    -0.039 SA
BRANCH   7   9
HETATM    9  N   UNL     1      -7.651   2.777 -29.842  1.00  0.00    -0.332 N 
HETATM   10  H   UNL     1      -7.716   2.611 -28.843  1.00  0.00     0.168 HD
BRANCH   9  11
HETATM   11  C   UNL     1      -6.355   2.951 -30.362  1.00  0.00     0.034 A 
HETATM   12  C   UNL     1      -5.589   1.918 -30.900  1.00  0.00     0.032 A 
HETATM   13  C   UNL     1      -4.288   2.167 -31.352  1.00  0.00     0.039 A 
HETATM   14  C   UNL     1      -3.747   3.453 -31.304  1.00  0.00     0.075 A 
HETATM   15  C   UNL     1      -4.533   4.499 -30.823  1.00  0.00     0.039 A 
HETATM   16  C   UNL     1      -5.835   4.249 -30.368  1.00  0.00     0.032 A 
BRANCH  14  17
HETATM   17  O   UNL     1      -2.459   3.544 -31.748  1.00  0.00    -0.290 OA
BRANCH  17  18
HETATM   18  C   UNL     1      -2.247   4.214 -32.979  1.00  0.00     0.505 C 
HETATM   19  F   UNL     1      -3.401   4.224 -33.691  1.00  0.00    -0.184 F 
HETATM   20  F   UNL     1      -1.960   5.508 -32.690  1.00  0.00    -0.184 F 
ENDBRANCH  17  18
ENDBRANCH  14  17
ENDBRANCH   9  11
ENDBRANCH   7   9
ENDBRANCH   5   7
ENDBRANCH   2   5
BRANCH   1  21
HETATM   21  C   UNL     1      -8.787   0.661 -34.466  1.00  0.00     0.187 C 
BRANCH  21  22
HETATM   22  S   UNL     1      -7.002   0.951 -34.312  1.00  0.00    -0.083 SA
BRANCH  22  23
HETATM   23  C   UNL     1      -6.402  -0.662 -34.406  1.00  0.00     0.168 A 
HETATM   24  N   UNL     1      -7.011  -1.718 -34.889  1.00  0.00    -0.223 NA
HETATM   25  C   UNL     1      -6.134  -2.755 -34.653  1.00  0.00     0.086 A 
HETATM   26  C   UNL     1      -4.976  -2.302 -34.025  1.00  0.00     0.063 A 
HETATM   27  C   UNL     1      -6.264  -4.122 -34.939  1.00  0.00     0.034 A 
HETATM   28  C   UNL     1      -3.922  -3.139 -33.655  1.00  0.00     0.032 A 
HETATM   29  N   UNL     1      -5.173  -0.951 -33.893  1.00  0.00    -0.333 N 
HETATM   30  C   UNL     1      -4.073  -4.499 -33.946  1.00  0.00     0.002 A 
HETATM   31  C   UNL     1      -5.221  -4.985 -34.576  1.00  0.00     0.002 A 
HETATM   32  H   UNL     1      -4.548  -0.286 -33.463  1.00  0.00     0.168 HD
ENDBRANCH  22  23
ENDBRANCH  21  22
ENDBRANCH   1  21
TORSDOF 9
ENDMDL
MODEL 8
REMARK VINA RESULT:      -7.8      2.161      2.550
REMARK  9 active torsions:
REMARK  status: ('A' for Active; 'I' for Inactive)
REMARK    1  A    between atoms: C_6  and  S_7 
REMARK    2  A    between atoms: S_7  and  C_8 
REMARK    3  A    between atoms: C_8  and  C_9 
REMARK       I    between atoms: C_9  and  N_10 
REMARK    4  A    between atoms: N_10  and  N_11 
REMARK    5  A    between atoms: N_11  and  C_12 
REMARK    6  A    between atoms: C_12  and  N_13 
REMARK    7  A    between atoms: N_13  and  C_14 
REMARK    8  A    between atoms: C_17  and  O_18 
REMARK    9  A    between atoms: O_18  and  C_19 
ROOT
HETATM    1  C   UNL     1      -5.750   3.429 -29.825  1.00  0.00     0.245 C 
HETATM    2  N   UNL     1      -6.919   2.741 -29.520  1.00  0.00    -0.267 N 
HETATM    3  O   UNL     1      -4.810   2.950 -30.460  1.00  0.00    -0.271 OA
HETATM    4  H   UNL     1      -7.765   3.301 -29.420  1.00  0.00     0.190 HD
ENDROOT
BRANCH   2   5
HETATM    5  N   UNL     1      -7.105   1.490 -30.121  1.00  0.00    -0.274 N 
HETATM    6  H   UNL     1      -6.879   0.686 -29.548  1.00  0.00     0.189 HD
BRANCH   5   7
HETATM    7  C   UNL     1      -7.584   1.345 -31.397  1.00  0.00     0.191 C 
HETATM    8  S   UNL     1      -9.191   1.508 -31.849  1.00  0.00    -0.039 SA
BRANCH   7   9
HETATM    9  N   UNL     1      -6.663   1.160 -32.394  1.00  0.00    -0.332 N 
HETATM   10  H   UNL     1      -6.299   2.034 -32.758  1.00  0.00     0.168 HD
BRANCH   9  11
HETATM   11  C   UNL     1      -6.161  -0.017 -32.980  1.00  0.00     0.034 A 
HETATM   12  C   UNL     1      -4.982  -0.644 -32.577  1.00  0.00     0.032 A 
HETATM   13  C   UNL     1      -4.526  -1.785 -33.246  1.00  0.00     0.039 A 
HETATM   14  C   UNL     1      -5.255  -2.335 -34.302  1.00  0.00     0.075 A 
HETATM   15  C   UNL     1      -6.465  -1.746 -34.667  1.00  0.00     0.039 A 
HETATM   16  C   UNL     1      -6.920  -0.602 -33.999  1.00  0.00     0.032 A 
BRANCH  14  17
HETATM   17  O   UNL     1      -4.677  -3.428 -34.882  1.00  0.00    -0.290 OA
BRANCH  17  18
HETATM   18  C   UNL     1      -4.233  -4.459 -34.017  1.00  0.00     0.505 C 
HETATM   19  F   UNL     1      -4.913  -5.600 -34.289  1.00  0.00    -0.184 F 
HETATM   20  F   UNL     1      -2.932  -4.704 -34.315  1.00  0.00    -0.184 F 
ENDBRANCH  17  18
ENDBRANCH  14  17
ENDBRANCH   9  11
ENDBRANCH   7   9
ENDBRANCH   5   7
ENDBRANCH   2   5
BRANCH   1  21
HETATM   21  C   UNL     1      -5.751   4.857 -29.305  1.00  0.00     0.187 C 
BRANCH  21  22
HETATM   22  S   UNL     1      -5.655   6.047 -30.672  1.00  0.00    -0.083 SA
BRANCH  22  23
HETATM   23  C   UNL     1      -3.959   6.344 -30.727  1.00  0.00     0.168 A 
HETATM   24  N   UNL     1      -3.199   6.463 -31.789  1.00  0.00    -0.223 NA
HETATM   25  C   UNL     1      -1.926   6.611 -31.283  1.00  0.00     0.086 A 
HETATM   26  C   UNL     1      -1.932   6.587 -29.889  1.00  0.00     0.063 A 
HETATM   27  C   UNL     1      -0.705   6.760 -31.956  1.00  0.00     0.034 A 
HETATM   28  C   UNL     1      -0.779   6.702 -29.112  1.00  0.00     0.032 A 
HETATM   29  N   UNL     1      -3.255   6.428 -29.564  1.00  0.00    -0.333 N 
HETATM   30  C   UNL     1       0.429   6.845 -29.803  1.00  0.00     0.002 A 
HETATM   31  C   UNL     1       0.470   6.875 -31.199  1.00  0.00     0.002 A 
HETATM   32  H   UNL     1      -3.645   6.349 -28.637  1.00  0.00     0.168 HD
ENDBRANCH  22  23
ENDBRANCH  21  22
ENDBRANCH   1  21
TORSDOF 9
ENDMDL
MODEL 9
REMARK VINA RESULT:      -7.7      2.708      3.640
REMARK  9 active torsions:
REMARK  status: ('A' for Active; 'I' for Inactive)
REMARK    1  A    between atoms: C_6  and  S_7 
REMARK    2  A    between atoms: S_7  and  C_8 
REMARK    3  A    between atoms: C_8  and  C_9 
REMARK       I    between atoms: C_9  and  N_10 
REMARK    4  A    between atoms: N_10  and  N_11 
REMARK    5  A    between atoms: N_11  and  C_12 
REMARK    6  A    between atoms: C_12  and  N_13 
REMARK    7  A    between atoms: N_13  and  C_14 
REMARK    8  A    between atoms: C_17  and  O_18 
REMARK    9  A    between atoms: O_18  and  C_19 
ROOT
HETATM    1  C   UNL     1      -5.777   4.238 -33.536  1.00  0.00     0.245 C 
HETATM    2  N   UNL     1      -5.816   2.870 -33.296  1.00  0.00    -0.267 N 
HETATM    3  O   UNL     1      -6.572   4.837 -34.259  1.00  0.00    -0.271 OA
HETATM    4  H   UNL     1      -5.457   2.553 -32.396  1.00  0.00     0.190 HD
ENDROOT
BRANCH   2   5
HETATM    5  N   UNL     1      -6.929   2.164 -33.770  1.00  0.00    -0.274 N 
HETATM    6  H   UNL     1      -7.039   2.135 -34.777  1.00  0.00     0.189 HD
BRANCH   5   7
HETATM    7  C   UNL     1      -7.812   1.527 -32.937  1.00  0.00     0.191 C 
HETATM    8  S   UNL     1      -9.356   2.071 -32.571  1.00  0.00    -0.039 SA
BRANCH   7   9
HETATM    9  N   UNL     1      -7.443   0.300 -32.453  1.00  0.00    -0.332 N 
HETATM   10  H   UNL     1      -7.895   0.074 -31.574  1.00  0.00     0.168 HD
BRANCH   9  11
HETATM   11  C   UNL     1      -6.558  -0.666 -32.966  1.00  0.00     0.034 A 
HETATM   12  C   UNL     1      -5.240  -0.818 -32.536  1.00  0.00     0.032 A 
HETATM   13  C   UNL     1      -4.409  -1.772 -33.133  1.00  0.00     0.039 A 
HETATM   14  C   UNL     1      -4.890  -2.610 -34.141  1.00  0.00     0.075 A 
HETATM   15  C   UNL     1      -6.224  -2.502 -34.531  1.00  0.00     0.039 A 
HETATM   16  C   UNL     1      -7.055  -1.544 -33.934  1.00  0.00     0.032 A 
BRANCH  14  17
HETATM   17  O   UNL     1      -3.963  -3.471 -34.655  1.00  0.00    -0.290 OA
BRANCH  17  18
HETATM   18  C   UNL     1      -3.773  -4.697 -33.971  1.00  0.00     0.505 C 
HETATM   19  F   UNL     1      -3.423  -4.446 -32.685  1.00  0.00    -0.184 F 
HETATM   20  F   UNL     1      -4.974  -5.326 -33.928  1.00  0.00    -0.184 F 
ENDBRANCH  17  18
ENDBRANCH  14  17
ENDBRANCH   9  11
ENDBRANCH   7   9
ENDBRANCH   5   7
ENDBRANCH   2   5
BRANCH   1  21
HETATM   21  C   UNL     1      -4.651   4.937 -32.791  1.00  0.00     0.187 C 
BRANCH  21  22
HETATM   22  S   UNL     1      -3.240   3.823 -32.550  1.00  0.00    -0.083 SA
BRANCH  22  23
HETATM   23  C   UNL     1      -2.211   4.807 -31.580  1.00  0.00     0.168 A 
HETATM   24  N   UNL     1      -1.033   4.499 -31.091  1.00  0.00    -0.223 NA
HETATM   25  C   UNL     1      -0.681   5.595 -30.333  1.00  0.00     0.086 A 
HETATM   26  C   UNL     1      -1.668   6.578 -30.380  1.00  0.00     0.063 A 
HETATM   27  C   UNL     1       0.467   5.820 -29.561  1.00  0.00     0.034 A 
HETATM   28  C   UNL     1      -1.582   7.790 -29.693  1.00  0.00     0.032 A 
HETATM   29  N   UNL     1      -2.630   6.047 -31.201  1.00  0.00    -0.333 N 
HETATM   30  C   UNL     1      -0.430   7.992 -28.926  1.00  0.00     0.002 A 
HETATM   31  C   UNL     1       0.578   7.028 -28.858  1.00  0.00     0.002 A 
HETATM   32  H   UNL     1      -3.510   6.469 -31.456  1.00  0.00     0.168 HD
ENDBRANCH  22  23
ENDBRANCH  21  22
ENDBRANCH   1  21
TORSDOF 9
ENDMDL
MODEL 10
REMARK VINA RESULT:      -7.7      2.189      2.608
REMARK  9 active torsions:
REMARK  status: ('A' for Active; 'I' for Inactive)
REMARK    1  A    between atoms: C_6  and  S_7 
REMARK    2  A    between atoms: S_7  and  C_8 
REMARK    3  A    between atoms: C_8  and  C_9 
REMARK       I    between atoms: C_9  and  N_10 
REMARK    4  A    between atoms: N_10  and  N_11 
REMARK    5  A    between atoms: N_11  and  C_12 
REMARK    6  A    between atoms: C_12  and  N_13 
REMARK    7  A    between atoms: N_13  and  C_14 
REMARK    8  A    between atoms: C_17  and  O_18 
REMARK    9  A    between atoms: O_18  and  C_19 
ROOT
HETATM    1  C   UNL     1      -6.136   4.437 -29.579  1.00  0.00     0.245 C 
HETATM    2  N   UNL     1      -5.210   3.410 -29.431  1.00  0.00    -0.267 N 
HETATM    3  O   UNL     1      -7.224   4.311 -30.139  1.00  0.00    -0.271 OA
HETATM    4  H   UNL     1      -4.601   3.458 -28.615  1.00  0.00     0.190 HD
ENDROOT
BRANCH   2   5
HETATM    5  N   UNL     1      -5.617   2.119 -29.790  1.00  0.00    -0.274 N 
HETATM    6  H   UNL     1      -6.259   1.664 -29.151  1.00  0.00     0.189 HD
BRANCH   5   7
HETATM    7  C   UNL     1      -5.200   1.504 -30.942  1.00  0.00     0.191 C 
HETATM    8  S   UNL     1      -4.328   2.244 -32.169  1.00  0.00    -0.039 SA
BRANCH   7   9
HETATM    9  N   UNL     1      -5.420   0.157 -31.047  1.00  0.00    -0.332 N 
HETATM   10  H   UNL     1      -5.563  -0.288 -30.147  1.00  0.00     0.168 HD
BRANCH   9  11
HETATM   11  C   UNL     1      -5.472  -0.685 -32.174  1.00  0.00     0.034 A 
HETATM   12  C   UNL     1      -6.578  -0.788 -33.016  1.00  0.00     0.032 A 
HETATM   13  C   UNL     1      -6.567  -1.687 -34.088  1.00  0.00     0.039 A 
HETATM   14  C   UNL     1      -5.442  -2.470 -34.354  1.00  0.00     0.075 A 
HETATM   15  C   UNL     1      -4.312  -2.325 -33.551  1.00  0.00     0.039 A 
HETATM   16  C   UNL     1      -4.325  -1.426 -32.476  1.00  0.00     0.032 A 
BRANCH  14  17
HETATM   17  O   UNL     1      -5.582  -3.325 -35.410  1.00  0.00    -0.290 OA
BRANCH  17  18
HETATM   18  C   UNL     1      -6.009  -4.644 -35.119  1.00  0.00     0.505 C 
HETATM   19  F   UNL     1      -5.127  -5.226 -34.269  1.00  0.00    -0.184 F 
HETATM   20  F   UNL     1      -7.185  -4.549 -34.449  1.00  0.00    -0.184 F 
ENDBRANCH  17  18
ENDBRANCH  14  17
ENDBRANCH   9  11
ENDBRANCH   7   9
ENDBRANCH   5   7
ENDBRANCH   2   5
BRANCH   1  21
HETATM   21  C   UNL     1      -5.675   5.744 -28.955  1.00  0.00     0.187 C 
BRANCH  21  22
HETATM   22  S   UNL     1      -5.887   7.127 -30.110  1.00  0.00    -0.083 SA
BRANCH  22  23
HETATM   23  C   UNL     1      -4.864   6.630 -31.404  1.00  0.00     0.168 A 
HETATM   24  N   UNL     1      -5.215   6.309 -32.627  1.00  0.00    -0.223 NA
HETATM   25  C   UNL     1      -4.039   5.915 -33.227  1.00  0.00     0.086 A 
HETATM   26  C   UNL     1      -2.966   6.013 -32.343  1.00  0.00     0.063 A 
HETATM   27  C   UNL     1      -3.809   5.446 -34.528  1.00  0.00     0.034 A 
HETATM   28  C   UNL     1      -1.657   5.666 -32.680  1.00  0.00     0.032 A 
HETATM   29  N   UNL     1      -3.527   6.488 -31.186  1.00  0.00    -0.333 N 
HETATM   30  C   UNL     1      -1.450   5.197 -33.982  1.00  0.00     0.002 A 
HETATM   31  C   UNL     1      -2.503   5.088 -34.892  1.00  0.00     0.002 A 
HETATM   32  H   UNL     1      -3.055   6.670 -30.313  1.00  0.00     0.168 HD
ENDBRANCH  22  23
ENDBRANCH  21  22
ENDBRANCH   1  21
TORSDOF 9
ENDMDL
