MODEL 1
REMARK VINA RESULT:      -8.0      0.000      0.000
REMARK  5 active torsions:
REMARK  status: ('A' for Active; 'I' for Inactive)
REMARK    1  A    between atoms: N_2  and  C_4 
REMARK    2  A    between atoms: C_4  and  C_5 
REMARK    3  A    between atoms: C_8  and  C_9 
REMARK    4  A    between atoms: C_9  and  N_10 
REMARK       I    between atoms: N_10  and  C_11 
REMARK       I    between atoms: C_11  and  N_12 
REMARK    5  A    between atoms: N_12  and  C_13 
ROOT
HETATM    1  N   UNL     1      -7.027   1.076 -31.878  1.00  0.00    -0.339 N 
HETATM    2  C   UNL     1      -5.963   1.728 -32.417  1.00  0.00     0.322 C 
HETATM    3  N   UNL     1      -5.080   1.004 -33.152  1.00  0.00    -0.287 N 
HETATM    4  O   UNL     1      -5.766   2.930 -32.251  1.00  0.00    -0.247 OA
HETATM    5  H   UNL     1      -7.118   0.084 -32.084  1.00  0.00     0.164 HD
HETATM    6  H   UNL     1      -4.299   1.516 -33.534  1.00  0.00     0.172 HD
ENDROOT
BRANCH   1   7
HETATM    7  C   UNL     1      -8.116   1.758 -31.223  1.00  0.00     0.162 C 
BRANCH   7   8
HETATM    8  C   UNL     1      -9.369   1.882 -32.063  1.00  0.00    -0.040 A 
HETATM    9  C   UNL     1      -9.863   0.816 -32.824  1.00  0.00     0.009 A 
HETATM   10  C   UNL     1     -11.072   0.924 -33.517  1.00  0.00     0.009 A 
HETATM   11  C   UNL     1     -11.828   2.101 -33.446  1.00  0.00    -0.033 A 
HETATM   12  C   UNL     1     -11.338   3.175 -32.690  1.00  0.00     0.009 A 
HETATM   13  C   UNL     1     -10.124   3.063 -32.005  1.00  0.00     0.009 A 
BRANCH  11  14
HETATM   14  C   UNL     1     -13.170   2.186 -34.117  1.00  0.00     0.272 C 
BRANCH  14  15
HETATM   15  N   UNL     1     -14.232   1.368 -33.411  1.00  0.00    -0.075 N 
HETATM   16  C   UNL     1     -15.171   0.675 -34.360  1.00  0.00     0.269 C 
HETATM   17  H   UNL     1     -13.732   0.627 -32.905  1.00  0.00     0.279 HD
HETATM   18  C   UNL     1     -14.976   2.182 -32.394  1.00  0.00     0.269 C 
ENDBRANCH  14  15
ENDBRANCH  11  14
ENDBRANCH   7   8
ENDBRANCH   1   7
BRANCH   3  19
HETATM   19  C   UNL     1      -5.201  -0.312 -33.492  1.00  0.00     0.175 A 
HETATM   20  S   UNL     1      -3.804  -1.241 -33.216  1.00  0.00    -0.050 SA
HETATM   21  C   UNL     1      -4.612  -2.620 -33.864  1.00  0.00     0.037 A 
HETATM   22  C   UNL     1      -5.909  -2.252 -34.234  1.00  0.00     0.076 A 
HETATM   23  C   UNL     1      -4.131  -3.928 -34.035  1.00  0.00     0.021 A 
HETATM   24  N   UNL     1      -6.239  -0.922 -34.006  1.00  0.00    -0.223 NA
HETATM   25  C   UNL     1      -6.754  -3.230 -34.798  1.00  0.00     0.033 A 
HETATM   26  C   UNL     1      -6.284  -4.536 -34.975  1.00  0.00     0.002 A 
HETATM   27  C   UNL     1      -4.989  -4.878 -34.599  1.00  0.00     0.002 A 
ENDBRANCH   3  19
TORSDOF 5
ENDMDL
MODEL 2
REMARK VINA RESULT:      -8.0      4.671      8.369
REMARK  5 active torsions:
REMARK  status: ('A' for Active; 'I' for Inactive)
REMARK    1  A    between atoms: N_2  and  C_4 
REMARK    2  A    between atoms: C_4  and  C_5 
REMARK    3  A    between atoms: C_8  and  C_9 
REMARK    4  A    between atoms: C_9  and  N_10 
REMARK       I    between atoms: N_10  and  C_11 
REMARK       I    between atoms: C_11  and  N_12 
REMARK    5  A    between atoms: N_12  and  C_13 
ROOT
HETATM    1  N   UNL     1      -5.023   4.077 -34.688  1.00  0.00    -0.339 N 
HETATM    2  C   UNL     1      -6.240   4.212 -34.099  1.00  0.00     0.322 C 
HETATM    3  N   UNL     1      -6.899   3.082 -33.735  1.00  0.00    -0.287 N 
HETATM    4  O   UNL     1      -6.766   5.306 -33.902  1.00  0.00    -0.247 OA
HETATM    5  H   UNL     1      -4.660   3.133 -34.793  1.00  0.00     0.164 HD
HETATM    6  H   UNL     1      -7.802   3.216 -33.306  1.00  0.00     0.172 HD
ENDROOT
BRANCH   1   7
HETATM    7  C   UNL     1      -4.156   5.196 -34.965  1.00  0.00     0.162 C 
BRANCH   7   8
HETATM    8  C   UNL     1      -2.984   5.327 -34.017  1.00  0.00    -0.040 A 
HETATM    9  C   UNL     1      -2.123   6.430 -34.047  1.00  0.00     0.009 A 
HETATM   10  C   UNL     1      -1.104   6.575 -33.101  1.00  0.00     0.009 A 
HETATM   11  C   UNL     1      -0.937   5.624 -32.086  1.00  0.00    -0.033 A 
HETATM   12  C   UNL     1      -1.792   4.514 -32.052  1.00  0.00     0.009 A 
HETATM   13  C   UNL     1      -2.804   4.371 -33.006  1.00  0.00     0.009 A 
BRANCH  11  14
HETATM   14  C   UNL     1       0.099   5.827 -31.016  1.00  0.00     0.272 C 
BRANCH  14  15
HETATM   15  N   UNL     1      -0.487   5.807 -29.619  1.00  0.00    -0.075 N 
HETATM   16  C   UNL     1      -1.419   6.956 -29.354  1.00  0.00     0.269 C 
HETATM   17  H   UNL     1      -1.054   4.954 -29.559  1.00  0.00     0.279 HD
HETATM   18  C   UNL     1       0.582   5.709 -28.571  1.00  0.00     0.269 C 
ENDBRANCH  14  15
ENDBRANCH  11  14
ENDBRANCH   7   8
ENDBRANCH   1   7
BRANCH   3  19
HETATM   19  C   UNL     1      -6.419   1.807 -33.813  1.00  0.00     0.175 A 
HETATM   20  S   UNL     1      -7.322   0.775 -34.817  1.00  0.00    -0.050 SA
HETATM   21  C   UNL     1      -6.260  -0.523 -34.414  1.00  0.00     0.037 A 
HETATM   22  C   UNL     1      -5.279  -0.048 -33.538  1.00  0.00     0.076 A 
HETATM   23  C   UNL     1      -6.296  -1.860 -34.838  1.00  0.00     0.021 A 
HETATM   24  N   UNL     1      -5.376   1.298 -33.208  1.00  0.00    -0.223 NA
HETATM   25  C   UNL     1      -4.299  -0.947 -33.070  1.00  0.00     0.033 A 
HETATM   26  C   UNL     1      -4.328  -2.283 -33.484  1.00  0.00     0.002 A 
HETATM   27  C   UNL     1      -5.314  -2.732 -34.357  1.00  0.00     0.002 A 
ENDBRANCH   3  19
TORSDOF 5
ENDMDL
MODEL 3
REMARK VINA RESULT:      -7.8      3.825      7.698
REMARK  5 active torsions:
REMARK  status: ('A' for Active; 'I' for Inactive)
REMARK    1  A    between atoms: N_2  and  C_4 
REMARK    2  A    between atoms: C_4  and  C_5 
REMARK    3  A    between atoms: C_8  and  C_9 
REMARK    4  A    between atoms: C_9  and  N_10 
REMARK       I    between atoms: N_10  and  C_11 
REMARK       I    between atoms: C_11  and  N_12 
REMARK    5  A    between atoms: N_12  and  C_13 
ROOT
HETATM    1  N   UNL     1      -7.365   2.955 -32.660  1.00  0.00    -0.339 N 
HETATM    2  C   UNL     1      -8.106   3.914 -33.275  1.00  0.00     0.322 C 
HETATM    3  N   UNL     1      -7.459   5.007 -33.756  1.00  0.00    -0.287 N 
HETATM    4  O   UNL     1      -9.328   3.837 -33.393  1.00  0.00    -0.247 OA
HETATM    5  H   UNL     1      -6.358   3.097 -32.625  1.00  0.00     0.164 HD
HETATM    6  H   UNL     1      -8.038   5.702 -34.201  1.00  0.00     0.172 HD
ENDROOT
BRANCH   1   7
HETATM    7  C   UNL     1      -7.906   1.680 -32.259  1.00  0.00     0.162 C 
BRANCH   7   8
HETATM    8  C   UNL     1      -7.227   0.486 -32.893  1.00  0.00    -0.040 A 
HETATM    9  C   UNL     1      -7.621  -0.020 -34.137  1.00  0.00     0.009 A 
HETATM   10  C   UNL     1      -6.920  -1.064 -34.747  1.00  0.00     0.009 A 
HETATM   11  C   UNL     1      -5.788  -1.613 -34.130  1.00  0.00    -0.033 A 
HETATM   12  C   UNL     1      -5.389  -1.116 -32.882  1.00  0.00     0.009 A 
HETATM   13  C   UNL     1      -6.101  -0.076 -32.274  1.00  0.00     0.009 A 
BRANCH  11  14
HETATM   14  C   UNL     1      -4.981  -2.673 -34.826  1.00  0.00     0.272 C 
BRANCH  14  15
HETATM   15  N   UNL     1      -5.406  -4.077 -34.451  1.00  0.00    -0.075 N 
HETATM   16  C   UNL     1      -4.246  -4.982 -34.139  1.00  0.00     0.269 C 
HETATM   17  H   UNL     1      -5.947  -3.989 -33.583  1.00  0.00     0.279 HD
HETATM   18  C   UNL     1      -6.312  -4.678 -35.485  1.00  0.00     0.269 C 
ENDBRANCH  14  15
ENDBRANCH  11  14
ENDBRANCH   7   8
ENDBRANCH   1   7
BRANCH   3  19
HETATM   19  C   UNL     1      -6.109   5.203 -33.773  1.00  0.00     0.175 A 
HETATM   20  S   UNL     1      -5.525   6.194 -32.522  1.00  0.00    -0.050 SA
HETATM   21  C   UNL     1      -3.932   6.040 -33.163  1.00  0.00     0.037 A 
HETATM   22  C   UNL     1      -3.977   5.220 -34.295  1.00  0.00     0.076 A 
HETATM   23  C   UNL     1      -2.733   6.607 -32.701  1.00  0.00     0.021 A 
HETATM   24  N   UNL     1      -5.236   4.737 -34.630  1.00  0.00    -0.223 NA
HETATM   25  C   UNL     1      -2.778   4.960 -34.990  1.00  0.00     0.033 A 
HETATM   26  C   UNL     1      -1.578   5.522 -34.539  1.00  0.00     0.002 A 
HETATM   27  C   UNL     1      -1.558   6.335 -33.410  1.00  0.00     0.002 A 
ENDBRANCH   3  19
TORSDOF 5
ENDMDL
MODEL 4
REMARK VINA RESULT:      -7.6      5.341      8.946
REMARK  5 active torsions:
REMARK  status: ('A' for Active; 'I' for Inactive)
REMARK    1  A    between atoms: N_2  and  C_4 
REMARK    2  A    between atoms: C_4  and  C_5 
REMARK    3  A    between atoms: C_8  and  C_9 
REMARK    4  A    between atoms: C_9  and  N_10 
REMARK       I    between atoms: N_10  and  C_11 
REMARK       I    between atoms: C_11  and  N_12 
REMARK    5  A    between atoms: N_12  and  C_13 
ROOT
HETATM    1  N   UNL     1      -4.416   4.789 -34.306  1.00  0.00    -0.339 N 
HETATM    2  C   UNL     1      -5.389   5.233 -33.467  1.00  0.00     0.322 C 
HETATM    3  N   UNL     1      -6.323   4.341 -33.048  1.00  0.00    -0.287 N 
HETATM    4  O   UNL     1      -5.462   6.403 -33.094  1.00  0.00    -0.247 OA
HETATM    5  H   UNL     1      -4.426   3.800 -34.546  1.00  0.00     0.164 HD
HETATM    6  H   UNL     1      -7.034   4.704 -32.431  1.00  0.00     0.172 HD
ENDROOT
BRANCH   1   7
HETATM    7  C   UNL     1      -3.279   5.591 -34.686  1.00  0.00     0.162 C 
BRANCH   7   8
HETATM    8  C   UNL     1      -2.254   5.780 -33.588  1.00  0.00    -0.040 A 
HETATM    9  C   UNL     1      -1.647   7.017 -33.343  1.00  0.00     0.009 A 
HETATM   10  C   UNL     1      -0.774   7.190 -32.265  1.00  0.00     0.009 A 
HETATM   11  C   UNL     1      -0.506   6.128 -31.392  1.00  0.00    -0.033 A 
HETATM   12  C   UNL     1      -1.106   4.885 -31.633  1.00  0.00     0.009 A 
HETATM   13  C   UNL     1      -1.972   4.716 -32.718  1.00  0.00     0.009 A 
BRANCH  11  14
HETATM   14  C   UNL     1       0.361   6.339 -30.181  1.00  0.00     0.272 C 
BRANCH  14  15
HETATM   15  N   UNL     1      -0.094   7.506 -29.329  1.00  0.00    -0.075 N 
HETATM   16  C   UNL     1       0.987   8.035 -28.427  1.00  0.00     0.269 C 
HETATM   17  H   UNL     1      -0.323   8.264 -29.982  1.00  0.00     0.279 HD
HETATM   18  C   UNL     1      -1.342   7.180 -28.563  1.00  0.00     0.269 C 
ENDBRANCH  14  15
ENDBRANCH  11  14
ENDBRANCH   7   8
ENDBRANCH   1   7
BRANCH   3  19
HETATM   19  C   UNL     1      -6.334   3.002 -33.308  1.00  0.00     0.175 A 
HETATM   20  S   UNL     1      -5.588   2.047 -32.114  1.00  0.00    -0.050 SA
HETATM   21  C   UNL     1      -5.910   0.641 -33.059  1.00  0.00     0.037 A 
HETATM   22  C   UNL     1      -6.583   1.023 -34.224  1.00  0.00     0.076 A 
HETATM   23  C   UNL     1      -5.587  -0.698 -32.791  1.00  0.00     0.021 A 
HETATM   24  N   UNL     1      -6.829   2.384 -34.351  1.00  0.00    -0.223 NA
HETATM   25  C   UNL     1      -6.943   0.026 -35.154  1.00  0.00     0.033 A 
HETATM   26  C   UNL     1      -6.623  -1.312 -34.897  1.00  0.00     0.002 A 
HETATM   27  C   UNL     1      -5.954  -1.667 -33.731  1.00  0.00     0.002 A 
ENDBRANCH   3  19
TORSDOF 5
ENDMDL
MODEL 5
REMARK VINA RESULT:      -7.4      1.286      1.933
REMARK  5 active torsions:
REMARK  status: ('A' for Active; 'I' for Inactive)
REMARK    1  A    between atoms: N_2  and  C_4 
REMARK    2  A    between atoms: C_4  and  C_5 
REMARK    3  A    between atoms: C_8  and  C_9 
REMARK    4  A    between atoms: C_9  and  N_10 
REMARK       I    between atoms: N_10  and  C_11 
REMARK       I    between atoms: C_11  and  N_12 
REMARK    5  A    between atoms: N_12  and  C_13 
ROOT
HETATM    1  N   UNL     1      -5.945   0.937 -31.236  1.00  0.00    -0.339 N 
HETATM    2  C   UNL     1      -4.901   1.617 -31.779  1.00  0.00     0.322 C 
HETATM    3  N   UNL     1      -3.989   0.913 -32.497  1.00  0.00    -0.287 N 
HETATM    4  O   UNL     1      -4.746   2.828 -31.629  1.00  0.00    -0.247 OA
HETATM    5  H   UNL     1      -6.000  -0.061 -31.428  1.00  0.00     0.164 HD
HETATM    6  H   UNL     1      -3.223   1.446 -32.882  1.00  0.00     0.172 HD
ENDROOT
BRANCH   1   7
HETATM    7  C   UNL     1      -7.061   1.590 -30.598  1.00  0.00     0.162 C 
BRANCH   7   8
HETATM    8  C   UNL     1      -8.338   1.581 -31.412  1.00  0.00    -0.040 A 
HETATM    9  C   UNL     1      -9.049   2.754 -31.691  1.00  0.00     0.009 A 
HETATM   10  C   UNL     1     -10.172   2.735 -32.522  1.00  0.00     0.009 A 
HETATM   11  C   UNL     1     -10.598   1.538 -33.113  1.00  0.00    -0.033 A 
HETATM   12  C   UNL     1      -9.894   0.359 -32.834  1.00  0.00     0.009 A 
HETATM   13  C   UNL     1      -8.775   0.384 -31.995  1.00  0.00     0.009 A 
BRANCH  11  14
HETATM   14  C   UNL     1     -11.750   1.533 -34.078  1.00  0.00     0.272 C 
BRANCH  14  15
HETATM   15  N   UNL     1     -12.653   2.739 -33.922  1.00  0.00    -0.075 N 
HETATM   16  C   UNL     1     -13.993   2.401 -33.330  1.00  0.00     0.269 C 
HETATM   17  H   UNL     1     -12.187   3.360 -33.249  1.00  0.00     0.279 HD
HETATM   18  C   UNL     1     -12.793   3.498 -35.209  1.00  0.00     0.269 C 
ENDBRANCH  14  15
ENDBRANCH  11  14
ENDBRANCH   7   8
ENDBRANCH   1   7
BRANCH   3  19
HETATM   19  C   UNL     1      -4.062  -0.411 -32.818  1.00  0.00     0.175 A 
HETATM   20  S   UNL     1      -3.103  -1.425 -31.847  1.00  0.00    -0.050 SA
HETATM   21  C   UNL     1      -3.616  -2.781 -32.781  1.00  0.00     0.037 A 
HETATM   22  C   UNL     1      -4.503  -2.339 -33.769  1.00  0.00     0.076 A 
HETATM   23  C   UNL     1      -3.258  -4.132 -32.651  1.00  0.00     0.021 A 
HETATM   24  N   UNL     1      -4.758  -0.974 -33.774  1.00  0.00    -0.223 NA
HETATM   25  C   UNL     1      -5.048  -3.287 -34.660  1.00  0.00     0.033 A 
HETATM   26  C   UNL     1      -4.695  -4.636 -34.540  1.00  0.00     0.002 A 
HETATM   27  C   UNL     1      -3.811  -5.051 -33.549  1.00  0.00     0.002 A 
ENDBRANCH   3  19
TORSDOF 5
ENDMDL
MODEL 6
REMARK VINA RESULT:      -7.3      4.173      7.809
REMARK  5 active torsions:
REMARK  status: ('A' for Active; 'I' for Inactive)
REMARK    1  A    between atoms: N_2  and  C_4 
REMARK    2  A    between atoms: C_4  and  C_5 
REMARK    3  A    between atoms: C_8  and  C_9 
REMARK    4  A    between atoms: C_9  and  N_10 
REMARK       I    between atoms: N_10  and  C_11 
REMARK       I    between atoms: C_11  and  N_12 
REMARK    5  A    between atoms: N_12  and  C_13 
ROOT
HETATM    1  N   UNL     1      -6.028   2.430 -31.844  1.00  0.00    -0.339 N 
HETATM    2  C   UNL     1      -5.911   2.748 -30.528  1.00  0.00     0.322 C 
HETATM    3  N   UNL     1      -4.948   3.638 -30.173  1.00  0.00    -0.287 N 
HETATM    4  O   UNL     1      -6.623   2.251 -29.658  1.00  0.00    -0.247 OA
HETATM    5  H   UNL     1      -5.407   2.905 -32.494  1.00  0.00     0.164 HD
HETATM    6  H   UNL     1      -4.883   3.848 -29.188  1.00  0.00     0.172 HD
ENDROOT
BRANCH   1   7
HETATM    7  C   UNL     1      -7.111   1.633 -32.367  1.00  0.00     0.162 C 
BRANCH   7   8
HETATM    8  C   UNL     1      -6.669   0.387 -33.104  1.00  0.00    -0.040 A 
HETATM    9  C   UNL     1      -7.293  -0.041 -34.282  1.00  0.00     0.009 A 
HETATM   10  C   UNL     1      -6.809  -1.140 -34.996  1.00  0.00     0.009 A 
HETATM   11  C   UNL     1      -5.670  -1.827 -34.555  1.00  0.00    -0.033 A 
HETATM   12  C   UNL     1      -5.042  -1.408 -33.374  1.00  0.00     0.009 A 
HETATM   13  C   UNL     1      -5.537  -0.312 -32.660  1.00  0.00     0.009 A 
BRANCH  11  14
HETATM   14  C   UNL     1      -5.096  -2.952 -35.371  1.00  0.00     0.272 C 
BRANCH  14  15
HETATM   15  N   UNL     1      -5.700  -4.297 -35.024  1.00  0.00    -0.075 N 
HETATM   16  C   UNL     1      -7.062  -4.188 -34.396  1.00  0.00     0.269 C 
HETATM   17  H   UNL     1      -5.830  -4.790 -35.915  1.00  0.00     0.279 HD
HETATM   18  C   UNL     1      -4.769  -5.123 -34.186  1.00  0.00     0.269 C 
ENDBRANCH  14  15
ENDBRANCH  11  14
ENDBRANCH   7   8
ENDBRANCH   1   7
BRANCH   3  19
HETATM   19  C   UNL     1      -4.136   4.331 -31.022  1.00  0.00     0.175 A 
HETATM   20  S   UNL     1      -4.042   5.998 -30.703  1.00  0.00    -0.050 SA
HETATM   21  C   UNL     1      -2.999   6.185 -32.063  1.00  0.00     0.037 A 
HETATM   22  C   UNL     1      -2.796   4.933 -32.653  1.00  0.00     0.076 A 
HETATM   23  C   UNL     1      -2.408   7.353 -32.571  1.00  0.00     0.021 A 
HETATM   24  N   UNL     1      -3.450   3.872 -32.038  1.00  0.00    -0.223 NA
HETATM   25  C   UNL     1      -1.973   4.850 -33.794  1.00  0.00     0.033 A 
HETATM   26  C   UNL     1      -1.381   6.008 -34.310  1.00  0.00     0.002 A 
HETATM   27  C   UNL     1      -1.598   7.242 -33.706  1.00  0.00     0.002 A 
ENDBRANCH   3  19
TORSDOF 5
ENDMDL
MODEL 7
REMARK VINA RESULT:      -7.2      3.934      7.198
REMARK  5 active torsions:
REMARK  status: ('A' for Active; 'I' for Inactive)
REMARK    1  A    between atoms: N_2  and  C_4 
REMARK    2  A    between atoms: C_4  and  C_5 
REMARK    3  A    between atoms: C_8  and  C_9 
REMARK    4  A    between atoms: C_9  and  N_10 
REMARK       I    between atoms: N_10  and  C_11 
REMARK       I    between atoms: C_11  and  N_12 
REMARK    5  A    between atoms: N_12  and  C_13 
ROOT
HETATM    1  N   UNL     1      -6.989   3.107 -33.297  1.00  0.00    -0.339 N 
HETATM    2  C   UNL     1      -7.314   2.887 -31.996  1.00  0.00     0.322 C 
HETATM    3  N   UNL     1      -7.232   1.615 -31.527  1.00  0.00    -0.287 N 
HETATM    4  O   UNL     1      -7.693   3.783 -31.244  1.00  0.00    -0.247 OA
HETATM    5  H   UNL     1      -6.668   2.308 -33.838  1.00  0.00     0.164 HD
HETATM    6  H   UNL     1      -7.485   1.484 -30.560  1.00  0.00     0.172 HD
ENDROOT
BRANCH   1   7
HETATM    7  C   UNL     1      -6.875   4.428 -33.866  1.00  0.00     0.162 C 
BRANCH   7   8
HETATM    8  C   UNL     1      -5.492   5.034 -33.764  1.00  0.00    -0.040 A 
HETATM    9  C   UNL     1      -4.532   4.869 -34.770  1.00  0.00     0.009 A 
HETATM   10  C   UNL     1      -3.295   5.514 -34.698  1.00  0.00     0.009 A 
HETATM   11  C   UNL     1      -2.998   6.362 -33.623  1.00  0.00    -0.033 A 
HETATM   12  C   UNL     1      -3.951   6.529 -32.610  1.00  0.00     0.009 A 
HETATM   13  C   UNL     1      -5.184   5.873 -32.684  1.00  0.00     0.009 A 
BRANCH  11  14
HETATM   14  C   UNL     1      -1.704   7.127 -33.592  1.00  0.00     0.272 C 
BRANCH  14  15
HETATM   15  N   UNL     1      -0.767   6.653 -32.500  1.00  0.00    -0.075 N 
HETATM   16  C   UNL     1      -0.845   5.171 -32.258  1.00  0.00     0.269 C 
HETATM   17  H   UNL     1       0.184   6.842 -32.838  1.00  0.00     0.279 HD
HETATM   18  C   UNL     1      -0.955   7.431 -31.231  1.00  0.00     0.269 C 
ENDBRANCH  14  15
ENDBRANCH  11  14
ENDBRANCH   7   8
ENDBRANCH   1   7
BRANCH   3  19
HETATM   19  C   UNL     1      -6.756   0.533 -32.208  1.00  0.00     0.175 A 
HETATM   20  S   UNL     1      -5.154   0.109 -31.828  1.00  0.00    -0.050 SA
HETATM   21  C   UNL     1      -5.231  -1.164 -32.989  1.00  0.00     0.037 A 
HETATM   22  C   UNL     1      -6.501  -1.167 -33.574  1.00  0.00     0.076 A 
HETATM   23  C   UNL     1      -4.239  -2.087 -33.356  1.00  0.00     0.021 A 
HETATM   24  N   UNL     1      -7.373  -0.190 -33.109  1.00  0.00    -0.223 NA
HETATM   25  C   UNL     1      -6.787  -2.129 -34.564  1.00  0.00     0.033 A 
HETATM   26  C   UNL     1      -5.804  -3.052 -34.939  1.00  0.00     0.002 A 
HETATM   27  C   UNL     1      -4.548  -3.030 -34.342  1.00  0.00     0.002 A 
ENDBRANCH   3  19
TORSDOF 5
ENDMDL
MODEL 8
REMARK VINA RESULT:      -7.2      4.804      8.639
REMARK  5 active torsions:
REMARK  status: ('A' for Active; 'I' for Inactive)
REMARK    1  A    between atoms: N_2  and  C_4 
REMARK    2  A    between atoms: C_4  and  C_5 
REMARK    3  A    between atoms: C_8  and  C_9 
REMARK    4  A    between atoms: C_9  and  N_10 
REMARK       I    between atoms: N_10  and  C_11 
REMARK       I    between atoms: C_11  and  N_12 
REMARK    5  A    between atoms: N_12  and  C_13 
ROOT
HETATM    1  N   UNL     1      -5.090   3.144 -32.016  1.00  0.00    -0.339 N 
HETATM    2  C   UNL     1      -5.346   3.855 -33.146  1.00  0.00     0.322 C 
HETATM    3  N   UNL     1      -4.547   4.918 -33.423  1.00  0.00    -0.287 N 
HETATM    4  O   UNL     1      -6.274   3.584 -33.907  1.00  0.00    -0.247 OA
HETATM    5  H   UNL     1      -4.290   3.431 -31.458  1.00  0.00     0.164 HD
HETATM    6  H   UNL     1      -4.767   5.427 -34.265  1.00  0.00     0.172 HD
ENDROOT
BRANCH   1   7
HETATM    7  C   UNL     1      -5.755   1.904 -31.701  1.00  0.00     0.162 C 
BRANCH   7   8
HETATM    8  C   UNL     1      -5.336   0.733 -32.564  1.00  0.00    -0.040 A 
HETATM    9  C   UNL     1      -4.061   0.163 -32.475  1.00  0.00     0.009 A 
HETATM   10  C   UNL     1      -3.726  -0.975 -33.214  1.00  0.00     0.009 A 
HETATM   11  C   UNL     1      -4.674  -1.583 -34.048  1.00  0.00    -0.033 A 
HETATM   12  C   UNL     1      -5.951  -1.015 -34.147  1.00  0.00     0.009 A 
HETATM   13  C   UNL     1      -6.276   0.129 -33.410  1.00  0.00     0.009 A 
BRANCH  11  14
HETATM   14  C   UNL     1      -4.343  -2.858 -34.773  1.00  0.00     0.272 C 
BRANCH  14  15
HETATM   15  N   UNL     1      -4.798  -4.094 -34.024  1.00  0.00    -0.075 N 
HETATM   16  C   UNL     1      -3.657  -4.961 -33.568  1.00  0.00     0.269 C 
HETATM   17  H   UNL     1      -5.263  -3.757 -33.173  1.00  0.00     0.279 HD
HETATM   18  C   UNL     1      -5.808  -4.878 -34.808  1.00  0.00     0.269 C 
ENDBRANCH  14  15
ENDBRANCH  11  14
ENDBRANCH   7   8
ENDBRANCH   1   7
BRANCH   3  19
HETATM   19  C   UNL     1      -3.437   5.296 -32.726  1.00  0.00     0.175 A 
HETATM   20  S   UNL     1      -3.585   6.787 -31.922  1.00  0.00    -0.050 SA
HETATM   21  C   UNL     1      -1.957   6.636 -31.373  1.00  0.00     0.037 A 
HETATM   22  C   UNL     1      -1.430   5.431 -31.849  1.00  0.00     0.076 A 
HETATM   23  C   UNL     1      -1.203   7.519 -30.585  1.00  0.00     0.021 A 
HETATM   24  N   UNL     1      -2.296   4.664 -32.619  1.00  0.00    -0.223 NA
HETATM   25  C   UNL     1      -0.098   5.101 -31.524  1.00  0.00     0.033 A 
HETATM   26  C   UNL     1       0.663   5.976 -30.741  1.00  0.00     0.002 A 
HETATM   27  C   UNL     1       0.116   7.168 -30.278  1.00  0.00     0.002 A 
ENDBRANCH   3  19
TORSDOF 5
ENDMDL
MODEL 9
REMARK VINA RESULT:      -7.1      4.071      7.712
REMARK  5 active torsions:
REMARK  status: ('A' for Active; 'I' for Inactive)
REMARK    1  A    between atoms: N_2  and  C_4 
REMARK    2  A    between atoms: C_4  and  C_5 
REMARK    3  A    between atoms: C_8  and  C_9 
REMARK    4  A    between atoms: C_9  and  N_10 
REMARK       I    between atoms: N_10  and  C_11 
REMARK       I    between atoms: C_11  and  N_12 
REMARK    5  A    between atoms: N_12  and  C_13 
ROOT
HETATM    1  N   UNL     1      -7.133   3.203 -31.834  1.00  0.00    -0.339 N 
HETATM    2  C   UNL     1      -8.002   2.615 -30.970  1.00  0.00     0.322 C 
HETATM    3  N   UNL     1      -8.158   1.268 -31.045  1.00  0.00    -0.287 N 
HETATM    4  O   UNL     1      -8.656   3.253 -30.146  1.00  0.00    -0.247 OA
HETATM    5  H   UNL     1      -6.623   2.593 -32.468  1.00  0.00     0.164 HD
HETATM    6  H   UNL     1      -8.814   0.863 -30.394  1.00  0.00     0.172 HD
ENDROOT
BRANCH   1   7
HETATM    7  C   UNL     1      -6.756   4.592 -31.745  1.00  0.00     0.162 C 
BRANCH   7   8
HETATM    8  C   UNL     1      -5.283   4.824 -31.486  1.00  0.00    -0.040 A 
HETATM    9  C   UNL     1      -4.339   3.796 -31.593  1.00  0.00     0.009 A 
HETATM   10  C   UNL     1      -2.974   4.052 -31.443  1.00  0.00     0.009 A 
HETATM   11  C   UNL     1      -2.519   5.355 -31.200  1.00  0.00    -0.033 A 
HETATM   12  C   UNL     1      -3.457   6.389 -31.087  1.00  0.00     0.009 A 
HETATM   13  C   UNL     1      -4.823   6.124 -31.231  1.00  0.00     0.009 A 
BRANCH  11  14
HETATM   14  C   UNL     1      -1.045   5.646 -31.129  1.00  0.00     0.272 C 
BRANCH  14  15
HETATM   15  N   UNL     1      -0.454   5.351 -29.766  1.00  0.00    -0.075 N 
HETATM   16  C   UNL     1      -0.478   6.538 -28.843  1.00  0.00     0.269 C 
HETATM   17  H   UNL     1      -1.060   4.640 -29.339  1.00  0.00     0.279 HD
HETATM   18  C   UNL     1       0.922   4.762 -29.873  1.00  0.00     0.269 C 
ENDBRANCH  14  15
ENDBRANCH  11  14
ENDBRANCH   7   8
ENDBRANCH   1   7
BRANCH   3  19
HETATM   19  C   UNL     1      -7.452   0.416 -31.844  1.00  0.00     0.175 A 
HETATM   20  S   UNL     1      -8.336  -0.219 -33.149  1.00  0.00    -0.050 SA
HETATM   21  C   UNL     1      -6.956  -1.141 -33.616  1.00  0.00     0.037 A 
HETATM   22  C   UNL     1      -5.911  -0.873 -32.726  1.00  0.00     0.076 A 
HETATM   23  C   UNL     1      -6.810  -2.037 -34.687  1.00  0.00     0.021 A 
HETATM   24  N   UNL     1      -6.207   0.033 -31.715  1.00  0.00    -0.223 NA
HETATM   25  C   UNL     1      -4.677  -1.528 -32.915  1.00  0.00     0.033 A 
HETATM   26  C   UNL     1      -4.522  -2.425 -33.979  1.00  0.00     0.002 A 
HETATM   27  C   UNL     1      -5.576  -2.674 -34.851  1.00  0.00     0.002 A 
ENDBRANCH   3  19
TORSDOF 5
ENDMDL
MODEL 10
REMARK VINA RESULT:      -6.9     14.513     18.370
REMARK  5 active torsions:
REMARK  status: ('A' for Active; 'I' for Inactive)
REMARK    1  A    between atoms: N_2  and  C_4 
REMARK    2  A    between atoms: C_4  and  C_5 
REMARK    3  A    between atoms: C_8  and  C_9 
REMARK    4  A    between atoms: C_9  and  N_10 
REMARK       I    between atoms: N_10  and  C_11 
REMARK       I    between atoms: C_11  and  N_12 
REMARK    5  A    between atoms: N_12  and  C_13 
ROOT
HETATM    1  N   UNL     1      -2.893 -13.549 -39.841  1.00  0.00    -0.339 N 
HETATM    2  C   UNL     1      -2.645 -12.930 -38.656  1.00  0.00     0.322 C 
HETATM    3  N   UNL     1      -3.703 -12.427 -37.969  1.00  0.00    -0.287 N 
HETATM    4  O   UNL     1      -1.511 -12.795 -38.201  1.00  0.00    -0.247 OA
HETATM    5  H   UNL     1      -3.866 -13.629 -40.128  1.00  0.00     0.164 HD
HETATM    6  H   UNL     1      -3.484 -11.969 -37.097  1.00  0.00     0.172 HD
ENDROOT
BRANCH   1   7
HETATM    7  C   UNL     1      -1.884 -14.266 -40.579  1.00  0.00     0.162 C 
BRANCH   7   8
HETATM    8  C   UNL     1      -2.415 -15.062 -41.752  1.00  0.00    -0.040 A 
HETATM    9  C   UNL     1      -3.421 -14.568 -42.591  1.00  0.00     0.009 A 
HETATM   10  C   UNL     1      -3.831 -15.279 -43.721  1.00  0.00     0.009 A 
HETATM   11  C   UNL     1      -3.224 -16.498 -44.052  1.00  0.00    -0.033 A 
HETATM   12  C   UNL     1      -2.219 -17.002 -43.215  1.00  0.00     0.009 A 
HETATM   13  C   UNL     1      -1.820 -16.289 -42.080  1.00  0.00     0.009 A 
BRANCH  11  14
HETATM   14  C   UNL     1      -3.600 -17.218 -45.317  1.00  0.00     0.272 C 
BRANCH  14  15
HETATM   15  N   UNL     1      -3.352 -16.390 -46.560  1.00  0.00    -0.075 N 
HETATM   16  C   UNL     1      -4.584 -16.208 -47.403  1.00  0.00     0.269 C 
HETATM   17  H   UNL     1      -3.085 -15.455 -46.232  1.00  0.00     0.279 HD
HETATM   18  C   UNL     1      -2.206 -16.927 -47.365  1.00  0.00     0.269 C 
ENDBRANCH  14  15
ENDBRANCH  11  14
ENDBRANCH   7   8
ENDBRANCH   1   7
BRANCH   3  19
HETATM   19  C   UNL     1      -5.020 -12.564 -38.299  1.00  0.00     0.175 A 
HETATM   20  S   UNL     1      -5.935 -13.462 -37.183  1.00  0.00    -0.050 SA
HETATM   21  C   UNL     1      -7.322 -13.272 -38.191  1.00  0.00     0.037 A 
HETATM   22  C   UNL     1      -6.966 -12.515 -39.311  1.00  0.00     0.076 A 
HETATM   23  C   UNL     1      -8.625 -13.761 -38.004  1.00  0.00     0.021 A 
HETATM   24  N   UNL     1      -5.639 -12.105 -39.357  1.00  0.00    -0.223 NA
HETATM   25  C   UNL     1      -7.952 -12.239 -40.281  1.00  0.00     0.033 A 
HETATM   26  C   UNL     1      -9.253 -12.723 -40.106  1.00  0.00     0.002 A 
HETATM   27  C   UNL     1      -9.583 -13.474 -38.983  1.00  0.00     0.002 A 
ENDBRANCH   3  19
TORSDOF 5
ENDMDL
