MODEL 1
REMARK VINA RESULT:      -8.5      0.000      0.000
REMARK  5 active torsions:
REMARK  status: ('A' for Active; 'I' for Inactive)
REMARK    1  A    between atoms: O_2  and  C_3 
REMARK    2  A    between atoms: C_4  and  C_5 
REMARK    3  A    between atoms: C_6  and  C_7 
REMARK    4  A    between atoms: C_6  and  C_16 
REMARK       I    between atoms: C_7  and  N_8 
REMARK    5  A    between atoms: N_8  and  C_9 
ROOT
HETATM    1  C   UNL     1      -4.721  -0.091 -32.947  1.00  0.00     0.032 C 
HETATM    2  C   UNL     1      -5.694  -0.517 -33.780  1.00  0.00     0.043 C 
ENDROOT
BRANCH   2   3
HETATM    3  C   UNL     1      -6.869   0.273 -34.310  1.00  0.00     0.257 C 
HETATM    4  N   UNL     1      -7.892   0.488 -33.413  1.00  0.00    -0.323 N 
HETATM    5  H   UNL     1      -7.795   0.080 -32.495  1.00  0.00     0.169 HD
HETATM    6  O   UNL     1      -6.840   0.686 -35.467  1.00  0.00    -0.267 OA
BRANCH   4   7
HETATM    7  C   UNL     1      -9.098   1.185 -33.641  1.00  0.00     0.037 A 
HETATM    8  C   UNL     1      -9.165   2.491 -34.112  1.00  0.00     0.049 A 
HETATM    9  C   UNL     1     -10.414   3.067 -34.284  1.00  0.00     0.118 A 
HETATM   10  N   UNL     1     -11.579   2.433 -34.037  1.00  0.00    -0.273 NA
HETATM   11  C   UNL     1     -11.489   1.166 -33.585  1.00  0.00     0.118 A 
HETATM   12  C   UNL     1     -10.288   0.510 -33.364  1.00  0.00     0.049 A 
ENDBRANCH   4   7
ENDBRANCH   2   3
BRANCH   2  13
HETATM   13  C   UNL     1      -5.622  -1.953 -34.130  1.00  0.00    -0.021 A 
HETATM   14  C   UNL     1      -6.764  -2.635 -34.570  1.00  0.00     0.012 A 
HETATM   15  C   UNL     1      -6.703  -4.000 -34.856  1.00  0.00     0.001 A 
HETATM   16  C   UNL     1      -5.502  -4.691 -34.704  1.00  0.00     0.000 A 
HETATM   17  C   UNL     1      -4.360  -4.017 -34.270  1.00  0.00     0.001 A 
HETATM   18  C   UNL     1      -4.418  -2.654 -33.981  1.00  0.00     0.012 A 
ENDBRANCH   2  13
BRANCH   1  19
HETATM   19  C   UNL     1      -4.523   1.239 -32.364  1.00  0.00    -0.002 A 
HETATM   20  C   UNL     1      -5.360   1.733 -31.350  1.00  0.00     0.078 A 
HETATM   21  C   UNL     1      -5.117   2.979 -30.771  1.00  0.00     0.037 A 
HETATM   22  C   UNL     1      -4.061   3.763 -31.228  1.00  0.00     0.003 A 
HETATM   23  C   UNL     1      -3.235   3.292 -32.247  1.00  0.00     0.001 A 
HETATM   24  C   UNL     1      -3.462   2.033 -32.809  1.00  0.00     0.014 A 
BRANCH  20  25
HETATM   25  O   UNL     1      -6.355   0.974 -30.791  1.00  0.00    -0.355 OA
HETATM   26  C   UNL     1      -5.960   0.439 -29.527  1.00  0.00     0.210 C 
ENDBRANCH  20  25
ENDBRANCH   1  19
TORSDOF 5
ENDMDL
MODEL 2
REMARK VINA RESULT:      -8.1      1.015      1.854
REMARK  5 active torsions:
REMARK  status: ('A' for Active; 'I' for Inactive)
REMARK    1  A    between atoms: O_2  and  C_3 
REMARK    2  A    between atoms: C_4  and  C_5 
REMARK    3  A    between atoms: C_6  and  C_7 
REMARK    4  A    between atoms: C_6  and  C_16 
REMARK       I    between atoms: C_7  and  N_8 
REMARK    5  A    between atoms: N_8  and  C_9 
ROOT
HETATM    1  C   UNL     1      -5.493  -0.077 -32.279  1.00  0.00     0.032 C 
HETATM    2  C   UNL     1      -6.192  -0.395 -33.389  1.00  0.00     0.043 C 
ENDROOT
BRANCH   2   3
HETATM    3  C   UNL     1      -7.253   0.429 -34.082  1.00  0.00     0.257 C 
HETATM    4  N   UNL     1      -8.406   0.639 -33.358  1.00  0.00    -0.323 N 
HETATM    5  H   UNL     1      -8.466   0.206 -32.449  1.00  0.00     0.169 HD
HETATM    6  O   UNL     1      -7.030   0.871 -35.206  1.00  0.00    -0.267 OA
BRANCH   4   7
HETATM    7  C   UNL     1      -9.549   1.363 -33.761  1.00  0.00     0.037 A 
HETATM    8  C   UNL     1      -9.511   2.653 -34.278  1.00  0.00     0.049 A 
HETATM    9  C   UNL     1     -10.707   3.260 -34.627  1.00  0.00     0.118 A 
HETATM   10  N   UNL     1     -11.916   2.670 -34.510  1.00  0.00    -0.273 NA
HETATM   11  C   UNL     1     -11.927   1.418 -34.010  1.00  0.00     0.118 A 
HETATM   12  C   UNL     1     -10.787   0.734 -33.617  1.00  0.00     0.049 A 
ENDBRANCH   4   7
ENDBRANCH   2   3
BRANCH   2  13
HETATM   13  C   UNL     1      -5.927  -1.752 -33.917  1.00  0.00    -0.021 A 
HETATM   14  C   UNL     1      -6.978  -2.546 -34.394  1.00  0.00     0.012 A 
HETATM   15  C   UNL     1      -6.731  -3.842 -34.850  1.00  0.00     0.001 A 
HETATM   16  C   UNL     1      -5.433  -4.352 -34.831  1.00  0.00     0.000 A 
HETATM   17  C   UNL     1      -4.381  -3.565 -34.361  1.00  0.00     0.001 A 
HETATM   18  C   UNL     1      -4.625  -2.270 -33.904  1.00  0.00     0.012 A 
ENDBRANCH   2  13
BRANCH   1  19
HETATM   19  C   UNL     1      -5.547   1.147 -31.474  1.00  0.00    -0.002 A 
HETATM   20  C   UNL     1      -4.603   2.175 -31.630  1.00  0.00     0.078 A 
HETATM   21  C   UNL     1      -4.707   3.355 -30.892  1.00  0.00     0.037 A 
HETATM   22  C   UNL     1      -5.733   3.503 -29.961  1.00  0.00     0.003 A 
HETATM   23  C   UNL     1      -6.665   2.482 -29.784  1.00  0.00     0.001 A 
HETATM   24  C   UNL     1      -6.576   1.311 -30.541  1.00  0.00     0.014 A 
BRANCH  20  25
HETATM   25  O   UNL     1      -3.628   2.131 -32.593  1.00  0.00    -0.355 OA
HETATM   26  C   UNL     1      -2.914   3.365 -32.671  1.00  0.00     0.210 C 
ENDBRANCH  20  25
ENDBRANCH   1  19
TORSDOF 5
ENDMDL
MODEL 3
REMARK VINA RESULT:      -7.9      1.603      5.264
REMARK  5 active torsions:
REMARK  status: ('A' for Active; 'I' for Inactive)
REMARK    1  A    between atoms: O_2  and  C_3 
REMARK    2  A    between atoms: C_4  and  C_5 
REMARK    3  A    between atoms: C_6  and  C_7 
REMARK    4  A    between atoms: C_6  and  C_16 
REMARK       I    between atoms: C_7  and  N_8 
REMARK    5  A    between atoms: N_8  and  C_9 
ROOT
HETATM    1  C   UNL     1      -7.218   2.720 -33.129  1.00  0.00     0.032 C 
HETATM    2  C   UNL     1      -7.806   1.685 -33.766  1.00  0.00     0.043 C 
ENDROOT
BRANCH   2   3
HETATM    3  C   UNL     1      -7.135   0.512 -34.442  1.00  0.00     0.257 C 
HETATM    4  N   UNL     1      -6.805  -0.539 -33.615  1.00  0.00    -0.323 N 
HETATM    5  H   UNL     1      -7.004  -0.434 -32.631  1.00  0.00     0.169 HD
HETATM    6  O   UNL     1      -6.944   0.548 -35.655  1.00  0.00    -0.267 OA
BRANCH   4   7
HETATM    7  C   UNL     1      -6.172  -1.748 -33.978  1.00  0.00     0.037 A 
HETATM    8  C   UNL     1      -4.806  -1.978 -33.854  1.00  0.00     0.049 A 
HETATM    9  C   UNL     1      -4.305  -3.206 -34.256  1.00  0.00     0.118 A 
HETATM   10  N   UNL     1      -5.064  -4.206 -34.751  1.00  0.00    -0.273 NA
HETATM   11  C   UNL     1      -6.385  -3.960 -34.858  1.00  0.00     0.118 A 
HETATM   12  C   UNL     1      -6.978  -2.760 -34.499  1.00  0.00     0.049 A 
ENDBRANCH   4   7
ENDBRANCH   2   3
BRANCH   2  13
HETATM   13  C   UNL     1      -9.280   1.782 -33.870  1.00  0.00    -0.021 A 
HETATM   14  C   UNL     1     -10.093   0.721 -33.452  1.00  0.00     0.012 A 
HETATM   15  C   UNL     1     -11.479   0.798 -33.594  1.00  0.00     0.001 A 
HETATM   16  C   UNL     1     -12.061   1.935 -34.153  1.00  0.00     0.000 A 
HETATM   17  C   UNL     1     -11.257   2.998 -34.568  1.00  0.00     0.001 A 
HETATM   18  C   UNL     1      -9.871   2.923 -34.430  1.00  0.00     0.012 A 
ENDBRANCH   2  13
BRANCH   1  19
HETATM   19  C   UNL     1      -5.792   2.969 -32.897  1.00  0.00    -0.002 A 
HETATM   20  C   UNL     1      -5.050   2.205 -31.981  1.00  0.00     0.078 A 
HETATM   21  C   UNL     1      -3.681   2.423 -31.817  1.00  0.00     0.037 A 
HETATM   22  C   UNL     1      -3.048   3.434 -32.537  1.00  0.00     0.003 A 
HETATM   23  C   UNL     1      -3.778   4.211 -33.435  1.00  0.00     0.001 A 
HETATM   24  C   UNL     1      -5.144   3.976 -33.618  1.00  0.00     0.014 A 
BRANCH  20  25
HETATM   25  O   UNL     1      -5.591   1.137 -31.314  1.00  0.00    -0.355 OA
HETATM   26  C   UNL     1      -4.578   0.252 -30.834  1.00  0.00     0.210 C 
ENDBRANCH  20  25
ENDBRANCH   1  19
TORSDOF 5
ENDMDL
MODEL 4
REMARK VINA RESULT:      -7.7      1.687      2.350
REMARK  5 active torsions:
REMARK  status: ('A' for Active; 'I' for Inactive)
REMARK    1  A    between atoms: O_2  and  C_3 
REMARK    2  A    between atoms: C_4  and  C_5 
REMARK    3  A    between atoms: C_6  and  C_7 
REMARK    4  A    between atoms: C_6  and  C_16 
REMARK       I    between atoms: C_7  and  N_8 
REMARK    5  A    between atoms: N_8  and  C_9 
ROOT
HETATM    1  C   UNL     1      -5.568   1.415 -33.466  1.00  0.00     0.032 C 
HETATM    2  C   UNL     1      -6.568   0.511 -33.404  1.00  0.00     0.043 C 
ENDROOT
BRANCH   2   3
HETATM    3  C   UNL     1      -7.982   0.727 -32.917  1.00  0.00     0.257 C 
HETATM    4  N   UNL     1      -8.819   1.379 -33.796  1.00  0.00    -0.323 N 
HETATM    5  H   UNL     1      -8.421   1.686 -34.671  1.00  0.00     0.169 HD
HETATM    6  O   UNL     1      -8.305   0.306 -31.809  1.00  0.00    -0.267 OA
BRANCH   4   7
HETATM    7  C   UNL     1     -10.176   1.712 -33.598  1.00  0.00     0.037 A 
HETATM    8  C   UNL     1     -11.233   0.838 -33.824  1.00  0.00     0.049 A 
HETATM    9  C   UNL     1     -12.524   1.291 -33.601  1.00  0.00     0.118 A 
HETATM   10  N   UNL     1     -12.824   2.532 -33.162  1.00  0.00    -0.273 NA
HETATM   11  C   UNL     1     -11.782   3.360 -32.946  1.00  0.00     0.118 A 
HETATM   12  C   UNL     1     -10.459   3.006 -33.156  1.00  0.00     0.049 A 
ENDBRANCH   4   7
ENDBRANCH   2   3
BRANCH   2  13
HETATM   13  C   UNL     1      -6.180  -0.865 -33.787  1.00  0.00    -0.021 A 
HETATM   14  C   UNL     1      -4.863  -1.308 -33.605  1.00  0.00     0.012 A 
HETATM   15  C   UNL     1      -4.489  -2.591 -34.008  1.00  0.00     0.001 A 
HETATM   16  C   UNL     1      -5.428  -3.438 -34.595  1.00  0.00     0.000 A 
HETATM   17  C   UNL     1      -6.742  -3.006 -34.775  1.00  0.00     0.001 A 
HETATM   18  C   UNL     1      -7.119  -1.724 -34.375  1.00  0.00     0.012 A 
ENDBRANCH   2  13
BRANCH   1  19
HETATM   19  C   UNL     1      -5.588   2.838 -33.113  1.00  0.00    -0.002 A 
HETATM   20  C   UNL     1      -5.231   3.285 -31.830  1.00  0.00     0.078 A 
HETATM   21  C   UNL     1      -5.204   4.648 -31.534  1.00  0.00     0.037 A 
HETATM   22  C   UNL     1      -5.573   5.577 -32.504  1.00  0.00     0.003 A 
HETATM   23  C   UNL     1      -5.947   5.144 -33.776  1.00  0.00     0.001 A 
HETATM   24  C   UNL     1      -5.950   3.780 -34.080  1.00  0.00     0.014 A 
BRANCH  20  25
HETATM   25  O   UNL     1      -4.768   2.431 -30.863  1.00  0.00    -0.355 OA
HETATM   26  C   UNL     1      -5.789   2.108 -29.918  1.00  0.00     0.210 C 
ENDBRANCH  20  25
ENDBRANCH   1  19
TORSDOF 5
ENDMDL
MODEL 5
REMARK VINA RESULT:      -7.7      1.967      5.728
REMARK  5 active torsions:
REMARK  status: ('A' for Active; 'I' for Inactive)
REMARK    1  A    between atoms: O_2  and  C_3 
REMARK    2  A    between atoms: C_4  and  C_5 
REMARK    3  A    between atoms: C_6  and  C_7 
REMARK    4  A    between atoms: C_6  and  C_16 
REMARK       I    between atoms: C_7  and  N_8 
REMARK    5  A    between atoms: N_8  and  C_9 
ROOT
HETATM    1  C   UNL     1      -8.801   2.029 -32.412  1.00  0.00     0.032 C 
HETATM    2  C   UNL     1      -9.076   1.156 -33.404  1.00  0.00     0.043 C 
ENDROOT
BRANCH   2   3
HETATM    3  C   UNL     1      -8.106   0.274 -34.155  1.00  0.00     0.257 C 
HETATM    4  N   UNL     1      -7.544  -0.747 -33.421  1.00  0.00    -0.323 N 
HETATM    5  H   UNL     1      -7.794  -0.807 -32.445  1.00  0.00     0.169 HD
HETATM    6  O   UNL     1      -7.894   0.493 -35.345  1.00  0.00    -0.267 OA
BRANCH   4   7
HETATM    7  C   UNL     1      -6.611  -1.709 -33.866  1.00  0.00     0.037 A 
HETATM    8  C   UNL     1      -6.956  -2.860 -34.565  1.00  0.00     0.049 A 
HETATM    9  C   UNL     1      -5.945  -3.733 -34.938  1.00  0.00     0.118 A 
HETATM   10  N   UNL     1      -4.636  -3.528 -34.678  1.00  0.00    -0.273 NA
HETATM   11  C   UNL     1      -4.327  -2.403 -34.003  1.00  0.00     0.118 A 
HETATM   12  C   UNL     1      -5.267  -1.480 -33.572  1.00  0.00     0.049 A 
ENDBRANCH   4   7
ENDBRANCH   2   3
BRANCH   2  13
HETATM   13  C   UNL     1     -10.490   1.148 -33.844  1.00  0.00    -0.021 A 
HETATM   14  C   UNL     1     -10.960   2.114 -34.742  1.00  0.00     0.012 A 
HETATM   15  C   UNL     1     -12.303   2.131 -35.120  1.00  0.00     0.001 A 
HETATM   16  C   UNL     1     -13.185   1.182 -34.602  1.00  0.00     0.000 A 
HETATM   17  C   UNL     1     -12.723   0.215 -33.709  1.00  0.00     0.001 A 
HETATM   18  C   UNL     1     -11.381   0.197 -33.329  1.00  0.00     0.012 A 
ENDBRANCH   2  13
BRANCH   1  19
HETATM   19  C   UNL     1      -7.514   2.331 -31.780  1.00  0.00    -0.002 A 
HETATM   20  C   UNL     1      -6.663   3.331 -32.278  1.00  0.00     0.078 A 
HETATM   21  C   UNL     1      -5.468   3.639 -31.627  1.00  0.00     0.037 A 
HETATM   22  C   UNL     1      -5.090   2.922 -30.494  1.00  0.00     0.003 A 
HETATM   23  C   UNL     1      -5.917   1.914 -30.000  1.00  0.00     0.001 A 
HETATM   24  C   UNL     1      -7.126   1.623 -30.638  1.00  0.00     0.014 A 
BRANCH  20  25
HETATM   25  O   UNL     1      -7.020   4.135 -33.330  1.00  0.00    -0.355 OA
HETATM   26  C   UNL     1      -5.885   4.506 -34.114  1.00  0.00     0.210 C 
ENDBRANCH  20  25
ENDBRANCH   1  19
TORSDOF 5
ENDMDL
MODEL 6
REMARK VINA RESULT:      -7.5      1.801      2.815
REMARK  5 active torsions:
REMARK  status: ('A' for Active; 'I' for Inactive)
REMARK    1  A    between atoms: O_2  and  C_3 
REMARK    2  A    between atoms: C_4  and  C_5 
REMARK    3  A    between atoms: C_6  and  C_7 
REMARK    4  A    between atoms: C_6  and  C_16 
REMARK       I    between atoms: C_7  and  N_8 
REMARK    5  A    between atoms: N_8  and  C_9 
ROOT
HETATM    1  C   UNL     1      -5.765   1.575 -32.407  1.00  0.00     0.032 C 
HETATM    2  C   UNL     1      -6.746   0.709 -32.739  1.00  0.00     0.043 C 
ENDROOT
BRANCH   2   3
HETATM    3  C   UNL     1      -8.221   0.822 -32.435  1.00  0.00     0.257 C 
HETATM    4  N   UNL     1      -8.951   1.589 -33.316  1.00  0.00    -0.323 N 
HETATM    5  H   UNL     1      -8.447   2.036 -34.067  1.00  0.00     0.169 HD
HETATM    6  O   UNL     1      -8.680   0.227 -31.463  1.00  0.00    -0.267 OA
BRANCH   4   7
HETATM    7  C   UNL     1     -10.335   1.864 -33.269  1.00  0.00     0.037 A 
HETATM    8  C   UNL     1     -11.315   1.004 -33.753  1.00  0.00     0.049 A 
HETATM    9  C   UNL     1     -12.642   1.396 -33.657  1.00  0.00     0.118 A 
HETATM   10  N   UNL     1     -13.048   2.560 -33.107  1.00  0.00    -0.273 NA
HETATM   11  C   UNL     1     -12.079   3.374 -32.642  1.00  0.00     0.118 A 
HETATM   12  C   UNL     1     -10.726   3.080 -32.708  1.00  0.00     0.049 A 
ENDBRANCH   4   7
ENDBRANCH   2   3
BRANCH   2  13
HETATM   13  C   UNL     1      -6.277  -0.528 -33.404  1.00  0.00    -0.021 A 
HETATM   14  C   UNL     1      -7.172  -1.329 -34.124  1.00  0.00     0.012 A 
HETATM   15  C   UNL     1      -6.737  -2.518 -34.712  1.00  0.00     0.001 A 
HETATM   16  C   UNL     1      -5.405  -2.912 -34.584  1.00  0.00     0.000 A 
HETATM   17  C   UNL     1      -4.507  -2.117 -33.871  1.00  0.00     0.001 A 
HETATM   18  C   UNL     1      -4.940  -0.929 -33.281  1.00  0.00     0.012 A 
ENDBRANCH   2  13
BRANCH   1  19
HETATM   19  C   UNL     1      -5.866   2.855 -31.700  1.00  0.00    -0.002 A 
HETATM   20  C   UNL     1      -6.380   4.004 -32.325  1.00  0.00     0.078 A 
HETATM   21  C   UNL     1      -6.519   5.198 -31.615  1.00  0.00     0.037 A 
HETATM   22  C   UNL     1      -6.108   5.267 -30.286  1.00  0.00     0.003 A 
HETATM   23  C   UNL     1      -5.578   4.139 -29.661  1.00  0.00     0.001 A 
HETATM   24  C   UNL     1      -5.463   2.937 -30.364  1.00  0.00     0.014 A 
BRANCH  20  25
HETATM   25  O   UNL     1      -6.889   3.977 -33.597  1.00  0.00    -0.355 OA
HETATM   26  C   UNL     1      -7.779   5.069 -33.828  1.00  0.00     0.210 C 
ENDBRANCH  20  25
ENDBRANCH   1  19
TORSDOF 5
ENDMDL
MODEL 7
REMARK VINA RESULT:      -7.5     14.154     15.666
REMARK  5 active torsions:
REMARK  status: ('A' for Active; 'I' for Inactive)
REMARK    1  A    between atoms: O_2  and  C_3 
REMARK    2  A    between atoms: C_4  and  C_5 
REMARK    3  A    between atoms: C_6  and  C_7 
REMARK    4  A    between atoms: C_6  and  C_16 
REMARK       I    between atoms: C_7  and  N_8 
REMARK    5  A    between atoms: N_8  and  C_9 
ROOT
HETATM    1  C   UNL     1      -5.444 -12.951 -39.357  1.00  0.00     0.032 C 
HETATM    2  C   UNL     1      -6.400 -13.393 -38.512  1.00  0.00     0.043 C 
ENDROOT
BRANCH   2   3
HETATM    3  C   UNL     1      -6.211 -14.129 -37.206  1.00  0.00     0.257 C 
HETATM    4  N   UNL     1      -6.480 -13.398 -36.069  1.00  0.00    -0.323 N 
HETATM    5  H   UNL     1      -6.747 -12.433 -36.193  1.00  0.00     0.169 HD
HETATM    6  O   UNL     1      -5.860 -15.306 -37.226  1.00  0.00    -0.267 OA
BRANCH   4   7
HETATM    7  C   UNL     1      -6.384 -13.833 -34.730  1.00  0.00     0.037 A 
HETATM    8  C   UNL     1      -7.071 -14.926 -34.215  1.00  0.00     0.049 A 
HETATM    9  C   UNL     1      -6.898 -15.244 -32.877  1.00  0.00     0.118 A 
HETATM   10  N   UNL     1      -6.089 -14.564 -32.037  1.00  0.00    -0.273 NA
HETATM   11  C   UNL     1      -5.431 -13.511 -32.560  1.00  0.00     0.118 A 
HETATM   12  C   UNL     1      -5.551 -13.104 -33.880  1.00  0.00     0.049 A 
ENDBRANCH   4   7
ENDBRANCH   2   3
BRANCH   2  13
HETATM   13  C   UNL     1      -7.786 -13.194 -38.990  1.00  0.00    -0.021 A 
HETATM   14  C   UNL     1      -8.796 -14.098 -38.637  1.00  0.00     0.012 A 
HETATM   15  C   UNL     1     -10.093 -13.933 -39.127  1.00  0.00     0.001 A 
HETATM   16  C   UNL     1     -10.387 -12.864 -39.972  1.00  0.00     0.000 A 
HETATM   17  C   UNL     1      -9.388 -11.957 -40.325  1.00  0.00     0.001 A 
HETATM   18  C   UNL     1      -8.090 -12.121 -39.839  1.00  0.00     0.012 A 
ENDBRANCH   2  13
BRANCH   1  19
HETATM   19  C   UNL     1      -3.987 -13.033 -39.224  1.00  0.00    -0.002 A 
HETATM   20  C   UNL     1      -3.233 -13.980 -39.938  1.00  0.00     0.078 A 
HETATM   21  C   UNL     1      -1.841 -14.003 -39.839  1.00  0.00     0.037 A 
HETATM   22  C   UNL     1      -1.191 -13.107 -38.994  1.00  0.00     0.003 A 
HETATM   23  C   UNL     1      -1.929 -12.175 -38.266  1.00  0.00     0.001 A 
HETATM   24  C   UNL     1      -3.321 -12.135 -38.385  1.00  0.00     0.014 A 
BRANCH  20  25
HETATM   25  O   UNL     1      -3.803 -14.824 -40.856  1.00  0.00    -0.355 OA
HETATM   26  C   UNL     1      -3.285 -14.597 -42.167  1.00  0.00     0.210 C 
ENDBRANCH  20  25
ENDBRANCH   1  19
TORSDOF 5
ENDMDL
MODEL 8
REMARK VINA RESULT:      -7.5      1.531      2.296
REMARK  5 active torsions:
REMARK  status: ('A' for Active; 'I' for Inactive)
REMARK    1  A    between atoms: O_2  and  C_3 
REMARK    2  A    between atoms: C_4  and  C_5 
REMARK    3  A    between atoms: C_6  and  C_7 
REMARK    4  A    between atoms: C_6  and  C_16 
REMARK       I    between atoms: C_7  and  N_8 
REMARK    5  A    between atoms: N_8  and  C_9 
ROOT
HETATM    1  C   UNL     1      -3.613   1.383 -32.290  1.00  0.00     0.032 C 
HETATM    2  C   UNL     1      -4.577   0.631 -32.864  1.00  0.00     0.043 C 
ENDROOT
BRANCH   2   3
HETATM    3  C   UNL     1      -5.926   1.085 -33.369  1.00  0.00     0.257 C 
HETATM    4  N   UNL     1      -6.980   0.888 -32.504  1.00  0.00    -0.323 N 
HETATM    5  H   UNL     1      -6.779   0.433 -31.626  1.00  0.00     0.169 HD
HETATM    6  O   UNL     1      -6.006   1.607 -34.478  1.00  0.00    -0.267 OA
BRANCH   4   7
HETATM    7  C   UNL     1      -8.337   1.212 -32.720  1.00  0.00     0.037 A 
HETATM    8  C   UNL     1      -9.249   0.366 -33.342  1.00  0.00     0.049 A 
HETATM    9  C   UNL     1     -10.554   0.807 -33.504  1.00  0.00     0.118 A 
HETATM   10  N   UNL     1     -11.003   2.008 -33.081  1.00  0.00    -0.273 NA
HETATM   11  C   UNL     1     -10.101   2.808 -32.478  1.00  0.00     0.118 A 
HETATM   12  C   UNL     1      -8.772   2.464 -32.286  1.00  0.00     0.049 A 
ENDBRANCH   4   7
ENDBRANCH   2   3
BRANCH   2  13
HETATM   13  C   UNL     1      -4.281  -0.819 -32.911  1.00  0.00    -0.021 A 
HETATM   14  C   UNL     1      -3.461  -1.408 -31.940  1.00  0.00     0.012 A 
HETATM   15  C   UNL     1      -3.147  -2.766 -32.013  1.00  0.00     0.001 A 
HETATM   16  C   UNL     1      -3.650  -3.543 -33.057  1.00  0.00     0.000 A 
HETATM   17  C   UNL     1      -4.470  -2.963 -34.025  1.00  0.00     0.001 A 
HETATM   18  C   UNL     1      -4.784  -1.606 -33.956  1.00  0.00     0.012 A 
ENDBRANCH   2  13
BRANCH   1  19
HETATM   19  C   UNL     1      -3.601   2.826 -32.035  1.00  0.00    -0.002 A 
HETATM   20  C   UNL     1      -4.493   3.424 -31.130  1.00  0.00     0.078 A 
HETATM   21  C   UNL     1      -4.425   4.792 -30.861  1.00  0.00     0.037 A 
HETATM   22  C   UNL     1      -3.491   5.584 -31.525  1.00  0.00     0.003 A 
HETATM   23  C   UNL     1      -2.612   5.005 -32.440  1.00  0.00     0.001 A 
HETATM   24  C   UNL     1      -2.663   3.631 -32.690  1.00  0.00     0.014 A 
BRANCH  20  25
HETATM   25  O   UNL     1      -5.370   2.687 -30.376  1.00  0.00    -0.355 OA
HETATM   26  C   UNL     1      -6.327   3.522 -29.723  1.00  0.00     0.210 C 
ENDBRANCH  20  25
ENDBRANCH   1  19
TORSDOF 5
ENDMDL
MODEL 9
REMARK VINA RESULT:      -7.3     14.157     15.836
REMARK  5 active torsions:
REMARK  status: ('A' for Active; 'I' for Inactive)
REMARK    1  A    between atoms: O_2  and  C_3 
REMARK    2  A    between atoms: C_4  and  C_5 
REMARK    3  A    between atoms: C_6  and  C_7 
REMARK    4  A    between atoms: C_6  and  C_16 
REMARK       I    between atoms: C_7  and  N_8 
REMARK    5  A    between atoms: N_8  and  C_9 
ROOT
HETATM    1  C   UNL     1      -7.457 -13.609 -35.870  1.00  0.00     0.032 C 
HETATM    2  C   UNL     1      -6.942 -13.755 -37.109  1.00  0.00     0.043 C 
ENDROOT
BRANCH   2   3
HETATM    3  C   UNL     1      -5.568 -14.257 -37.487  1.00  0.00     0.257 C 
HETATM    4  N   UNL     1      -4.526 -13.403 -37.201  1.00  0.00    -0.323 N 
HETATM    5  H   UNL     1      -4.759 -12.508 -36.797  1.00  0.00     0.169 HD
HETATM    6  O   UNL     1      -5.455 -15.371 -37.992  1.00  0.00    -0.267 OA
BRANCH   4   7
HETATM    7  C   UNL     1      -3.152 -13.616 -37.448  1.00  0.00     0.037 A 
HETATM    8  C   UNL     1      -2.332 -14.408 -36.653  1.00  0.00     0.049 A 
HETATM    9  C   UNL     1      -0.995 -14.528 -36.998  1.00  0.00     0.118 A 
HETATM   10  N   UNL     1      -0.436 -13.933 -38.073  1.00  0.00    -0.273 NA
HETATM   11  C   UNL     1      -1.252 -13.173 -38.831  1.00  0.00     0.118 A 
HETATM   12  C   UNL     1      -2.597 -12.978 -38.558  1.00  0.00     0.049 A 
ENDBRANCH   4   7
ENDBRANCH   2   3
BRANCH   2  13
HETATM   13  C   UNL     1      -7.821 -13.280 -38.202  1.00  0.00    -0.021 A 
HETATM   14  C   UNL     1      -9.181 -13.613 -38.215  1.00  0.00     0.012 A 
HETATM   15  C   UNL     1      -9.997 -13.201 -39.270  1.00  0.00     0.001 A 
HETATM   16  C   UNL     1      -9.458 -12.454 -40.317  1.00  0.00     0.000 A 
HETATM   17  C   UNL     1      -8.105 -12.115 -40.308  1.00  0.00     0.001 A 
HETATM   18  C   UNL     1      -7.287 -12.527 -39.256  1.00  0.00     0.012 A 
ENDBRANCH   2  13
BRANCH   1  19
HETATM   19  C   UNL     1      -6.846 -13.922 -34.575  1.00  0.00    -0.002 A 
HETATM   20  C   UNL     1      -6.927 -15.206 -34.012  1.00  0.00     0.078 A 
HETATM   21  C   UNL     1      -6.289 -15.496 -32.805  1.00  0.00     0.037 A 
HETATM   22  C   UNL     1      -5.598 -14.494 -32.127  1.00  0.00     0.003 A 
HETATM   23  C   UNL     1      -5.526 -13.210 -32.667  1.00  0.00     0.001 A 
HETATM   24  C   UNL     1      -6.143 -12.927 -33.888  1.00  0.00     0.014 A 
BRANCH  20  25
HETATM   25  O   UNL     1      -7.509 -16.257 -34.672  1.00  0.00    -0.355 OA
HETATM   26  C   UNL     1      -6.533 -17.198 -35.122  1.00  0.00     0.210 C 
ENDBRANCH  20  25
ENDBRANCH   1  19
TORSDOF 5
ENDMDL
MODEL 10
REMARK VINA RESULT:      -7.3     14.373     16.798
REMARK  5 active torsions:
REMARK  status: ('A' for Active; 'I' for Inactive)
REMARK    1  A    between atoms: O_2  and  C_3 
REMARK    2  A    between atoms: C_4  and  C_5 
REMARK    3  A    between atoms: C_6  and  C_7 
REMARK    4  A    between atoms: C_6  and  C_16 
REMARK       I    between atoms: C_7  and  N_8 
REMARK    5  A    between atoms: N_8  and  C_9 
ROOT
HETATM    1  C   UNL     1      -8.474 -13.849 -37.752  1.00  0.00     0.032 C 
HETATM    2  C   UNL     1      -7.171 -13.492 -37.751  1.00  0.00     0.043 C 
ENDROOT
BRANCH   2   3
HETATM    3  C   UNL     1      -6.285 -13.227 -38.946  1.00  0.00     0.257 C 
HETATM    4  N   UNL     1      -5.850 -14.346 -39.621  1.00  0.00    -0.323 N 
HETATM    5  H   UNL     1      -6.126 -15.244 -39.253  1.00  0.00     0.169 HD
HETATM    6  O   UNL     1      -6.025 -12.066 -39.253  1.00  0.00    -0.267 OA
BRANCH   4   7
HETATM    7  C   UNL     1      -5.016 -14.389 -40.759  1.00  0.00     0.037 A 
HETATM    8  C   UNL     1      -3.628 -14.464 -40.704  1.00  0.00     0.049 A 
HETATM    9  C   UNL     1      -2.921 -14.489 -41.896  1.00  0.00     0.118 A 
HETATM   10  N   UNL     1      -3.497 -14.459 -43.117  1.00  0.00    -0.273 NA
HETATM   11  C   UNL     1      -4.843 -14.391 -43.144  1.00  0.00     0.118 A 
HETATM   12  C   UNL     1      -5.636 -14.343 -42.008  1.00  0.00     0.049 A 
ENDBRANCH   4   7
ENDBRANCH   2   3
BRANCH   2  13
HETATM   13  C   UNL     1      -6.545 -13.446 -36.411  1.00  0.00    -0.021 A 
HETATM   14  C   UNL     1      -5.151 -13.489 -36.277  1.00  0.00     0.012 A 
HETATM   15  C   UNL     1      -4.565 -13.491 -35.010  1.00  0.00     0.001 A 
HETATM   16  C   UNL     1      -5.368 -13.451 -33.870  1.00  0.00     0.000 A 
HETATM   17  C   UNL     1      -6.757 -13.405 -33.996  1.00  0.00     0.001 A 
HETATM   18  C   UNL     1      -7.346 -13.404 -35.261  1.00  0.00     0.012 A 
ENDBRANCH   2  13
BRANCH   1  19
HETATM   19  C   UNL     1      -9.376 -14.041 -38.890  1.00  0.00    -0.002 A 
HETATM   20  C   UNL     1      -9.505 -15.286 -39.527  1.00  0.00     0.078 A 
HETATM   21  C   UNL     1     -10.413 -15.460 -40.573  1.00  0.00     0.037 A 
HETATM   22  C   UNL     1     -11.170 -14.381 -41.021  1.00  0.00     0.003 A 
HETATM   23  C   UNL     1     -11.037 -13.135 -40.409  1.00  0.00     0.001 A 
HETATM   24  C   UNL     1     -10.147 -12.967 -39.345  1.00  0.00     0.014 A 
BRANCH  20  25
HETATM   25  O   UNL     1      -8.860 -16.408 -39.074  1.00  0.00    -0.355 OA
HETATM   26  C   UNL     1      -9.773 -17.485 -38.856  1.00  0.00     0.210 C 
ENDBRANCH  20  25
ENDBRANCH   1  19
TORSDOF 5
ENDMDL
