MODEL 1
REMARK VINA RESULT:      -8.9      0.000      0.000
REMARK  4 active torsions:
REMARK  status: ('A' for Active; 'I' for Inactive)
REMARK    1  A    between atoms: C_5  and  N_6 
REMARK       I    between atoms: N_6  and  C_7 
REMARK    2  A    between atoms: C_7  and  C_8 
REMARK    3  A    between atoms: C_12  and  O_13 
REMARK    4  A    between atoms: C_19  and  C_20 
ROOT
HETATM    1  C   UNL     1      -5.617   3.937 -34.215  1.00  0.00     0.015 C 
HETATM    2  C   UNL     1      -6.592   3.032 -33.439  1.00  0.00    -0.040 C 
HETATM    3  C   UNL     1      -6.720   3.589 -32.007  1.00  0.00     0.015 C 
HETATM    4  C   UNL     1      -6.047   1.589 -33.434  1.00  0.00     0.039 C 
HETATM    5  C   UNL     1      -6.982   0.590 -32.727  1.00  0.00     0.122 C 
HETATM    6  C   UNL     1      -8.428   0.799 -33.084  1.00  0.00     0.007 A 
HETATM    7  C   UNL     1      -8.895   1.942 -33.709  1.00  0.00     0.047 A 
HETATM    8  N   UNL     1     -10.202   2.131 -33.996  1.00  0.00    -0.237 NA
HETATM    9  C   UNL     1     -11.080   1.182 -33.610  1.00  0.00     0.133 A 
HETATM   10  N   UNL     1     -10.716   0.049 -32.983  1.00  0.00    -0.244 NA
HETATM   11  C   UNL     1      -9.406  -0.105 -32.720  1.00  0.00     0.130 A 
HETATM   12  C   UNL     1      -7.961   3.038 -34.155  1.00  0.00     0.069 C 
ENDROOT
BRANCH   5  13
HETATM   13  N   UNL     1      -6.562  -0.770 -33.031  1.00  0.00    -0.347 N 
HETATM   14  C   UNL     1      -6.473  -1.231 -34.322  1.00  0.00     0.270 C 
HETATM   15  O   UNL     1      -6.709  -0.523 -35.295  1.00  0.00    -0.266 OA
HETATM   16  H   UNL     1      -6.490  -1.430 -32.269  1.00  0.00     0.163 HD
BRANCH  14  17
HETATM   17  C   UNL     1      -6.072  -2.605 -34.458  1.00  0.00     0.122 A 
HETATM   18  N   UNL     1      -6.951  -3.563 -34.909  1.00  0.00    -0.270 N 
HETATM   19  H   UNL     1      -7.921  -3.419 -35.176  1.00  0.00     0.189 HD
HETATM   20  N   UNL     1      -6.419  -4.798 -34.996  1.00  0.00    -0.149 NA
HETATM   21  C   UNL     1      -5.177  -4.595 -34.589  1.00  0.00     0.183 A 
HETATM   22  C   UNL     1      -4.884  -3.279 -34.239  1.00  0.00     0.096 A 
BRANCH  21  23
HETATM   23  O   UNL     1      -4.394  -5.667 -34.580  1.00  0.00    -0.344 OA
HETATM   24  H   UNL     1      -4.503  -6.060 -35.463  1.00  0.00     0.219 HD
ENDBRANCH  21  23
ENDBRANCH  14  17
ENDBRANCH   5  13
BRANCH   9  25
HETATM   25  C   UNL     1     -12.549   1.370 -33.976  1.00  0.00     0.011 C 
HETATM   26  C   UNL     1     -12.631   1.827 -35.441  1.00  0.00     0.023 C 
HETATM   27  C   UNL     1     -13.339   0.057 -33.811  1.00  0.00     0.023 C 
HETATM   28  C   UNL     1     -13.203   2.434 -33.072  1.00  0.00     0.023 C 
ENDBRANCH   9  25
TORSDOF 4
ENDMDL
MODEL 2
REMARK VINA RESULT:      -8.3      2.657      6.788
REMARK  4 active torsions:
REMARK  status: ('A' for Active; 'I' for Inactive)
REMARK    1  A    between atoms: C_5  and  N_6 
REMARK       I    between atoms: N_6  and  C_7 
REMARK    2  A    between atoms: C_7  and  C_8 
REMARK    3  A    between atoms: C_12  and  O_13 
REMARK    4  A    between atoms: C_19  and  C_20 
ROOT
HETATM    1  C   UNL     1      -6.497   2.296 -29.825  1.00  0.00     0.015 C 
HETATM    2  C   UNL     1      -6.613   1.817 -31.285  1.00  0.00    -0.040 C 
HETATM    3  C   UNL     1      -5.821   2.798 -32.171  1.00  0.00     0.015 C 
HETATM    4  C   UNL     1      -8.102   1.773 -31.685  1.00  0.00     0.039 C 
HETATM    5  C   UNL     1      -8.329   1.250 -33.116  1.00  0.00     0.122 C 
HETATM    6  C   UNL     1      -7.474   0.056 -33.439  1.00  0.00     0.007 A 
HETATM    7  C   UNL     1      -6.389  -0.327 -32.670  1.00  0.00     0.047 A 
HETATM    8  N   UNL     1      -5.609  -1.384 -32.989  1.00  0.00    -0.237 NA
HETATM    9  C   UNL     1      -5.883  -2.053 -34.127  1.00  0.00     0.133 A 
HETATM   10  N   UNL     1      -6.906  -1.740 -34.942  1.00  0.00    -0.244 NA
HETATM   11  C   UNL     1      -7.662  -0.685 -34.589  1.00  0.00     0.130 A 
HETATM   12  C   UNL     1      -6.032   0.389 -31.392  1.00  0.00     0.069 C 
ENDROOT
BRANCH   5  13
HETATM   13  N   UNL     1      -9.740   0.947 -33.306  1.00  0.00    -0.347 N 
HETATM   14  C   UNL     1     -10.560   1.748 -34.064  1.00  0.00     0.270 C 
HETATM   15  O   UNL     1     -10.152   2.745 -34.649  1.00  0.00    -0.266 OA
HETATM   16  H   UNL     1     -10.154   0.221 -32.737  1.00  0.00     0.163 HD
BRANCH  14  17
HETATM   17  C   UNL     1     -11.934   1.332 -34.131  1.00  0.00     0.122 A 
HETATM   18  N   UNL     1     -12.398   0.278 -33.377  1.00  0.00    -0.270 N 
HETATM   19  H   UNL     1     -11.858  -0.292 -32.733  1.00  0.00     0.189 HD
HETATM   20  N   UNL     1     -13.712   0.024 -33.541  1.00  0.00    -0.149 NA
HETATM   21  C   UNL     1     -14.067   0.948 -34.418  1.00  0.00     0.183 A 
HETATM   22  C   UNL     1     -13.036   1.789 -34.832  1.00  0.00     0.096 A 
BRANCH  21  23
HETATM   23  O   UNL     1     -15.348   0.944 -34.770  1.00  0.00    -0.344 OA
HETATM   24  H   UNL     1     -15.659   0.048 -34.553  1.00  0.00     0.219 HD
ENDBRANCH  21  23
ENDBRANCH  14  17
ENDBRANCH   5  13
BRANCH   9  25
HETATM   25  C   UNL     1      -5.035  -3.277 -34.464  1.00  0.00     0.011 C 
HETATM   26  C   UNL     1      -4.305  -3.012 -35.791  1.00  0.00     0.023 C 
HETATM   27  C   UNL     1      -3.994  -3.556 -33.362  1.00  0.00     0.023 C 
HETATM   28  C   UNL     1      -5.920  -4.529 -34.608  1.00  0.00     0.023 C 
ENDBRANCH   9  25
TORSDOF 4
ENDMDL
MODEL 3
REMARK VINA RESULT:      -8.2      3.431      7.025
REMARK  4 active torsions:
REMARK  status: ('A' for Active; 'I' for Inactive)
REMARK    1  A    between atoms: C_5  and  N_6 
REMARK       I    between atoms: N_6  and  C_7 
REMARK    2  A    between atoms: C_7  and  C_8 
REMARK    3  A    between atoms: C_12  and  O_13 
REMARK    4  A    between atoms: C_19  and  C_20 
ROOT
HETATM    1  C   UNL     1     -10.337   1.849 -33.044  1.00  0.00     0.015 C 
HETATM    2  C   UNL     1      -8.949   1.260 -32.728  1.00  0.00    -0.040 C 
HETATM    3  C   UNL     1      -8.937   0.842 -31.244  1.00  0.00     0.015 C 
HETATM    4  C   UNL     1      -7.871   2.324 -33.021  1.00  0.00     0.039 C 
HETATM    5  C   UNL     1      -6.437   1.812 -32.789  1.00  0.00     0.122 C 
HETATM    6  C   UNL     1      -6.224   0.422 -33.323  1.00  0.00     0.007 A 
HETATM    7  C   UNL     1      -7.264  -0.416 -33.685  1.00  0.00     0.047 A 
HETATM    8  N   UNL     1      -7.061  -1.674 -34.135  1.00  0.00    -0.237 NA
HETATM    9  C   UNL     1      -5.794  -2.133 -34.183  1.00  0.00     0.133 A 
HETATM   10  N   UNL     1      -4.725  -1.394 -33.835  1.00  0.00    -0.244 NA
HETATM   11  C   UNL     1      -4.967  -0.146 -33.398  1.00  0.00     0.130 A 
HETATM   12  C   UNL     1      -8.700   0.042 -33.644  1.00  0.00     0.069 C 
ENDROOT
BRANCH   5  13
HETATM   13  N   UNL     1      -5.485   2.746 -33.374  1.00  0.00    -0.347 N 
HETATM   14  C   UNL     1      -4.583   3.440 -32.605  1.00  0.00     0.270 C 
HETATM   15  O   UNL     1      -4.500   3.296 -31.391  1.00  0.00    -0.266 OA
HETATM   16  H   UNL     1      -5.603   3.003 -34.345  1.00  0.00     0.163 HD
BRANCH  14  17
HETATM   17  C   UNL     1      -3.730   4.346 -33.326  1.00  0.00     0.122 A 
HETATM   18  N   UNL     1      -4.240   5.201 -34.276  1.00  0.00    -0.270 N 
HETATM   19  H   UNL     1      -5.211   5.282 -34.562  1.00  0.00     0.189 HD
HETATM   20  N   UNL     1      -3.314   5.997 -34.849  1.00  0.00    -0.149 NA
HETATM   21  C   UNL     1      -2.206   5.623 -34.232  1.00  0.00     0.183 A 
HETATM   22  C   UNL     1      -2.373   4.615 -33.286  1.00  0.00     0.096 A 
BRANCH  21  23
HETATM   23  O   UNL     1      -1.102   6.264 -34.599  1.00  0.00    -0.344 OA
HETATM   24  H   UNL     1      -1.420   7.070 -35.040  1.00  0.00     0.219 HD
ENDBRANCH  21  23
ENDBRANCH  14  17
ENDBRANCH   5  13
BRANCH   9  25
HETATM   25  C   UNL     1      -5.558  -3.536 -34.736  1.00  0.00     0.011 C 
HETATM   26  C   UNL     1      -6.827  -4.370 -34.502  1.00  0.00     0.023 C 
HETATM   27  C   UNL     1      -5.250  -3.497 -36.245  1.00  0.00     0.023 C 
HETATM   28  C   UNL     1      -4.366  -4.208 -34.026  1.00  0.00     0.023 C 
ENDBRANCH   9  25
TORSDOF 4
ENDMDL
MODEL 4
REMARK VINA RESULT:      -8.1      1.505      1.848
REMARK  4 active torsions:
REMARK  status: ('A' for Active; 'I' for Inactive)
REMARK    1  A    between atoms: C_5  and  N_6 
REMARK       I    between atoms: N_6  and  C_7 
REMARK    2  A    between atoms: C_7  and  C_8 
REMARK    3  A    between atoms: C_12  and  O_13 
REMARK    4  A    between atoms: C_19  and  C_20 
ROOT
HETATM    1  C   UNL     1      -5.581   4.848 -33.745  1.00  0.00     0.015 C 
HETATM    2  C   UNL     1      -6.655   3.880 -33.213  1.00  0.00    -0.040 C 
HETATM    3  C   UNL     1      -6.783   4.101 -31.693  1.00  0.00     0.015 C 
HETATM    4  C   UNL     1      -6.234   2.432 -33.538  1.00  0.00     0.039 C 
HETATM    5  C   UNL     1      -7.274   1.385 -33.095  1.00  0.00     0.122 C 
HETATM    6  C   UNL     1      -8.684   1.800 -33.411  1.00  0.00     0.007 A 
HETATM    7  C   UNL     1      -9.032   3.094 -33.758  1.00  0.00     0.047 A 
HETATM    8  N   UNL     1     -10.308   3.461 -34.010  1.00  0.00    -0.237 NA
HETATM    9  C   UNL     1     -11.275   2.532 -33.866  1.00  0.00     0.133 A 
HETATM   10  N   UNL     1     -11.030   1.256 -33.517  1.00  0.00    -0.244 NA
HETATM   11  C   UNL     1      -9.747   0.928 -33.280  1.00  0.00     0.130 A 
HETATM   12  C   UNL     1      -7.994   4.174 -33.925  1.00  0.00     0.069 C 
ENDROOT
BRANCH   5  13
HETATM   13  N   UNL     1      -6.961   0.100 -33.702  1.00  0.00    -0.347 N 
HETATM   14  C   UNL     1      -6.199  -0.843 -33.056  1.00  0.00     0.270 C 
HETATM   15  O   UNL     1      -5.763  -0.676 -31.922  1.00  0.00    -0.266 OA
HETATM   16  H   UNL     1      -7.177  -0.032 -34.681  1.00  0.00     0.163 HD
BRANCH  14  17
HETATM   17  C   UNL     1      -5.953  -2.049 -33.798  1.00  0.00     0.122 A 
HETATM   18  N   UNL     1      -4.693  -2.597 -33.870  1.00  0.00    -0.270 N 
HETATM   19  H   UNL     1      -3.847  -2.235 -33.440  1.00  0.00     0.189 HD
HETATM   20  N   UNL     1      -4.631  -3.736 -34.589  1.00  0.00    -0.149 NA
HETATM   21  C   UNL     1      -5.888  -3.894 -34.968  1.00  0.00     0.183 A 
HETATM   22  C   UNL     1      -6.762  -2.902 -34.527  1.00  0.00     0.096 A 
BRANCH  21  23
HETATM   23  O   UNL     1      -6.134  -4.971 -35.705  1.00  0.00    -0.344 OA
HETATM   24  H   UNL     1      -6.234  -4.632 -36.611  1.00  0.00     0.219 HD
ENDBRANCH  21  23
ENDBRANCH  14  17
ENDBRANCH   5  13
BRANCH   9  25
HETATM   25  C   UNL     1     -12.711   2.931 -34.197  1.00  0.00     0.011 C 
HETATM   26  C   UNL     1     -13.337   3.569 -32.947  1.00  0.00     0.023 C 
HETATM   27  C   UNL     1     -12.757   3.943 -35.357  1.00  0.00     0.023 C 
HETATM   28  C   UNL     1     -13.537   1.697 -34.610  1.00  0.00     0.023 C 
ENDBRANCH   9  25
TORSDOF 4
ENDMDL
MODEL 5
REMARK VINA RESULT:      -8.0      3.968      6.971
REMARK  4 active torsions:
REMARK  status: ('A' for Active; 'I' for Inactive)
REMARK    1  A    between atoms: C_5  and  N_6 
REMARK       I    between atoms: N_6  and  C_7 
REMARK    2  A    between atoms: C_7  and  C_8 
REMARK    3  A    between atoms: C_12  and  O_13 
REMARK    4  A    between atoms: C_19  and  C_20 
ROOT
HETATM    1  C   UNL     1      -8.036   3.601 -30.020  1.00  0.00     0.015 C 
HETATM    2  C   UNL     1      -6.899   3.663 -31.058  1.00  0.00    -0.040 C 
HETATM    3  C   UNL     1      -7.429   4.408 -32.299  1.00  0.00     0.015 C 
HETATM    4  C   UNL     1      -6.458   2.227 -31.409  1.00  0.00     0.039 C 
HETATM    5  C   UNL     1      -5.282   2.181 -32.403  1.00  0.00     0.122 C 
HETATM    6  C   UNL     1      -4.215   3.191 -32.084  1.00  0.00     0.007 A 
HETATM    7  C   UNL     1      -4.408   4.245 -31.208  1.00  0.00     0.047 A 
HETATM    8  N   UNL     1      -3.451   5.164 -30.954  1.00  0.00    -0.237 NA
HETATM    9  C   UNL     1      -2.283   5.065 -31.622  1.00  0.00     0.133 A 
HETATM   10  N   UNL     1      -2.015   4.083 -32.502  1.00  0.00    -0.244 NA
HETATM   11  C   UNL     1      -2.991   3.185 -32.724  1.00  0.00     0.130 A 
HETATM   12  C   UNL     1      -5.695   4.410 -30.441  1.00  0.00     0.069 C 
ENDROOT
BRANCH   5  13
HETATM   13  N   UNL     1      -4.730   0.834 -32.442  1.00  0.00    -0.347 N 
HETATM   14  C   UNL     1      -5.149  -0.096 -33.361  1.00  0.00     0.270 C 
HETATM   15  O   UNL     1      -5.987   0.155 -34.221  1.00  0.00    -0.266 OA
HETATM   16  H   UNL     1      -4.143   0.536 -31.675  1.00  0.00     0.163 HD
BRANCH  14  17
HETATM   17  C   UNL     1      -4.531  -1.389 -33.253  1.00  0.00     0.122 A 
HETATM   18  N   UNL     1      -3.782  -1.732 -32.151  1.00  0.00    -0.270 N 
HETATM   19  H   UNL     1      -3.589  -1.148 -31.343  1.00  0.00     0.189 HD
HETATM   20  N   UNL     1      -3.284  -2.984 -32.194  1.00  0.00    -0.149 NA
HETATM   21  C   UNL     1      -3.741  -3.425 -33.353  1.00  0.00     0.183 A 
HETATM   22  C   UNL     1      -4.512  -2.509 -34.066  1.00  0.00     0.096 A 
BRANCH  21  23
HETATM   23  O   UNL     1      -3.406  -4.672 -33.666  1.00  0.00    -0.344 OA
HETATM   24  H   UNL     1      -3.722  -4.791 -34.578  1.00  0.00     0.219 HD
ENDBRANCH  21  23
ENDBRANCH  14  17
ENDBRANCH   5  13
BRANCH   9  25
HETATM   25  C   UNL     1      -1.183   6.072 -31.301  1.00  0.00     0.011 C 
HETATM   26  C   UNL     1      -1.607   6.876 -30.061  1.00  0.00     0.023 C 
HETATM   27  C   UNL     1       0.155   5.365 -31.011  1.00  0.00     0.023 C 
HETATM   28  C   UNL     1      -0.964   7.035 -32.484  1.00  0.00     0.023 C 
ENDBRANCH   9  25
TORSDOF 4
ENDMDL
MODEL 6
REMARK VINA RESULT:      -7.8      3.378      7.597
REMARK  4 active torsions:
REMARK  status: ('A' for Active; 'I' for Inactive)
REMARK    1  A    between atoms: C_5  and  N_6 
REMARK       I    between atoms: N_6  and  C_7 
REMARK    2  A    between atoms: C_7  and  C_8 
REMARK    3  A    between atoms: C_12  and  O_13 
REMARK    4  A    between atoms: C_19  and  C_20 
ROOT
HETATM    1  C   UNL     1      -4.295  -1.567 -32.349  1.00  0.00     0.015 C 
HETATM    2  C   UNL     1      -4.663  -0.115 -31.989  1.00  0.00    -0.040 C 
HETATM    3  C   UNL     1      -4.639   0.014 -30.453  1.00  0.00     0.015 C 
HETATM    4  C   UNL     1      -6.060   0.208 -32.558  1.00  0.00     0.039 C 
HETATM    5  C   UNL     1      -6.499   1.661 -32.299  1.00  0.00     0.122 C 
HETATM    6  C   UNL     1      -5.392   2.651 -32.535  1.00  0.00     0.007 A 
HETATM    7  C   UNL     1      -4.062   2.285 -32.655  1.00  0.00     0.047 A 
HETATM    8  N   UNL     1      -3.073   3.188 -32.836  1.00  0.00    -0.237 NA
HETATM    9  C   UNL     1      -3.404   4.496 -32.852  1.00  0.00     0.133 A 
HETATM   10  N   UNL     1      -4.666   4.941 -32.727  1.00  0.00    -0.244 NA
HETATM   11  C   UNL     1      -5.624   4.012 -32.554  1.00  0.00     0.130 A 
HETATM   12  C   UNL     1      -3.635   0.839 -32.636  1.00  0.00     0.069 C 
ENDROOT
BRANCH   5  13
HETATM   13  N   UNL     1      -7.660   1.973 -33.119  1.00  0.00    -0.347 N 
HETATM   14  C   UNL     1      -8.942   1.755 -32.676  1.00  0.00     0.270 C 
HETATM   15  O   UNL     1      -9.189   1.316 -31.558  1.00  0.00    -0.266 OA
HETATM   16  H   UNL     1      -7.511   2.205 -34.092  1.00  0.00     0.163 HD
BRANCH  14  17
HETATM   17  C   UNL     1      -9.981   2.086 -33.612  1.00  0.00     0.122 A 
HETATM   18  N   UNL     1      -9.966   3.276 -34.303  1.00  0.00    -0.270 N 
HETATM   19  H   UNL     1      -9.268   4.010 -34.233  1.00  0.00     0.189 HD
HETATM   20  N   UNL     1     -11.000   3.429 -35.155  1.00  0.00    -0.149 NA
HETATM   21  C   UNL     1     -11.669   2.301 -34.984  1.00  0.00     0.183 A 
HETATM   22  C   UNL     1     -11.113   1.424 -34.055  1.00  0.00     0.096 A 
BRANCH  21  23
HETATM   23  O   UNL     1     -12.764   2.166 -35.724  1.00  0.00    -0.344 OA
HETATM   24  H   UNL     1     -12.700   2.872 -36.390  1.00  0.00     0.219 HD
ENDBRANCH  21  23
ENDBRANCH  14  17
ENDBRANCH   5  13
BRANCH   9  25
HETATM   25  C   UNL     1      -2.296   5.514 -33.105  1.00  0.00     0.011 C 
HETATM   26  C   UNL     1      -2.831   6.912 -32.755  1.00  0.00     0.023 C 
HETATM   27  C   UNL     1      -1.055   5.218 -32.240  1.00  0.00     0.023 C 
HETATM   28  C   UNL     1      -1.861   5.489 -34.583  1.00  0.00     0.023 C 
ENDBRANCH   9  25
TORSDOF 4
ENDMDL
MODEL 7
REMARK VINA RESULT:      -7.5      4.376      5.647
REMARK  4 active torsions:
REMARK  status: ('A' for Active; 'I' for Inactive)
REMARK    1  A    between atoms: C_5  and  N_6 
REMARK       I    between atoms: N_6  and  C_7 
REMARK    2  A    between atoms: C_7  and  C_8 
REMARK    3  A    between atoms: C_12  and  O_13 
REMARK    4  A    between atoms: C_19  and  C_20 
ROOT
HETATM    1  C   UNL     1      -1.409   5.906 -33.475  1.00  0.00     0.015 C 
HETATM    2  C   UNL     1      -2.221   5.194 -32.376  1.00  0.00    -0.040 C 
HETATM    3  C   UNL     1      -1.411   5.264 -31.066  1.00  0.00     0.015 C 
HETATM    4  C   UNL     1      -2.474   3.733 -32.803  1.00  0.00     0.039 C 
HETATM    5  C   UNL     1      -3.330   2.947 -31.793  1.00  0.00     0.122 C 
HETATM    6  C   UNL     1      -4.495   3.745 -31.275  1.00  0.00     0.007 A 
HETATM    7  C   UNL     1      -4.602   5.116 -31.434  1.00  0.00     0.047 A 
HETATM    8  N   UNL     1      -5.639   5.826 -30.937  1.00  0.00    -0.237 NA
HETATM    9  C   UNL     1      -6.573   5.168 -30.221  1.00  0.00     0.133 A 
HETATM   10  N   UNL     1      -6.539   3.841 -30.003  1.00  0.00    -0.244 NA
HETATM   11  C   UNL     1      -5.495   3.168 -30.518  1.00  0.00     0.130 A 
HETATM   12  C   UNL     1      -3.584   5.903 -32.219  1.00  0.00     0.069 C 
ENDROOT
BRANCH   5  13
HETATM   13  N   UNL     1      -3.780   1.703 -32.399  1.00  0.00    -0.347 N 
HETATM   14  C   UNL     1      -3.346   0.478 -31.953  1.00  0.00     0.270 C 
HETATM   15  O   UNL     1      -2.581   0.354 -31.002  1.00  0.00    -0.266 OA
HETATM   16  H   UNL     1      -4.297   1.753 -33.267  1.00  0.00     0.163 HD
BRANCH  14  17
HETATM   17  C   UNL     1      -3.857  -0.656 -32.673  1.00  0.00     0.122 A 
HETATM   18  N   UNL     1      -3.373  -1.923 -32.446  1.00  0.00    -0.270 N 
HETATM   19  H   UNL     1      -2.643  -2.186 -31.790  1.00  0.00     0.189 HD
HETATM   20  N   UNL     1      -3.967  -2.879 -33.188  1.00  0.00    -0.149 NA
HETATM   21  C   UNL     1      -4.843  -2.181 -33.891  1.00  0.00     0.183 A 
HETATM   22  C   UNL     1      -4.839  -0.811 -33.636  1.00  0.00     0.096 A 
BRANCH  21  23
HETATM   23  O   UNL     1      -5.599  -2.883 -34.727  1.00  0.00    -0.344 OA
HETATM   24  H   UNL     1      -5.058  -3.658 -34.956  1.00  0.00     0.219 HD
ENDBRANCH  21  23
ENDBRANCH  14  17
ENDBRANCH   5  13
BRANCH   9  25
HETATM   25  C   UNL     1      -7.770   5.959 -29.700  1.00  0.00     0.011 C 
HETATM   26  C   UNL     1      -7.669   6.042 -28.169  1.00  0.00     0.023 C 
HETATM   27  C   UNL     1      -7.793   7.386 -30.283  1.00  0.00     0.023 C 
HETATM   28  C   UNL     1      -9.090   5.266 -30.089  1.00  0.00     0.023 C 
ENDBRANCH   9  25
TORSDOF 4
ENDMDL
MODEL 8
REMARK VINA RESULT:      -7.3      2.839      6.581
REMARK  4 active torsions:
REMARK  status: ('A' for Active; 'I' for Inactive)
REMARK    1  A    between atoms: C_5  and  N_6 
REMARK       I    between atoms: N_6  and  C_7 
REMARK    2  A    between atoms: C_7  and  C_8 
REMARK    3  A    between atoms: C_12  and  O_13 
REMARK    4  A    between atoms: C_19  and  C_20 
ROOT
HETATM    1  C   UNL     1      -4.811  -1.720 -33.455  1.00  0.00     0.015 C 
HETATM    2  C   UNL     1      -5.413  -0.588 -32.602  1.00  0.00    -0.040 C 
HETATM    3  C   UNL     1      -4.962  -0.800 -31.143  1.00  0.00     0.015 C 
HETATM    4  C   UNL     1      -6.951  -0.626 -32.726  1.00  0.00     0.039 C 
HETATM    5  C   UNL     1      -7.649   0.507 -31.951  1.00  0.00     0.122 C 
HETATM    6  C   UNL     1      -6.958   1.833 -32.115  1.00  0.00     0.007 A 
HETATM    7  C   UNL     1      -5.679   1.961 -32.628  1.00  0.00     0.047 A 
HETATM    8  N   UNL     1      -5.057   3.155 -32.742  1.00  0.00    -0.237 NA
HETATM    9  C   UNL     1      -5.702   4.250 -32.290  1.00  0.00     0.133 A 
HETATM   10  N   UNL     1      -6.938   4.217 -31.762  1.00  0.00    -0.244 NA
HETATM   11  C   UNL     1      -7.526   3.011 -31.671  1.00  0.00     0.130 A 
HETATM   12  C   UNL     1      -4.910   0.770 -33.141  1.00  0.00     0.069 C 
ENDROOT
BRANCH   5  13
HETATM   13  N   UNL     1      -9.043   0.592 -32.362  1.00  0.00    -0.347 N 
HETATM   14  C   UNL     1      -9.402   0.828 -33.667  1.00  0.00     0.270 C 
HETATM   15  O   UNL     1      -8.579   0.952 -34.567  1.00  0.00    -0.266 OA
HETATM   16  H   UNL     1      -9.752   0.635 -31.643  1.00  0.00     0.163 HD
BRANCH  14  17
HETATM   17  C   UNL     1     -10.817   0.914 -33.909  1.00  0.00     0.122 A 
HETATM   18  N   UNL     1     -11.701   0.072 -33.274  1.00  0.00    -0.270 N 
HETATM   19  H   UNL     1     -11.471  -0.660 -32.609  1.00  0.00     0.189 HD
HETATM   20  N   UNL     1     -12.992   0.290 -33.596  1.00  0.00    -0.149 NA
HETATM   21  C   UNL     1     -12.900   1.295 -34.450  1.00  0.00     0.183 A 
HETATM   22  C   UNL     1     -11.602   1.735 -34.699  1.00  0.00     0.096 A 
BRANCH  21  23
HETATM   23  O   UNL     1     -14.052   1.740 -34.940  1.00  0.00    -0.344 OA
HETATM   24  H   UNL     1     -14.339   2.423 -34.310  1.00  0.00     0.219 HD
ENDBRANCH  21  23
ENDBRANCH  14  17
ENDBRANCH   5  13
BRANCH   9  25
HETATM   25  C   UNL     1      -5.022   5.606 -32.462  1.00  0.00     0.011 C 
HETATM   26  C   UNL     1      -6.094   6.703 -32.359  1.00  0.00     0.023 C 
HETATM   27  C   UNL     1      -3.956   5.839 -31.374  1.00  0.00     0.023 C 
HETATM   28  C   UNL     1      -4.327   5.696 -33.834  1.00  0.00     0.023 C 
ENDBRANCH   9  25
TORSDOF 4
ENDMDL
MODEL 9
REMARK VINA RESULT:      -7.3      4.664      8.105
REMARK  4 active torsions:
REMARK  status: ('A' for Active; 'I' for Inactive)
REMARK    1  A    between atoms: C_5  and  N_6 
REMARK       I    between atoms: N_6  and  C_7 
REMARK    2  A    between atoms: C_7  and  C_8 
REMARK    3  A    between atoms: C_12  and  O_13 
REMARK    4  A    between atoms: C_19  and  C_20 
ROOT
HETATM    1  C   UNL     1      -7.334   6.867 -29.656  1.00  0.00     0.015 C 
HETATM    2  C   UNL     1      -6.193   6.476 -30.614  1.00  0.00    -0.040 C 
HETATM    3  C   UNL     1      -6.197   7.471 -31.791  1.00  0.00     0.015 C 
HETATM    4  C   UNL     1      -6.417   5.029 -31.101  1.00  0.00     0.039 C 
HETATM    5  C   UNL     1      -5.294   4.520 -32.025  1.00  0.00     0.122 C 
HETATM    6  C   UNL     1      -3.924   4.897 -31.534  1.00  0.00     0.007 A 
HETATM    7  C   UNL     1      -3.708   5.854 -30.557  1.00  0.00     0.047 A 
HETATM    8  N   UNL     1      -2.469   6.206 -30.146  1.00  0.00    -0.237 NA
HETATM    9  C   UNL     1      -1.412   5.630 -30.753  1.00  0.00     0.133 A 
HETATM   10  N   UNL     1      -1.529   4.705 -31.722  1.00  0.00    -0.244 NA
HETATM   11  C   UNL     1      -2.778   4.376 -32.100  1.00  0.00     0.130 A 
HETATM   12  C   UNL     1      -4.852   6.535 -29.850  1.00  0.00     0.069 C 
ENDROOT
BRANCH   5  13
HETATM   13  N   UNL     1      -5.411   3.078 -32.185  1.00  0.00    -0.347 N 
HETATM   14  C   UNL     1      -5.805   2.509 -33.372  1.00  0.00     0.270 C 
HETATM   15  O   UNL     1      -6.051   3.172 -34.373  1.00  0.00    -0.266 OA
HETATM   16  H   UNL     1      -5.355   2.499 -31.358  1.00  0.00     0.163 HD
BRANCH  14  17
HETATM   17  C   UNL     1      -5.901   1.074 -33.363  1.00  0.00     0.122 A 
HETATM   18  N   UNL     1      -5.301   0.325 -32.377  1.00  0.00    -0.270 N 
HETATM   19  H   UNL     1      -4.754   0.676 -31.597  1.00  0.00     0.189 HD
HETATM   20  N   UNL     1      -5.498  -1.003 -32.502  1.00  0.00    -0.149 NA
HETATM   21  C   UNL     1      -6.241  -1.073 -33.593  1.00  0.00     0.183 A 
HETATM   22  C   UNL     1      -6.532   0.156 -34.183  1.00  0.00     0.096 A 
BRANCH  21  23
HETATM   23  O   UNL     1      -6.606  -2.295 -33.962  1.00  0.00    -0.344 OA
HETATM   24  H   UNL     1      -7.132  -2.162 -34.769  1.00  0.00     0.219 HD
ENDBRANCH  21  23
ENDBRANCH  14  17
ENDBRANCH   5  13
BRANCH   9  25
HETATM   25  C   UNL     1      -0.014   5.990 -30.258  1.00  0.00     0.011 C 
HETATM   26  C   UNL     1      -0.153   6.808 -28.965  1.00  0.00     0.023 C 
HETATM   27  C   UNL     1       0.819   4.726 -29.968  1.00  0.00     0.023 C 
HETATM   28  C   UNL     1       0.739   6.823 -31.313  1.00  0.00     0.023 C 
ENDBRANCH   9  25
TORSDOF 4
ENDMDL
MODEL 10
REMARK VINA RESULT:      -7.2      2.074      4.883
REMARK  4 active torsions:
REMARK  status: ('A' for Active; 'I' for Inactive)
REMARK    1  A    between atoms: C_5  and  N_6 
REMARK       I    between atoms: N_6  and  C_7 
REMARK    2  A    between atoms: C_7  and  C_8 
REMARK    3  A    between atoms: C_12  and  O_13 
REMARK    4  A    between atoms: C_19  and  C_20 
ROOT
HETATM    1  C   UNL     1     -11.739   1.832 -33.343  1.00  0.00     0.015 C 
HETATM    2  C   UNL     1     -10.315   2.220 -33.783  1.00  0.00    -0.040 C 
HETATM    3  C   UNL     1     -10.432   3.314 -34.862  1.00  0.00     0.015 C 
HETATM    4  C   UNL     1      -9.596   0.968 -34.328  1.00  0.00     0.039 C 
HETATM    5  C   UNL     1      -8.139   1.239 -34.745  1.00  0.00     0.122 C 
HETATM    6  C   UNL     1      -7.405   2.102 -33.756  1.00  0.00     0.007 A 
HETATM    7  C   UNL     1      -8.043   2.828 -32.766  1.00  0.00     0.047 A 
HETATM    8  N   UNL     1      -7.375   3.625 -31.902  1.00  0.00    -0.237 NA
HETATM    9  C   UNL     1      -6.040   3.744 -32.054  1.00  0.00     0.133 A 
HETATM   10  N   UNL     1      -5.341   3.089 -32.998  1.00  0.00    -0.244 NA
HETATM   11  C   UNL     1      -6.041   2.302 -33.834  1.00  0.00     0.130 A 
HETATM   12  C   UNL     1      -9.534   2.740 -32.556  1.00  0.00     0.069 C 
ENDROOT
BRANCH   5  13
HETATM   13  N   UNL     1      -7.446  -0.025 -34.947  1.00  0.00    -0.347 N 
HETATM   14  C   UNL     1      -7.268  -0.927 -33.927  1.00  0.00     0.270 C 
HETATM   15  O   UNL     1      -7.704  -0.741 -32.796  1.00  0.00    -0.266 OA
HETATM   16  H   UNL     1      -6.951  -0.164 -35.818  1.00  0.00     0.163 HD
BRANCH  14  17
HETATM   17  C   UNL     1      -6.539  -2.115 -34.278  1.00  0.00     0.122 A 
HETATM   18  N   UNL     1      -5.163  -2.123 -34.314  1.00  0.00    -0.270 N 
HETATM   19  H   UNL     1      -4.546  -1.341 -34.116  1.00  0.00     0.189 HD
HETATM   20  N   UNL     1      -4.630  -3.317 -34.644  1.00  0.00    -0.149 NA
HETATM   21  C   UNL     1      -5.708  -4.065 -34.812  1.00  0.00     0.183 A 
HETATM   22  C   UNL     1      -6.917  -3.405 -34.608  1.00  0.00     0.096 A 
BRANCH  21  23
HETATM   23  O   UNL     1      -5.481  -5.332 -35.142  1.00  0.00    -0.344 OA
HETATM   24  H   UNL     1      -6.353  -5.679 -35.399  1.00  0.00     0.219 HD
ENDBRANCH  21  23
ENDBRANCH  14  17
ENDBRANCH   5  13
BRANCH   9  25
HETATM   25  C   UNL     1      -5.276   4.604 -31.050  1.00  0.00     0.011 C 
HETATM   26  C   UNL     1      -3.771   4.398 -31.281  1.00  0.00     0.023 C 
HETATM   27  C   UNL     1      -5.614   6.098 -31.223  1.00  0.00     0.023 C 
HETATM   28  C   UNL     1      -5.633   4.201 -29.606  1.00  0.00     0.023 C 
ENDBRANCH   9  25
TORSDOF 4
ENDMDL
