MODEL 1
REMARK VINA RESULT:      -9.3      0.000      0.000
REMARK  6 active torsions:
REMARK  status: ('A' for Active; 'I' for Inactive)
REMARK    1  A    between atoms: C_5  and  N_6 
REMARK    2  A    between atoms: C_17  and  C_29 
REMARK    3  A    between atoms: C_17  and  N_18 
REMARK       I    between atoms: N_18  and  C_19 
REMARK    4  A    between atoms: C_19  and  C_20 
REMARK    5  A    between atoms: C_20  and  C_21 
REMARK    6  A    between atoms: C_21  and  C_22 
ROOT
HETATM    1  N   UNL     1      -4.225   3.940 -32.743  1.00  0.00    -0.248 N 
HETATM    2  C   UNL     1      -4.879   4.481 -33.877  1.00  0.00     0.335 A 
HETATM    3  O   UNL     1      -4.687   5.588 -34.379  1.00  0.00    -0.246 OA
HETATM    4  N   UNL     1      -5.782   3.647 -34.507  1.00  0.00    -0.274 N 
HETATM    5  C   UNL     1      -6.040   2.340 -34.215  1.00  0.00     0.262 A 
HETATM    6  O   UNL     1      -6.780   1.627 -34.877  1.00  0.00    -0.267 OA
HETATM    7  C   UNL     1      -5.372   1.855 -33.028  1.00  0.00     0.101 A 
HETATM    8  C   UNL     1      -4.536   2.649 -32.359  1.00  0.00     0.134 A 
HETATM    9  N   UNL     1      -4.125   1.993 -31.239  1.00  0.00    -0.309 N 
HETATM   10  C   UNL     1      -4.704   0.731 -31.137  1.00  0.00     0.266 A 
HETATM   11  O   UNL     1      -4.563  -0.024 -30.188  1.00  0.00    -0.270 OA
HETATM   12  C   UNL     1      -5.543   0.503 -32.408  1.00  0.00     0.249 A 
HETATM   13  H   UNL     1      -6.217   4.027 -35.336  1.00  0.00     0.173 HD
HETATM   14  H   UNL     1      -3.604   2.406 -30.477  1.00  0.00     0.170 HD
ENDROOT
BRANCH  12  15
HETATM   15  C   UNL     1      -4.789  -0.584 -33.186  1.00  0.00     0.426 C 
HETATM   16  F   UNL     1      -5.380  -0.878 -34.369  1.00  0.00    -0.167 F 
HETATM   17  F   UNL     1      -3.508  -0.237 -33.445  1.00  0.00    -0.167 F 
HETATM   18  F   UNL     1      -4.736  -1.740 -32.479  1.00  0.00    -0.167 F 
ENDBRANCH  12  15
BRANCH  12  19
HETATM   19  N   UNL     1      -6.960   0.174 -32.149  1.00  0.00    -0.332 N 
HETATM   20  C   UNL     1      -7.805   1.024 -31.484  1.00  0.00     0.219 C 
HETATM   21  O   UNL     1      -7.408   2.079 -30.992  1.00  0.00    -0.274 OA
HETATM   22  H   UNL     1      -7.384  -0.439 -32.840  1.00  0.00     0.164 HD
BRANCH  20  23
HETATM   23  C   UNL     1      -9.278   0.655 -31.446  1.00  0.00     0.107 C 
BRANCH  23  24
HETATM   24  C   UNL     1      -9.826  -0.132 -32.640  1.00  0.00     0.047 C 
BRANCH  24  25
HETATM   25  C   UNL     1     -10.954   0.518 -33.413  1.00  0.00    -0.058 A 
HETATM   26  C   UNL     1     -10.691   1.664 -34.180  1.00  0.00     0.007 A 
HETATM   27  C   UNL     1     -11.708   2.282 -34.911  1.00  0.00     0.001 A 
HETATM   28  C   UNL     1     -12.998   1.759 -34.893  1.00  0.00     0.000 A 
HETATM   29  C   UNL     1     -13.269   0.613 -34.153  1.00  0.00     0.001 A 
HETATM   30  C   UNL     1     -12.252  -0.012 -33.427  1.00  0.00     0.007 A 
ENDBRANCH  24  25
ENDBRANCH  23  24
ENDBRANCH  20  23
ENDBRANCH  12  19
BRANCH   1  31
HETATM   31  C   UNL     1      -3.220   4.738 -32.084  1.00  0.00     0.045 A 
HETATM   32  C   UNL     1      -3.564   5.654 -31.079  1.00  0.00     0.031 A 
HETATM   33  C   UNL     1      -2.592   6.437 -30.448  1.00  0.00     0.009 A 
HETATM   34  C   UNL     1      -1.249   6.337 -30.818  1.00  0.00    -0.062 A 
HETATM   35  C   UNL     1      -0.203   7.162 -30.128  1.00  0.00     0.048 C 
HETATM   36  C   UNL     1      -0.892   5.421 -31.809  1.00  0.00     0.009 A 
HETATM   37  C   UNL     1      -1.866   4.638 -32.440  1.00  0.00     0.031 A 
ENDBRANCH   1  31
TORSDOF 6
ENDMDL
MODEL 2
REMARK VINA RESULT:      -9.0      3.838      5.565
REMARK  6 active torsions:
REMARK  status: ('A' for Active; 'I' for Inactive)
REMARK    1  A    between atoms: C_5  and  N_6 
REMARK    2  A    between atoms: C_17  and  C_29 
REMARK    3  A    between atoms: C_17  and  N_18 
REMARK       I    between atoms: N_18  and  C_19 
REMARK    4  A    between atoms: C_19  and  C_20 
REMARK    5  A    between atoms: C_20  and  C_21 
REMARK    6  A    between atoms: C_21  and  C_22 
ROOT
HETATM    1  N   UNL     1      -4.155   7.666 -30.849  1.00  0.00    -0.248 N 
HETATM    2  C   UNL     1      -5.544   7.882 -31.026  1.00  0.00     0.335 A 
HETATM    3  O   UNL     1      -6.231   8.738 -30.470  1.00  0.00    -0.246 OA
HETATM    4  N   UNL     1      -6.165   7.081 -31.964  1.00  0.00    -0.274 N 
HETATM    5  C   UNL     1      -5.573   6.178 -32.797  1.00  0.00     0.262 A 
HETATM    6  O   UNL     1      -6.167   5.572 -33.677  1.00  0.00    -0.267 OA
HETATM    7  C   UNL     1      -4.164   5.973 -32.546  1.00  0.00     0.101 A 
HETATM    8  C   UNL     1      -3.541   6.687 -31.609  1.00  0.00     0.134 A 
HETATM    9  N   UNL     1      -2.261   6.235 -31.504  1.00  0.00    -0.309 N 
HETATM   10  C   UNL     1      -2.012   5.182 -32.380  1.00  0.00     0.266 A 
HETATM   11  O   UNL     1      -0.970   4.548 -32.427  1.00  0.00    -0.270 OA
HETATM   12  C   UNL     1      -3.281   4.976 -33.228  1.00  0.00     0.249 A 
HETATM   13  H   UNL     1      -7.146   7.268 -32.111  1.00  0.00     0.173 HD
HETATM   14  H   UNL     1      -1.606   6.494 -30.778  1.00  0.00     0.170 HD
ENDROOT
BRANCH  12  15
HETATM   15  C   UNL     1      -2.886   5.430 -34.640  1.00  0.00     0.426 C 
HETATM   16  F   UNL     1      -1.817   4.751 -35.122  1.00  0.00    -0.167 F 
HETATM   17  F   UNL     1      -3.895   5.286 -35.528  1.00  0.00    -0.167 F 
HETATM   18  F   UNL     1      -2.551   6.744 -34.653  1.00  0.00    -0.167 F 
ENDBRANCH  12  15
BRANCH  12  19
HETATM   19  N   UNL     1      -3.829   3.605 -33.177  1.00  0.00    -0.332 N 
HETATM   20  C   UNL     1      -4.108   2.966 -31.997  1.00  0.00     0.219 C 
HETATM   21  O   UNL     1      -3.839   3.469 -30.908  1.00  0.00    -0.274 OA
HETATM   22  H   UNL     1      -4.400   3.349 -33.978  1.00  0.00     0.164 HD
BRANCH  20  23
HETATM   23  C   UNL     1      -4.840   1.638 -32.079  1.00  0.00     0.107 C 
BRANCH  23  24
HETATM   24  C   UNL     1      -4.050   0.442 -32.618  1.00  0.00     0.047 C 
BRANCH  24  25
HETATM   25  C   UNL     1      -4.836  -0.581 -33.410  1.00  0.00    -0.058 A 
HETATM   26  C   UNL     1      -4.296  -1.862 -33.607  1.00  0.00     0.007 A 
HETATM   27  C   UNL     1      -5.000  -2.831 -34.325  1.00  0.00     0.001 A 
HETATM   28  C   UNL     1      -6.256  -2.537 -34.848  1.00  0.00     0.000 A 
HETATM   29  C   UNL     1      -6.812  -1.278 -34.644  1.00  0.00     0.001 A 
HETATM   30  C   UNL     1      -6.114  -0.310 -33.919  1.00  0.00     0.007 A 
ENDBRANCH  24  25
ENDBRANCH  23  24
ENDBRANCH  20  23
ENDBRANCH  12  19
BRANCH   1  31
HETATM   31  C   UNL     1      -3.438   8.518 -29.933  1.00  0.00     0.045 A 
HETATM   32  C   UNL     1      -3.289   8.171 -28.583  1.00  0.00     0.031 A 
HETATM   33  C   UNL     1      -2.604   9.004 -27.690  1.00  0.00     0.009 A 
HETATM   34  C   UNL     1      -2.064  10.216 -28.123  1.00  0.00    -0.062 A 
HETATM   35  C   UNL     1      -1.313  11.100 -27.172  1.00  0.00     0.048 C 
HETATM   36  C   UNL     1      -2.196  10.569 -29.468  1.00  0.00     0.009 A 
HETATM   37  C   UNL     1      -2.882   9.735 -30.359  1.00  0.00     0.031 A 
ENDBRANCH   1  31
TORSDOF 6
ENDMDL
MODEL 3
REMARK VINA RESULT:      -9.0      3.912      5.872
REMARK  6 active torsions:
REMARK  status: ('A' for Active; 'I' for Inactive)
REMARK    1  A    between atoms: C_5  and  N_6 
REMARK    2  A    between atoms: C_17  and  C_29 
REMARK    3  A    between atoms: C_17  and  N_18 
REMARK       I    between atoms: N_18  and  C_19 
REMARK    4  A    between atoms: C_19  and  C_20 
REMARK    5  A    between atoms: C_20  and  C_21 
REMARK    6  A    between atoms: C_21  and  C_22 
ROOT
HETATM    1  N   UNL     1      -3.314   7.389 -29.802  1.00  0.00    -0.248 N 
HETATM    2  C   UNL     1      -4.672   7.679 -30.081  1.00  0.00     0.335 A 
HETATM    3  O   UNL     1      -5.433   8.363 -29.398  1.00  0.00    -0.246 OA
HETATM    4  N   UNL     1      -5.163   7.182 -31.273  1.00  0.00    -0.274 N 
HETATM    5  C   UNL     1      -4.462   6.530 -32.244  1.00  0.00     0.262 A 
HETATM    6  O   UNL     1      -4.935   6.204 -33.323  1.00  0.00    -0.267 OA
HETATM    7  C   UNL     1      -3.093   6.231 -31.888  1.00  0.00     0.101 A 
HETATM    8  C   UNL     1      -2.599   6.645 -30.722  1.00  0.00     0.134 A 
HETATM    9  N   UNL     1      -1.337   6.151 -30.591  1.00  0.00    -0.309 N 
HETATM   10  C   UNL     1      -0.969   5.375 -31.686  1.00  0.00     0.266 A 
HETATM   11  O   UNL     1       0.079   4.754 -31.778  1.00  0.00    -0.270 OA
HETATM   12  C   UNL     1      -2.120   5.440 -32.707  1.00  0.00     0.249 A 
HETATM   13  H   UNL     1      -6.121   7.424 -31.481  1.00  0.00     0.173 HD
HETATM   14  H   UNL     1      -0.780   6.184 -29.747  1.00  0.00     0.170 HD
ENDROOT
BRANCH  12  15
HETATM   15  C   UNL     1      -1.559   6.257 -33.878  1.00  0.00     0.426 C 
HETATM   16  F   UNL     1      -0.839   5.498 -34.740  1.00  0.00    -0.167 F 
HETATM   17  F   UNL     1      -2.530   6.871 -34.590  1.00  0.00    -0.167 F 
HETATM   18  F   UNL     1      -0.732   7.237 -33.437  1.00  0.00    -0.167 F 
ENDBRANCH  12  15
BRANCH  12  19
HETATM   19  N   UNL     1      -2.655   4.121 -33.104  1.00  0.00    -0.332 N 
HETATM   20  C   UNL     1      -2.929   3.133 -32.196  1.00  0.00     0.219 C 
HETATM   21  O   UNL     1      -2.667   3.260 -31.000  1.00  0.00    -0.274 OA
HETATM   22  H   UNL     1      -3.222   4.132 -33.947  1.00  0.00     0.164 HD
BRANCH  20  23
HETATM   23  C   UNL     1      -3.648   1.896 -32.705  1.00  0.00     0.107 C 
BRANCH  23  24
HETATM   24  C   UNL     1      -5.179   1.931 -32.694  1.00  0.00     0.047 C 
BRANCH  24  25
HETATM   25  C   UNL     1      -5.882   0.856 -33.495  1.00  0.00    -0.058 A 
HETATM   26  C   UNL     1      -5.708  -0.491 -33.140  1.00  0.00     0.007 A 
HETATM   27  C   UNL     1      -6.350  -1.506 -33.854  1.00  0.00     0.001 A 
HETATM   28  C   UNL     1      -7.179  -1.188 -34.926  1.00  0.00     0.000 A 
HETATM   29  C   UNL     1      -7.376   0.143 -35.277  1.00  0.00     0.001 A 
HETATM   30  C   UNL     1      -6.742   1.160 -34.560  1.00  0.00     0.007 A 
ENDBRANCH  24  25
ENDBRANCH  23  24
ENDBRANCH  20  23
ENDBRANCH  12  19
BRANCH   1  31
HETATM   31  C   UNL     1      -2.726   7.939 -28.605  1.00  0.00     0.045 A 
HETATM   32  C   UNL     1      -2.017   9.148 -28.634  1.00  0.00     0.031 A 
HETATM   33  C   UNL     1      -1.434   9.676 -27.476  1.00  0.00     0.009 A 
HETATM   34  C   UNL     1      -1.533   8.998 -26.259  1.00  0.00    -0.062 A 
HETATM   35  C   UNL     1      -0.926   9.572 -25.014  1.00  0.00     0.048 C 
HETATM   36  C   UNL     1      -2.246   7.798 -26.215  1.00  0.00     0.009 A 
HETATM   37  C   UNL     1      -2.827   7.271 -27.375  1.00  0.00     0.031 A 
ENDBRANCH   1  31
TORSDOF 6
ENDMDL
MODEL 4
REMARK VINA RESULT:      -9.0      2.238      3.431
REMARK  6 active torsions:
REMARK  status: ('A' for Active; 'I' for Inactive)
REMARK    1  A    between atoms: C_5  and  N_6 
REMARK    2  A    between atoms: C_17  and  C_29 
REMARK    3  A    between atoms: C_17  and  N_18 
REMARK       I    between atoms: N_18  and  C_19 
REMARK    4  A    between atoms: C_19  and  C_20 
REMARK    5  A    between atoms: C_20  and  C_21 
REMARK    6  A    between atoms: C_21  and  C_22 
ROOT
HETATM    1  N   UNL     1      -2.584   6.244 -32.142  1.00  0.00    -0.248 N 
HETATM    2  C   UNL     1      -2.484   6.716 -33.474  1.00  0.00     0.335 A 
HETATM    3  O   UNL     1      -1.669   7.529 -33.906  1.00  0.00    -0.246 OA
HETATM    4  N   UNL     1      -3.361   6.154 -34.381  1.00  0.00    -0.274 N 
HETATM    5  C   UNL     1      -4.241   5.137 -34.154  1.00  0.00     0.262 A 
HETATM    6  O   UNL     1      -4.920   4.617 -35.028  1.00  0.00    -0.267 OA
HETATM    7  C   UNL     1      -4.325   4.722 -32.772  1.00  0.00     0.101 A 
HETATM    8  C   UNL     1      -3.534   5.281 -31.856  1.00  0.00     0.134 A 
HETATM    9  N   UNL     1      -3.880   4.791 -30.634  1.00  0.00    -0.309 N 
HETATM   10  C   UNL     1      -4.938   3.890 -30.718  1.00  0.00     0.266 A 
HETATM   11  O   UNL     1      -5.488   3.372 -29.760  1.00  0.00    -0.270 OA
HETATM   12  C   UNL     1      -5.271   3.706 -32.210  1.00  0.00     0.249 A 
HETATM   13  H   UNL     1      -3.258   6.470 -35.335  1.00  0.00     0.173 HD
HETATM   14  H   UNL     1      -3.547   5.144 -29.746  1.00  0.00     0.170 HD
ENDROOT
BRANCH  12  15
HETATM   15  C   UNL     1      -4.832   2.272 -32.536  1.00  0.00     0.426 C 
HETATM   16  F   UNL     1      -3.498   2.176 -32.754  1.00  0.00    -0.167 F 
HETATM   17  F   UNL     1      -5.148   1.401 -31.552  1.00  0.00    -0.167 F 
HETATM   18  F   UNL     1      -5.444   1.819 -33.658  1.00  0.00    -0.167 F 
ENDBRANCH  12  15
BRANCH  12  19
HETATM   19  N   UNL     1      -6.679   3.990 -32.558  1.00  0.00    -0.332 N 
HETATM   20  C   UNL     1      -7.328   5.122 -32.139  1.00  0.00     0.219 C 
HETATM   21  O   UNL     1      -6.797   5.930 -31.379  1.00  0.00    -0.274 OA
HETATM   22  H   UNL     1      -6.983   3.593 -33.443  1.00  0.00     0.164 HD
BRANCH  20  23
HETATM   23  C   UNL     1      -8.707   5.389 -32.715  1.00  0.00     0.107 C 
BRANCH  23  24
HETATM   24  C   UNL     1      -8.915   5.061 -34.197  1.00  0.00     0.047 C 
BRANCH  24  25
HETATM   25  C   UNL     1      -9.972   4.024 -34.513  1.00  0.00    -0.058 A 
HETATM   26  C   UNL     1      -9.900   2.760 -33.907  1.00  0.00     0.007 A 
HETATM   27  C   UNL     1     -10.864   1.786 -34.172  1.00  0.00     0.001 A 
HETATM   28  C   UNL     1     -11.918   2.063 -35.038  1.00  0.00     0.000 A 
HETATM   29  C   UNL     1     -12.013   3.318 -35.631  1.00  0.00     0.001 A 
HETATM   30  C   UNL     1     -11.055   4.297 -35.361  1.00  0.00     0.007 A 
ENDBRANCH  24  25
ENDBRANCH  23  24
ENDBRANCH  20  23
ENDBRANCH  12  19
BRANCH   1  31
HETATM   31  C   UNL     1      -1.649   6.742 -31.164  1.00  0.00     0.045 A 
HETATM   32  C   UNL     1      -0.386   6.155 -31.001  1.00  0.00     0.031 A 
HETATM   33  C   UNL     1       0.517   6.630 -30.043  1.00  0.00     0.009 A 
HETATM   34  C   UNL     1       0.173   7.696 -29.210  1.00  0.00    -0.062 A 
HETATM   35  C   UNL     1       1.148   8.218 -28.196  1.00  0.00     0.048 C 
HETATM   36  C   UNL     1      -1.077   8.297 -29.369  1.00  0.00     0.009 A 
HETATM   37  C   UNL     1      -1.979   7.820 -30.328  1.00  0.00     0.031 A 
ENDBRANCH   1  31
TORSDOF 6
ENDMDL
MODEL 5
REMARK VINA RESULT:      -8.8      3.800      7.918
REMARK  6 active torsions:
REMARK  status: ('A' for Active; 'I' for Inactive)
REMARK    1  A    between atoms: C_5  and  N_6 
REMARK    2  A    between atoms: C_17  and  C_29 
REMARK    3  A    between atoms: C_17  and  N_18 
REMARK       I    between atoms: N_18  and  C_19 
REMARK    4  A    between atoms: C_19  and  C_20 
REMARK    5  A    between atoms: C_20  and  C_21 
REMARK    6  A    between atoms: C_21  and  C_22 
ROOT
HETATM    1  N   UNL     1     -11.094   3.347 -33.336  1.00  0.00    -0.248 N 
HETATM    2  C   UNL     1     -10.795   4.292 -34.348  1.00  0.00     0.335 A 
HETATM    3  O   UNL     1     -11.604   4.962 -34.989  1.00  0.00    -0.246 OA
HETATM    4  N   UNL     1      -9.454   4.515 -34.589  1.00  0.00    -0.274 N 
HETATM    5  C   UNL     1      -8.396   3.999 -33.900  1.00  0.00     0.262 A 
HETATM    6  O   UNL     1      -7.233   4.316 -34.101  1.00  0.00    -0.267 OA
HETATM    7  C   UNL     1      -8.759   3.014 -32.906  1.00  0.00     0.101 A 
HETATM    8  C   UNL     1     -10.042   2.730 -32.684  1.00  0.00     0.134 A 
HETATM    9  N   UNL     1     -10.106   1.711 -31.783  1.00  0.00    -0.309 N 
HETATM   10  C   UNL     1      -8.839   1.284 -31.394  1.00  0.00     0.266 A 
HETATM   11  O   UNL     1      -8.621   0.334 -30.659  1.00  0.00    -0.270 OA
HETATM   12  C   UNL     1      -7.812   2.208 -32.073  1.00  0.00     0.249 A 
HETATM   13  H   UNL     1      -9.250   5.217 -35.286  1.00  0.00     0.173 HD
HETATM   14  H   UNL     1     -10.942   1.196 -31.539  1.00  0.00     0.170 HD
ENDROOT
BRANCH  12  15
HETATM   15  C   UNL     1      -7.210   3.033 -30.928  1.00  0.00     0.426 C 
HETATM   16  F   UNL     1      -6.587   4.153 -31.369  1.00  0.00    -0.167 F 
HETATM   17  F   UNL     1      -8.140   3.414 -30.023  1.00  0.00    -0.167 F 
HETATM   18  F   UNL     1      -6.284   2.316 -30.244  1.00  0.00    -0.167 F 
ENDBRANCH  12  15
BRANCH  12  19
HETATM   19  N   UNL     1      -6.804   1.499 -32.888  1.00  0.00    -0.332 N 
HETATM   20  C   UNL     1      -7.116   0.422 -33.674  1.00  0.00     0.219 C 
HETATM   21  O   UNL     1      -8.244  -0.069 -33.683  1.00  0.00    -0.274 OA
HETATM   22  H   UNL     1      -6.030   2.079 -33.200  1.00  0.00     0.164 HD
BRANCH  20  23
HETATM   23  C   UNL     1      -6.036  -0.101 -34.605  1.00  0.00     0.107 C 
BRANCH  23  24
HETATM   24  C   UNL     1      -4.943  -0.973 -33.979  1.00  0.00     0.047 C 
BRANCH  24  25
HETATM   25  C   UNL     1      -5.048  -2.462 -34.227  1.00  0.00    -0.058 A 
HETATM   26  C   UNL     1      -4.004  -3.304 -33.812  1.00  0.00     0.007 A 
HETATM   27  C   UNL     1      -4.074  -4.683 -34.018  1.00  0.00     0.001 A 
HETATM   28  C   UNL     1      -5.190  -5.241 -34.635  1.00  0.00     0.000 A 
HETATM   29  C   UNL     1      -6.241  -4.422 -35.034  1.00  0.00     0.001 A 
HETATM   30  C   UNL     1      -6.177  -3.043 -34.821  1.00  0.00     0.007 A 
ENDBRANCH  24  25
ENDBRANCH  23  24
ENDBRANCH  20  23
ENDBRANCH  12  19
BRANCH   1  31
HETATM   31  C   UNL     1     -12.476   3.122 -32.991  1.00  0.00     0.045 A 
HETATM   32  C   UNL     1     -13.218   2.097 -33.595  1.00  0.00     0.031 A 
HETATM   33  C   UNL     1     -14.563   1.887 -33.271  1.00  0.00     0.009 A 
HETATM   34  C   UNL     1     -15.207   2.708 -32.344  1.00  0.00    -0.062 A 
HETATM   35  C   UNL     1     -16.643   2.471 -31.981  1.00  0.00     0.048 C 
HETATM   36  C   UNL     1     -14.476   3.726 -31.727  1.00  0.00     0.009 A 
HETATM   37  C   UNL     1     -13.131   3.935 -32.053  1.00  0.00     0.031 A 
ENDBRANCH   1  31
TORSDOF 6
ENDMDL
MODEL 6
REMARK VINA RESULT:      -8.8      3.312      5.125
REMARK  6 active torsions:
REMARK  status: ('A' for Active; 'I' for Inactive)
REMARK    1  A    between atoms: C_5  and  N_6 
REMARK    2  A    between atoms: C_17  and  C_29 
REMARK    3  A    between atoms: C_17  and  N_18 
REMARK       I    between atoms: N_18  and  C_19 
REMARK    4  A    between atoms: C_19  and  C_20 
REMARK    5  A    between atoms: C_20  and  C_21 
REMARK    6  A    between atoms: C_21  and  C_22 
ROOT
HETATM    1  N   UNL     1      -2.969   7.099 -29.851  1.00  0.00    -0.248 N 
HETATM    2  C   UNL     1      -3.986   8.081 -29.776  1.00  0.00     0.335 A 
HETATM    3  O   UNL     1      -3.995   9.076 -29.052  1.00  0.00    -0.246 OA
HETATM    4  N   UNL     1      -5.044   7.923 -30.649  1.00  0.00    -0.274 N 
HETATM    5  C   UNL     1      -5.168   6.985 -31.632  1.00  0.00     0.262 A 
HETATM    6  O   UNL     1      -6.086   6.962 -32.439  1.00  0.00    -0.267 OA
HETATM    7  C   UNL     1      -4.120   5.989 -31.637  1.00  0.00     0.101 A 
HETATM    8  C   UNL     1      -3.111   6.076 -30.771  1.00  0.00     0.134 A 
HETATM    9  N   UNL     1      -2.325   4.974 -30.917  1.00  0.00    -0.309 N 
HETATM   10  C   UNL     1      -2.817   4.112 -31.894  1.00  0.00     0.266 A 
HETATM   11  O   UNL     1      -2.343   3.020 -32.160  1.00  0.00    -0.270 OA
HETATM   12  C   UNL     1      -4.047   4.788 -32.528  1.00  0.00     0.249 A 
HETATM   13  H   UNL     1      -5.746   8.648 -30.614  1.00  0.00     0.173 HD
HETATM   14  H   UNL     1      -1.573   4.704 -30.295  1.00  0.00     0.170 HD
ENDROOT
BRANCH  12  15
HETATM   15  C   UNL     1      -3.603   5.154 -33.950  1.00  0.00     0.426 C 
HETATM   16  F   UNL     1      -3.216   6.449 -34.054  1.00  0.00    -0.167 F 
HETATM   17  F   UNL     1      -2.578   4.386 -34.384  1.00  0.00    -0.167 F 
HETATM   18  F   UNL     1      -4.614   4.977 -34.837  1.00  0.00    -0.167 F 
ENDBRANCH  12  15
BRANCH  12  19
HETATM   19  N   UNL     1      -5.279   3.973 -32.481  1.00  0.00    -0.332 N 
HETATM   20  C   UNL     1      -5.678   3.304 -31.353  1.00  0.00     0.219 C 
HETATM   21  O   UNL     1      -4.987   3.279 -30.336  1.00  0.00    -0.274 OA
HETATM   22  H   UNL     1      -6.015   4.284 -33.108  1.00  0.00     0.164 HD
BRANCH  20  23
HETATM   23  C   UNL     1      -7.052   2.658 -31.375  1.00  0.00     0.107 C 
BRANCH  23  24
HETATM   24  C   UNL     1      -7.119   1.162 -31.054  1.00  0.00     0.047 C 
BRANCH  24  25
HETATM   25  C   UNL     1      -6.721   0.217 -32.167  1.00  0.00    -0.058 A 
HETATM   26  C   UNL     1      -7.630  -0.047 -33.204  1.00  0.00     0.007 A 
HETATM   27  C   UNL     1      -7.290  -0.907 -34.250  1.00  0.00     0.001 A 
HETATM   28  C   UNL     1      -6.035  -1.508 -34.280  1.00  0.00     0.000 A 
HETATM   29  C   UNL     1      -5.116  -1.241 -33.270  1.00  0.00     0.001 A 
HETATM   30  C   UNL     1      -5.451  -0.374 -32.226  1.00  0.00     0.007 A 
ENDBRANCH  24  25
ENDBRANCH  23  24
ENDBRANCH  20  23
ENDBRANCH  12  19
BRANCH   1  31
HETATM   31  C   UNL     1      -1.805   7.248 -29.012  1.00  0.00     0.045 A 
HETATM   32  C   UNL     1      -0.577   7.669 -29.542  1.00  0.00     0.031 A 
HETATM   33  C   UNL     1       0.555   7.801 -28.730  1.00  0.00     0.009 A 
HETATM   34  C   UNL     1       0.493   7.499 -27.368  1.00  0.00    -0.062 A 
HETATM   35  C   UNL     1       1.702   7.659 -26.494  1.00  0.00     0.048 C 
HETATM   36  C   UNL     1      -0.727   7.089 -26.827  1.00  0.00     0.009 A 
HETATM   37  C   UNL     1      -1.859   6.956 -27.640  1.00  0.00     0.031 A 
ENDBRANCH   1  31
TORSDOF 6
ENDMDL
MODEL 7
REMARK VINA RESULT:      -8.7      4.737     10.464
REMARK  6 active torsions:
REMARK  status: ('A' for Active; 'I' for Inactive)
REMARK    1  A    between atoms: C_5  and  N_6 
REMARK    2  A    between atoms: C_17  and  C_29 
REMARK    3  A    between atoms: C_17  and  N_18 
REMARK       I    between atoms: N_18  and  C_19 
REMARK    4  A    between atoms: C_19  and  C_20 
REMARK    5  A    between atoms: C_20  and  C_21 
REMARK    6  A    between atoms: C_21  and  C_22 
ROOT
HETATM    1  N   UNL     1      -3.247   4.972 -32.683  1.00  0.00    -0.248 N 
HETATM    2  C   UNL     1      -2.506   5.389 -33.816  1.00  0.00     0.335 A 
HETATM    3  O   UNL     1      -2.385   4.782 -34.879  1.00  0.00    -0.246 OA
HETATM    4  N   UNL     1      -1.912   6.632 -33.724  1.00  0.00    -0.274 N 
HETATM    5  C   UNL     1      -2.038   7.532 -32.707  1.00  0.00     0.262 A 
HETATM    6  O   UNL     1      -1.565   8.660 -32.733  1.00  0.00    -0.267 OA
HETATM    7  C   UNL     1      -2.773   7.038 -31.565  1.00  0.00     0.101 A 
HETATM    8  C   UNL     1      -3.314   5.821 -31.593  1.00  0.00     0.134 A 
HETATM    9  N   UNL     1      -3.856   5.563 -30.371  1.00  0.00    -0.309 N 
HETATM   10  C   UNL     1      -3.669   6.624 -29.488  1.00  0.00     0.266 A 
HETATM   11  O   UNL     1      -3.989   6.613 -28.310  1.00  0.00    -0.270 OA
HETATM   12  C   UNL     1      -2.983   7.759 -30.269  1.00  0.00     0.249 A 
HETATM   13  H   UNL     1      -1.417   6.937 -34.549  1.00  0.00     0.173 HD
HETATM   14  H   UNL     1      -4.205   4.665 -30.062  1.00  0.00     0.170 HD
ENDROOT
BRANCH  12  15
HETATM   15  C   UNL     1      -4.050   8.854 -30.389  1.00  0.00     0.426 C 
HETATM   16  F   UNL     1      -3.552  10.011 -30.889  1.00  0.00    -0.167 F 
HETATM   17  F   UNL     1      -5.084   8.482 -31.176  1.00  0.00    -0.167 F 
HETATM   18  F   UNL     1      -4.582   9.151 -29.177  1.00  0.00    -0.167 F 
ENDBRANCH  12  15
BRANCH  12  19
HETATM   19  N   UNL     1      -1.715   8.228 -29.671  1.00  0.00    -0.332 N 
HETATM   20  C   UNL     1      -0.704   7.372 -29.321  1.00  0.00     0.219 C 
HETATM   21  O   UNL     1      -0.828   6.151 -29.411  1.00  0.00    -0.274 OA
HETATM   22  H   UNL     1      -1.440   9.166 -29.946  1.00  0.00     0.164 HD
BRANCH  20  23
HETATM   23  C   UNL     1       0.616   7.988 -28.892  1.00  0.00     0.107 C 
BRANCH  23  24
HETATM   24  C   UNL     1       1.147   7.595 -27.510  1.00  0.00     0.047 C 
BRANCH  24  25
HETATM   25  C   UNL     1       1.449   8.732 -26.557  1.00  0.00    -0.058 A 
HETATM   26  C   UNL     1       2.339   8.520 -25.493  1.00  0.00     0.007 A 
HETATM   27  C   UNL     1       2.645   9.551 -24.602  1.00  0.00     0.001 A 
HETATM   28  C   UNL     1       2.073  10.809 -24.767  1.00  0.00     0.000 A 
HETATM   29  C   UNL     1       1.204  11.040 -25.829  1.00  0.00     0.001 A 
HETATM   30  C   UNL     1       0.903  10.012 -26.726  1.00  0.00     0.007 A 
ENDBRANCH  24  25
ENDBRANCH  23  24
ENDBRANCH  20  23
ENDBRANCH  12  19
BRANCH   1  31
HETATM   31  C   UNL     1      -3.948   3.713 -32.745  1.00  0.00     0.045 A 
HETATM   32  C   UNL     1      -3.347   2.524 -32.308  1.00  0.00     0.031 A 
HETATM   33  C   UNL     1      -4.021   1.301 -32.380  1.00  0.00     0.009 A 
HETATM   34  C   UNL     1      -5.312   1.231 -32.908  1.00  0.00    -0.062 A 
HETATM   35  C   UNL     1      -6.044  -0.077 -32.968  1.00  0.00     0.048 C 
HETATM   36  C   UNL     1      -5.927   2.409 -33.337  1.00  0.00     0.009 A 
HETATM   37  C   UNL     1      -5.250   3.633 -33.265  1.00  0.00     0.031 A 
ENDBRANCH   1  31
TORSDOF 6
ENDMDL
MODEL 8
REMARK VINA RESULT:      -8.7      3.872      5.726
REMARK  6 active torsions:
REMARK  status: ('A' for Active; 'I' for Inactive)
REMARK    1  A    between atoms: C_5  and  N_6 
REMARK    2  A    between atoms: C_17  and  C_29 
REMARK    3  A    between atoms: C_17  and  N_18 
REMARK       I    between atoms: N_18  and  C_19 
REMARK    4  A    between atoms: C_19  and  C_20 
REMARK    5  A    between atoms: C_20  and  C_21 
REMARK    6  A    between atoms: C_21  and  C_22 
ROOT
HETATM    1  N   UNL     1      -5.839   6.808 -31.526  1.00  0.00    -0.248 N 
HETATM    2  C   UNL     1      -6.899   6.575 -32.436  1.00  0.00     0.335 A 
HETATM    3  O   UNL     1      -8.024   7.071 -32.396  1.00  0.00    -0.246 OA
HETATM    4  N   UNL     1      -6.607   5.750 -33.504  1.00  0.00    -0.274 N 
HETATM    5  C   UNL     1      -5.394   5.216 -33.825  1.00  0.00     0.262 A 
HETATM    6  O   UNL     1      -5.180   4.574 -34.843  1.00  0.00    -0.267 OA
HETATM    7  C   UNL     1      -4.361   5.456 -32.843  1.00  0.00     0.101 A 
HETATM    8  C   UNL     1      -4.620   6.202 -31.769  1.00  0.00     0.134 A 
HETATM    9  N   UNL     1      -3.523   6.189 -30.962  1.00  0.00    -0.309 N 
HETATM   10  C   UNL     1      -2.500   5.407 -31.493  1.00  0.00     0.266 A 
HETATM   11  O   UNL     1      -1.445   5.166 -30.929  1.00  0.00    -0.270 OA
HETATM   12  C   UNL     1      -2.967   4.911 -32.874  1.00  0.00     0.249 A 
HETATM   13  H   UNL     1      -7.357   5.619 -34.168  1.00  0.00     0.173 HD
HETATM   14  H   UNL     1      -3.487   6.548 -30.017  1.00  0.00     0.170 HD
ENDROOT
BRANCH  12  15
HETATM   15  C   UNL     1      -2.081   5.658 -33.879  1.00  0.00     0.426 C 
HETATM   16  F   UNL     1      -2.334   5.297 -35.160  1.00  0.00    -0.167 F 
HETATM   17  F   UNL     1      -2.227   7.000 -33.797  1.00  0.00    -0.167 F 
HETATM   18  F   UNL     1      -0.768   5.404 -33.654  1.00  0.00    -0.167 F 
ENDBRANCH  12  15
BRANCH  12  19
HETATM   19  N   UNL     1      -2.938   3.442 -33.033  1.00  0.00    -0.332 N 
HETATM   20  C   UNL     1      -3.482   2.590 -32.108  1.00  0.00     0.219 C 
HETATM   21  O   UNL     1      -3.956   2.998 -31.049  1.00  0.00    -0.274 OA
HETATM   22  H   UNL     1      -2.932   3.122 -33.997  1.00  0.00     0.164 HD
BRANCH  20  23
HETATM   23  C   UNL     1      -3.555   1.117 -32.475  1.00  0.00     0.107 C 
BRANCH  23  24
HETATM   24  C   UNL     1      -4.868   0.391 -32.168  1.00  0.00     0.047 C 
BRANCH  24  25
HETATM   25  C   UNL     1      -5.261  -0.717 -33.121  1.00  0.00    -0.058 A 
HETATM   26  C   UNL     1      -4.314  -1.693 -33.470  1.00  0.00     0.007 A 
HETATM   27  C   UNL     1      -4.648  -2.734 -34.340  1.00  0.00     0.001 A 
HETATM   28  C   UNL     1      -5.934  -2.818 -34.866  1.00  0.00     0.000 A 
HETATM   29  C   UNL     1      -6.889  -1.870 -34.513  1.00  0.00     0.001 A 
HETATM   30  C   UNL     1      -6.559  -0.833 -33.637  1.00  0.00     0.007 A 
ENDBRANCH  24  25
ENDBRANCH  23  24
ENDBRANCH  20  23
ENDBRANCH  12  19
BRANCH   1  31
HETATM   31  C   UNL     1      -6.062   7.717 -30.428  1.00  0.00     0.045 A 
HETATM   32  C   UNL     1      -5.772   9.083 -30.546  1.00  0.00     0.031 A 
HETATM   33  C   UNL     1      -5.976   9.963 -29.477  1.00  0.00     0.009 A 
HETATM   34  C   UNL     1      -6.462   9.494 -28.254  1.00  0.00    -0.062 A 
HETATM   35  C   UNL     1      -6.700  10.440 -27.114  1.00  0.00     0.048 C 
HETATM   36  C   UNL     1      -6.765   8.137 -28.127  1.00  0.00     0.009 A 
HETATM   37  C   UNL     1      -6.560   7.259 -29.198  1.00  0.00     0.031 A 
ENDBRANCH   1  31
TORSDOF 6
ENDMDL
MODEL 9
REMARK VINA RESULT:      -8.7     16.151     18.936
REMARK  6 active torsions:
REMARK  status: ('A' for Active; 'I' for Inactive)
REMARK    1  A    between atoms: C_5  and  N_6 
REMARK    2  A    between atoms: C_17  and  C_29 
REMARK    3  A    between atoms: C_17  and  N_18 
REMARK       I    between atoms: N_18  and  C_19 
REMARK    4  A    between atoms: C_19  and  C_20 
REMARK    5  A    between atoms: C_20  and  C_21 
REMARK    6  A    between atoms: C_21  and  C_22 
ROOT
HETATM    1  N   UNL     1      -7.064 -13.666 -38.747  1.00  0.00    -0.248 N 
HETATM    2  C   UNL     1      -6.142 -12.763 -39.330  1.00  0.00     0.335 A 
HETATM    3  O   UNL     1      -6.242 -12.217 -40.429  1.00  0.00    -0.246 OA
HETATM    4  N   UNL     1      -5.053 -12.425 -38.551  1.00  0.00    -0.274 N 
HETATM    5  C   UNL     1      -4.820 -12.791 -37.258  1.00  0.00     0.262 A 
HETATM    6  O   UNL     1      -3.884 -12.375 -36.590  1.00  0.00    -0.267 OA
HETATM    7  C   UNL     1      -5.773 -13.740 -36.729  1.00  0.00     0.101 A 
HETATM    8  C   UNL     1      -6.808 -14.134 -37.472  1.00  0.00     0.134 A 
HETATM    9  N   UNL     1      -7.487 -15.095 -36.787  1.00  0.00    -0.309 N 
HETATM   10  C   UNL     1      -6.895 -15.370 -35.557  1.00  0.00     0.266 A 
HETATM   11  O   UNL     1      -7.261 -16.245 -34.789  1.00  0.00    -0.270 OA
HETATM   12  C   UNL     1      -5.715 -14.395 -35.384  1.00  0.00     0.249 A 
HETATM   13  H   UNL     1      -4.420 -11.753 -38.960  1.00  0.00     0.173 HD
HETATM   14  H   UNL     1      -8.226 -15.672 -37.165  1.00  0.00     0.170 HD
ENDROOT
BRANCH  12  15
HETATM   15  C   UNL     1      -6.155 -13.443 -34.263  1.00  0.00     0.426 C 
HETATM   16  F   UNL     1      -5.216 -12.507 -33.982  1.00  0.00    -0.167 F 
HETATM   17  F   UNL     1      -7.303 -12.793 -34.560  1.00  0.00    -0.167 F 
HETATM   18  F   UNL     1      -6.387 -14.121 -33.112  1.00  0.00    -0.167 F 
ENDBRANCH  12  15
BRANCH  12  19
HETATM   19  N   UNL     1      -4.417 -15.052 -35.130  1.00  0.00    -0.332 N 
HETATM   20  C   UNL     1      -3.935 -16.064 -35.919  1.00  0.00     0.219 C 
HETATM   21  O   UNL     1      -4.598 -16.539 -36.840  1.00  0.00    -0.274 OA
HETATM   22  H   UNL     1      -3.725 -14.460 -34.679  1.00  0.00     0.164 HD
BRANCH  20  23
HETATM   23  C   UNL     1      -2.511 -16.527 -35.668  1.00  0.00     0.107 C 
BRANCH  23  24
HETATM   24  C   UNL     1      -1.452 -15.438 -35.474  1.00  0.00     0.047 C 
BRANCH  24  25
HETATM   25  C   UNL     1      -0.569 -15.140 -36.667  1.00  0.00    -0.058 A 
HETATM   26  C   UNL     1      -0.977 -14.174 -37.601  1.00  0.00     0.007 A 
HETATM   27  C   UNL     1      -0.181 -13.869 -38.707  1.00  0.00     0.001 A 
HETATM   28  C   UNL     1       1.037 -14.518 -38.891  1.00  0.00     0.000 A 
HETATM   29  C   UNL     1       1.464 -15.463 -37.963  1.00  0.00     0.001 A 
HETATM   30  C   UNL     1       0.673 -15.764 -36.852  1.00  0.00     0.007 A 
ENDBRANCH  24  25
ENDBRANCH  23  24
ENDBRANCH  20  23
ENDBRANCH  12  19
BRANCH   1  31
HETATM   31  C   UNL     1      -8.257 -14.002 -39.485  1.00  0.00     0.045 A 
HETATM   32  C   UNL     1      -9.448 -13.283 -39.308  1.00  0.00     0.031 A 
HETATM   33  C   UNL     1     -10.609 -13.618 -40.014  1.00  0.00     0.009 A 
HETATM   34  C   UNL     1     -10.614 -14.693 -40.905  1.00  0.00    -0.062 A 
HETATM   35  C   UNL     1     -11.853 -15.040 -41.676  1.00  0.00     0.048 C 
HETATM   36  C   UNL     1      -9.432 -15.410 -41.098  1.00  0.00     0.009 A 
HETATM   37  C   UNL     1      -8.271 -15.075 -40.391  1.00  0.00     0.031 A 
ENDBRANCH   1  31
TORSDOF 6
ENDMDL
MODEL 10
REMARK VINA RESULT:      -8.6      5.337      9.211
REMARK  6 active torsions:
REMARK  status: ('A' for Active; 'I' for Inactive)
REMARK    1  A    between atoms: C_5  and  N_6 
REMARK    2  A    between atoms: C_17  and  C_29 
REMARK    3  A    between atoms: C_17  and  N_18 
REMARK       I    between atoms: N_18  and  C_19 
REMARK    4  A    between atoms: C_19  and  C_20 
REMARK    5  A    between atoms: C_20  and  C_21 
REMARK    6  A    between atoms: C_21  and  C_22 
ROOT
HETATM    1  N   UNL     1     -14.252   3.544 -32.060  1.00  0.00    -0.248 N 
HETATM    2  C   UNL     1     -15.077   2.398 -32.174  1.00  0.00     0.335 A 
HETATM    3  O   UNL     1     -16.118   2.178 -31.556  1.00  0.00    -0.246 OA
HETATM    4  N   UNL     1     -14.692   1.469 -33.120  1.00  0.00    -0.274 N 
HETATM    5  C   UNL     1     -13.666   1.578 -34.012  1.00  0.00     0.262 A 
HETATM    6  O   UNL     1     -13.439   0.761 -34.892  1.00  0.00    -0.267 OA
HETATM    7  C   UNL     1     -12.838   2.748 -33.824  1.00  0.00     0.101 A 
HETATM    8  C   UNL     1     -13.145   3.641 -32.883  1.00  0.00     0.134 A 
HETATM    9  N   UNL     1     -12.162   4.582 -32.848  1.00  0.00    -0.309 N 
HETATM   10  C   UNL     1     -11.158   4.317 -33.775  1.00  0.00     0.266 A 
HETATM   11  O   UNL     1     -10.128   4.962 -33.889  1.00  0.00    -0.270 OA
HETATM   12  C   UNL     1     -11.589   3.078 -34.581  1.00  0.00     0.249 A 
HETATM   13  H   UNL     1     -15.305   0.673 -33.220  1.00  0.00     0.173 HD
HETATM   14  H   UNL     1     -12.060   5.295 -32.138  1.00  0.00     0.170 HD
ENDROOT
BRANCH  12  15
HETATM   15  C   UNL     1     -11.895   3.611 -35.987  1.00  0.00     0.426 C 
HETATM   16  F   UNL     1     -12.298   2.634 -36.835  1.00  0.00    -0.167 F 
HETATM   17  F   UNL     1     -12.854   4.565 -35.979  1.00  0.00    -0.167 F 
HETATM   18  F   UNL     1     -10.796   4.181 -36.542  1.00  0.00    -0.167 F 
ENDBRANCH  12  15
BRANCH  12  19
HETATM   19  N   UNL     1     -10.609   1.972 -34.565  1.00  0.00    -0.332 N 
HETATM   20  C   UNL     1      -9.997   1.546 -33.416  1.00  0.00     0.219 C 
HETATM   21  O   UNL     1     -10.169   2.117 -32.340  1.00  0.00    -0.274 OA
HETATM   22  H   UNL     1     -10.748   1.275 -35.291  1.00  0.00     0.164 HD
BRANCH  20  23
HETATM   23  C   UNL     1      -9.155   0.285 -33.500  1.00  0.00     0.107 C 
BRANCH  23  24
HETATM   24  C   UNL     1      -8.174   0.183 -34.672  1.00  0.00     0.047 C 
BRANCH  24  25
HETATM   25  C   UNL     1      -6.901  -0.596 -34.418  1.00  0.00    -0.058 A 
HETATM   26  C   UNL     1      -5.849   0.016 -33.720  1.00  0.00     0.007 A 
HETATM   27  C   UNL     1      -4.665  -0.679 -33.461  1.00  0.00     0.001 A 
HETATM   28  C   UNL     1      -4.520  -1.996 -33.889  1.00  0.00     0.000 A 
HETATM   29  C   UNL     1      -5.563  -2.621 -34.565  1.00  0.00     0.001 A 
HETATM   30  C   UNL     1      -6.751  -1.932 -34.817  1.00  0.00     0.007 A 
ENDBRANCH  24  25
ENDBRANCH  23  24
ENDBRANCH  20  23
ENDBRANCH  12  19
BRANCH   1  31
HETATM   31  C   UNL     1     -14.641   4.583 -31.138  1.00  0.00     0.045 A 
HETATM   32  C   UNL     1     -15.795   5.350 -31.353  1.00  0.00     0.031 A 
HETATM   33  C   UNL     1     -16.166   6.367 -30.466  1.00  0.00     0.009 A 
HETATM   34  C   UNL     1     -15.382   6.654 -29.347  1.00  0.00    -0.062 A 
HETATM   35  C   UNL     1     -15.789   7.731 -28.385  1.00  0.00     0.048 C 
HETATM   36  C   UNL     1     -14.236   5.890 -29.115  1.00  0.00     0.009 A 
HETATM   37  C   UNL     1     -13.866   4.874 -30.004  1.00  0.00     0.031 A 
ENDBRANCH   1  31
TORSDOF 6
ENDMDL
