MODEL 1
REMARK VINA RESULT:      -8.6      0.000      0.000
REMARK  5 active torsions:
REMARK  status: ('A' for Active; 'I' for Inactive)
REMARK    1  A    between atoms: C_2  and  O_3 
REMARK    2  A    between atoms: O_3  and  C_4 
REMARK    3  A    between atoms: C_5  and  C_6 
REMARK    4  A    between atoms: C_7  and  C_8 
REMARK       I    between atoms: C_8  and  N_9 
REMARK    5  A    between atoms: N_9  and  C_10 
ROOT
HETATM    1  C   UNL     1      -4.087   1.992 -32.569  1.00  0.00     0.042 C 
HETATM    2  C   UNL     1      -5.064   1.425 -31.837  1.00  0.00     0.113 C 
HETATM    3  C   UNL     1      -5.812   2.135 -30.865  1.00  0.00     0.105 C 
HETATM    4  N   UNL     1      -6.456   2.655 -30.052  1.00  0.00    -0.191 NA
ENDROOT
BRANCH   2   5
HETATM    5  C   UNL     1      -5.284  -0.049 -32.050  1.00  0.00     0.266 C 
HETATM    6  N   UNL     1      -4.602  -0.608 -33.117  1.00  0.00    -0.321 N 
HETATM    7  H   UNL     1      -3.778  -0.124 -33.454  1.00  0.00     0.169 HD
HETATM    8  O   UNL     1      -5.997  -0.679 -31.273  1.00  0.00    -0.267 OA
BRANCH   6   9
HETATM    9  C   UNL     1      -4.747  -1.946 -33.571  1.00  0.00     0.047 A 
HETATM   10  C   UNL     1      -3.953  -3.014 -33.096  1.00  0.00    -0.035 A 
HETATM   11  C   UNL     1      -2.953  -2.903 -31.975  1.00  0.00     0.050 C 
HETATM   12  C   UNL     1      -4.123  -4.297 -33.651  1.00  0.00     0.009 A 
HETATM   13  C   UNL     1      -5.104  -4.544 -34.604  1.00  0.00     0.001 A 
HETATM   14  C   UNL     1      -5.940  -3.513 -35.013  1.00  0.00     0.009 A 
HETATM   15  C   UNL     1      -5.781  -2.213 -34.503  1.00  0.00    -0.035 A 
HETATM   16  C   UNL     1      -6.706  -1.139 -35.014  1.00  0.00     0.050 C 
ENDBRANCH   6   9
ENDBRANCH   2   5
BRANCH   1  17
HETATM   17  C   UNL     1      -3.636   3.390 -32.498  1.00  0.00     0.002 A 
HETATM   18  C   UNL     1      -4.281   4.386 -33.269  1.00  0.00     0.079 A 
HETATM   19  C   UNL     1      -3.974   5.741 -33.117  1.00  0.00     0.047 A 
HETATM   20  C   UNL     1      -2.976   6.078 -32.225  1.00  0.00    -0.020 A 
HETATM   21  C   UNL     1      -2.311   5.103 -31.498  1.00  0.00     0.076 A 
HETATM   22  C   UNL     1      -2.505   7.415 -31.800  1.00  0.00     0.073 C 
HETATM   23  C   UNL     1      -2.623   3.761 -31.604  1.00  0.00     0.051 A 
HETATM   24  O   UNL     1      -1.368   5.608 -30.640  1.00  0.00    -0.345 OA
HETATM   25  C   UNL     1      -1.231   6.995 -31.052  1.00  0.00     0.129 C 
HETATM   26  C   UNL     1      -0.967   7.851 -29.824  1.00  0.00     0.040 C 
BRANCH  18  27
HETATM   27  O   UNL     1      -5.288   4.058 -34.142  1.00  0.00    -0.351 OA
BRANCH  27  28
HETATM   28  C   UNL     1      -6.521   4.682 -33.758  1.00  0.00     0.171 C 
HETATM   29  C   UNL     1      -7.609   3.625 -33.689  1.00  0.00     0.034 C 
ENDBRANCH  27  28
ENDBRANCH  18  27
ENDBRANCH   1  17
TORSDOF 5
ENDMDL
MODEL 2
REMARK VINA RESULT:      -8.2      2.322      8.608
REMARK  5 active torsions:
REMARK  status: ('A' for Active; 'I' for Inactive)
REMARK    1  A    between atoms: C_2  and  O_3 
REMARK    2  A    between atoms: O_3  and  C_4 
REMARK    3  A    between atoms: C_5  and  C_6 
REMARK    4  A    between atoms: C_7  and  C_8 
REMARK       I    between atoms: C_8  and  N_9 
REMARK    5  A    between atoms: N_9  and  C_10 
ROOT
HETATM    1  C   UNL     1      -2.953   3.922 -31.638  1.00  0.00     0.042 C 
HETATM    2  C   UNL     1      -2.255   4.779 -32.406  1.00  0.00     0.113 C 
HETATM    3  C   UNL     1      -2.254   4.722 -33.823  1.00  0.00     0.105 C 
HETATM    4  N   UNL     1      -2.204   4.727 -34.982  1.00  0.00    -0.191 NA
ENDROOT
BRANCH   2   5
HETATM    5  C   UNL     1      -1.397   5.778 -31.677  1.00  0.00     0.266 C 
HETATM    6  N   UNL     1      -1.539   5.796 -30.300  1.00  0.00    -0.321 N 
HETATM    7  H   UNL     1      -1.906   4.964 -29.855  1.00  0.00     0.169 HD
HETATM    8  O   UNL     1      -0.608   6.480 -32.305  1.00  0.00    -0.267 OA
BRANCH   6   9
HETATM    9  C   UNL     1      -0.919   6.727 -29.426  1.00  0.00     0.047 A 
HETATM   10  C   UNL     1      -1.489   7.979 -29.097  1.00  0.00    -0.035 A 
HETATM   11  C   UNL     1      -2.862   8.430 -29.523  1.00  0.00     0.050 C 
HETATM   12  C   UNL     1      -0.772   8.866 -28.272  1.00  0.00     0.009 A 
HETATM   13  C   UNL     1       0.450   8.504 -27.719  1.00  0.00     0.001 A 
HETATM   14  C   UNL     1       0.974   7.243 -27.974  1.00  0.00     0.009 A 
HETATM   15  C   UNL     1       0.302   6.342 -28.816  1.00  0.00    -0.035 A 
HETATM   16  C   UNL     1       0.943   5.002 -29.070  1.00  0.00     0.050 C 
ENDBRANCH   6   9
ENDBRANCH   2   5
BRANCH   1  17
HETATM   17  C   UNL     1      -3.805   2.819 -32.106  1.00  0.00     0.002 A 
HETATM   18  C   UNL     1      -5.118   3.079 -32.567  1.00  0.00     0.079 A 
HETATM   19  C   UNL     1      -5.900   2.079 -33.151  1.00  0.00     0.047 A 
HETATM   20  C   UNL     1      -5.371   0.805 -33.216  1.00  0.00    -0.020 A 
HETATM   21  C   UNL     1      -4.103   0.535 -32.728  1.00  0.00     0.076 A 
HETATM   22  C   UNL     1      -5.924  -0.414 -33.848  1.00  0.00     0.073 C 
HETATM   23  C   UNL     1      -3.297   1.516 -32.180  1.00  0.00     0.051 A 
HETATM   24  O   UNL     1      -3.720  -0.771 -32.893  1.00  0.00    -0.345 OA
HETATM   25  C   UNL     1      -4.948  -1.449 -33.269  1.00  0.00     0.129 C 
HETATM   26  C   UNL     1      -4.620  -2.556 -34.258  1.00  0.00     0.040 C 
BRANCH  18  27
HETATM   27  O   UNL     1      -5.640   4.348 -32.524  1.00  0.00    -0.351 OA
BRANCH  27  28
HETATM   28  C   UNL     1      -6.164   4.729 -33.804  1.00  0.00     0.171 C 
HETATM   29  C   UNL     1      -7.559   5.296 -33.615  1.00  0.00     0.034 C 
ENDBRANCH  27  28
ENDBRANCH  18  27
ENDBRANCH   1  17
TORSDOF 5
ENDMDL
MODEL 3
REMARK VINA RESULT:      -8.2      2.063      7.938
REMARK  5 active torsions:
REMARK  status: ('A' for Active; 'I' for Inactive)
REMARK    1  A    between atoms: C_2  and  O_3 
REMARK    2  A    between atoms: O_3  and  C_4 
REMARK    3  A    between atoms: C_5  and  C_6 
REMARK    4  A    between atoms: C_7  and  C_8 
REMARK       I    between atoms: C_8  and  N_9 
REMARK    5  A    between atoms: N_9  and  C_10 
ROOT
HETATM    1  C   UNL     1      -5.008   1.550 -33.113  1.00  0.00     0.042 C 
HETATM    2  C   UNL     1      -4.852   2.129 -31.908  1.00  0.00     0.113 C 
HETATM    3  C   UNL     1      -5.242   1.506 -30.695  1.00  0.00     0.105 C 
HETATM    4  N   UNL     1      -5.544   1.057 -29.669  1.00  0.00    -0.191 NA
ENDROOT
BRANCH   2   5
HETATM    5  C   UNL     1      -4.299   3.529 -31.909  1.00  0.00     0.266 C 
HETATM    6  N   UNL     1      -3.255   3.759 -32.788  1.00  0.00    -0.321 N 
HETATM    7  H   UNL     1      -3.161   3.134 -33.580  1.00  0.00     0.169 HD
HETATM    8  O   UNL     1      -4.803   4.386 -31.188  1.00  0.00    -0.267 OA
BRANCH   6   9
HETATM    9  C   UNL     1      -2.510   4.964 -32.877  1.00  0.00     0.047 A 
HETATM   10  C   UNL     1      -1.550   5.354 -31.915  1.00  0.00    -0.035 A 
HETATM   11  C   UNL     1      -1.106   4.499 -30.757  1.00  0.00     0.050 C 
HETATM   12  C   UNL     1      -0.905   6.598 -32.051  1.00  0.00     0.009 A 
HETATM   13  C   UNL     1      -1.144   7.415 -33.149  1.00  0.00     0.001 A 
HETATM   14  C   UNL     1      -2.026   6.997 -34.138  1.00  0.00     0.009 A 
HETATM   15  C   UNL     1      -2.710   5.776 -34.022  1.00  0.00    -0.035 A 
HETATM   16  C   UNL     1      -3.673   5.401 -35.120  1.00  0.00     0.050 C 
ENDBRANCH   6   9
ENDBRANCH   2   5
BRANCH   1  17
HETATM   17  C   UNL     1      -5.585   0.225 -33.381  1.00  0.00     0.002 A 
HETATM   18  C   UNL     1      -6.989   0.061 -33.454  1.00  0.00     0.079 A 
HETATM   19  C   UNL     1      -7.565  -1.149 -33.849  1.00  0.00     0.047 A 
HETATM   20  C   UNL     1      -6.719  -2.208 -34.114  1.00  0.00    -0.020 A 
HETATM   21  C   UNL     1      -5.345  -2.066 -34.003  1.00  0.00     0.076 A 
HETATM   22  C   UNL     1      -7.033  -3.560 -34.627  1.00  0.00     0.073 C 
HETATM   23  C   UNL     1      -4.751  -0.868 -33.651  1.00  0.00     0.051 A 
HETATM   24  O   UNL     1      -4.649  -3.203 -34.326  1.00  0.00    -0.345 OA
HETATM   25  C   UNL     1      -5.673  -4.232 -34.385  1.00  0.00     0.129 C 
HETATM   26  C   UNL     1      -5.313  -5.227 -35.476  1.00  0.00     0.040 C 
BRANCH  18  27
HETATM   27  O   UNL     1      -7.833   1.116 -33.212  1.00  0.00    -0.351 OA
BRANCH  27  28
HETATM   28  C   UNL     1      -8.654   0.861 -32.063  1.00  0.00     0.171 C 
HETATM   29  C   UNL     1      -8.876   2.165 -31.318  1.00  0.00     0.034 C 
ENDBRANCH  27  28
ENDBRANCH  18  27
ENDBRANCH   1  17
TORSDOF 5
ENDMDL
MODEL 4
REMARK VINA RESULT:      -8.1      2.212      8.382
REMARK  5 active torsions:
REMARK  status: ('A' for Active; 'I' for Inactive)
REMARK    1  A    between atoms: C_2  and  O_3 
REMARK    2  A    between atoms: O_3  and  C_4 
REMARK    3  A    between atoms: C_5  and  C_6 
REMARK    4  A    between atoms: C_7  and  C_8 
REMARK       I    between atoms: C_8  and  N_9 
REMARK    5  A    between atoms: N_9  and  C_10 
ROOT
HETATM    1  C   UNL     1      -3.255   3.193 -31.629  1.00  0.00     0.042 C 
HETATM    2  C   UNL     1      -3.080   4.328 -32.332  1.00  0.00     0.113 C 
HETATM    3  C   UNL     1      -3.775   4.606 -33.536  1.00  0.00     0.105 C 
HETATM    4  N   UNL     1      -4.303   4.893 -34.529  1.00  0.00    -0.191 NA
ENDROOT
BRANCH   2   5
HETATM    5  C   UNL     1      -2.037   5.280 -31.810  1.00  0.00     0.266 C 
HETATM    6  N   UNL     1      -2.046   5.484 -30.441  1.00  0.00    -0.321 N 
HETATM    7  H   UNL     1      -2.475   4.772 -29.862  1.00  0.00     0.169 HD
HETATM    8  O   UNL     1      -1.227   5.783 -32.583  1.00  0.00    -0.267 OA
BRANCH   6   9
HETATM    9  C   UNL     1      -1.233   6.419 -29.747  1.00  0.00     0.047 A 
HETATM   10  C   UNL     1       0.082   6.132 -29.315  1.00  0.00    -0.035 A 
HETATM   11  C   UNL     1       0.829   4.864 -29.638  1.00  0.00     0.050 C 
HETATM   12  C   UNL     1       0.790   7.099 -28.577  1.00  0.00     0.009 A 
HETATM   13  C   UNL     1       0.247   8.353 -28.328  1.00  0.00     0.001 A 
HETATM   14  C   UNL     1      -1.013   8.668 -28.822  1.00  0.00     0.009 A 
HETATM   15  C   UNL     1      -1.761   7.718 -29.537  1.00  0.00    -0.035 A 
HETATM   16  C   UNL     1      -3.132   8.120 -30.019  1.00  0.00     0.050 C 
ENDBRANCH   6   9
ENDBRANCH   2   5
BRANCH   1  17
HETATM   17  C   UNL     1      -4.159   2.083 -31.967  1.00  0.00     0.002 A 
HETATM   18  C   UNL     1      -5.540   2.175 -31.673  1.00  0.00     0.079 A 
HETATM   19  C   UNL     1      -6.446   1.204 -32.109  1.00  0.00     0.047 A 
HETATM   20  C   UNL     1      -5.943   0.115 -32.792  1.00  0.00    -0.020 A 
HETATM   21  C   UNL     1      -4.585  -0.001 -33.046  1.00  0.00     0.076 A 
HETATM   22  C   UNL     1      -6.661  -1.006 -33.438  1.00  0.00     0.073 C 
HETATM   23  C   UNL     1      -3.675   0.964 -32.658  1.00  0.00     0.051 A 
HETATM   24  O   UNL     1      -4.256  -1.127 -33.756  1.00  0.00    -0.345 OA
HETATM   25  C   UNL     1      -5.466  -1.930 -33.716  1.00  0.00     0.129 C 
HETATM   26  C   UNL     1      -5.604  -2.683 -35.029  1.00  0.00     0.040 C 
BRANCH  18  27
HETATM   27  O   UNL     1      -6.048   3.265 -31.013  1.00  0.00    -0.351 OA
BRANCH  27  28
HETATM   28  C   UNL     1      -7.039   3.930 -31.809  1.00  0.00     0.171 C 
HETATM   29  C   UNL     1      -6.859   5.431 -31.667  1.00  0.00     0.034 C 
ENDBRANCH  27  28
ENDBRANCH  18  27
ENDBRANCH   1  17
TORSDOF 5
ENDMDL
MODEL 5
REMARK VINA RESULT:      -8.1      1.733      2.094
REMARK  5 active torsions:
REMARK  status: ('A' for Active; 'I' for Inactive)
REMARK    1  A    between atoms: C_2  and  O_3 
REMARK    2  A    between atoms: O_3  and  C_4 
REMARK    3  A    between atoms: C_5  and  C_6 
REMARK    4  A    between atoms: C_7  and  C_8 
REMARK       I    between atoms: C_8  and  N_9 
REMARK    5  A    between atoms: N_9  and  C_10 
ROOT
HETATM    1  C   UNL     1      -4.579   1.777 -31.643  1.00  0.00     0.042 C 
HETATM    2  C   UNL     1      -5.379   1.141 -32.519  1.00  0.00     0.113 C 
HETATM    3  C   UNL     1      -6.240   1.823 -33.415  1.00  0.00     0.105 C 
HETATM    4  N   UNL     1      -6.972   2.318 -34.168  1.00  0.00    -0.191 NA
ENDROOT
BRANCH   2   5
HETATM    5  C   UNL     1      -5.373  -0.363 -32.455  1.00  0.00     0.266 C 
HETATM    6  N   UNL     1      -4.647  -1.000 -33.447  1.00  0.00    -0.321 N 
HETATM    7  H   UNL     1      -3.920  -0.470 -33.912  1.00  0.00     0.169 HD
HETATM    8  O   UNL     1      -5.953  -0.939 -31.539  1.00  0.00    -0.267 OA
BRANCH   6   9
HETATM    9  C   UNL     1      -4.595  -2.405 -33.649  1.00  0.00     0.047 A 
HETATM   10  C   UNL     1      -3.692  -3.252 -32.966  1.00  0.00    -0.035 A 
HETATM   11  C   UNL     1      -2.769  -2.806 -31.863  1.00  0.00     0.050 C 
HETATM   12  C   UNL     1      -3.667  -4.625 -33.278  1.00  0.00     0.009 A 
HETATM   13  C   UNL     1      -4.561  -5.171 -34.191  1.00  0.00     0.001 A 
HETATM   14  C   UNL     1      -5.505  -4.354 -34.802  1.00  0.00     0.009 A 
HETATM   15  C   UNL     1      -5.540  -2.975 -34.538  1.00  0.00    -0.035 A 
HETATM   16  C   UNL     1      -6.572  -2.146 -35.259  1.00  0.00     0.050 C 
ENDBRANCH   6   9
ENDBRANCH   2   5
BRANCH   1  17
HETATM   17  C   UNL     1      -4.458   3.231 -31.463  1.00  0.00     0.002 A 
HETATM   18  C   UNL     1      -5.223   3.892 -30.472  1.00  0.00     0.079 A 
HETATM   19  C   UNL     1      -5.026   5.244 -30.177  1.00  0.00     0.047 A 
HETATM   20  C   UNL     1      -4.095   5.937 -30.925  1.00  0.00    -0.020 A 
HETATM   21  C   UNL     1      -3.373   5.305 -31.926  1.00  0.00     0.076 A 
HETATM   22  C   UNL     1      -3.621   7.331 -30.783  1.00  0.00     0.073 C 
HETATM   23  C   UNL     1      -3.524   3.961 -32.210  1.00  0.00     0.051 A 
HETATM   24  O   UNL     1      -2.474   6.127 -32.554  1.00  0.00    -0.345 OA
HETATM   25  C   UNL     1      -2.845   7.458 -32.102  1.00  0.00     0.129 C 
HETATM   26  C   UNL     1      -1.588   8.300 -31.960  1.00  0.00     0.040 C 
BRANCH  18  27
HETATM   27  O   UNL     1      -6.134   3.203 -29.712  1.00  0.00    -0.351 OA
BRANCH  27  28
HETATM   28  C   UNL     1      -7.425   3.826 -29.770  1.00  0.00     0.171 C 
HETATM   29  C   UNL     1      -8.349   2.966 -30.613  1.00  0.00     0.034 C 
ENDBRANCH  27  28
ENDBRANCH  18  27
ENDBRANCH   1  17
TORSDOF 5
ENDMDL
MODEL 6
REMARK VINA RESULT:      -8.1      1.762      2.524
REMARK  5 active torsions:
REMARK  status: ('A' for Active; 'I' for Inactive)
REMARK    1  A    between atoms: C_2  and  O_3 
REMARK    2  A    between atoms: O_3  and  C_4 
REMARK    3  A    between atoms: C_5  and  C_6 
REMARK    4  A    between atoms: C_7  and  C_8 
REMARK       I    between atoms: C_8  and  N_9 
REMARK    5  A    between atoms: N_9  and  C_10 
ROOT
HETATM    1  C   UNL     1      -4.874   1.805 -32.189  1.00  0.00     0.042 C 
HETATM    2  C   UNL     1      -4.365   0.593 -31.899  1.00  0.00     0.113 C 
HETATM    3  C   UNL     1      -3.117   0.415 -31.250  1.00  0.00     0.105 C 
HETATM    4  N   UNL     1      -2.103   0.199 -30.730  1.00  0.00    -0.191 NA
ENDROOT
BRANCH   2   5
HETATM    5  C   UNL     1      -5.162  -0.593 -32.370  1.00  0.00     0.266 C 
HETATM    6  N   UNL     1      -4.541  -1.396 -33.312  1.00  0.00    -0.321 N 
HETATM    7  H   UNL     1      -3.530  -1.361 -33.365  1.00  0.00     0.169 HD
HETATM    8  O   UNL     1      -6.270  -0.816 -31.889  1.00  0.00    -0.267 OA
BRANCH   6   9
HETATM    9  C   UNL     1      -5.144  -2.496 -33.976  1.00  0.00     0.047 A 
HETATM   10  C   UNL     1      -6.287  -2.371 -34.799  1.00  0.00    -0.035 A 
HETATM   11  C   UNL     1      -6.929  -1.061 -35.176  1.00  0.00     0.050 C 
HETATM   12  C   UNL     1      -6.856  -3.527 -35.367  1.00  0.00     0.009 A 
HETATM   13  C   UNL     1      -6.274  -4.776 -35.190  1.00  0.00     0.001 A 
HETATM   14  C   UNL     1      -5.104  -4.890 -34.449  1.00  0.00     0.009 A 
HETATM   15  C   UNL     1      -4.524  -3.763 -33.843  1.00  0.00    -0.035 A 
HETATM   16  C   UNL     1      -3.271  -3.967 -33.031  1.00  0.00     0.050 C 
ENDBRANCH   6   9
ENDBRANCH   2   5
BRANCH   1  17
HETATM   17  C   UNL     1      -4.258   3.108 -31.898  1.00  0.00     0.002 A 
HETATM   18  C   UNL     1      -4.920   4.038 -31.062  1.00  0.00     0.079 A 
HETATM   19  C   UNL     1      -4.301   5.221 -30.650  1.00  0.00     0.047 A 
HETATM   20  C   UNL     1      -3.034   5.486 -31.132  1.00  0.00    -0.020 A 
HETATM   21  C   UNL     1      -2.397   4.599 -31.985  1.00  0.00     0.076 A 
HETATM   22  C   UNL     1      -2.114   6.598 -30.804  1.00  0.00     0.073 C 
HETATM   23  C   UNL     1      -2.975   3.405 -32.376  1.00  0.00     0.051 A 
HETATM   24  O   UNL     1      -1.137   4.999 -32.350  1.00  0.00    -0.345 OA
HETATM   25  C   UNL     1      -1.071   6.382 -31.911  1.00  0.00     0.129 C 
HETATM   26  C   UNL     1       0.343   6.686 -31.446  1.00  0.00     0.040 C 
BRANCH  18  27
HETATM   27  O   UNL     1      -6.170   3.770 -30.563  1.00  0.00    -0.351 OA
BRANCH  27  28
HETATM   28  C   UNL     1      -7.161   4.590 -31.199  1.00  0.00     0.171 C 
HETATM   29  C   UNL     1      -8.524   3.947 -31.014  1.00  0.00     0.034 C 
ENDBRANCH  27  28
ENDBRANCH  18  27
ENDBRANCH   1  17
TORSDOF 5
ENDMDL
MODEL 7
REMARK VINA RESULT:      -7.7      2.866      8.616
REMARK  5 active torsions:
REMARK  status: ('A' for Active; 'I' for Inactive)
REMARK    1  A    between atoms: C_2  and  O_3 
REMARK    2  A    between atoms: O_3  and  C_4 
REMARK    3  A    between atoms: C_5  and  C_6 
REMARK    4  A    between atoms: C_7  and  C_8 
REMARK       I    between atoms: C_8  and  N_9 
REMARK    5  A    between atoms: N_9  and  C_10 
ROOT
HETATM    1  C   UNL     1      -4.393   4.158 -32.114  1.00  0.00     0.042 C 
HETATM    2  C   UNL     1      -3.821   5.094 -32.893  1.00  0.00     0.113 C 
HETATM    3  C   UNL     1      -4.001   5.145 -34.299  1.00  0.00     0.105 C 
HETATM    4  N   UNL     1      -4.100   5.239 -35.451  1.00  0.00    -0.191 NA
ENDROOT
BRANCH   2   5
HETATM    5  C   UNL     1      -2.902   6.065 -32.201  1.00  0.00     0.266 C 
HETATM    6  N   UNL     1      -2.441   5.669 -30.958  1.00  0.00    -0.321 N 
HETATM    7  H   UNL     1      -2.446   4.678 -30.748  1.00  0.00     0.169 HD
HETATM    8  O   UNL     1      -2.580   7.108 -32.764  1.00  0.00    -0.267 OA
BRANCH   6   9
HETATM    9  C   UNL     1      -1.661   6.469 -30.081  1.00  0.00     0.047 A 
HETATM   10  C   UNL     1      -2.223   7.346 -29.126  1.00  0.00    -0.035 A 
HETATM   11  C   UNL     1      -3.697   7.453 -28.828  1.00  0.00     0.050 C 
HETATM   12  C   UNL     1      -1.372   8.149 -28.343  1.00  0.00     0.009 A 
HETATM   13  C   UNL     1       0.009   8.043 -28.444  1.00  0.00     0.001 A 
HETATM   14  C   UNL     1       0.566   7.123 -29.324  1.00  0.00     0.009 A 
HETATM   15  C   UNL     1      -0.252   6.326 -30.142  1.00  0.00    -0.035 A 
HETATM   16  C   UNL     1       0.422   5.370 -31.093  1.00  0.00     0.050 C 
ENDBRANCH   6   9
ENDBRANCH   2   5
BRANCH   1  17
HETATM   17  C   UNL     1      -5.270   3.064 -32.557  1.00  0.00     0.002 A 
HETATM   18  C   UNL     1      -4.790   1.733 -32.586  1.00  0.00     0.079 A 
HETATM   19  C   UNL     1      -5.636   0.656 -32.861  1.00  0.00     0.047 A 
HETATM   20  C   UNL     1      -6.954   0.934 -33.164  1.00  0.00    -0.020 A 
HETATM   21  C   UNL     1      -7.421   2.239 -33.179  1.00  0.00     0.076 A 
HETATM   22  C   UNL     1      -8.081   0.007 -33.408  1.00  0.00     0.073 C 
HETATM   23  C   UNL     1      -6.611   3.317 -32.872  1.00  0.00     0.051 A 
HETATM   24  O   UNL     1      -8.756   2.339 -33.472  1.00  0.00    -0.345 OA
HETATM   25  C   UNL     1      -9.108   1.013 -33.948  1.00  0.00     0.129 C 
HETATM   26  C   UNL     1     -10.527   0.690 -33.510  1.00  0.00     0.040 C 
BRANCH  18  27
HETATM   27  O   UNL     1      -3.486   1.449 -32.265  1.00  0.00    -0.351 OA
BRANCH  27  28
HETATM   28  C   UNL     1      -3.415   0.416 -31.273  1.00  0.00     0.171 C 
HETATM   29  C   UNL     1      -2.565  -0.723 -31.806  1.00  0.00     0.034 C 
ENDBRANCH  27  28
ENDBRANCH  18  27
ENDBRANCH   1  17
TORSDOF 5
ENDMDL
MODEL 8
REMARK VINA RESULT:      -7.7      2.209      2.928
REMARK  5 active torsions:
REMARK  status: ('A' for Active; 'I' for Inactive)
REMARK    1  A    between atoms: C_2  and  O_3 
REMARK    2  A    between atoms: O_3  and  C_4 
REMARK    3  A    between atoms: C_5  and  C_6 
REMARK    4  A    between atoms: C_7  and  C_8 
REMARK       I    between atoms: C_8  and  N_9 
REMARK    5  A    between atoms: N_9  and  C_10 
ROOT
HETATM    1  C   UNL     1      -4.460   3.309 -31.361  1.00  0.00     0.042 C 
HETATM    2  C   UNL     1      -5.194   2.934 -32.425  1.00  0.00     0.113 C 
HETATM    3  C   UNL     1      -5.660   3.848 -33.403  1.00  0.00     0.105 C 
HETATM    4  N   UNL     1      -6.079   4.543 -34.233  1.00  0.00    -0.191 NA
ENDROOT
BRANCH   2   5
HETATM    5  C   UNL     1      -5.569   1.477 -32.495  1.00  0.00     0.266 C 
HETATM    6  N   UNL     1      -5.036   0.774 -33.561  1.00  0.00    -0.321 N 
HETATM    7  H   UNL     1      -4.202   1.145 -33.999  1.00  0.00     0.169 HD
HETATM    8  O   UNL     1      -6.270   0.983 -31.615  1.00  0.00    -0.267 OA
BRANCH   6   9
HETATM    9  C   UNL     1      -5.343  -0.574 -33.888  1.00  0.00     0.047 A 
HETATM   10  C   UNL     1      -4.599  -1.676 -33.409  1.00  0.00    -0.035 A 
HETATM   11  C   UNL     1      -3.479  -1.579 -32.406  1.00  0.00     0.050 C 
HETATM   12  C   UNL     1      -4.937  -2.973 -33.838  1.00  0.00     0.009 A 
HETATM   13  C   UNL     1      -6.031  -3.194 -34.666  1.00  0.00     0.001 A 
HETATM   14  C   UNL     1      -6.814  -2.121 -35.072  1.00  0.00     0.009 A 
HETATM   15  C   UNL     1      -6.490  -0.809 -34.688  1.00  0.00    -0.035 A 
HETATM   16  C   UNL     1      -7.368   0.309 -35.189  1.00  0.00     0.050 C 
ENDBRANCH   6   9
ENDBRANCH   2   5
BRANCH   1  17
HETATM   17  C   UNL     1      -4.027   4.675 -31.032  1.00  0.00     0.002 A 
HETATM   18  C   UNL     1      -2.825   5.190 -31.573  1.00  0.00     0.079 A 
HETATM   19  C   UNL     1      -2.459   6.527 -31.398  1.00  0.00     0.047 A 
HETATM   20  C   UNL     1      -3.282   7.325 -30.627  1.00  0.00    -0.020 A 
HETATM   21  C   UNL     1      -4.438   6.814 -30.059  1.00  0.00     0.076 A 
HETATM   22  C   UNL     1      -3.195   8.775 -30.346  1.00  0.00     0.073 C 
HETATM   23  C   UNL     1      -4.840   5.505 -30.249  1.00  0.00     0.051 A 
HETATM   24  O   UNL     1      -5.153   7.742 -29.346  1.00  0.00    -0.345 OA
HETATM   25  C   UNL     1      -4.241   8.865 -29.224  1.00  0.00     0.129 C 
HETATM   26  C   UNL     1      -5.038  10.158 -29.275  1.00  0.00     0.040 C 
BRANCH  18  27
HETATM   27  O   UNL     1      -2.015   4.408 -32.358  1.00  0.00    -0.351 OA
BRANCH  27  28
HETATM   28  C   UNL     1      -1.387   5.190 -33.384  1.00  0.00     0.171 C 
HETATM   29  C   UNL     1      -2.117   4.959 -34.695  1.00  0.00     0.034 C 
ENDBRANCH  27  28
ENDBRANCH  18  27
ENDBRANCH   1  17
TORSDOF 5
ENDMDL
MODEL 9
REMARK VINA RESULT:      -7.7      5.103      8.972
REMARK  5 active torsions:
REMARK  status: ('A' for Active; 'I' for Inactive)
REMARK    1  A    between atoms: C_2  and  O_3 
REMARK    2  A    between atoms: O_3  and  C_4 
REMARK    3  A    between atoms: C_5  and  C_6 
REMARK    4  A    between atoms: C_7  and  C_8 
REMARK       I    between atoms: C_8  and  N_9 
REMARK    5  A    between atoms: N_9  and  C_10 
ROOT
HETATM    1  C   UNL     1     -10.135   1.315 -33.359  1.00  0.00     0.042 C 
HETATM    2  C   UNL     1     -10.455   2.551 -33.785  1.00  0.00     0.113 C 
HETATM    3  C   UNL     1      -9.483   3.527 -34.122  1.00  0.00     0.105 C 
HETATM    4  N   UNL     1      -8.740   4.372 -34.406  1.00  0.00    -0.191 NA
ENDROOT
BRANCH   2   5
HETATM    5  C   UNL     1     -11.922   2.885 -33.820  1.00  0.00     0.266 C 
HETATM    6  N   UNL     1     -12.619   2.638 -32.650  1.00  0.00    -0.321 N 
HETATM    7  H   UNL     1     -12.090   2.593 -31.788  1.00  0.00     0.169 HD
HETATM    8  O   UNL     1     -12.412   3.381 -34.831  1.00  0.00    -0.267 OA
BRANCH   6   9
HETATM    9  C   UNL     1     -14.025   2.769 -32.492  1.00  0.00     0.047 A 
HETATM   10  C   UNL     1     -14.949   1.803 -32.950  1.00  0.00    -0.035 A 
HETATM   11  C   UNL     1     -14.569   0.471 -33.544  1.00  0.00     0.050 C 
HETATM   12  C   UNL     1     -16.328   2.047 -32.807  1.00  0.00     0.009 A 
HETATM   13  C   UNL     1     -16.793   3.186 -32.161  1.00  0.00     0.001 A 
HETATM   14  C   UNL     1     -15.885   4.098 -31.637  1.00  0.00     0.009 A 
HETATM   15  C   UNL     1     -14.502   3.902 -31.786  1.00  0.00    -0.035 A 
HETATM   16  C   UNL     1     -13.577   4.947 -31.216  1.00  0.00     0.050 C 
ENDBRANCH   6   9
ENDBRANCH   2   5
BRANCH   1  17
HETATM   17  C   UNL     1      -8.781   0.773 -33.172  1.00  0.00     0.002 A 
HETATM   18  C   UNL     1      -8.072   1.025 -31.974  1.00  0.00     0.079 A 
HETATM   19  C   UNL     1      -6.848   0.408 -31.705  1.00  0.00     0.047 A 
HETATM   20  C   UNL     1      -6.316  -0.418 -32.676  1.00  0.00    -0.020 A 
HETATM   21  C   UNL     1      -6.986  -0.634 -33.870  1.00  0.00     0.076 A 
HETATM   22  C   UNL     1      -5.099  -1.259 -32.636  1.00  0.00     0.073 C 
HETATM   23  C   UNL     1      -8.216  -0.065 -34.142  1.00  0.00     0.051 A 
HETATM   24  O   UNL     1      -6.336  -1.499 -34.713  1.00  0.00    -0.345 OA
HETATM   25  C   UNL     1      -5.015  -1.631 -34.123  1.00  0.00     0.129 C 
HETATM   26  C   UNL     1      -4.516  -3.050 -34.341  1.00  0.00     0.040 C 
BRANCH  18  27
HETATM   27  O   UNL     1      -8.606   1.828 -30.997  1.00  0.00    -0.351 OA
BRANCH  27  28
HETATM   28  C   UNL     1      -7.959   3.108 -30.977  1.00  0.00     0.171 C 
HETATM   29  C   UNL     1      -7.399   3.356 -29.588  1.00  0.00     0.034 C 
ENDBRANCH  27  28
ENDBRANCH  18  27
ENDBRANCH   1  17
TORSDOF 5
ENDMDL
MODEL 10
REMARK VINA RESULT:      -7.5      3.520      8.525
REMARK  5 active torsions:
REMARK  status: ('A' for Active; 'I' for Inactive)
REMARK    1  A    between atoms: C_2  and  O_3 
REMARK    2  A    between atoms: O_3  and  C_4 
REMARK    3  A    between atoms: C_5  and  C_6 
REMARK    4  A    between atoms: C_7  and  C_8 
REMARK       I    between atoms: C_8  and  N_9 
REMARK    5  A    between atoms: N_9  and  C_10 
ROOT
HETATM    1  C   UNL     1      -7.276   1.872 -34.023  1.00  0.00     0.042 C 
HETATM    2  C   UNL     1      -8.417   2.051 -33.332  1.00  0.00     0.113 C 
HETATM    3  C   UNL     1      -8.895   1.119 -32.376  1.00  0.00     0.105 C 
HETATM    4  N   UNL     1      -9.347   0.396 -31.589  1.00  0.00    -0.191 NA
ENDROOT
BRANCH   2   5
HETATM    5  C   UNL     1      -9.219   3.277 -33.678  1.00  0.00     0.266 C 
HETATM    6  N   UNL     1     -10.556   3.237 -33.321  1.00  0.00    -0.321 N 
HETATM    7  H   UNL     1     -10.827   2.597 -32.585  1.00  0.00     0.169 HD
HETATM    8  O   UNL     1      -8.667   4.240 -34.204  1.00  0.00    -0.267 OA
BRANCH   6   9
HETATM    9  C   UNL     1     -11.520   4.227 -33.648  1.00  0.00     0.047 A 
HETATM   10  C   UNL     1     -12.211   4.257 -34.881  1.00  0.00    -0.035 A 
HETATM   11  C   UNL     1     -12.112   3.192 -35.942  1.00  0.00     0.050 C 
HETATM   12  C   UNL     1     -13.103   5.313 -35.144  1.00  0.00     0.009 A 
HETATM   13  C   UNL     1     -13.369   6.286 -34.187  1.00  0.00     0.001 A 
HETATM   14  C   UNL     1     -12.753   6.212 -32.944  1.00  0.00     0.009 A 
HETATM   15  C   UNL     1     -11.834   5.189 -32.656  1.00  0.00    -0.035 A 
HETATM   16  C   UNL     1     -11.184   5.189 -31.296  1.00  0.00     0.050 C 
ENDBRANCH   6   9
ENDBRANCH   2   5
BRANCH   1  17
HETATM   17  C   UNL     1      -6.357   0.729 -33.919  1.00  0.00     0.002 A 
HETATM   18  C   UNL     1      -5.257   0.778 -33.030  1.00  0.00     0.079 A 
HETATM   19  C   UNL     1      -4.451  -0.341 -32.801  1.00  0.00     0.047 A 
HETATM   20  C   UNL     1      -4.728  -1.490 -33.514  1.00  0.00    -0.020 A 
HETATM   21  C   UNL     1      -5.778  -1.531 -34.418  1.00  0.00     0.076 A 
HETATM   22  C   UNL     1      -4.110  -2.831 -33.417  1.00  0.00     0.073 C 
HETATM   23  C   UNL     1      -6.611  -0.450 -34.633  1.00  0.00     0.051 A 
HETATM   24  O   UNL     1      -5.932  -2.752 -35.022  1.00  0.00    -0.345 OA
HETATM   25  C   UNL     1      -4.715  -3.466 -34.679  1.00  0.00     0.129 C 
HETATM   26  C   UNL     1      -5.041  -4.939 -34.490  1.00  0.00     0.040 C 
BRANCH  18  27
HETATM   27  O   UNL     1      -4.991   1.911 -32.303  1.00  0.00    -0.351 OA
BRANCH  27  28
HETATM   28  C   UNL     1      -4.766   1.592 -30.922  1.00  0.00     0.171 C 
HETATM   29  C   UNL     1      -6.029   1.893 -30.135  1.00  0.00     0.034 C 
ENDBRANCH  27  28
ENDBRANCH  18  27
ENDBRANCH   1  17
TORSDOF 5
ENDMDL
