MODEL 1
REMARK VINA RESULT:      -8.9      0.000      0.000
REMARK  10 active torsions:
REMARK  status: ('A' for Active; 'I' for Inactive)
REMARK    1  A    between atoms: C_4  and  C_5 
REMARK    2  A    between atoms: C_7  and  C_8 
REMARK    3  A    between atoms: C_8  and  C_9 
REMARK       I    between atoms: C_9  and  N_10 
REMARK    4  A    between atoms: N_10  and  C_11 
REMARK    5  A    between atoms: C_11  and  C_12 
REMARK    6  A    between atoms: C_12  and  N_13 
REMARK    7  A    between atoms: C_24  and  C_25 
REMARK    8  A    between atoms: C_25  and  O_26 
REMARK    9  A    between atoms: O_26  and  C_27 
REMARK   10  A    between atoms: C_27  and  C_28 
ROOT
HETATM    1  C   UNL     1      -4.932   3.829 -31.950  1.00  0.00     0.166 C 
HETATM    2  N   UNL     1      -5.797   4.830 -31.232  1.00  0.00    -0.318 N 
HETATM    3  C   UNL     1      -6.009   6.116 -31.239  1.00  0.00     0.011 C 
HETATM    4  C   UNL     1      -6.841   4.125 -30.311  1.00  0.00     0.170 C 
HETATM    5  S   UNL     1      -8.114   5.175 -29.800  1.00  0.00    -0.086 SA
HETATM    6  C   UNL     1      -7.286   6.577 -30.548  1.00  0.00     0.135 C 
HETATM    7  N   UNL     1      -6.789   2.911 -29.910  1.00  0.00    -0.229 NA
HETATM    8  C   UNL     1      -5.739   2.120 -30.298  1.00  0.00     0.048 C 
HETATM    9  C   UNL     1      -5.786   0.745 -29.667  1.00  0.00     0.071 C 
HETATM   10  C   UNL     1      -4.832   2.511 -31.220  1.00  0.00     0.069 C 
ENDROOT
BRANCH   3  11
HETATM   11  C   UNL     1      -5.159   7.142 -31.947  1.00  0.00     0.156 C 
BRANCH  11  12
HETATM   12  C   UNL     1      -4.284   7.939 -30.988  1.00  0.00     0.223 C 
HETATM   13  N   UNL     1      -3.901   7.281 -29.848  1.00  0.00    -0.359 N 
HETATM   14  H   UNL     1      -4.400   6.425 -29.613  1.00  0.00     0.162 HD
HETATM   15  O   UNL     1      -3.918   9.086 -31.237  1.00  0.00    -0.273 OA
BRANCH  13  16
HETATM   16  C   UNL     1      -3.218   7.925 -28.720  1.00  0.00     0.150 C 
BRANCH  16  17
HETATM   17  C   UNL     1      -1.798   7.405 -28.389  1.00  0.00     0.253 C 
BRANCH  17  18
HETATM   18  N   UNL     1      -1.769   6.500 -27.172  1.00  0.00    -0.077 N 
HETATM   19  H   UNL     1      -2.151   5.581 -27.475  1.00  0.00     0.279 HD
HETATM   20  C   UNL     1      -0.384   6.233 -26.648  1.00  0.00     0.269 C 
HETATM   21  C   UNL     1      -2.665   7.002 -26.073  1.00  0.00     0.269 C 
ENDBRANCH  17  18
ENDBRANCH  16  17
ENDBRANCH  13  16
ENDBRANCH  11  12
ENDBRANCH   3  11
BRANCH   1  22
HETATM   22  C   UNL     1      -3.635   4.427 -32.481  1.00  0.00    -0.024 A 
HETATM   23  C   UNL     1      -2.576   4.571 -31.545  1.00  0.00     0.017 A 
HETATM   24  C   UNL     1      -1.312   5.040 -31.918  1.00  0.00    -0.061 A 
HETATM   25  C   UNL     1      -0.221   5.190 -30.896  1.00  0.00     0.048 C 
HETATM   26  C   UNL     1      -1.111   5.435 -33.237  1.00  0.00     0.007 A 
HETATM   27  C   UNL     1      -2.145   5.329 -34.171  1.00  0.00     0.008 A 
HETATM   28  C   UNL     1      -3.404   4.807 -33.821  1.00  0.00    -0.053 A 
HETATM   29  C   UNL     1      -4.449   4.765 -34.904  1.00  0.00     0.049 C 
ENDBRANCH   1  22
BRANCH  10  30
HETATM   30  C   UNL     1      -3.800   1.560 -31.698  1.00  0.00     0.294 C 
HETATM   31  O   UNL     1      -2.753   1.387 -31.100  1.00  0.00    -0.259 OA
BRANCH  30  32
HETATM   32  O   UNL     1      -4.225   0.929 -32.811  1.00  0.00    -0.313 OA
BRANCH  32  33
HETATM   33  C   UNL     1      -3.657  -0.372 -33.035  1.00  0.00     0.217 C 
BRANCH  33  34
HETATM   34  C   UNL     1      -4.737  -1.264 -33.601  1.00  0.00    -0.034 A 
HETATM   35  C   UNL     1      -6.076  -0.842 -33.612  1.00  0.00     0.009 A 
HETATM   36  C   UNL     1      -7.079  -1.659 -34.135  1.00  0.00     0.001 A 
HETATM   37  C   UNL     1      -6.755  -2.903 -34.669  1.00  0.00     0.000 A 
HETATM   38  C   UNL     1      -5.429  -3.329 -34.680  1.00  0.00     0.001 A 
HETATM   39  C   UNL     1      -4.425  -2.516 -34.147  1.00  0.00     0.009 A 
ENDBRANCH  33  34
ENDBRANCH  32  33
ENDBRANCH  30  32
ENDBRANCH  10  30
TORSDOF 10
ENDMDL
MODEL 2
REMARK VINA RESULT:      -8.6      2.825      4.818
REMARK  10 active torsions:
REMARK  status: ('A' for Active; 'I' for Inactive)
REMARK    1  A    between atoms: C_4  and  C_5 
REMARK    2  A    between atoms: C_7  and  C_8 
REMARK    3  A    between atoms: C_8  and  C_9 
REMARK       I    between atoms: C_9  and  N_10 
REMARK    4  A    between atoms: N_10  and  C_11 
REMARK    5  A    between atoms: C_11  and  C_12 
REMARK    6  A    between atoms: C_12  and  N_13 
REMARK    7  A    between atoms: C_24  and  C_25 
REMARK    8  A    between atoms: C_25  and  O_26 
REMARK    9  A    between atoms: O_26  and  C_27 
REMARK   10  A    between atoms: C_27  and  C_28 
ROOT
HETATM    1  C   UNL     1      -7.986   4.643 -31.540  1.00  0.00     0.166 C 
HETATM    2  N   UNL     1      -7.791   5.304 -30.202  1.00  0.00    -0.318 N 
HETATM    3  C   UNL     1      -6.818   5.550 -29.370  1.00  0.00     0.011 C 
HETATM    4  C   UNL     1      -9.090   6.028 -29.729  1.00  0.00     0.170 C 
HETATM    5  S   UNL     1      -8.815   7.141 -28.436  1.00  0.00    -0.086 SA
HETATM    6  C   UNL     1      -7.112   6.598 -28.304  1.00  0.00     0.135 C 
HETATM    7  N   UNL     1     -10.269   5.829 -30.185  1.00  0.00    -0.229 NA
HETATM    8  C   UNL     1     -10.457   4.904 -31.179  1.00  0.00     0.048 C 
HETATM    9  C   UNL     1     -11.916   4.731 -31.540  1.00  0.00     0.071 C 
HETATM   10  C   UNL     1      -9.431   4.302 -31.820  1.00  0.00     0.069 C 
ENDROOT
BRANCH   3  11
HETATM   11  C   UNL     1      -5.430   4.963 -29.444  1.00  0.00     0.156 C 
BRANCH  11  12
HETATM   12  C   UNL     1      -4.516   5.740 -30.383  1.00  0.00     0.223 C 
HETATM   13  N   UNL     1      -3.279   5.190 -30.596  1.00  0.00    -0.359 N 
HETATM   14  H   UNL     1      -2.976   4.458 -29.956  1.00  0.00     0.162 HD
HETATM   15  O   UNL     1      -4.879   6.775 -30.939  1.00  0.00    -0.273 OA
BRANCH  13  16
HETATM   16  C   UNL     1      -2.193   5.869 -31.314  1.00  0.00     0.150 C 
BRANCH  16  17
HETATM   17  C   UNL     1      -1.493   5.056 -32.430  1.00  0.00     0.253 C 
BRANCH  17  18
HETATM   18  N   UNL     1      -1.365   5.828 -33.730  1.00  0.00    -0.077 N 
HETATM   19  H   UNL     1      -0.348   5.946 -33.908  1.00  0.00     0.279 HD
HETATM   20  C   UNL     1      -1.924   5.100 -34.924  1.00  0.00     0.269 C 
HETATM   21  C   UNL     1      -1.952   7.209 -33.628  1.00  0.00     0.269 C 
ENDBRANCH  17  18
ENDBRANCH  16  17
ENDBRANCH  13  16
ENDBRANCH  11  12
ENDBRANCH   3  11
BRANCH   1  22
HETATM   22  C   UNL     1      -6.951   3.564 -31.833  1.00  0.00    -0.024 A 
HETATM   23  C   UNL     1      -6.983   2.414 -31.000  1.00  0.00     0.017 A 
HETATM   24  C   UNL     1      -6.135   1.321 -31.207  1.00  0.00    -0.061 A 
HETATM   25  C   UNL     1      -6.191   0.127 -30.297  1.00  0.00     0.048 C 
HETATM   26  C   UNL     1      -5.190   1.395 -32.226  1.00  0.00     0.007 A 
HETATM   27  C   UNL     1      -5.119   2.527 -33.042  1.00  0.00     0.008 A 
HETATM   28  C   UNL     1      -6.003   3.610 -32.879  1.00  0.00    -0.053 A 
HETATM   29  C   UNL     1      -5.816   4.787 -33.799  1.00  0.00     0.049 C 
ENDBRANCH   1  22
BRANCH  10  30
HETATM   30  C   UNL     1      -9.694   3.415 -32.977  1.00  0.00     0.294 C 
HETATM   31  O   UNL     1      -9.697   3.828 -34.123  1.00  0.00    -0.259 OA
BRANCH  30  32
HETATM   32  O   UNL     1      -9.867   2.144 -32.562  1.00  0.00    -0.313 OA
BRANCH  32  33
HETATM   33  C   UNL     1     -10.172   1.194 -33.597  1.00  0.00     0.217 C 
BRANCH  33  34
HETATM   34  C   UNL     1      -8.898   0.465 -33.953  1.00  0.00    -0.034 A 
HETATM   35  C   UNL     1      -8.086   0.923 -35.002  1.00  0.00     0.009 A 
HETATM   36  C   UNL     1      -6.906   0.256 -35.337  1.00  0.00     0.001 A 
HETATM   37  C   UNL     1      -6.515  -0.869 -34.616  1.00  0.00     0.000 A 
HETATM   38  C   UNL     1      -7.303  -1.327 -33.562  1.00  0.00     0.001 A 
HETATM   39  C   UNL     1      -8.489  -0.666 -33.233  1.00  0.00     0.009 A 
ENDBRANCH  33  34
ENDBRANCH  32  33
ENDBRANCH  30  32
ENDBRANCH  10  30
TORSDOF 10
ENDMDL
MODEL 3
REMARK VINA RESULT:      -8.4      1.985      3.012
REMARK  10 active torsions:
REMARK  status: ('A' for Active; 'I' for Inactive)
REMARK    1  A    between atoms: C_4  and  C_5 
REMARK    2  A    between atoms: C_7  and  C_8 
REMARK    3  A    between atoms: C_8  and  C_9 
REMARK       I    between atoms: C_9  and  N_10 
REMARK    4  A    between atoms: N_10  and  C_11 
REMARK    5  A    between atoms: C_11  and  C_12 
REMARK    6  A    between atoms: C_12  and  N_13 
REMARK    7  A    between atoms: C_24  and  C_25 
REMARK    8  A    between atoms: C_25  and  O_26 
REMARK    9  A    between atoms: O_26  and  C_27 
REMARK   10  A    between atoms: C_27  and  C_28 
ROOT
HETATM    1  C   UNL     1      -7.034   3.290 -32.743  1.00  0.00     0.166 C 
HETATM    2  N   UNL     1      -7.729   4.023 -31.627  1.00  0.00    -0.318 N 
HETATM    3  C   UNL     1      -7.528   5.068 -30.874  1.00  0.00     0.011 C 
HETATM    4  C   UNL     1      -9.167   3.465 -31.388  1.00  0.00     0.170 C 
HETATM    5  S   UNL     1     -10.154   4.516 -30.435  1.00  0.00    -0.086 SA
HETATM    6  C   UNL     1      -8.752   5.591 -30.133  1.00  0.00     0.135 C 
HETATM    7  N   UNL     1      -9.611   2.336 -31.795  1.00  0.00    -0.229 NA
HETATM    8  C   UNL     1      -8.785   1.507 -32.508  1.00  0.00     0.048 C 
HETATM    9  C   UNL     1      -9.438   0.182 -32.835  1.00  0.00     0.071 C 
HETATM   10  C   UNL     1      -7.566   1.892 -32.947  1.00  0.00     0.069 C 
ENDROOT
BRANCH   3  11
HETATM   11  C   UNL     1      -6.233   5.835 -30.764  1.00  0.00     0.156 C 
BRANCH  11  12
HETATM   12  C   UNL     1      -5.989   6.370 -29.359  1.00  0.00     0.223 C 
HETATM   13  N   UNL     1      -5.330   5.523 -28.508  1.00  0.00    -0.359 N 
HETATM   14  H   UNL     1      -5.260   4.545 -28.782  1.00  0.00     0.162 HD
HETATM   15  O   UNL     1      -6.332   7.502 -29.023  1.00  0.00    -0.273 OA
BRANCH  13  16
HETATM   16  C   UNL     1      -5.161   5.772 -27.071  1.00  0.00     0.150 C 
BRANCH  16  17
HETATM   17  C   UNL     1      -4.161   6.888 -26.679  1.00  0.00     0.253 C 
BRANCH  17  18
HETATM   18  N   UNL     1      -2.731   6.561 -27.064  1.00  0.00    -0.077 N 
HETATM   19  H   UNL     1      -2.758   5.653 -27.569  1.00  0.00     0.279 HD
HETATM   20  C   UNL     1      -2.117   7.557 -28.012  1.00  0.00     0.269 C 
HETATM   21  C   UNL     1      -1.852   6.363 -25.860  1.00  0.00     0.269 C 
ENDBRANCH  17  18
ENDBRANCH  16  17
ENDBRANCH  13  16
ENDBRANCH  11  12
ENDBRANCH   3  11
BRANCH   1  22
HETATM   22  C   UNL     1      -5.519   3.458 -32.719  1.00  0.00    -0.024 A 
HETATM   23  C   UNL     1      -4.954   4.245 -33.757  1.00  0.00     0.017 A 
HETATM   24  C   UNL     1      -3.587   4.535 -33.810  1.00  0.00    -0.061 A 
HETATM   25  C   UNL     1      -3.024   5.362 -34.931  1.00  0.00     0.048 C 
HETATM   26  C   UNL     1      -2.750   3.981 -32.846  1.00  0.00     0.007 A 
HETATM   27  C   UNL     1      -3.278   3.180 -31.830  1.00  0.00     0.008 A 
HETATM   28  C   UNL     1      -4.659   2.925 -31.734  1.00  0.00    -0.053 A 
HETATM   29  C   UNL     1      -5.109   2.027 -30.613  1.00  0.00     0.049 C 
ENDBRANCH   1  22
BRANCH  10  30
HETATM   30  C   UNL     1      -6.777   1.000 -33.829  1.00  0.00     0.294 C 
HETATM   31  O   UNL     1      -6.656   1.211 -35.023  1.00  0.00    -0.259 OA
BRANCH  30  32
HETATM   32  O   UNL     1      -6.215   0.008 -33.109  1.00  0.00    -0.313 OA
BRANCH  32  33
HETATM   33  C   UNL     1      -5.009  -0.546 -33.661  1.00  0.00     0.217 C 
BRANCH  33  34
HETATM   34  C   UNL     1      -5.285  -1.980 -34.045  1.00  0.00    -0.034 A 
HETATM   35  C   UNL     1      -4.280  -2.953 -33.932  1.00  0.00     0.009 A 
HETATM   36  C   UNL     1      -4.527  -4.281 -34.283  1.00  0.00     0.001 A 
HETATM   37  C   UNL     1      -5.788  -4.658 -34.737  1.00  0.00     0.000 A 
HETATM   38  C   UNL     1      -6.801  -3.706 -34.839  1.00  0.00     0.001 A 
HETATM   39  C   UNL     1      -6.552  -2.374 -34.498  1.00  0.00     0.009 A 
ENDBRANCH  33  34
ENDBRANCH  32  33
ENDBRANCH  30  32
ENDBRANCH  10  30
TORSDOF 10
ENDMDL
MODEL 4
REMARK VINA RESULT:      -8.4      2.308      3.709
REMARK  10 active torsions:
REMARK  status: ('A' for Active; 'I' for Inactive)
REMARK    1  A    between atoms: C_4  and  C_5 
REMARK    2  A    between atoms: C_7  and  C_8 
REMARK    3  A    between atoms: C_8  and  C_9 
REMARK       I    between atoms: C_9  and  N_10 
REMARK    4  A    between atoms: N_10  and  C_11 
REMARK    5  A    between atoms: C_11  and  C_12 
REMARK    6  A    between atoms: C_12  and  N_13 
REMARK    7  A    between atoms: C_24  and  C_25 
REMARK    8  A    between atoms: C_25  and  O_26 
REMARK    9  A    between atoms: O_26  and  C_27 
REMARK   10  A    between atoms: C_27  and  C_28 
ROOT
HETATM    1  C   UNL     1      -7.385   2.988 -32.608  1.00  0.00     0.166 C 
HETATM    2  N   UNL     1      -8.132   3.629 -31.469  1.00  0.00    -0.318 N 
HETATM    3  C   UNL     1      -7.864   4.265 -30.364  1.00  0.00     0.011 C 
HETATM    4  C   UNL     1      -9.667   3.672 -31.748  1.00  0.00     0.170 C 
HETATM    5  S   UNL     1     -10.518   4.752 -30.701  1.00  0.00    -0.086 SA
HETATM    6  C   UNL     1      -9.025   5.036 -29.749  1.00  0.00     0.135 C 
HETATM    7  N   UNL     1     -10.292   2.973 -32.619  1.00  0.00    -0.229 NA
HETATM    8  C   UNL     1      -9.591   2.091 -33.400  1.00  0.00     0.048 C 
HETATM    9  C   UNL     1     -10.490   1.286 -34.312  1.00  0.00     0.071 C 
HETATM   10  C   UNL     1      -8.241   2.038 -33.411  1.00  0.00     0.069 C 
ENDROOT
BRANCH   3  11
HETATM   11  C   UNL     1      -6.503   4.374 -29.721  1.00  0.00     0.156 C 
BRANCH  11  12
HETATM   12  C   UNL     1      -5.696   5.550 -30.256  1.00  0.00     0.223 C 
HETATM   13  N   UNL     1      -4.477   5.752 -29.664  1.00  0.00    -0.359 N 
HETATM   14  H   UNL     1      -4.300   5.271 -28.784  1.00  0.00     0.162 HD
HETATM   15  O   UNL     1      -6.100   6.252 -31.181  1.00  0.00    -0.273 OA
BRANCH  13  16
HETATM   16  C   UNL     1      -3.634   6.929 -29.903  1.00  0.00     0.150 C 
BRANCH  16  17
HETATM   17  C   UNL     1      -2.259   6.667 -30.567  1.00  0.00     0.253 C 
BRANCH  17  18
HETATM   18  N   UNL     1      -1.288   5.948 -29.649  1.00  0.00    -0.077 N 
HETATM   19  H   UNL     1      -1.835   5.217 -29.151  1.00  0.00     0.279 HD
HETATM   20  C   UNL     1      -0.185   5.230 -30.379  1.00  0.00     0.269 C 
HETATM   21  C   UNL     1      -0.723   6.861 -28.596  1.00  0.00     0.269 C 
ENDBRANCH  17  18
ENDBRANCH  16  17
ENDBRANCH  13  16
ENDBRANCH  11  12
ENDBRANCH   3  11
BRANCH   1  22
HETATM   22  C   UNL     1      -5.994   2.505 -32.217  1.00  0.00    -0.024 A 
HETATM   23  C   UNL     1      -4.898   3.245 -32.736  1.00  0.00     0.017 A 
HETATM   24  C   UNL     1      -3.573   2.950 -32.396  1.00  0.00    -0.061 A 
HETATM   25  C   UNL     1      -2.440   3.748 -32.975  1.00  0.00     0.048 C 
HETATM   26  C   UNL     1      -3.325   1.856 -31.572  1.00  0.00     0.007 A 
HETATM   27  C   UNL     1      -4.384   1.095 -31.071  1.00  0.00     0.008 A 
HETATM   28  C   UNL     1      -5.724   1.415 -31.360  1.00  0.00    -0.053 A 
HETATM   29  C   UNL     1      -6.780   0.509 -30.786  1.00  0.00     0.049 C 
ENDBRANCH   1  22
BRANCH  10  30
HETATM   30  C   UNL     1      -7.538   1.160 -34.376  1.00  0.00     0.294 C 
HETATM   31  O   UNL     1      -7.010   1.597 -35.383  1.00  0.00    -0.259 OA
BRANCH  30  32
HETATM   32  O   UNL     1      -7.547  -0.115 -33.940  1.00  0.00    -0.313 OA
BRANCH  32  33
HETATM   33  C   UNL     1      -7.317  -1.112 -34.949  1.00  0.00     0.217 C 
BRANCH  33  34
HETATM   34  C   UNL     1      -6.159  -1.973 -34.502  1.00  0.00    -0.034 A 
HETATM   35  C   UNL     1      -6.081  -3.319 -34.892  1.00  0.00     0.009 A 
HETATM   36  C   UNL     1      -5.014  -4.121 -34.484  1.00  0.00     0.001 A 
HETATM   37  C   UNL     1      -4.002  -3.584 -33.694  1.00  0.00     0.000 A 
HETATM   38  C   UNL     1      -4.057  -2.245 -33.311  1.00  0.00     0.001 A 
HETATM   39  C   UNL     1      -5.131  -1.444 -33.710  1.00  0.00     0.009 A 
ENDBRANCH  33  34
ENDBRANCH  32  33
ENDBRANCH  30  32
ENDBRANCH  10  30
TORSDOF 10
ENDMDL
MODEL 5
REMARK VINA RESULT:      -8.3      2.684      7.833
REMARK  10 active torsions:
REMARK  status: ('A' for Active; 'I' for Inactive)
REMARK    1  A    between atoms: C_4  and  C_5 
REMARK    2  A    between atoms: C_7  and  C_8 
REMARK    3  A    between atoms: C_8  and  C_9 
REMARK       I    between atoms: C_9  and  N_10 
REMARK    4  A    between atoms: N_10  and  C_11 
REMARK    5  A    between atoms: C_11  and  C_12 
REMARK    6  A    between atoms: C_12  and  N_13 
REMARK    7  A    between atoms: C_24  and  C_25 
REMARK    8  A    between atoms: C_25  and  O_26 
REMARK    9  A    between atoms: O_26  and  C_27 
REMARK   10  A    between atoms: C_27  and  C_28 
ROOT
HETATM    1  C   UNL     1      -6.668   4.932 -31.872  1.00  0.00     0.166 C 
HETATM    2  N   UNL     1      -7.679   4.468 -32.887  1.00  0.00    -0.318 N 
HETATM    3  C   UNL     1      -7.830   3.490 -33.734  1.00  0.00     0.011 C 
HETATM    4  C   UNL     1      -8.988   5.316 -32.814  1.00  0.00     0.170 C 
HETATM    5  S   UNL     1     -10.318   4.582 -33.637  1.00  0.00    -0.086 SA
HETATM    6  C   UNL     1      -9.243   3.294 -34.269  1.00  0.00     0.135 C 
HETATM    7  N   UNL     1      -9.112   6.460 -32.255  1.00  0.00    -0.229 NA
HETATM    8  C   UNL     1      -8.022   7.034 -31.653  1.00  0.00     0.048 C 
HETATM    9  C   UNL     1      -8.319   8.418 -31.119  1.00  0.00     0.071 C 
HETATM   10  C   UNL     1      -6.854   6.377 -31.476  1.00  0.00     0.069 C 
ENDROOT
BRANCH   3  11
HETATM   11  C   UNL     1      -6.762   2.503 -34.136  1.00  0.00     0.156 C 
BRANCH  11  12
HETATM   12  C   UNL     1      -6.829   1.210 -33.335  1.00  0.00     0.223 C 
HETATM   13  N   UNL     1      -6.105   0.161 -33.839  1.00  0.00    -0.359 N 
HETATM   14  H   UNL     1      -5.775   0.239 -34.800  1.00  0.00     0.162 HD
HETATM   15  O   UNL     1      -7.466   1.123 -32.287  1.00  0.00    -0.273 OA
BRANCH  13  16
HETATM   16  C   UNL     1      -6.183  -1.211 -33.325  1.00  0.00     0.150 C 
BRANCH  16  17
HETATM   17  C   UNL     1      -6.864  -2.253 -34.246  1.00  0.00     0.253 C 
BRANCH  17  18
HETATM   18  N   UNL     1      -5.869  -3.116 -34.999  1.00  0.00    -0.077 N 
HETATM   19  H   UNL     1      -5.788  -2.712 -35.954  1.00  0.00     0.279 HD
HETATM   20  C   UNL     1      -4.484  -3.097 -34.410  1.00  0.00     0.269 C 
HETATM   21  C   UNL     1      -6.357  -4.529 -35.165  1.00  0.00     0.269 C 
ENDBRANCH  17  18
ENDBRANCH  16  17
ENDBRANCH  13  16
ENDBRANCH  11  12
ENDBRANCH   3  11
BRANCH   1  22
HETATM   22  C   UNL     1      -5.248   4.479 -32.190  1.00  0.00    -0.024 A 
HETATM   23  C   UNL     1      -4.644   5.052 -33.341  1.00  0.00     0.017 A 
HETATM   24  C   UNL     1      -3.321   4.776 -33.702  1.00  0.00    -0.061 A 
HETATM   25  C   UNL     1      -2.721   5.394 -34.934  1.00  0.00     0.048 C 
HETATM   26  C   UNL     1      -2.600   3.861 -32.942  1.00  0.00     0.007 A 
HETATM   27  C   UNL     1      -3.181   3.261 -31.822  1.00  0.00     0.008 A 
HETATM   28  C   UNL     1      -4.492   3.573 -31.415  1.00  0.00    -0.053 A 
HETATM   29  C   UNL     1      -5.022   2.845 -30.208  1.00  0.00     0.049 C 
ENDBRANCH   1  22
BRANCH  10  30
HETATM   30  C   UNL     1      -5.759   7.002 -30.697  1.00  0.00     0.294 C 
HETATM   31  O   UNL     1      -5.622   6.808 -29.503  1.00  0.00    -0.259 OA
BRANCH  30  32
HETATM   32  O   UNL     1      -4.968   7.733 -31.508  1.00  0.00    -0.313 OA
BRANCH  32  33
HETATM   33  C   UNL     1      -3.901   8.438 -30.852  1.00  0.00     0.217 C 
BRANCH  33  34
HETATM   34  C   UNL     1      -2.613   7.697 -31.124  1.00  0.00    -0.034 A 
HETATM   35  C   UNL     1      -2.147   6.726 -30.223  1.00  0.00     0.009 A 
HETATM   36  C   UNL     1      -0.959   6.035 -30.467  1.00  0.00     0.001 A 
HETATM   37  C   UNL     1      -0.229   6.294 -31.624  1.00  0.00     0.000 A 
HETATM   38  C   UNL     1      -0.687   7.244 -32.536  1.00  0.00     0.001 A 
HETATM   39  C   UNL     1      -1.871   7.944 -32.287  1.00  0.00     0.009 A 
ENDBRANCH  33  34
ENDBRANCH  32  33
ENDBRANCH  30  32
ENDBRANCH  10  30
TORSDOF 10
ENDMDL
MODEL 6
REMARK VINA RESULT:      -8.3      2.654      7.572
REMARK  10 active torsions:
REMARK  status: ('A' for Active; 'I' for Inactive)
REMARK    1  A    between atoms: C_4  and  C_5 
REMARK    2  A    between atoms: C_7  and  C_8 
REMARK    3  A    between atoms: C_8  and  C_9 
REMARK       I    between atoms: C_9  and  N_10 
REMARK    4  A    between atoms: N_10  and  C_11 
REMARK    5  A    between atoms: C_11  and  C_12 
REMARK    6  A    between atoms: C_12  and  N_13 
REMARK    7  A    between atoms: C_24  and  C_25 
REMARK    8  A    between atoms: C_25  and  O_26 
REMARK    9  A    between atoms: O_26  and  C_27 
REMARK   10  A    between atoms: C_27  and  C_28 
ROOT
HETATM    1  C   UNL     1      -4.355   4.036 -31.054  1.00  0.00     0.166 C 
HETATM    2  N   UNL     1      -5.594   4.464 -30.314  1.00  0.00    -0.318 N 
HETATM    3  C   UNL     1      -6.647   3.914 -29.777  1.00  0.00     0.011 C 
HETATM    4  C   UNL     1      -5.550   5.984 -29.961  1.00  0.00     0.170 C 
HETATM    5  S   UNL     1      -6.714   6.438 -28.767  1.00  0.00    -0.086 SA
HETATM    6  C   UNL     1      -7.431   4.795 -28.812  1.00  0.00     0.135 C 
HETATM    7  N   UNL     1      -4.783   6.857 -30.495  1.00  0.00    -0.229 NA
HETATM    8  C   UNL     1      -3.904   6.470 -31.474  1.00  0.00     0.048 C 
HETATM    9  C   UNL     1      -3.137   7.636 -32.058  1.00  0.00     0.071 C 
HETATM   10  C   UNL     1      -3.690   5.174 -31.791  1.00  0.00     0.069 C 
ENDROOT
BRANCH   3  11
HETATM   11  C   UNL     1      -7.077   2.480 -29.959  1.00  0.00     0.156 C 
BRANCH  11  12
HETATM   12  C   UNL     1      -8.277   2.342 -30.887  1.00  0.00     0.223 C 
HETATM   13  N   UNL     1      -8.550   1.071 -31.320  1.00  0.00    -0.359 N 
HETATM   14  H   UNL     1      -7.825   0.368 -31.192  1.00  0.00     0.162 HD
HETATM   15  O   UNL     1      -8.975   3.305 -31.199  1.00  0.00    -0.273 OA
BRANCH  13  16
HETATM   16  C   UNL     1      -9.540   0.753 -32.356  1.00  0.00     0.150 C 
BRANCH  16  17
HETATM   17  C   UNL     1      -9.129   1.058 -33.817  1.00  0.00     0.253 C 
BRANCH  17  18
HETATM   18  N   UNL     1     -10.206   1.794 -34.592  1.00  0.00    -0.077 N 
HETATM   19  H   UNL     1     -10.111   1.501 -35.585  1.00  0.00     0.279 HD
HETATM   20  C   UNL     1     -11.606   1.434 -34.174  1.00  0.00     0.269 C 
HETATM   21  C   UNL     1     -10.008   3.285 -34.559  1.00  0.00     0.269 C 
ENDBRANCH  17  18
ENDBRANCH  16  17
ENDBRANCH  13  16
ENDBRANCH  11  12
ENDBRANCH   3  11
BRANCH   1  22
HETATM   22  C   UNL     1      -4.532   2.727 -31.814  1.00  0.00    -0.024 A 
HETATM   23  C   UNL     1      -3.776   1.618 -31.347  1.00  0.00     0.017 A 
HETATM   24  C   UNL     1      -3.900   0.344 -31.911  1.00  0.00    -0.061 A 
HETATM   25  C   UNL     1      -3.075  -0.802 -31.397  1.00  0.00     0.048 C 
HETATM   26  C   UNL     1      -4.746   0.178 -33.004  1.00  0.00     0.007 A 
HETATM   27  C   UNL     1      -5.479   1.260 -33.499  1.00  0.00     0.008 A 
HETATM   28  C   UNL     1      -5.406   2.534 -32.906  1.00  0.00    -0.053 A 
HETATM   29  C   UNL     1      -6.220   3.629 -33.542  1.00  0.00     0.049 C 
ENDBRANCH   1  22
BRANCH  10  30
HETATM   30  C   UNL     1      -2.629   4.811 -32.760  1.00  0.00     0.294 C 
HETATM   31  O   UNL     1      -2.799   4.882 -33.964  1.00  0.00    -0.259 OA
BRANCH  30  32
HETATM   32  O   UNL     1      -1.501   4.460 -32.109  1.00  0.00    -0.313 OA
BRANCH  32  33
HETATM   33  C   UNL     1      -0.398   5.370 -32.256  1.00  0.00     0.217 C 
BRANCH  33  34
HETATM   34  C   UNL     1       0.018   5.828 -30.878  1.00  0.00    -0.034 A 
HETATM   35  C   UNL     1       0.022   7.193 -30.553  1.00  0.00     0.009 A 
HETATM   36  C   UNL     1       0.405   7.625 -29.282  1.00  0.00     0.001 A 
HETATM   37  C   UNL     1       0.773   6.695 -28.313  1.00  0.00     0.000 A 
HETATM   38  C   UNL     1       0.760   5.335 -28.616  1.00  0.00     0.001 A 
HETATM   39  C   UNL     1       0.387   4.903 -29.892  1.00  0.00     0.009 A 
ENDBRANCH  33  34
ENDBRANCH  32  33
ENDBRANCH  30  32
ENDBRANCH  10  30
TORSDOF 10
ENDMDL
MODEL 7
REMARK VINA RESULT:      -8.1      2.758      7.160
REMARK  10 active torsions:
REMARK  status: ('A' for Active; 'I' for Inactive)
REMARK    1  A    between atoms: C_4  and  C_5 
REMARK    2  A    between atoms: C_7  and  C_8 
REMARK    3  A    between atoms: C_8  and  C_9 
REMARK       I    between atoms: C_9  and  N_10 
REMARK    4  A    between atoms: N_10  and  C_11 
REMARK    5  A    between atoms: C_11  and  C_12 
REMARK    6  A    between atoms: C_12  and  N_13 
REMARK    7  A    between atoms: C_24  and  C_25 
REMARK    8  A    between atoms: C_25  and  O_26 
REMARK    9  A    between atoms: O_26  and  C_27 
REMARK   10  A    between atoms: C_27  and  C_28 
ROOT
HETATM    1  C   UNL     1      -6.518   5.661 -31.811  1.00  0.00     0.166 C 
HETATM    2  N   UNL     1      -7.549   5.366 -32.868  1.00  0.00    -0.318 N 
HETATM    3  C   UNL     1      -7.821   4.426 -33.728  1.00  0.00     0.011 C 
HETATM    4  C   UNL     1      -8.707   6.412 -32.840  1.00  0.00     0.170 C 
HETATM    5  S   UNL     1     -10.104   5.902 -33.720  1.00  0.00    -0.086 SA
HETATM    6  C   UNL     1      -9.225   4.460 -34.319  1.00  0.00     0.135 C 
HETATM    7  N   UNL     1      -8.669   7.561 -32.278  1.00  0.00    -0.229 NA
HETATM    8  C   UNL     1      -7.526   7.952 -31.629  1.00  0.00     0.048 C 
HETATM    9  C   UNL     1      -7.618   9.366 -31.097  1.00  0.00     0.071 C 
HETATM   10  C   UNL     1      -6.487   7.116 -31.412  1.00  0.00     0.069 C 
ENDROOT
BRANCH   3  11
HETATM   11  C   UNL     1      -6.910   3.281 -34.095  1.00  0.00     0.156 C 
BRANCH  11  12
HETATM   12  C   UNL     1      -7.390   1.948 -33.536  1.00  0.00     0.223 C 
HETATM   13  N   UNL     1      -7.296   1.806 -32.177  1.00  0.00    -0.359 N 
HETATM   14  H   UNL     1      -6.716   2.477 -31.676  1.00  0.00     0.162 HD
HETATM   15  O   UNL     1      -7.862   1.070 -34.256  1.00  0.00    -0.273 OA
BRANCH  13  16
HETATM   16  C   UNL     1      -7.530   0.543 -31.466  1.00  0.00     0.150 C 
BRANCH  16  17
HETATM   17  C   UNL     1      -6.285  -0.141 -30.851  1.00  0.00     0.253 C 
BRANCH  17  18
HETATM   18  N   UNL     1      -5.065  -0.063 -31.749  1.00  0.00    -0.077 N 
HETATM   19  H   UNL     1      -5.097   0.865 -32.216  1.00  0.00     0.279 HD
HETATM   20  C   UNL     1      -3.759  -0.119 -31.002  1.00  0.00     0.269 C 
HETATM   21  C   UNL     1      -5.098  -1.100 -32.839  1.00  0.00     0.269 C 
ENDBRANCH  17  18
ENDBRANCH  16  17
ENDBRANCH  13  16
ENDBRANCH  11  12
ENDBRANCH   3  11
BRANCH   1  22
HETATM   22  C   UNL     1      -5.178   4.986 -32.076  1.00  0.00    -0.024 A 
HETATM   23  C   UNL     1      -4.491   5.386 -33.254  1.00  0.00     0.017 A 
HETATM   24  C   UNL     1      -3.220   4.897 -33.576  1.00  0.00    -0.061 A 
HETATM   25  C   UNL     1      -2.530   5.336 -34.837  1.00  0.00     0.048 C 
HETATM   26  C   UNL     1      -2.644   3.941 -32.745  1.00  0.00     0.007 A 
HETATM   27  C   UNL     1      -3.312   3.510 -31.596  1.00  0.00     0.008 A 
HETATM   28  C   UNL     1      -4.566   4.035 -31.231  1.00  0.00    -0.053 A 
HETATM   29  C   UNL     1      -5.202   3.476 -29.986  1.00  0.00     0.049 C 
ENDBRANCH   1  22
BRANCH  10  30
HETATM   30  C   UNL     1      -5.338   7.557 -30.586  1.00  0.00     0.294 C 
HETATM   31  O   UNL     1      -5.253   7.292 -29.400  1.00  0.00    -0.259 OA
BRANCH  30  32
HETATM   32  O   UNL     1      -4.440   8.215 -31.347  1.00  0.00    -0.313 OA
BRANCH  32  33
HETATM   33  C   UNL     1      -3.280   8.699 -30.649  1.00  0.00     0.217 C 
BRANCH  33  34
HETATM   34  C   UNL     1      -2.144   7.737 -30.906  1.00  0.00    -0.034 A 
HETATM   35  C   UNL     1      -1.405   7.810 -32.097  1.00  0.00     0.009 A 
HETATM   36  C   UNL     1      -0.352   6.926 -32.341  1.00  0.00     0.001 A 
HETATM   37  C   UNL     1      -0.016   5.966 -31.390  1.00  0.00     0.000 A 
HETATM   38  C   UNL     1      -0.731   5.891 -30.197  1.00  0.00     0.001 A 
HETATM   39  C   UNL     1      -1.791   6.769 -29.956  1.00  0.00     0.009 A 
ENDBRANCH  33  34
ENDBRANCH  32  33
ENDBRANCH  30  32
ENDBRANCH  10  30
TORSDOF 10
ENDMDL
MODEL 8
REMARK VINA RESULT:      -7.9      2.318      3.773
REMARK  10 active torsions:
REMARK  status: ('A' for Active; 'I' for Inactive)
REMARK    1  A    between atoms: C_4  and  C_5 
REMARK    2  A    between atoms: C_7  and  C_8 
REMARK    3  A    between atoms: C_8  and  C_9 
REMARK       I    between atoms: C_9  and  N_10 
REMARK    4  A    between atoms: N_10  and  C_11 
REMARK    5  A    between atoms: C_11  and  C_12 
REMARK    6  A    between atoms: C_12  and  N_13 
REMARK    7  A    between atoms: C_24  and  C_25 
REMARK    8  A    between atoms: C_25  and  O_26 
REMARK    9  A    between atoms: O_26  and  C_27 
REMARK   10  A    between atoms: C_27  and  C_28 
ROOT
HETATM    1  C   UNL     1      -7.402   3.175 -32.843  1.00  0.00     0.166 C 
HETATM    2  N   UNL     1      -8.050   3.865 -31.672  1.00  0.00    -0.318 N 
HETATM    3  C   UNL     1      -7.702   4.641 -30.685  1.00  0.00     0.011 C 
HETATM    4  C   UNL     1      -9.604   3.734 -31.722  1.00  0.00     0.170 C 
HETATM    5  S   UNL     1     -10.414   4.838 -30.668  1.00  0.00    -0.086 SA
HETATM    6  C   UNL     1      -8.844   5.364 -29.980  1.00  0.00     0.135 C 
HETATM    7  N   UNL     1     -10.264   2.888 -32.419  1.00  0.00    -0.229 NA
HETATM    8  C   UNL     1      -9.587   1.994 -33.208  1.00  0.00     0.048 C 
HETATM    9  C   UNL     1     -10.511   1.013 -33.895  1.00  0.00     0.071 C 
HETATM   10  C   UNL     1      -8.254   2.067 -33.415  1.00  0.00     0.069 C 
ENDROOT
BRANCH   3  11
HETATM   11  C   UNL     1      -6.285   4.947 -30.265  1.00  0.00     0.156 C 
BRANCH  11  12
HETATM   12  C   UNL     1      -5.719   6.175 -30.967  1.00  0.00     0.223 C 
HETATM   13  N   UNL     1      -4.368   6.361 -30.839  1.00  0.00    -0.359 N 
HETATM   14  H   UNL     1      -3.888   5.825 -30.118  1.00  0.00     0.162 HD
HETATM   15  O   UNL     1      -6.425   6.930 -31.632  1.00  0.00    -0.273 OA
BRANCH  13  16
HETATM   16  C   UNL     1      -3.662   7.571 -31.279  1.00  0.00     0.150 C 
BRANCH  16  17
HETATM   17  C   UNL     1      -2.146   7.633 -30.970  1.00  0.00     0.253 C 
BRANCH  17  18
HETATM   18  N   UNL     1      -1.290   7.092 -32.100  1.00  0.00    -0.077 N 
HETATM   19  H   UNL     1      -0.384   7.600 -32.057  1.00  0.00     0.279 HD
HETATM   20  C   UNL     1      -0.964   5.628 -31.965  1.00  0.00     0.269 C 
HETATM   21  C   UNL     1      -1.887   7.381 -33.450  1.00  0.00     0.269 C 
ENDBRANCH  17  18
ENDBRANCH  16  17
ENDBRANCH  13  16
ENDBRANCH  11  12
ENDBRANCH   3  11
BRANCH   1  22
HETATM   22  C   UNL     1      -5.927   2.870 -32.619  1.00  0.00    -0.024 A 
HETATM   23  C   UNL     1      -5.631   1.774 -31.765  1.00  0.00     0.017 A 
HETATM   24  C   UNL     1      -4.320   1.344 -31.533  1.00  0.00    -0.061 A 
HETATM   25  C   UNL     1      -4.047   0.187 -30.613  1.00  0.00     0.048 C 
HETATM   26  C   UNL     1      -3.273   2.057 -32.110  1.00  0.00     0.007 A 
HETATM   27  C   UNL     1      -3.537   3.156 -32.932  1.00  0.00     0.008 A 
HETATM   28  C   UNL     1      -4.853   3.564 -33.218  1.00  0.00    -0.053 A 
HETATM   29  C   UNL     1      -5.014   4.778 -34.094  1.00  0.00     0.049 C 
ENDBRANCH   1  22
BRANCH  10  30
HETATM   30  C   UNL     1      -7.601   1.158 -34.386  1.00  0.00     0.294 C 
HETATM   31  O   UNL     1      -7.246   1.534 -35.489  1.00  0.00    -0.259 OA
BRANCH  30  32
HETATM   32  O   UNL     1      -7.436  -0.066 -33.843  1.00  0.00    -0.313 OA
BRANCH  32  33
HETATM   33  C   UNL     1      -7.481  -1.162 -34.772  1.00  0.00     0.217 C 
BRANCH  33  34
HETATM   34  C   UNL     1      -6.310  -2.070 -34.481  1.00  0.00    -0.034 A 
HETATM   35  C   UNL     1      -5.185  -1.584 -33.797  1.00  0.00     0.009 A 
HETATM   36  C   UNL     1      -4.099  -2.418 -33.523  1.00  0.00     0.001 A 
HETATM   37  C   UNL     1      -4.130  -3.752 -33.917  1.00  0.00     0.000 A 
HETATM   38  C   UNL     1      -5.247  -4.253 -34.585  1.00  0.00     0.001 A 
HETATM   39  C   UNL     1      -6.330  -3.417 -34.868  1.00  0.00     0.009 A 
ENDBRANCH  33  34
ENDBRANCH  32  33
ENDBRANCH  30  32
ENDBRANCH  10  30
TORSDOF 10
ENDMDL
MODEL 9
REMARK VINA RESULT:      -7.9      3.363      5.848
REMARK  10 active torsions:
REMARK  status: ('A' for Active; 'I' for Inactive)
REMARK    1  A    between atoms: C_4  and  C_5 
REMARK    2  A    between atoms: C_7  and  C_8 
REMARK    3  A    between atoms: C_8  and  C_9 
REMARK       I    between atoms: C_9  and  N_10 
REMARK    4  A    between atoms: N_10  and  C_11 
REMARK    5  A    between atoms: C_11  and  C_12 
REMARK    6  A    between atoms: C_12  and  N_13 
REMARK    7  A    between atoms: C_24  and  C_25 
REMARK    8  A    between atoms: C_25  and  O_26 
REMARK    9  A    between atoms: O_26  and  C_27 
REMARK   10  A    between atoms: C_27  and  C_28 
ROOT
HETATM    1  C   UNL     1      -6.700   1.316 -31.840  1.00  0.00     0.166 C 
HETATM    2  N   UNL     1      -5.220   1.036 -31.818  1.00  0.00    -0.318 N 
HETATM    3  C   UNL     1      -4.123   1.626 -31.437  1.00  0.00     0.011 C 
HETATM    4  C   UNL     1      -4.913  -0.434 -32.244  1.00  0.00     0.170 C 
HETATM    5  S   UNL     1      -3.310  -0.937 -31.839  1.00  0.00    -0.086 SA
HETATM    6  C   UNL     1      -2.901   0.726 -31.307  1.00  0.00     0.135 C 
HETATM    7  N   UNL     1      -5.709  -1.217 -32.867  1.00  0.00    -0.229 NA
HETATM    8  C   UNL     1      -6.958  -0.768 -33.215  1.00  0.00     0.048 C 
HETATM    9  C   UNL     1      -7.736  -1.787 -34.019  1.00  0.00     0.071 C 
HETATM   10  C   UNL     1      -7.454   0.414 -32.787  1.00  0.00     0.069 C 
ENDROOT
BRANCH   3  11
HETATM   11  C   UNL     1      -4.001   3.074 -31.029  1.00  0.00     0.156 C 
BRANCH  11  12
HETATM   12  C   UNL     1      -2.879   3.796 -31.766  1.00  0.00     0.223 C 
HETATM   13  N   UNL     1      -1.930   4.383 -30.972  1.00  0.00    -0.359 N 
HETATM   14  H   UNL     1      -2.152   4.498 -29.984  1.00  0.00     0.162 HD
HETATM   15  O   UNL     1      -2.815   3.821 -32.993  1.00  0.00    -0.273 OA
BRANCH  13  16
HETATM   16  C   UNL     1      -0.878   5.275 -31.474  1.00  0.00     0.150 C 
BRANCH  16  17
HETATM   17  C   UNL     1      -0.057   6.041 -30.408  1.00  0.00     0.253 C 
BRANCH  17  18
HETATM   18  N   UNL     1      -0.770   6.137 -29.072  1.00  0.00    -0.077 N 
HETATM   19  H   UNL     1      -1.380   5.298 -28.998  1.00  0.00     0.279 HD
HETATM   20  C   UNL     1       0.157   6.093 -27.887  1.00  0.00     0.269 C 
HETATM   21  C   UNL     1      -1.672   7.338 -28.997  1.00  0.00     0.269 C 
ENDBRANCH  17  18
ENDBRANCH  16  17
ENDBRANCH  13  16
ENDBRANCH  11  12
ENDBRANCH   3  11
BRANCH   1  22
HETATM   22  C   UNL     1      -7.028   2.803 -31.890  1.00  0.00    -0.024 A 
HETATM   23  C   UNL     1      -7.691   3.343 -30.755  1.00  0.00     0.017 A 
HETATM   24  C   UNL     1      -7.985   4.706 -30.644  1.00  0.00    -0.061 A 
HETATM   25  C   UNL     1      -8.698   5.237 -29.433  1.00  0.00     0.048 C 
HETATM   26  C   UNL     1      -7.672   5.544 -31.710  1.00  0.00     0.007 A 
HETATM   27  C   UNL     1      -7.045   5.033 -32.849  1.00  0.00     0.008 A 
HETATM   28  C   UNL     1      -6.693   3.673 -32.950  1.00  0.00    -0.053 A 
HETATM   29  C   UNL     1      -6.046   3.231 -34.236  1.00  0.00     0.049 C 
ENDBRANCH   1  22
BRANCH  10  30
HETATM   30  C   UNL     1      -8.858   0.782 -33.083  1.00  0.00     0.294 C 
HETATM   31  O   UNL     1      -9.777   0.480 -32.342  1.00  0.00    -0.259 OA
BRANCH  30  32
HETATM   32  O   UNL     1      -8.922   1.507 -34.218  1.00  0.00    -0.313 OA
BRANCH  32  33
HETATM   33  C   UNL     1     -10.242   1.920 -34.610  1.00  0.00     0.217 C 
BRANCH  33  34
HETATM   34  C   UNL     1     -10.415   3.368 -34.217  1.00  0.00    -0.034 A 
HETATM   35  C   UNL     1     -10.979   3.707 -32.977  1.00  0.00     0.009 A 
HETATM   36  C   UNL     1     -11.141   5.043 -32.605  1.00  0.00     0.001 A 
HETATM   37  C   UNL     1     -10.727   6.058 -33.463  1.00  0.00     0.000 A 
HETATM   38  C   UNL     1     -10.151   5.738 -34.691  1.00  0.00     0.001 A 
HETATM   39  C   UNL     1      -9.998   4.401 -35.068  1.00  0.00     0.009 A 
ENDBRANCH  33  34
ENDBRANCH  32  33
ENDBRANCH  30  32
ENDBRANCH  10  30
TORSDOF 10
ENDMDL
MODEL 10
REMARK VINA RESULT:      -7.8      3.162      6.104
REMARK  10 active torsions:
REMARK  status: ('A' for Active; 'I' for Inactive)
REMARK    1  A    between atoms: C_4  and  C_5 
REMARK    2  A    between atoms: C_7  and  C_8 
REMARK    3  A    between atoms: C_8  and  C_9 
REMARK       I    between atoms: C_9  and  N_10 
REMARK    4  A    between atoms: N_10  and  C_11 
REMARK    5  A    between atoms: C_11  and  C_12 
REMARK    6  A    between atoms: C_12  and  N_13 
REMARK    7  A    between atoms: C_24  and  C_25 
REMARK    8  A    between atoms: C_25  and  O_26 
REMARK    9  A    between atoms: O_26  and  C_27 
REMARK   10  A    between atoms: C_27  and  C_28 
ROOT
HETATM    1  C   UNL     1      -5.518   2.994 -30.869  1.00  0.00     0.166 C 
HETATM    2  N   UNL     1      -4.775   4.028 -31.672  1.00  0.00    -0.318 N 
HETATM    3  C   UNL     1      -4.993   5.208 -32.180  1.00  0.00     0.011 C 
HETATM    4  C   UNL     1      -3.268   3.652 -31.830  1.00  0.00     0.170 C 
HETATM    5  S   UNL     1      -2.290   4.974 -32.361  1.00  0.00    -0.086 SA
HETATM    6  C   UNL     1      -3.751   5.986 -32.598  1.00  0.00     0.135 C 
HETATM    7  N   UNL     1      -2.760   2.493 -31.641  1.00  0.00    -0.229 NA
HETATM    8  C   UNL     1      -3.574   1.456 -31.265  1.00  0.00     0.048 C 
HETATM    9  C   UNL     1      -2.830   0.142 -31.170  1.00  0.00     0.071 C 
HETATM   10  C   UNL     1      -4.870   1.631 -30.925  1.00  0.00     0.069 C 
ENDROOT
BRANCH   3  11
HETATM   11  C   UNL     1      -6.338   5.883 -32.289  1.00  0.00     0.156 C 
BRANCH  11  12
HETATM   12  C   UNL     1      -7.114   5.443 -33.523  1.00  0.00     0.223 C 
HETATM   13  N   UNL     1      -8.437   5.800 -33.551  1.00  0.00    -0.359 N 
HETATM   14  H   UNL     1      -8.855   6.114 -32.677  1.00  0.00     0.162 HD
HETATM   15  O   UNL     1      -6.580   4.835 -34.449  1.00  0.00    -0.273 OA
BRANCH  13  16
HETATM   16  C   UNL     1      -9.395   5.319 -34.554  1.00  0.00     0.150 C 
BRANCH  16  17
HETATM   17  C   UNL     1     -10.561   6.276 -34.905  1.00  0.00     0.253 C 
BRANCH  17  18
HETATM   18  N   UNL     1     -10.096   7.688 -35.204  1.00  0.00    -0.077 N 
HETATM   19  H   UNL     1      -9.056   7.667 -35.199  1.00  0.00     0.279 HD
HETATM   20  C   UNL     1     -10.505   8.185 -36.565  1.00  0.00     0.269 C 
HETATM   21  C   UNL     1     -10.516   8.660 -34.136  1.00  0.00     0.269 C 
ENDBRANCH  17  18
ENDBRANCH  16  17
ENDBRANCH  13  16
ENDBRANCH  11  12
ENDBRANCH   3  11
BRANCH   1  22
HETATM   22  C   UNL     1      -7.028   3.052 -31.067  1.00  0.00    -0.024 A 
HETATM   23  C   UNL     1      -7.542   2.378 -32.207  1.00  0.00     0.017 A 
HETATM   24  C   UNL     1      -8.914   2.295 -32.466  1.00  0.00    -0.061 A 
HETATM   25  C   UNL     1      -9.419   1.583 -33.689  1.00  0.00     0.048 C 
HETATM   26  C   UNL     1      -9.795   2.947 -31.608  1.00  0.00     0.007 A 
HETATM   27  C   UNL     1      -9.312   3.640 -30.495  1.00  0.00     0.008 A 
HETATM   28  C   UNL     1      -7.938   3.685 -30.193  1.00  0.00    -0.053 A 
HETATM   29  C   UNL     1      -7.532   4.484 -28.983  1.00  0.00     0.049 C 
ENDBRANCH   1  22
BRANCH  10  30
HETATM   30  C   UNL     1      -5.661   0.494 -30.397  1.00  0.00     0.294 C 
HETATM   31  O   UNL     1      -6.265   0.561 -29.341  1.00  0.00    -0.259 OA
BRANCH  30  32
HETATM   32  O   UNL     1      -5.633  -0.537 -31.265  1.00  0.00    -0.313 OA
BRANCH  32  33
HETATM   33  C   UNL     1      -6.369  -0.336 -32.483  1.00  0.00     0.217 C 
BRANCH  33  34
HETATM   34  C   UNL     1      -6.048  -1.477 -33.418  1.00  0.00    -0.034 A 
HETATM   35  C   UNL     1      -7.076  -2.158 -34.090  1.00  0.00     0.009 A 
HETATM   36  C   UNL     1      -6.787  -3.213 -34.958  1.00  0.00     0.001 A 
HETATM   37  C   UNL     1      -5.466  -3.592 -35.177  1.00  0.00     0.000 A 
HETATM   38  C   UNL     1      -4.434  -2.916 -34.529  1.00  0.00     0.001 A 
HETATM   39  C   UNL     1      -4.722  -1.867 -33.652  1.00  0.00     0.009 A 
ENDBRANCH  33  34
ENDBRANCH  32  33
ENDBRANCH  30  32
ENDBRANCH  10  30
TORSDOF 10
ENDMDL
