MODEL 1
REMARK VINA RESULT:      -8.3      0.000      0.000
REMARK  9 active torsions:
REMARK  status: ('A' for Active; 'I' for Inactive)
REMARK    1  A    between atoms: C_2  and  C_3 
REMARK    2  A    between atoms: C_3  and  C_4 
REMARK    3  A    between atoms: C_4  and  N_5 
REMARK       I    between atoms: N_5  and  C_6 
REMARK    4  A    between atoms: C_6  and  C_7 
REMARK    5  A    between atoms: C_14  and  S_15 
REMARK    6  A    between atoms: S_15  and  N_16 
REMARK    7  A    between atoms: N_16  and  C_17 
REMARK    8  A    between atoms: C_20  and  O_21 
REMARK    9  A    between atoms: O_21  and  C_22 
ROOT
HETATM    1  C   UNL     1      -2.822   5.911 -33.137  1.00  0.00     0.098 A 
HETATM    2  C   UNL     1      -3.739   5.345 -32.107  1.00  0.00     0.201 A 
HETATM    3  O   UNL     1      -3.526   5.486 -30.905  1.00  0.00    -0.286 OA
HETATM    4  C   UNL     1      -4.934   4.588 -32.571  1.00  0.00     0.043 A 
HETATM    5  C   UNL     1      -5.150   4.445 -33.954  1.00  0.00     0.046 A 
HETATM    6  N   UNL     1      -4.233   4.986 -34.861  1.00  0.00    -0.364 N 
HETATM    7  C   UNL     1      -5.812   4.020 -31.643  1.00  0.00     0.043 A 
HETATM    8  C   UNL     1      -6.888   3.260 -32.107  1.00  0.00     0.081 A 
HETATM    9  C   UNL     1      -7.118   3.110 -33.480  1.00  0.00     0.027 A 
HETATM   10  C   UNL     1      -6.246   3.700 -34.399  1.00  0.00     0.032 A 
HETATM   11  C   UNL     1      -3.148   5.699 -34.424  1.00  0.00     0.109 A 
HETATM   12  H   UNL     1      -4.461   5.010 -35.850  1.00  0.00     0.165 HD
ENDROOT
BRANCH   8  13
HETATM   13  S   UNL     1      -8.001   2.500 -30.942  1.00  0.00     0.263 S 
HETATM   14  O   UNL     1      -7.939   3.258 -29.712  1.00  0.00    -0.200 OA
HETATM   15  O   UNL     1      -9.257   2.284 -31.629  1.00  0.00    -0.200 OA
BRANCH  13  16
HETATM   16  N   UNL     1      -7.328   0.967 -30.717  1.00  0.00    -0.281 N 
HETATM   17  H   UNL     1      -7.740   0.471 -29.930  1.00  0.00     0.179 HD
BRANCH  16  18
HETATM   18  C   UNL     1      -6.916   0.212 -31.847  1.00  0.00     0.042 A 
HETATM   19  C   UNL     1      -7.857  -0.292 -32.741  1.00  0.00     0.033 A 
HETATM   20  C   UNL     1      -7.440  -1.077 -33.817  1.00  0.00     0.039 A 
HETATM   21  C   UNL     1      -6.087  -1.374 -34.002  1.00  0.00     0.068 A 
HETATM   22  C   UNL     1      -5.148  -0.866 -33.104  1.00  0.00     0.039 A 
HETATM   23  C   UNL     1      -5.562  -0.071 -32.028  1.00  0.00     0.033 A 
BRANCH  21  24
HETATM   24  O   UNL     1      -5.823  -2.156 -35.090  1.00  0.00    -0.352 OA
BRANCH  24  25
HETATM   25  C   UNL     1      -5.371  -3.487 -34.845  1.00  0.00     0.171 C 
HETATM   26  C   UNL     1      -6.488  -4.438 -35.233  1.00  0.00     0.034 C 
ENDBRANCH  24  25
ENDBRANCH  21  24
ENDBRANCH  16  18
ENDBRANCH  13  16
ENDBRANCH   8  13
BRANCH   1  27
HETATM   27  C   UNL     1      -1.582   6.683 -32.837  1.00  0.00     0.257 C 
HETATM   28  N   UNL     1      -0.872   6.248 -31.749  1.00  0.00    -0.357 N 
HETATM   29  H   UNL     1      -1.257   5.482 -31.193  1.00  0.00     0.162 HD
HETATM   30  O   UNL     1      -1.233   7.634 -33.531  1.00  0.00    -0.267 OA
BRANCH  28  31
HETATM   31  C   UNL     1       0.325   6.908 -31.278  1.00  0.00     0.123 C 
BRANCH  31  32
HETATM   32  C   UNL     1       0.588   6.663 -29.793  1.00  0.00     0.019 C 
BRANCH  32  33
HETATM   33  C   UNL     1       0.427   7.930 -28.951  1.00  0.00    -0.003 C 
HETATM   34  C   UNL     1       1.249   7.856 -27.675  1.00  0.00     0.005 C 
ENDBRANCH  32  33
ENDBRANCH  31  32
ENDBRANCH  28  31
ENDBRANCH   1  27
TORSDOF 9
ENDMDL
MODEL 2
REMARK VINA RESULT:      -8.1      2.960     10.311
REMARK  9 active torsions:
REMARK  status: ('A' for Active; 'I' for Inactive)
REMARK    1  A    between atoms: C_2  and  C_3 
REMARK    2  A    between atoms: C_3  and  C_4 
REMARK    3  A    between atoms: C_4  and  N_5 
REMARK       I    between atoms: N_5  and  C_6 
REMARK    4  A    between atoms: C_6  and  C_7 
REMARK    5  A    between atoms: C_14  and  S_15 
REMARK    6  A    between atoms: S_15  and  N_16 
REMARK    7  A    between atoms: N_16  and  C_17 
REMARK    8  A    between atoms: C_20  and  O_21 
REMARK    9  A    between atoms: O_21  and  C_22 
ROOT
HETATM    1  C   UNL     1      -5.351   3.053 -33.266  1.00  0.00     0.098 A 
HETATM    2  C   UNL     1      -4.173   3.155 -32.358  1.00  0.00     0.201 A 
HETATM    3  O   UNL     1      -3.991   2.355 -31.443  1.00  0.00    -0.286 OA
HETATM    4  C   UNL     1      -3.210   4.267 -32.581  1.00  0.00     0.043 A 
HETATM    5  C   UNL     1      -3.446   5.166 -33.638  1.00  0.00     0.046 A 
HETATM    6  N   UNL     1      -4.586   5.019 -34.435  1.00  0.00    -0.364 N 
HETATM    7  C   UNL     1      -2.101   4.417 -31.744  1.00  0.00     0.043 A 
HETATM    8  C   UNL     1      -1.250   5.507 -31.937  1.00  0.00     0.081 A 
HETATM    9  C   UNL     1      -1.470   6.410 -32.984  1.00  0.00     0.027 A 
HETATM   10  C   UNL     1      -2.570   6.238 -33.829  1.00  0.00     0.032 A 
HETATM   11  C   UNL     1      -5.456   3.979 -34.234  1.00  0.00     0.109 A 
HETATM   12  H   UNL     1      -4.682   5.574 -35.280  1.00  0.00     0.165 HD
ENDROOT
BRANCH   8  13
HETATM   13  S   UNL     1       0.152   5.737 -30.861  1.00  0.00     0.263 S 
HETATM   14  O   UNL     1       0.911   4.506 -30.854  1.00  0.00    -0.200 OA
HETATM   15  O   UNL     1       0.767   6.997 -31.222  1.00  0.00    -0.200 OA
BRANCH  13  16
HETATM   16  N   UNL     1      -0.564   5.988 -29.352  1.00  0.00    -0.281 N 
HETATM   17  H   UNL     1      -0.922   5.128 -28.941  1.00  0.00     0.179 HD
BRANCH  16  18
HETATM   18  C   UNL     1      -0.035   6.979 -28.483  1.00  0.00     0.042 A 
HETATM   19  C   UNL     1       1.038   6.686 -27.647  1.00  0.00     0.033 A 
HETATM   20  C   UNL     1       1.513   7.654 -26.761  1.00  0.00     0.039 A 
HETATM   21  C   UNL     1       0.913   8.915 -26.695  1.00  0.00     0.068 A 
HETATM   22  C   UNL     1      -0.162   9.205 -27.536  1.00  0.00     0.039 A 
HETATM   23  C   UNL     1      -0.634   8.238 -28.431  1.00  0.00     0.033 A 
BRANCH  21  24
HETATM   24  O   UNL     1       1.474   9.762 -25.781  1.00  0.00    -0.352 OA
BRANCH  24  25
HETATM   25  C   UNL     1       2.093   9.173 -24.638  1.00  0.00     0.171 C 
HETATM   26  C   UNL     1       3.143  10.141 -24.125  1.00  0.00     0.034 C 
ENDBRANCH  24  25
ENDBRANCH  21  24
ENDBRANCH  16  18
ENDBRANCH  13  16
ENDBRANCH   8  13
BRANCH   1  27
HETATM   27  C   UNL     1      -6.410   2.007 -33.168  1.00  0.00     0.257 C 
HETATM   28  N   UNL     1      -5.952   0.716 -33.126  1.00  0.00    -0.357 N 
HETATM   29  H   UNL     1      -4.948   0.554 -33.221  1.00  0.00     0.162 HD
HETATM   30  O   UNL     1      -7.602   2.299 -33.124  1.00  0.00    -0.267 OA
BRANCH  28  31
HETATM   31  C   UNL     1      -6.835  -0.429 -33.086  1.00  0.00     0.123 C 
BRANCH  31  32
HETATM   32  C   UNL     1      -7.128  -0.995 -34.475  1.00  0.00     0.019 C 
BRANCH  32  33
HETATM   33  C   UNL     1      -6.786  -2.482 -34.586  1.00  0.00    -0.003 C 
HETATM   34  C   UNL     1      -5.283  -2.706 -34.592  1.00  0.00     0.005 C 
ENDBRANCH  32  33
ENDBRANCH  31  32
ENDBRANCH  28  31
ENDBRANCH   1  27
TORSDOF 9
ENDMDL
MODEL 3
REMARK VINA RESULT:      -7.9      2.029      2.404
REMARK  9 active torsions:
REMARK  status: ('A' for Active; 'I' for Inactive)
REMARK    1  A    between atoms: C_2  and  C_3 
REMARK    2  A    between atoms: C_3  and  C_4 
REMARK    3  A    between atoms: C_4  and  N_5 
REMARK       I    between atoms: N_5  and  C_6 
REMARK    4  A    between atoms: C_6  and  C_7 
REMARK    5  A    between atoms: C_14  and  S_15 
REMARK    6  A    between atoms: S_15  and  N_16 
REMARK    7  A    between atoms: N_16  and  C_17 
REMARK    8  A    between atoms: C_20  and  O_21 
REMARK    9  A    between atoms: O_21  and  C_22 
ROOT
HETATM    1  C   UNL     1      -2.420   5.363 -31.362  1.00  0.00     0.098 A 
HETATM    2  C   UNL     1      -3.321   4.196 -31.583  1.00  0.00     0.201 A 
HETATM    3  O   UNL     1      -2.956   3.045 -31.353  1.00  0.00    -0.286 OA
HETATM    4  C   UNL     1      -4.691   4.456 -32.102  1.00  0.00     0.043 A 
HETATM    5  C   UNL     1      -5.080   5.785 -32.355  1.00  0.00     0.046 A 
HETATM    6  N   UNL     1      -4.171   6.827 -32.143  1.00  0.00    -0.364 N 
HETATM    7  C   UNL     1      -5.566   3.393 -32.346  1.00  0.00     0.043 A 
HETATM    8  C   UNL     1      -6.821   3.662 -32.895  1.00  0.00     0.081 A 
HETATM    9  C   UNL     1      -7.223   4.979 -33.150  1.00  0.00     0.027 A 
HETATM   10  C   UNL     1      -6.349   6.036 -32.882  1.00  0.00     0.032 A 
HETATM   11  C   UNL     1      -2.918   6.578 -31.645  1.00  0.00     0.109 A 
HETATM   12  H   UNL     1      -4.492   7.789 -32.185  1.00  0.00     0.165 HD
ENDROOT
BRANCH   8  13
HETATM   13  S   UNL     1      -7.940   2.320 -33.244  1.00  0.00     0.263 S 
HETATM   14  O   UNL     1      -7.962   1.450 -32.088  1.00  0.00    -0.200 OA
HETATM   15  O   UNL     1      -9.157   2.903 -33.768  1.00  0.00    -0.200 OA
BRANCH  13  16
HETATM   16  N   UNL     1      -7.202   1.539 -34.547  1.00  0.00    -0.281 N 
HETATM   17  H   UNL     1      -6.857   2.191 -35.249  1.00  0.00     0.179 HD
BRANCH  16  18
HETATM   18  C   UNL     1      -6.469   0.343 -34.321  1.00  0.00     0.042 A 
HETATM   19  C   UNL     1      -5.271   0.372 -33.613  1.00  0.00     0.033 A 
HETATM   20  C   UNL     1      -4.536  -0.802 -33.445  1.00  0.00     0.039 A 
HETATM   21  C   UNL     1      -4.983  -2.008 -33.992  1.00  0.00     0.068 A 
HETATM   22  C   UNL     1      -6.186  -2.032 -34.700  1.00  0.00     0.039 A 
HETATM   23  C   UNL     1      -6.930  -0.857 -34.862  1.00  0.00     0.033 A 
BRANCH  21  24
HETATM   24  O   UNL     1      -4.164  -3.076 -33.756  1.00  0.00    -0.352 OA
BRANCH  24  25
HETATM   25  C   UNL     1      -4.531  -4.323 -34.343  1.00  0.00     0.171 C 
HETATM   26  C   UNL     1      -3.819  -5.425 -33.579  1.00  0.00     0.034 C 
ENDBRANCH  24  25
ENDBRANCH  21  24
ENDBRANCH  16  18
ENDBRANCH  13  16
ENDBRANCH   8  13
BRANCH   1  27
HETATM   27  C   UNL     1      -1.020   5.270 -30.858  1.00  0.00     0.257 C 
HETATM   28  N   UNL     1      -0.810   5.811 -29.616  1.00  0.00    -0.357 N 
HETATM   29  H   UNL     1      -1.589   6.282 -29.154  1.00  0.00     0.162 HD
HETATM   30  O   UNL     1      -0.132   4.738 -31.518  1.00  0.00    -0.267 OA
BRANCH  28  31
HETATM   31  C   UNL     1       0.494   5.859 -28.992  1.00  0.00     0.123 C 
BRANCH  31  32
HETATM   32  C   UNL     1       0.528   6.777 -27.770  1.00  0.00     0.019 C 
BRANCH  32  33
HETATM   33  C   UNL     1       1.120   8.152 -28.084  1.00  0.00    -0.003 C 
HETATM   34  C   UNL     1       1.911   8.697 -26.907  1.00  0.00     0.005 C 
ENDBRANCH  32  33
ENDBRANCH  31  32
ENDBRANCH  28  31
ENDBRANCH   1  27
TORSDOF 9
ENDMDL
MODEL 4
REMARK VINA RESULT:      -7.8      4.901      7.724
REMARK  9 active torsions:
REMARK  status: ('A' for Active; 'I' for Inactive)
REMARK    1  A    between atoms: C_2  and  C_3 
REMARK    2  A    between atoms: C_3  and  C_4 
REMARK    3  A    between atoms: C_4  and  N_5 
REMARK       I    between atoms: N_5  and  C_6 
REMARK    4  A    between atoms: C_6  and  C_7 
REMARK    5  A    between atoms: C_14  and  S_15 
REMARK    6  A    between atoms: S_15  and  N_16 
REMARK    7  A    between atoms: N_16  and  C_17 
REMARK    8  A    between atoms: C_20  and  O_21 
REMARK    9  A    between atoms: O_21  and  C_22 
ROOT
HETATM    1  C   UNL     1      -5.318   0.513 -31.354  1.00  0.00     0.098 A 
HETATM    2  C   UNL     1      -5.883   1.531 -32.284  1.00  0.00     0.201 A 
HETATM    3  O   UNL     1      -5.625   1.522 -33.486  1.00  0.00    -0.286 OA
HETATM    4  C   UNL     1      -6.774   2.580 -31.719  1.00  0.00     0.043 A 
HETATM    5  C   UNL     1      -7.050   2.563 -30.339  1.00  0.00     0.046 A 
HETATM    6  N   UNL     1      -6.466   1.587 -29.525  1.00  0.00    -0.364 N 
HETATM    7  C   UNL     1      -7.311   3.570 -32.547  1.00  0.00     0.043 A 
HETATM    8  C   UNL     1      -8.090   4.579 -31.978  1.00  0.00     0.081 A 
HETATM    9  C   UNL     1      -8.375   4.575 -30.607  1.00  0.00     0.027 A 
HETATM   10  C   UNL     1      -7.851   3.569 -29.791  1.00  0.00     0.032 A 
HETATM   11  C   UNL     1      -5.663   0.613 -30.059  1.00  0.00     0.109 A 
HETATM   12  H   UNL     1      -6.775   1.485 -28.563  1.00  0.00     0.165 HD
ENDROOT
BRANCH   8  13
HETATM   13  S   UNL     1      -8.758   5.869 -33.009  1.00  0.00     0.263 S 
HETATM   14  O   UNL     1      -8.287   7.136 -32.494  1.00  0.00    -0.200 OA
HETATM   15  O   UNL     1      -8.522   5.483 -34.384  1.00  0.00    -0.200 OA
BRANCH  13  16
HETATM   16  N   UNL     1     -10.424   5.725 -32.767  1.00  0.00    -0.281 N 
HETATM   17  H   UNL     1     -10.885   6.628 -32.675  1.00  0.00     0.179 HD
BRANCH  16  18
HETATM   18  C   UNL     1     -11.133   4.669 -33.400  1.00  0.00     0.042 A 
HETATM   19  C   UNL     1     -11.735   4.865 -34.639  1.00  0.00     0.033 A 
HETATM   20  C   UNL     1     -12.474   3.834 -35.222  1.00  0.00     0.039 A 
HETATM   21  C   UNL     1     -12.625   2.608 -34.569  1.00  0.00     0.068 A 
HETATM   22  C   UNL     1     -12.019   2.416 -33.327  1.00  0.00     0.039 A 
HETATM   23  C   UNL     1     -11.270   3.445 -32.743  1.00  0.00     0.033 A 
BRANCH  21  24
HETATM   24  O   UNL     1     -13.376   1.692 -35.250  1.00  0.00    -0.352 OA
BRANCH  24  25
HETATM   25  C   UNL     1     -13.817   0.543 -34.530  1.00  0.00     0.171 C 
HETATM   26  C   UNL     1     -15.312   0.677 -34.306  1.00  0.00     0.034 C 
ENDBRANCH  24  25
ENDBRANCH  21  24
ENDBRANCH  16  18
ENDBRANCH  13  16
ENDBRANCH   8  13
BRANCH   1  27
HETATM   27  C   UNL     1      -4.405  -0.594 -31.760  1.00  0.00     0.257 C 
HETATM   28  N   UNL     1      -4.837  -1.349 -32.819  1.00  0.00    -0.357 N 
HETATM   29  H   UNL     1      -5.759  -1.150 -33.212  1.00  0.00     0.162 HD
HETATM   30  O   UNL     1      -3.341  -0.796 -31.181  1.00  0.00    -0.267 OA
BRANCH  28  31
HETATM   31  C   UNL     1      -4.108  -2.496 -33.314  1.00  0.00     0.123 C 
BRANCH  31  32
HETATM   32  C   UNL     1      -4.635  -2.992 -34.660  1.00  0.00     0.019 C 
BRANCH  32  33
HETATM   33  C   UNL     1      -6.163  -3.049 -34.707  1.00  0.00    -0.003 C 
HETATM   34  C   UNL     1      -6.652  -4.386 -35.239  1.00  0.00     0.005 C 
ENDBRANCH  32  33
ENDBRANCH  31  32
ENDBRANCH  28  31
ENDBRANCH   1  27
TORSDOF 9
ENDMDL
MODEL 5
REMARK VINA RESULT:      -7.8      1.951      2.556
REMARK  9 active torsions:
REMARK  status: ('A' for Active; 'I' for Inactive)
REMARK    1  A    between atoms: C_2  and  C_3 
REMARK    2  A    between atoms: C_3  and  C_4 
REMARK    3  A    between atoms: C_4  and  N_5 
REMARK       I    between atoms: N_5  and  C_6 
REMARK    4  A    between atoms: C_6  and  C_7 
REMARK    5  A    between atoms: C_14  and  S_15 
REMARK    6  A    between atoms: S_15  and  N_16 
REMARK    7  A    between atoms: N_16  and  C_17 
REMARK    8  A    between atoms: C_20  and  O_21 
REMARK    9  A    between atoms: O_21  and  C_22 
ROOT
HETATM    1  C   UNL     1      -3.215   4.425 -32.547  1.00  0.00     0.098 A 
HETATM    2  C   UNL     1      -4.505   4.422 -33.295  1.00  0.00     0.201 A 
HETATM    3  O   UNL     1      -4.623   4.985 -34.381  1.00  0.00    -0.286 OA
HETATM    4  C   UNL     1      -5.666   3.717 -32.687  1.00  0.00     0.043 A 
HETATM    5  C   UNL     1      -5.497   3.081 -31.442  1.00  0.00     0.046 A 
HETATM    6  N   UNL     1      -4.261   3.146 -30.791  1.00  0.00    -0.364 N 
HETATM    7  C   UNL     1      -6.902   3.704 -33.339  1.00  0.00     0.043 A 
HETATM    8  C   UNL     1      -7.990   3.092 -32.714  1.00  0.00     0.081 A 
HETATM    9  C   UNL     1      -7.838   2.454 -31.477  1.00  0.00     0.027 A 
HETATM   10  C   UNL     1      -6.593   2.454 -30.843  1.00  0.00     0.032 A 
HETATM   11  C   UNL     1      -3.193   3.780 -31.369  1.00  0.00     0.109 A 
HETATM   12  H   UNL     1      -4.096   2.571 -29.970  1.00  0.00     0.165 HD
ENDROOT
BRANCH   8  13
HETATM   13  S   UNL     1      -9.584   3.091 -33.511  1.00  0.00     0.263 S 
HETATM   14  O   UNL     1     -10.574   2.738 -32.519  1.00  0.00    -0.200 OA
HETATM   15  O   UNL     1      -9.684   4.322 -34.268  1.00  0.00    -0.200 OA
BRANCH  13  16
HETATM   16  N   UNL     1      -9.437   1.856 -34.654  1.00  0.00    -0.281 N 
HETATM   17  H   UNL     1      -9.571   2.187 -35.607  1.00  0.00     0.179 HD
BRANCH  16  18
HETATM   18  C   UNL     1      -8.507   0.806 -34.431  1.00  0.00     0.042 A 
HETATM   19  C   UNL     1      -7.366   0.693 -35.220  1.00  0.00     0.033 A 
HETATM   20  C   UNL     1      -6.489  -0.375 -35.024  1.00  0.00     0.039 A 
HETATM   21  C   UNL     1      -6.750  -1.343 -34.050  1.00  0.00     0.068 A 
HETATM   22  C   UNL     1      -7.895  -1.225 -33.261  1.00  0.00     0.039 A 
HETATM   23  C   UNL     1      -8.772  -0.150 -33.449  1.00  0.00     0.033 A 
BRANCH  21  24
HETATM   24  O   UNL     1      -5.813  -2.334 -33.971  1.00  0.00    -0.352 OA
BRANCH  24  25
HETATM   25  C   UNL     1      -5.614  -3.139 -35.131  1.00  0.00     0.171 C 
HETATM   26  C   UNL     1      -6.616  -4.278 -35.087  1.00  0.00     0.034 C 
ENDBRANCH  24  25
ENDBRANCH  21  24
ENDBRANCH  16  18
ENDBRANCH  13  16
ENDBRANCH   8  13
BRANCH   1  27
HETATM   27  C   UNL     1      -1.965   5.092 -33.014  1.00  0.00     0.257 C 
HETATM   28  N   UNL     1      -1.280   5.787 -32.052  1.00  0.00    -0.357 N 
HETATM   29  H   UNL     1      -1.688   5.852 -31.118  1.00  0.00     0.162 HD
HETATM   30  O   UNL     1      -1.588   5.008 -34.180  1.00  0.00    -0.267 OA
BRANCH  28  31
HETATM   31  C   UNL     1      -0.077   6.539 -32.335  1.00  0.00     0.123 C 
BRANCH  31  32
HETATM   32  C   UNL     1       0.656   6.976 -31.067  1.00  0.00     0.019 C 
BRANCH  32  33
HETATM   33  C   UNL     1      -0.274   7.075 -29.856  1.00  0.00    -0.003 C 
HETATM   34  C   UNL     1       0.496   7.425 -28.593  1.00  0.00     0.005 C 
ENDBRANCH  32  33
ENDBRANCH  31  32
ENDBRANCH  28  31
ENDBRANCH   1  27
TORSDOF 9
ENDMDL
MODEL 6
REMARK VINA RESULT:      -7.7      2.552      3.573
REMARK  9 active torsions:
REMARK  status: ('A' for Active; 'I' for Inactive)
REMARK    1  A    between atoms: C_2  and  C_3 
REMARK    2  A    between atoms: C_3  and  C_4 
REMARK    3  A    between atoms: C_4  and  N_5 
REMARK       I    between atoms: N_5  and  C_6 
REMARK    4  A    between atoms: C_6  and  C_7 
REMARK    5  A    between atoms: C_14  and  S_15 
REMARK    6  A    between atoms: S_15  and  N_16 
REMARK    7  A    between atoms: N_16  and  C_17 
REMARK    8  A    between atoms: C_20  and  O_21 
REMARK    9  A    between atoms: O_21  and  C_22 
ROOT
HETATM    1  C   UNL     1      -4.393   6.458 -28.569  1.00  0.00     0.098 A 
HETATM    2  C   UNL     1      -4.674   6.124 -29.995  1.00  0.00     0.201 A 
HETATM    3  O   UNL     1      -3.960   6.535 -30.907  1.00  0.00    -0.286 OA
HETATM    4  C   UNL     1      -5.858   5.275 -30.296  1.00  0.00     0.043 A 
HETATM    5  C   UNL     1      -6.655   4.820 -29.229  1.00  0.00     0.046 A 
HETATM    6  N   UNL     1      -6.340   5.192 -27.918  1.00  0.00    -0.364 N 
HETATM    7  C   UNL     1      -6.175   4.953 -31.619  1.00  0.00     0.043 A 
HETATM    8  C   UNL     1      -7.329   4.210 -31.876  1.00  0.00     0.081 A 
HETATM    9  C   UNL     1      -8.131   3.748 -30.825  1.00  0.00     0.027 A 
HETATM   10  C   UNL     1      -7.793   4.058 -29.505  1.00  0.00     0.032 A 
HETATM   11  C   UNL     1      -5.235   5.957 -27.650  1.00  0.00     0.109 A 
HETATM   12  H   UNL     1      -6.823   4.751 -27.141  1.00  0.00     0.165 HD
ENDROOT
BRANCH   8  13
HETATM   13  S   UNL     1      -7.771   3.815 -33.556  1.00  0.00     0.263 S 
HETATM   14  O   UNL     1      -8.954   2.983 -33.518  1.00  0.00    -0.200 OA
HETATM   15  O   UNL     1      -7.747   5.052 -34.307  1.00  0.00    -0.200 OA
BRANCH  13  16
HETATM   16  N   UNL     1      -6.446   2.918 -34.097  1.00  0.00    -0.281 N 
HETATM   17  H   UNL     1      -5.557   3.361 -33.873  1.00  0.00     0.179 HD
BRANCH  16  18
HETATM   18  C   UNL     1      -6.512   1.499 -34.089  1.00  0.00     0.042 A 
HETATM   19  C   UNL     1      -7.039   0.810 -35.177  1.00  0.00     0.033 A 
HETATM   20  C   UNL     1      -7.146  -0.581 -35.133  1.00  0.00     0.039 A 
HETATM   21  C   UNL     1      -6.739  -1.291 -34.000  1.00  0.00     0.068 A 
HETATM   22  C   UNL     1      -6.209  -0.596 -32.912  1.00  0.00     0.039 A 
HETATM   23  C   UNL     1      -6.093   0.799 -32.957  1.00  0.00     0.033 A 
BRANCH  21  24
HETATM   24  O   UNL     1      -6.905  -2.644 -34.090  1.00  0.00    -0.352 OA
BRANCH  24  25
HETATM   25  C   UNL     1      -5.891  -3.383 -34.767  1.00  0.00     0.171 C 
HETATM   26  C   UNL     1      -6.557  -4.550 -35.474  1.00  0.00     0.034 C 
ENDBRANCH  24  25
ENDBRANCH  21  24
ENDBRANCH  16  18
ENDBRANCH  13  16
ENDBRANCH   8  13
BRANCH   1  27
HETATM   27  C   UNL     1      -3.255   7.302 -28.103  1.00  0.00     0.257 C 
HETATM   28  N   UNL     1      -2.025   6.943 -28.588  1.00  0.00    -0.357 N 
HETATM   29  H   UNL     1      -1.958   6.107 -29.172  1.00  0.00     0.162 HD
HETATM   30  O   UNL     1      -3.427   8.252 -27.344  1.00  0.00    -0.267 OA
BRANCH  28  31
HETATM   31  C   UNL     1      -0.803   7.614 -28.201  1.00  0.00     0.123 C 
BRANCH  31  32
HETATM   32  C   UNL     1       0.371   7.274 -29.119  1.00  0.00     0.019 C 
BRANCH  32  33
HETATM   33  C   UNL     1      -0.083   6.759 -30.487  1.00  0.00    -0.003 C 
HETATM   34  C   UNL     1       0.713   5.536 -30.911  1.00  0.00     0.005 C 
ENDBRANCH  32  33
ENDBRANCH  31  32
ENDBRANCH  28  31
ENDBRANCH   1  27
TORSDOF 9
ENDMDL
MODEL 7
REMARK VINA RESULT:      -7.6      5.866      9.498
REMARK  9 active torsions:
REMARK  status: ('A' for Active; 'I' for Inactive)
REMARK    1  A    between atoms: C_2  and  C_3 
REMARK    2  A    between atoms: C_3  and  C_4 
REMARK    3  A    between atoms: C_4  and  N_5 
REMARK       I    between atoms: N_5  and  C_6 
REMARK    4  A    between atoms: C_6  and  C_7 
REMARK    5  A    between atoms: C_14  and  S_15 
REMARK    6  A    between atoms: S_15  and  N_16 
REMARK    7  A    between atoms: N_16  and  C_17 
REMARK    8  A    between atoms: C_20  and  O_21 
REMARK    9  A    between atoms: O_21  and  C_22 
ROOT
HETATM    1  C   UNL     1      -7.286   0.480 -32.293  1.00  0.00     0.098 A 
HETATM    2  C   UNL     1      -8.292   0.646 -33.382  1.00  0.00     0.201 A 
HETATM    3  O   UNL     1      -8.204   0.029 -34.441  1.00  0.00    -0.286 OA
HETATM    4  C   UNL     1      -9.418   1.593 -33.158  1.00  0.00     0.043 A 
HETATM    5  C   UNL     1      -9.490   2.283 -31.933  1.00  0.00     0.046 A 
HETATM    6  N   UNL     1      -8.497   2.091 -30.967  1.00  0.00    -0.364 N 
HETATM    7  C   UNL     1     -10.374   1.799 -34.157  1.00  0.00     0.043 A 
HETATM    8  C   UNL     1     -11.382   2.741 -33.945  1.00  0.00     0.081 A 
HETATM    9  C   UNL     1     -11.469   3.435 -32.731  1.00  0.00     0.027 A 
HETATM   10  C   UNL     1     -10.520   3.206 -31.731  1.00  0.00     0.032 A 
HETATM   11  C   UNL     1      -7.476   1.201 -31.175  1.00  0.00     0.109 A 
HETATM   12  H   UNL     1      -8.623   2.474 -30.035  1.00  0.00     0.165 HD
ENDROOT
BRANCH   8  13
HETATM   13  S   UNL     1     -12.593   3.044 -35.216  1.00  0.00     0.263 S 
HETATM   14  O   UNL     1     -11.883   3.291 -36.452  1.00  0.00    -0.200 OA
HETATM   15  O   UNL     1     -13.588   1.997 -35.118  1.00  0.00    -0.200 OA
BRANCH  13  16
HETATM   16  N   UNL     1     -13.353   4.457 -34.689  1.00  0.00    -0.281 N 
HETATM   17  H   UNL     1     -13.596   4.424 -33.701  1.00  0.00     0.179 HD
BRANCH  16  18
HETATM   18  C   UNL     1     -12.972   5.706 -35.247  1.00  0.00     0.042 A 
HETATM   19  C   UNL     1     -13.751   6.307 -36.232  1.00  0.00     0.033 A 
HETATM   20  C   UNL     1     -13.335   7.508 -36.808  1.00  0.00     0.039 A 
HETATM   21  C   UNL     1     -12.137   8.111 -36.416  1.00  0.00     0.068 A 
HETATM   22  C   UNL     1     -11.360   7.505 -35.427  1.00  0.00     0.039 A 
HETATM   23  C   UNL     1     -11.779   6.304 -34.841  1.00  0.00     0.033 A 
BRANCH  21  24
HETATM   24  O   UNL     1     -11.850   9.278 -37.065  1.00  0.00    -0.352 OA
BRANCH  24  25
HETATM   25  C   UNL     1     -11.317   9.177 -38.384  1.00  0.00     0.171 C 
HETATM   26  C   UNL     1      -9.887   9.687 -38.349  1.00  0.00     0.034 C 
ENDBRANCH  24  25
ENDBRANCH  21  24
ENDBRANCH  16  18
ENDBRANCH  13  16
ENDBRANCH   8  13
BRANCH   1  27
HETATM   27  C   UNL     1      -6.099  -0.418 -32.365  1.00  0.00     0.257 C 
HETATM   28  N   UNL     1      -5.698  -0.757 -33.631  1.00  0.00    -0.357 N 
HETATM   29  H   UNL     1      -6.257  -0.430 -34.421  1.00  0.00     0.162 HD
HETATM   30  O   UNL     1      -5.528  -0.813 -31.352  1.00  0.00    -0.267 OA
BRANCH  28  31
HETATM   31  C   UNL     1      -4.599  -1.661 -33.891  1.00  0.00     0.123 C 
BRANCH  31  32
HETATM   32  C   UNL     1      -4.987  -2.803 -34.830  1.00  0.00     0.019 C 
BRANCH  32  33
HETATM   33  C   UNL     1      -6.466  -3.179 -34.718  1.00  0.00    -0.003 C 
HETATM   34  C   UNL     1      -6.747  -4.523 -35.370  1.00  0.00     0.005 C 
ENDBRANCH  32  33
ENDBRANCH  31  32
ENDBRANCH  28  31
ENDBRANCH   1  27
TORSDOF 9
ENDMDL
MODEL 8
REMARK VINA RESULT:      -7.4      3.237      9.689
REMARK  9 active torsions:
REMARK  status: ('A' for Active; 'I' for Inactive)
REMARK    1  A    between atoms: C_2  and  C_3 
REMARK    2  A    between atoms: C_3  and  C_4 
REMARK    3  A    between atoms: C_4  and  N_5 
REMARK       I    between atoms: N_5  and  C_6 
REMARK    4  A    between atoms: C_6  and  C_7 
REMARK    5  A    between atoms: C_14  and  S_15 
REMARK    6  A    between atoms: S_15  and  N_16 
REMARK    7  A    between atoms: N_16  and  C_17 
REMARK    8  A    between atoms: C_20  and  O_21 
REMARK    9  A    between atoms: O_21  and  C_22 
ROOT
HETATM    1  C   UNL     1      -8.772   2.425 -32.418  1.00  0.00     0.098 A 
HETATM    2  C   UNL     1      -7.895   3.384 -33.149  1.00  0.00     0.201 A 
HETATM    3  O   UNL     1      -8.350   4.185 -33.961  1.00  0.00    -0.286 OA
HETATM    4  C   UNL     1      -6.433   3.345 -32.875  1.00  0.00     0.043 A 
HETATM    5  C   UNL     1      -5.943   2.416 -31.938  1.00  0.00     0.046 A 
HETATM    6  N   UNL     1      -6.826   1.533 -31.307  1.00  0.00    -0.364 N 
HETATM    7  C   UNL     1      -5.567   4.209 -33.551  1.00  0.00     0.043 A 
HETATM    8  C   UNL     1      -4.193   4.106 -33.322  1.00  0.00     0.081 A 
HETATM    9  C   UNL     1      -3.690   3.188 -32.392  1.00  0.00     0.027 A 
HETATM   10  C   UNL     1      -4.567   2.343 -31.706  1.00  0.00     0.032 A 
HETATM   11  C   UNL     1      -8.173   1.591 -31.551  1.00  0.00     0.109 A 
HETATM   12  H   UNL     1      -6.498   0.966 -30.531  1.00  0.00     0.165 HD
ENDROOT
BRANCH   8  13
HETATM   13  S   UNL     1      -3.067   5.175 -34.197  1.00  0.00     0.263 S 
HETATM   14  O   UNL     1      -1.771   4.534 -34.211  1.00  0.00    -0.200 OA
HETATM   15  O   UNL     1      -3.722   5.572 -35.426  1.00  0.00    -0.200 OA
BRANCH  13  16
HETATM   16  N   UNL     1      -3.024   6.557 -33.227  1.00  0.00    -0.281 N 
HETATM   17  H   UNL     1      -3.947   6.960 -33.079  1.00  0.00     0.179 HD
BRANCH  16  18
HETATM   18  C   UNL     1      -2.077   6.641 -32.172  1.00  0.00     0.042 A 
HETATM   19  C   UNL     1      -2.493   6.601 -30.844  1.00  0.00     0.033 A 
HETATM   20  C   UNL     1      -1.556   6.739 -29.819  1.00  0.00     0.039 A 
HETATM   21  C   UNL     1      -0.202   6.927 -30.111  1.00  0.00     0.068 A 
HETATM   22  C   UNL     1       0.210   6.965 -31.443  1.00  0.00     0.039 A 
HETATM   23  C   UNL     1      -0.726   6.819 -32.474  1.00  0.00     0.033 A 
BRANCH  21  24
HETATM   24  O   UNL     1       0.602   7.053 -29.014  1.00  0.00    -0.352 OA
BRANCH  24  25
HETATM   25  C   UNL     1       0.288   8.092 -28.089  1.00  0.00     0.171 C 
HETATM   26  C   UNL     1       1.585   8.558 -27.452  1.00  0.00     0.034 C 
ENDBRANCH  24  25
ENDBRANCH  21  24
ENDBRANCH  16  18
ENDBRANCH  13  16
ENDBRANCH   8  13
BRANCH   1  27
HETATM   27  C   UNL     1     -10.251   2.331 -32.586  1.00  0.00     0.257 C 
HETATM   28  N   UNL     1     -10.693   1.216 -33.249  1.00  0.00    -0.357 N 
HETATM   29  H   UNL     1      -9.998   0.569 -33.627  1.00  0.00     0.162 HD
HETATM   30  O   UNL     1     -11.005   3.196 -32.149  1.00  0.00    -0.267 OA
BRANCH  28  31
HETATM   31  C   UNL     1     -12.089   0.984 -33.550  1.00  0.00     0.123 C 
BRANCH  31  32
HETATM   32  C   UNL     1     -12.446   1.340 -34.993  1.00  0.00     0.019 C 
BRANCH  32  33
HETATM   33  C   UNL     1     -12.922   2.787 -35.139  1.00  0.00    -0.003 C 
HETATM   34  C   UNL     1     -11.829   3.675 -35.711  1.00  0.00     0.005 C 
ENDBRANCH  32  33
ENDBRANCH  31  32
ENDBRANCH  28  31
ENDBRANCH   1  27
TORSDOF 9
ENDMDL
MODEL 9
REMARK VINA RESULT:      -7.4      2.732      9.939
REMARK  9 active torsions:
REMARK  status: ('A' for Active; 'I' for Inactive)
REMARK    1  A    between atoms: C_2  and  C_3 
REMARK    2  A    between atoms: C_3  and  C_4 
REMARK    3  A    between atoms: C_4  and  N_5 
REMARK       I    between atoms: N_5  and  C_6 
REMARK    4  A    between atoms: C_6  and  C_7 
REMARK    5  A    between atoms: C_14  and  S_15 
REMARK    6  A    between atoms: S_15  and  N_16 
REMARK    7  A    between atoms: N_16  and  C_17 
REMARK    8  A    between atoms: C_20  and  O_21 
REMARK    9  A    between atoms: O_21  and  C_22 
ROOT
HETATM    1  C   UNL     1      -5.485   1.429 -32.488  1.00  0.00     0.098 A 
HETATM    2  C   UNL     1      -4.139   2.068 -32.543  1.00  0.00     0.201 A 
HETATM    3  O   UNL     1      -3.109   1.401 -32.604  1.00  0.00    -0.286 OA
HETATM    4  C   UNL     1      -4.067   3.554 -32.516  1.00  0.00     0.043 A 
HETATM    5  C   UNL     1      -5.265   4.290 -32.447  1.00  0.00     0.046 A 
HETATM    6  N   UNL     1      -6.490   3.619 -32.377  1.00  0.00    -0.364 N 
HETATM    7  C   UNL     1      -2.827   4.200 -32.543  1.00  0.00     0.043 A 
HETATM    8  C   UNL     1      -2.787   5.593 -32.451  1.00  0.00     0.081 A 
HETATM    9  C   UNL     1      -3.970   6.339 -32.383  1.00  0.00     0.027 A 
HETATM   10  C   UNL     1      -5.205   5.685 -32.378  1.00  0.00     0.032 A 
HETATM   11  C   UNL     1      -6.546   2.250 -32.423  1.00  0.00     0.109 A 
HETATM   12  H   UNL     1      -7.355   4.142 -32.473  1.00  0.00     0.165 HD
ENDROOT
BRANCH   8  13
HETATM   13  S   UNL     1      -1.217   6.435 -32.452  1.00  0.00     0.263 S 
HETATM   14  O   UNL     1      -0.233   5.536 -31.892  1.00  0.00    -0.200 OA
HETATM   15  O   UNL     1      -1.043   7.015 -33.767  1.00  0.00    -0.200 OA
BRANCH  13  16
HETATM   16  N   UNL     1      -1.482   7.734 -31.405  1.00  0.00    -0.281 N 
HETATM   17  H   UNL     1      -2.382   8.184 -31.560  1.00  0.00     0.179 HD
BRANCH  16  18
HETATM   18  C   UNL     1      -0.980   7.675 -30.077  1.00  0.00     0.042 A 
HETATM   19  C   UNL     1      -1.843   7.777 -28.990  1.00  0.00     0.033 A 
HETATM   20  C   UNL     1      -1.329   7.771 -27.693  1.00  0.00     0.039 A 
HETATM   21  C   UNL     1       0.048   7.676 -27.472  1.00  0.00     0.068 A 
HETATM   22  C   UNL     1       0.909   7.573 -28.565  1.00  0.00     0.039 A 
HETATM   23  C   UNL     1       0.395   7.570 -29.867  1.00  0.00     0.033 A 
BRANCH  21  24
HETATM   24  O   UNL     1       0.413   7.688 -26.155  1.00  0.00    -0.352 OA
BRANCH  24  25
HETATM   25  C   UNL     1       1.754   8.068 -25.852  1.00  0.00     0.171 C 
HETATM   26  C   UNL     1       1.702   9.163 -24.803  1.00  0.00     0.034 C 
ENDBRANCH  24  25
ENDBRANCH  21  24
ENDBRANCH  16  18
ENDBRANCH  13  16
ENDBRANCH   8  13
BRANCH   1  27
HETATM   27  C   UNL     1      -5.726  -0.042 -32.497  1.00  0.00     0.257 C 
HETATM   28  N   UNL     1      -5.209  -0.713 -33.574  1.00  0.00    -0.357 N 
HETATM   29  H   UNL     1      -4.756  -0.170 -34.312  1.00  0.00     0.162 HD
HETATM   30  O   UNL     1      -6.341  -0.599 -31.591  1.00  0.00    -0.267 OA
BRANCH  28  31
HETATM   31  C   UNL     1      -5.392  -2.133 -33.776  1.00  0.00     0.123 C 
BRANCH  31  32
HETATM   32  C   UNL     1      -6.588  -2.451 -34.674  1.00  0.00     0.019 C 
BRANCH  32  33
HETATM   33  C   UNL     1      -6.903  -3.947 -34.725  1.00  0.00    -0.003 C 
HETATM   34  C   UNL     1      -5.632  -4.780 -34.740  1.00  0.00     0.005 C 
ENDBRANCH  32  33
ENDBRANCH  31  32
ENDBRANCH  28  31
ENDBRANCH   1  27
TORSDOF 9
ENDMDL
MODEL 10
REMARK VINA RESULT:      -7.4      2.825      8.142
REMARK  9 active torsions:
REMARK  status: ('A' for Active; 'I' for Inactive)
REMARK    1  A    between atoms: C_2  and  C_3 
REMARK    2  A    between atoms: C_3  and  C_4 
REMARK    3  A    between atoms: C_4  and  N_5 
REMARK       I    between atoms: N_5  and  C_6 
REMARK    4  A    between atoms: C_6  and  C_7 
REMARK    5  A    between atoms: C_14  and  S_15 
REMARK    6  A    between atoms: S_15  and  N_16 
REMARK    7  A    between atoms: N_16  and  C_17 
REMARK    8  A    between atoms: C_20  and  O_21 
REMARK    9  A    between atoms: O_21  and  C_22 
ROOT
HETATM    1  C   UNL     1      -6.089  -0.086 -32.403  1.00  0.00     0.098 A 
HETATM    2  C   UNL     1      -6.530   1.108 -33.178  1.00  0.00     0.201 A 
HETATM    3  O   UNL     1      -6.214   1.267 -34.355  1.00  0.00    -0.286 OA
HETATM    4  C   UNL     1      -7.369   2.123 -32.485  1.00  0.00     0.043 A 
HETATM    5  C   UNL     1      -7.715   1.911 -31.137  1.00  0.00     0.046 A 
HETATM    6  N   UNL     1      -7.245   0.775 -30.470  1.00  0.00    -0.364 N 
HETATM    7  C   UNL     1      -7.790   3.271 -33.163  1.00  0.00     0.043 A 
HETATM    8  C   UNL     1      -8.521   4.237 -32.468  1.00  0.00     0.081 A 
HETATM    9  C   UNL     1      -8.874   4.040 -31.128  1.00  0.00     0.027 A 
HETATM   10  C   UNL     1      -8.466   2.879 -30.466  1.00  0.00     0.032 A 
HETATM   11  C   UNL     1      -6.490  -0.163 -31.123  1.00  0.00     0.109 A 
HETATM   12  H   UNL     1      -7.608   0.548 -29.549  1.00  0.00     0.165 HD
ENDROOT
BRANCH   8  13
HETATM   13  S   UNL     1      -9.041   5.723 -33.303  1.00  0.00     0.263 S 
HETATM   14  O   UNL     1      -8.867   5.515 -34.724  1.00  0.00    -0.200 OA
HETATM   15  O   UNL     1     -10.326   6.097 -32.751  1.00  0.00    -0.200 OA
BRANCH  13  16
HETATM   16  N   UNL     1      -7.942   6.877 -32.744  1.00  0.00    -0.281 N 
HETATM   17  H   UNL     1      -8.397   7.642 -32.249  1.00  0.00     0.179 HD
BRANCH  16  18
HETATM   18  C   UNL     1      -6.656   6.463 -32.306  1.00  0.00     0.042 A 
HETATM   19  C   UNL     1      -6.310   6.537 -30.960  1.00  0.00     0.033 A 
HETATM   20  C   UNL     1      -5.024   6.177 -30.552  1.00  0.00     0.039 A 
HETATM   21  C   UNL     1      -4.074   5.752 -31.485  1.00  0.00     0.068 A 
HETATM   22  C   UNL     1      -4.426   5.678 -32.833  1.00  0.00     0.039 A 
HETATM   23  C   UNL     1      -5.717   6.031 -33.244  1.00  0.00     0.033 A 
BRANCH  21  24
HETATM   24  O   UNL     1      -2.857   5.437 -30.950  1.00  0.00    -0.352 OA
BRANCH  24  25
HETATM   25  C   UNL     1      -1.729   6.182 -31.407  1.00  0.00     0.171 C 
HETATM   26  C   UNL     1      -0.838   5.241 -32.196  1.00  0.00     0.034 C 
ENDBRANCH  24  25
ENDBRANCH  21  24
ENDBRANCH  16  18
ENDBRANCH  13  16
ENDBRANCH   8  13
BRANCH   1  27
HETATM   27  C   UNL     1      -5.239  -1.185 -32.948  1.00  0.00     0.257 C 
HETATM   28  N   UNL     1      -5.613  -1.656 -34.179  1.00  0.00    -0.357 N 
HETATM   29  H   UNL     1      -6.460  -1.277 -34.607  1.00  0.00     0.162 HD
HETATM   30  O   UNL     1      -4.273  -1.620 -32.326  1.00  0.00    -0.267 OA
BRANCH  28  31
HETATM   31  C   UNL     1      -4.939  -2.754 -34.836  1.00  0.00     0.123 C 
BRANCH  31  32
HETATM   32  C   UNL     1      -5.706  -4.071 -34.718  1.00  0.00     0.019 C 
BRANCH  32  33
HETATM   33  C   UNL     1      -4.807  -5.237 -34.301  1.00  0.00    -0.003 C 
HETATM   34  C   UNL     1      -3.523  -4.744 -33.654  1.00  0.00     0.005 C 
ENDBRANCH  32  33
ENDBRANCH  31  32
ENDBRANCH  28  31
ENDBRANCH   1  27
TORSDOF 9
ENDMDL
