MODEL 1
REMARK VINA RESULT:     -10.6      0.000      0.000
REMARK  7 active torsions:
REMARK  status: ('A' for Active; 'I' for Inactive)
REMARK    1  A    between atoms: C_3  and  C_4 
REMARK    2  A    between atoms: N_5  and  C_6 
REMARK    3  A    between atoms: C_9  and  N_10 
REMARK       I    between atoms: N_10  and  C_11 
REMARK       I    between atoms: C_11  and  N_12 
REMARK    4  A    between atoms: N_12  and  C_13 
REMARK    5  A    between atoms: C_15  and  C_16 
REMARK    6  A    between atoms: C_32  and  C_33 
REMARK    7  A    between atoms: C_33  and  N_34 
ROOT
HETATM    1  C   UNL     1      -4.784   6.203 -30.692  1.00  0.00     0.169 C 
HETATM    2  C   UNL     1      -4.383   5.381 -31.907  1.00  0.00     0.179 C 
HETATM    3  C   UNL     1      -5.507   4.370 -32.087  1.00  0.00     0.177 C 
HETATM    4  C   UNL     1      -4.834   3.005 -32.061  1.00  0.00     0.141 C 
HETATM    5  C   UNL     1      -3.349   3.337 -32.204  1.00  0.00     0.196 C 
HETATM    6  O   UNL     1      -3.168   4.654 -31.652  1.00  0.00    -0.379 OA
HETATM    7  O   UNL     1      -6.402   4.523 -30.970  1.00  0.00    -0.379 OA
HETATM    8  C   UNL     1      -6.270   5.892 -30.554  1.00  0.00     0.198 C 
ENDROOT
BRANCH   1   9
HETATM    9  N   UNL     1      -4.445   7.596 -30.814  1.00  0.00    -0.221 N 
HETATM   10  C   UNL     1      -3.216   8.224 -30.838  1.00  0.00     0.182 A 
HETATM   11  N   UNL     1      -3.441   9.494 -31.135  1.00  0.00    -0.108 NA
HETATM   12  N   UNL     1      -4.791   9.646 -31.263  1.00  0.00    -0.023 NA
HETATM   13  N   UNL     1      -5.411   8.495 -31.082  1.00  0.00    -0.043 NA
BRANCH  10  14
HETATM   14  C   UNL     1      -1.876   7.656 -30.677  1.00  0.00     0.014 A 
HETATM   15  C   UNL     1      -1.001   7.414 -31.739  1.00  0.00     0.015 A 
HETATM   16  C   UNL     1       0.254   6.841 -31.512  1.00  0.00     0.002 A 
HETATM   17  C   UNL     1       0.642   6.472 -30.225  1.00  0.00     0.009 A 
HETATM   18  C   UNL     1      -0.232   6.657 -29.147  1.00  0.00    -0.032 A 
HETATM   19  C   UNL     1      -1.479   7.258 -29.388  1.00  0.00     0.024 A 
BRANCH  18  20
HETATM   20  C   UNL     1       0.151   6.220 -27.760  1.00  0.00     0.273 C 
BRANCH  20  21
HETATM   21  N   UNL     1       0.643   7.349 -26.898  1.00  0.00    -0.067 N 
HETATM   22  H   UNL     1       1.236   6.925 -26.173  1.00  0.00     0.280 HD
HETATM   23  C   UNL     1      -0.467   8.107 -26.196  1.00  0.00     0.235 C 
HETATM   24  C   UNL     1      -0.369   9.520 -26.733  1.00  0.00     0.029 C 
HETATM   25  C   UNL     1       1.114   9.691 -26.991  1.00  0.00     0.029 C 
HETATM   26  C   UNL     1       1.497   8.370 -27.628  1.00  0.00     0.235 C 
ENDBRANCH  20  21
ENDBRANCH  18  20
ENDBRANCH  10  14
ENDBRANCH   1   9
BRANCH   4  27
HETATM   27  N   UNL     1      -5.370   2.054 -33.031  1.00  0.00    -0.334 N 
HETATM   28  C   UNL     1      -5.169   0.695 -32.898  1.00  0.00     0.321 C 
HETATM   29  N   UNL     1      -5.667   0.005 -33.980  1.00  0.00    -0.309 N 
HETATM   30  O   UNL     1      -4.619   0.221 -31.913  1.00  0.00    -0.247 OA
HETATM   31  H   UNL     1      -6.079   0.560 -34.714  1.00  0.00     0.170 HD
HETATM   32  H   UNL     1      -5.445   2.400 -33.979  1.00  0.00     0.164 HD
BRANCH  29  33
HETATM   33  C   UNL     1      -5.674  -1.391 -34.181  1.00  0.00     0.037 A 
HETATM   34  C   UNL     1      -4.644  -2.243 -33.773  1.00  0.00     0.045 A 
HETATM   35  C   UNL     1      -4.725  -3.632 -33.985  1.00  0.00     0.050 A 
HETATM   36  C   UNL     1      -5.848  -4.157 -34.639  1.00  0.00     0.016 A 
HETATM   37  C   UNL     1      -6.877  -3.315 -35.054  1.00  0.00     0.003 A 
HETATM   38  C   UNL     1      -6.792  -1.941 -34.820  1.00  0.00     0.029 A 
BRANCH  35  39
HETATM   39  C   UNL     1      -3.612  -4.547 -33.539  1.00  0.00     0.417 C 
HETATM   40  F   UNL     1      -2.831  -4.017 -32.555  1.00  0.00    -0.166 F 
HETATM   41  F   UNL     1      -4.075  -5.729 -33.042  1.00  0.00    -0.166 F 
HETATM   42  F   UNL     1      -2.766  -4.873 -34.554  1.00  0.00    -0.166 F 
ENDBRANCH  35  39
ENDBRANCH  29  33
ENDBRANCH   4  27
TORSDOF 7
ENDMDL
MODEL 2
REMARK VINA RESULT:     -10.4      1.627      2.117
REMARK  7 active torsions:
REMARK  status: ('A' for Active; 'I' for Inactive)
REMARK    1  A    between atoms: C_3  and  C_4 
REMARK    2  A    between atoms: N_5  and  C_6 
REMARK    3  A    between atoms: C_9  and  N_10 
REMARK       I    between atoms: N_10  and  C_11 
REMARK       I    between atoms: C_11  and  N_12 
REMARK    4  A    between atoms: N_12  and  C_13 
REMARK    5  A    between atoms: C_15  and  C_16 
REMARK    6  A    between atoms: C_32  and  C_33 
REMARK    7  A    between atoms: C_33  and  N_34 
ROOT
HETATM    1  C   UNL     1      -3.482   5.699 -31.990  1.00  0.00     0.169 C 
HETATM    2  C   UNL     1      -3.399   4.236 -32.395  1.00  0.00     0.179 C 
HETATM    3  C   UNL     1      -4.845   3.769 -32.484  1.00  0.00     0.177 C 
HETATM    4  C   UNL     1      -4.944   2.574 -31.546  1.00  0.00     0.141 C 
HETATM    5  C   UNL     1      -3.485   2.235 -31.246  1.00  0.00     0.196 C 
HETATM    6  O   UNL     1      -2.743   3.462 -31.376  1.00  0.00    -0.379 OA
HETATM    7  O   UNL     1      -5.673   4.853 -32.024  1.00  0.00    -0.379 OA
HETATM    8  C   UNL     1      -4.932   6.051 -32.305  1.00  0.00     0.198 C 
ENDROOT
BRANCH   1   9
HETATM    9  N   UNL     1      -2.487   6.521 -32.626  1.00  0.00    -0.221 N 
HETATM   10  C   UNL     1      -1.208   6.856 -32.228  1.00  0.00     0.182 A 
HETATM   11  N   UNL     1      -0.647   7.495 -33.241  1.00  0.00    -0.108 NA
HETATM   12  N   UNL     1      -1.579   7.576 -34.235  1.00  0.00    -0.023 NA
HETATM   13  N   UNL     1      -2.697   6.975 -33.876  1.00  0.00    -0.043 NA
BRANCH  10  14
HETATM   14  C   UNL     1      -0.501   6.523 -30.990  1.00  0.00     0.014 A 
HETATM   15  C   UNL     1       0.150   5.307 -30.768  1.00  0.00     0.015 A 
HETATM   16  C   UNL     1       0.781   5.048 -29.548  1.00  0.00     0.002 A 
HETATM   17  C   UNL     1       0.744   5.987 -28.518  1.00  0.00     0.009 A 
HETATM   18  C   UNL     1       0.058   7.195 -28.692  1.00  0.00    -0.032 A 
HETATM   19  C   UNL     1      -0.547   7.451 -29.933  1.00  0.00     0.024 A 
BRANCH  18  20
HETATM   20  C   UNL     1      -0.032   8.198 -27.576  1.00  0.00     0.273 C 
BRANCH  20  21
HETATM   21  N   UNL     1      -1.421   8.339 -27.017  1.00  0.00    -0.067 N 
HETATM   22  H   UNL     1      -2.056   8.383 -27.824  1.00  0.00     0.280 HD
HETATM   23  C   UNL     1      -1.624   9.604 -26.205  1.00  0.00     0.235 C 
HETATM   24  C   UNL     1      -1.963   9.118 -24.811  1.00  0.00     0.029 C 
HETATM   25  C   UNL     1      -2.703   7.821 -25.067  1.00  0.00     0.029 C 
HETATM   26  C   UNL     1      -1.874   7.173 -26.158  1.00  0.00     0.235 C 
ENDBRANCH  20  21
ENDBRANCH  18  20
ENDBRANCH  10  14
ENDBRANCH   1   9
BRANCH   4  27
HETATM   27  N   UNL     1      -5.760   1.477 -32.058  1.00  0.00    -0.334 N 
HETATM   28  C   UNL     1      -5.188   0.331 -32.576  1.00  0.00     0.321 C 
HETATM   29  N   UNL     1      -6.141  -0.514 -33.097  1.00  0.00    -0.309 N 
HETATM   30  O   UNL     1      -3.979   0.144 -32.538  1.00  0.00    -0.247 OA
HETATM   31  H   UNL     1      -7.096  -0.192 -33.057  1.00  0.00     0.170 HD
HETATM   32  H   UNL     1      -6.647   1.750 -32.460  1.00  0.00     0.164 HD
BRANCH  29  33
HETATM   33  C   UNL     1      -5.939  -1.783 -33.678  1.00  0.00     0.037 A 
HETATM   34  C   UNL     1      -4.856  -2.614 -33.381  1.00  0.00     0.045 A 
HETATM   35  C   UNL     1      -4.726  -3.880 -33.981  1.00  0.00     0.050 A 
HETATM   36  C   UNL     1      -5.692  -4.297 -34.908  1.00  0.00     0.016 A 
HETATM   37  C   UNL     1      -6.774  -3.474 -35.213  1.00  0.00     0.003 A 
HETATM   38  C   UNL     1      -6.898  -2.227 -34.597  1.00  0.00     0.029 A 
BRANCH  35  39
HETATM   39  C   UNL     1      -3.556  -4.774 -33.653  1.00  0.00     0.417 C 
HETATM   40  F   UNL     1      -2.786  -4.312 -32.628  1.00  0.00    -0.166 F 
HETATM   41  F   UNL     1      -3.944  -6.028 -33.285  1.00  0.00    -0.166 F 
HETATM   42  F   UNL     1      -2.714  -4.937 -34.710  1.00  0.00    -0.166 F 
ENDBRANCH  35  39
ENDBRANCH  29  33
ENDBRANCH   4  27
TORSDOF 7
ENDMDL
MODEL 3
REMARK VINA RESULT:     -10.2      1.560      2.203
REMARK  7 active torsions:
REMARK  status: ('A' for Active; 'I' for Inactive)
REMARK    1  A    between atoms: C_3  and  C_4 
REMARK    2  A    between atoms: N_5  and  C_6 
REMARK    3  A    between atoms: C_9  and  N_10 
REMARK       I    between atoms: N_10  and  C_11 
REMARK       I    between atoms: C_11  and  N_12 
REMARK    4  A    between atoms: N_12  and  C_13 
REMARK    5  A    between atoms: C_15  and  C_16 
REMARK    6  A    between atoms: C_32  and  C_33 
REMARK    7  A    between atoms: C_33  and  N_34 
ROOT
HETATM    1  C   UNL     1      -4.518   6.763 -31.841  1.00  0.00     0.169 C 
HETATM    2  C   UNL     1      -4.200   5.668 -30.836  1.00  0.00     0.179 C 
HETATM    3  C   UNL     1      -3.798   4.465 -31.677  1.00  0.00     0.177 C 
HETATM    4  C   UNL     1      -4.735   3.341 -31.252  1.00  0.00     0.141 C 
HETATM    5  C   UNL     1      -5.377   3.877 -29.974  1.00  0.00     0.196 C 
HETATM    6  O   UNL     1      -5.373   5.312 -30.083  1.00  0.00    -0.379 OA
HETATM    7  O   UNL     1      -4.011   4.817 -33.056  1.00  0.00    -0.379 OA
HETATM    8  C   UNL     1      -3.862   6.245 -33.117  1.00  0.00     0.198 C 
ENDROOT
BRANCH   1   9
HETATM    9  N   UNL     1      -4.097   8.070 -31.409  1.00  0.00    -0.221 N 
HETATM   10  C   UNL     1      -2.864   8.522 -30.983  1.00  0.00     0.182 A 
HETATM   11  N   UNL     1      -2.960   9.836 -30.861  1.00  0.00    -0.108 NA
HETATM   12  N   UNL     1      -4.242  10.179 -31.180  1.00  0.00    -0.023 NA
HETATM   13  N   UNL     1      -4.938   9.114 -31.528  1.00  0.00    -0.043 NA
BRANCH  10  14
HETATM   14  C   UNL     1      -1.619   7.780 -30.779  1.00  0.00     0.014 A 
HETATM   15  C   UNL     1      -0.781   7.364 -31.817  1.00  0.00     0.015 A 
HETATM   16  C   UNL     1       0.379   6.632 -31.546  1.00  0.00     0.002 A 
HETATM   17  C   UNL     1       0.704   6.277 -30.238  1.00  0.00     0.009 A 
HETATM   18  C   UNL     1      -0.140   6.637 -29.181  1.00  0.00    -0.032 A 
HETATM   19  C   UNL     1      -1.288   7.395 -29.466  1.00  0.00     0.024 A 
BRANCH  18  20
HETATM   20  C   UNL     1       0.170   6.220 -27.771  1.00  0.00     0.273 C 
BRANCH  20  21
HETATM   21  N   UNL     1       0.770   7.325 -26.945  1.00  0.00    -0.067 N 
HETATM   22  H   UNL     1       1.465   6.884 -26.330  1.00  0.00     0.280 HD
HETATM   23  C   UNL     1      -0.236   8.039 -26.062  1.00  0.00     0.235 C 
HETATM   24  C   UNL     1      -0.231   9.472 -26.553  1.00  0.00     0.029 C 
HETATM   25  C   UNL     1       1.197   9.676 -27.014  1.00  0.00     0.029 C 
HETATM   26  C   UNL     1       1.498   8.385 -27.750  1.00  0.00     0.235 C 
ENDBRANCH  20  21
ENDBRANCH  18  20
ENDBRANCH  10  14
ENDBRANCH   1   9
BRANCH   4  27
HETATM   27  N   UNL     1      -4.091   2.035 -31.142  1.00  0.00    -0.334 N 
HETATM   28  C   UNL     1      -4.444   0.984 -31.966  1.00  0.00     0.321 C 
HETATM   29  N   UNL     1      -3.788  -0.173 -31.612  1.00  0.00    -0.309 N 
HETATM   30  O   UNL     1      -5.239   1.128 -32.885  1.00  0.00    -0.247 OA
HETATM   31  H   UNL     1      -3.174  -0.114 -30.814  1.00  0.00     0.170 HD
HETATM   32  H   UNL     1      -3.777   1.785 -30.214  1.00  0.00     0.164 HD
BRANCH  29  33
HETATM   33  C   UNL     1      -3.869  -1.433 -32.239  1.00  0.00     0.037 A 
HETATM   34  C   UNL     1      -4.744  -1.728 -33.289  1.00  0.00     0.045 A 
HETATM   35  C   UNL     1      -4.758  -3.003 -33.885  1.00  0.00     0.050 A 
HETATM   36  C   UNL     1      -3.895  -3.993 -33.396  1.00  0.00     0.016 A 
HETATM   37  C   UNL     1      -3.023  -3.710 -32.347  1.00  0.00     0.003 A 
HETATM   38  C   UNL     1      -3.007  -2.436 -31.777  1.00  0.00     0.029 A 
BRANCH  35  39
HETATM   39  C   UNL     1      -5.701  -3.313 -35.020  1.00  0.00     0.417 C 
HETATM   40  F   UNL     1      -6.881  -2.634 -34.951  1.00  0.00    -0.166 F 
HETATM   41  F   UNL     1      -5.172  -3.006 -36.238  1.00  0.00    -0.166 F 
HETATM   42  F   UNL     1      -6.032  -4.632 -35.077  1.00  0.00    -0.166 F 
ENDBRANCH  35  39
ENDBRANCH  29  33
ENDBRANCH   4  27
TORSDOF 7
ENDMDL
MODEL 4
REMARK VINA RESULT:     -10.0      1.531      2.093
REMARK  7 active torsions:
REMARK  status: ('A' for Active; 'I' for Inactive)
REMARK    1  A    between atoms: C_3  and  C_4 
REMARK    2  A    between atoms: N_5  and  C_6 
REMARK    3  A    between atoms: C_9  and  N_10 
REMARK       I    between atoms: N_10  and  C_11 
REMARK       I    between atoms: C_11  and  N_12 
REMARK    4  A    between atoms: N_12  and  C_13 
REMARK    5  A    between atoms: C_15  and  C_16 
REMARK    6  A    between atoms: C_32  and  C_33 
REMARK    7  A    between atoms: C_33  and  N_34 
ROOT
HETATM    1  C   UNL     1      -4.002   6.041 -32.064  1.00  0.00     0.169 C 
HETATM    2  C   UNL     1      -3.833   4.568 -32.401  1.00  0.00     0.179 C 
HETATM    3  C   UNL     1      -5.249   4.013 -32.463  1.00  0.00     0.177 C 
HETATM    4  C   UNL     1      -5.277   2.859 -31.470  1.00  0.00     0.141 C 
HETATM    5  C   UNL     1      -3.800   2.622 -31.158  1.00  0.00     0.196 C 
HETATM    6  O   UNL     1      -3.133   3.882 -31.348  1.00  0.00    -0.379 OA
HETATM    7  O   UNL     1      -6.139   5.066 -32.053  1.00  0.00    -0.379 OA
HETATM    8  C   UNL     1      -5.470   6.292 -32.392  1.00  0.00     0.198 C 
ENDROOT
BRANCH   1   9
HETATM    9  N   UNL     1      -3.057   6.890 -32.741  1.00  0.00    -0.221 N 
HETATM   10  C   UNL     1      -2.317   7.960 -32.279  1.00  0.00     0.182 A 
HETATM   11  N   UNL     1      -1.477   8.290 -33.246  1.00  0.00    -0.108 NA
HETATM   12  N   UNL     1      -1.719   7.452 -34.295  1.00  0.00    -0.023 NA
HETATM   13  N   UNL     1      -2.669   6.588 -33.994  1.00  0.00    -0.043 NA
BRANCH  10  14
HETATM   14  C   UNL     1      -2.326   8.599 -30.961  1.00  0.00     0.014 A 
HETATM   15  C   UNL     1      -2.527   9.967 -30.762  1.00  0.00     0.015 A 
HETATM   16  C   UNL     1      -2.493  10.512 -29.474  1.00  0.00     0.002 A 
HETATM   17  C   UNL     1      -2.225   9.704 -28.370  1.00  0.00     0.009 A 
HETATM   18  C   UNL     1      -1.971   8.339 -28.543  1.00  0.00    -0.032 A 
HETATM   19  C   UNL     1      -2.035   7.801 -29.839  1.00  0.00     0.024 A 
BRANCH  18  20
HETATM   20  C   UNL     1      -1.633   7.463 -27.368  1.00  0.00     0.273 C 
BRANCH  20  21
HETATM   21  N   UNL     1      -0.234   7.671 -26.856  1.00  0.00    -0.067 N 
HETATM   22  H   UNL     1      -0.040   6.891 -26.216  1.00  0.00     0.280 HD
HETATM   23  C   UNL     1      -0.058   8.959 -26.075  1.00  0.00     0.235 C 
HETATM   24  C   UNL     1       0.958   9.756 -26.868  1.00  0.00     0.029 C 
HETATM   25  C   UNL     1       1.841   8.685 -27.475  1.00  0.00     0.029 C 
HETATM   26  C   UNL     1       0.837   7.643 -27.930  1.00  0.00     0.235 C 
ENDBRANCH  20  21
ENDBRANCH  18  20
ENDBRANCH  10  14
ENDBRANCH   1   9
BRANCH   4  27
HETATM   27  N   UNL     1      -6.027   1.693 -31.928  1.00  0.00    -0.334 N 
HETATM   28  C   UNL     1      -5.396   0.615 -32.517  1.00  0.00     0.321 C 
HETATM   29  N   UNL     1      -6.306  -0.314 -32.967  1.00  0.00    -0.309 N 
HETATM   30  O   UNL     1      -4.176   0.546 -32.592  1.00  0.00    -0.247 OA
HETATM   31  H   UNL     1      -7.280  -0.089 -32.835  1.00  0.00     0.170 HD
HETATM   32  H   UNL     1      -6.968   1.882 -32.244  1.00  0.00     0.164 HD
BRANCH  29  33
HETATM   33  C   UNL     1      -6.037  -1.551 -33.589  1.00  0.00     0.037 A 
HETATM   34  C   UNL     1      -4.953  -2.370 -33.260  1.00  0.00     0.045 A 
HETATM   35  C   UNL     1      -4.754  -3.605 -33.905  1.00  0.00     0.050 A 
HETATM   36  C   UNL     1      -5.650  -4.002 -34.908  1.00  0.00     0.016 A 
HETATM   37  C   UNL     1      -6.731  -3.191 -35.245  1.00  0.00     0.003 A 
HETATM   38  C   UNL     1      -6.925  -1.976 -34.584  1.00  0.00     0.029 A 
BRANCH  35  39
HETATM   39  C   UNL     1      -3.584  -4.485 -33.543  1.00  0.00     0.417 C 
HETATM   40  F   UNL     1      -2.746  -4.736 -34.588  1.00  0.00    -0.166 F 
HETATM   41  F   UNL     1      -2.802  -3.941 -32.568  1.00  0.00    -0.166 F 
HETATM   42  F   UNL     1      -3.973  -5.703 -33.076  1.00  0.00    -0.166 F 
ENDBRANCH  35  39
ENDBRANCH  29  33
ENDBRANCH   4  27
TORSDOF 7
ENDMDL
MODEL 5
REMARK VINA RESULT:      -9.8      4.835      5.771
REMARK  7 active torsions:
REMARK  status: ('A' for Active; 'I' for Inactive)
REMARK    1  A    between atoms: C_3  and  C_4 
REMARK    2  A    between atoms: N_5  and  C_6 
REMARK    3  A    between atoms: C_9  and  N_10 
REMARK       I    between atoms: N_10  and  C_11 
REMARK       I    between atoms: C_11  and  N_12 
REMARK    4  A    between atoms: N_12  and  C_13 
REMARK    5  A    between atoms: C_15  and  C_16 
REMARK    6  A    between atoms: C_32  and  C_33 
REMARK    7  A    between atoms: C_33  and  N_34 
ROOT
HETATM    1  C   UNL     1      -3.506   5.218 -31.314  1.00  0.00     0.169 C 
HETATM    2  C   UNL     1      -3.925   3.826 -31.758  1.00  0.00     0.179 C 
HETATM    3  C   UNL     1      -5.224   4.031 -32.524  1.00  0.00     0.177 C 
HETATM    4  C   UNL     1      -6.249   3.142 -31.832  1.00  0.00     0.141 C 
HETATM    5  C   UNL     1      -5.395   2.244 -30.938  1.00  0.00     0.196 C 
HETATM    6  O   UNL     1      -4.207   2.992 -30.620  1.00  0.00    -0.379 OA
HETATM    7  O   UNL     1      -5.580   5.419 -32.398  1.00  0.00    -0.379 OA
HETATM    8  C   UNL     1      -4.339   6.121 -32.217  1.00  0.00     0.198 C 
ENDROOT
BRANCH   1   9
HETATM    9  N   UNL     1      -2.082   5.425 -31.366  1.00  0.00    -0.221 N 
HETATM   10  C   UNL     1      -1.307   6.465 -30.893  1.00  0.00     0.182 A 
HETATM   11  N   UNL     1      -0.044   6.099 -31.041  1.00  0.00    -0.108 NA
HETATM   12  N   UNL     1      -0.047   4.864 -31.622  1.00  0.00    -0.023 NA
HETATM   13  N   UNL     1      -1.282   4.439 -31.812  1.00  0.00    -0.043 NA
BRANCH  10  14
HETATM   14  C   UNL     1      -1.717   7.715 -30.250  1.00  0.00     0.014 A 
HETATM   15  C   UNL     1      -2.115   8.857 -30.950  1.00  0.00     0.015 A 
HETATM   16  C   UNL     1      -2.465  10.026 -30.268  1.00  0.00     0.002 A 
HETATM   17  C   UNL     1      -2.391  10.083 -28.877  1.00  0.00     0.009 A 
HETATM   18  C   UNL     1      -1.949   8.972 -28.150  1.00  0.00    -0.032 A 
HETATM   19  C   UNL     1      -1.627   7.796 -28.848  1.00  0.00     0.024 A 
BRANCH  18  20
HETATM   20  C   UNL     1      -1.817   9.032 -26.653  1.00  0.00     0.273 C 
BRANCH  20  21
HETATM   21  N   UNL     1      -0.398   8.890 -26.176  1.00  0.00    -0.067 N 
HETATM   22  H   UNL     1      -0.396   9.162 -25.185  1.00  0.00     0.280 HD
HETATM   23  C   UNL     1       0.580   9.794 -26.902  1.00  0.00     0.235 C 
HETATM   24  C   UNL     1       1.547   8.847 -27.584  1.00  0.00     0.029 C 
HETATM   25  C   UNL     1       1.604   7.668 -26.636  1.00  0.00     0.029 C 
HETATM   26  C   UNL     1       0.150   7.477 -26.251  1.00  0.00     0.235 C 
ENDBRANCH  20  21
ENDBRANCH  18  20
ENDBRANCH  10  14
ENDBRANCH   1   9
BRANCH   4  27
HETATM   27  N   UNL     1      -7.157   2.453 -32.745  1.00  0.00    -0.334 N 
HETATM   28  C   UNL     1      -8.466   2.861 -32.906  1.00  0.00     0.321 C 
HETATM   29  N   UNL     1      -9.161   2.003 -33.727  1.00  0.00    -0.309 N 
HETATM   30  O   UNL     1      -8.894   3.873 -32.367  1.00  0.00    -0.247 OA
HETATM   31  H   UNL     1      -8.653   1.206 -34.076  1.00  0.00     0.170 HD
HETATM   32  H   UNL     1      -6.984   1.464 -32.862  1.00  0.00     0.164 HD
BRANCH  29  33
HETATM   33  C   UNL     1     -10.504   2.112 -34.145  1.00  0.00     0.037 A 
HETATM   34  C   UNL     1     -11.520   1.242 -33.740  1.00  0.00     0.045 A 
HETATM   35  C   UNL     1     -12.846   1.421 -34.178  1.00  0.00     0.050 A 
HETATM   36  C   UNL     1     -13.138   2.477 -35.052  1.00  0.00     0.016 A 
HETATM   37  C   UNL     1     -12.131   3.347 -35.464  1.00  0.00     0.003 A 
HETATM   38  C   UNL     1     -10.824   3.168 -35.007  1.00  0.00     0.029 A 
BRANCH  35  39
HETATM   39  C   UNL     1     -13.939   0.480 -33.735  1.00  0.00     0.417 C 
HETATM   40  F   UNL     1     -14.897   0.272 -34.682  1.00  0.00    -0.166 F 
HETATM   41  F   UNL     1     -13.465  -0.757 -33.415  1.00  0.00    -0.166 F 
HETATM   42  F   UNL     1     -14.595   0.928 -32.630  1.00  0.00    -0.166 F 
ENDBRANCH  35  39
ENDBRANCH  29  33
ENDBRANCH   4  27
TORSDOF 7
ENDMDL
MODEL 6
REMARK VINA RESULT:      -9.6      4.678     10.838
REMARK  7 active torsions:
REMARK  status: ('A' for Active; 'I' for Inactive)
REMARK    1  A    between atoms: C_3  and  C_4 
REMARK    2  A    between atoms: N_5  and  C_6 
REMARK    3  A    between atoms: C_9  and  N_10 
REMARK       I    between atoms: N_10  and  C_11 
REMARK       I    between atoms: C_11  and  N_12 
REMARK    4  A    between atoms: N_12  and  C_13 
REMARK    5  A    between atoms: C_15  and  C_16 
REMARK    6  A    between atoms: C_32  and  C_33 
REMARK    7  A    between atoms: C_33  and  N_34 
ROOT
HETATM    1  C   UNL     1      -7.717   4.527 -33.333  1.00  0.00     0.169 C 
HETATM    2  C   UNL     1      -6.258   4.105 -33.397  1.00  0.00     0.179 C 
HETATM    3  C   UNL     1      -5.636   4.639 -32.114  1.00  0.00     0.177 C 
HETATM    4  C   UNL     1      -4.471   5.512 -32.561  1.00  0.00     0.141 C 
HETATM    5  C   UNL     1      -4.301   5.152 -34.036  1.00  0.00     0.196 C 
HETATM    6  O   UNL     1      -5.594   4.734 -34.508  1.00  0.00    -0.379 OA
HETATM    7  O   UNL     1      -6.641   5.424 -31.448  1.00  0.00    -0.379 OA
HETATM    8  C   UNL     1      -7.901   4.869 -31.858  1.00  0.00     0.198 C 
ENDROOT
BRANCH   1   9
HETATM    9  N   UNL     1      -8.618   3.537 -33.862  1.00  0.00    -0.221 N 
HETATM   10  C   UNL     1      -8.678   2.174 -33.653  1.00  0.00     0.182 A 
HETATM   11  N   UNL     1      -9.788   1.747 -34.234  1.00  0.00    -0.108 NA
HETATM   12  N   UNL     1     -10.384   2.829 -34.813  1.00  0.00    -0.023 NA
HETATM   13  N   UNL     1      -9.686   3.926 -34.582  1.00  0.00    -0.043 NA
BRANCH  10  14
HETATM   14  C   UNL     1      -7.789   1.310 -32.874  1.00  0.00     0.014 A 
HETATM   15  C   UNL     1      -7.696   1.343 -31.481  1.00  0.00     0.015 A 
HETATM   16  C   UNL     1      -6.802   0.507 -30.806  1.00  0.00     0.002 A 
HETATM   17  C   UNL     1      -5.964  -0.353 -31.514  1.00  0.00     0.009 A 
HETATM   18  C   UNL     1      -5.998  -0.374 -32.913  1.00  0.00    -0.032 A 
HETATM   19  C   UNL     1      -6.921   0.453 -33.575  1.00  0.00     0.024 A 
BRANCH  18  20
HETATM   20  C   UNL     1      -5.067  -1.259 -33.694  1.00  0.00     0.273 C 
BRANCH  20  21
HETATM   21  N   UNL     1      -5.769  -2.081 -34.739  1.00  0.00    -0.067 N 
HETATM   22  H   UNL     1      -5.903  -1.466 -35.551  1.00  0.00     0.280 HD
HETATM   23  C   UNL     1      -7.136  -2.576 -34.308  1.00  0.00     0.235 C 
HETATM   24  C   UNL     1      -7.022  -4.087 -34.325  1.00  0.00     0.029 C 
HETATM   25  C   UNL     1      -6.041  -4.348 -35.448  1.00  0.00     0.029 C 
HETATM   26  C   UNL     1      -4.983  -3.287 -35.221  1.00  0.00     0.235 C 
ENDBRANCH  20  21
ENDBRANCH  18  20
ENDBRANCH  10  14
ENDBRANCH   1   9
BRANCH   4  27
HETATM   27  N   UNL     1      -3.276   5.383 -31.731  1.00  0.00    -0.334 N 
HETATM   28  C   UNL     1      -2.910   6.368 -30.835  1.00  0.00     0.321 C 
HETATM   29  N   UNL     1      -1.698   6.085 -30.246  1.00  0.00    -0.309 N 
HETATM   30  O   UNL     1      -3.620   7.342 -30.625  1.00  0.00    -0.247 OA
HETATM   31  H   UNL     1      -1.239   5.240 -30.549  1.00  0.00     0.170 HD
HETATM   32  H   UNL     1      -2.518   4.857 -32.144  1.00  0.00     0.164 HD
BRANCH  29  33
HETATM   33  C   UNL     1      -1.024   6.838 -29.263  1.00  0.00     0.037 A 
HETATM   34  C   UNL     1      -1.600   7.235 -28.053  1.00  0.00     0.045 A 
HETATM   35  C   UNL     1      -0.862   7.967 -27.104  1.00  0.00     0.050 A 
HETATM   36  C   UNL     1       0.464   8.318 -27.395  1.00  0.00     0.016 A 
HETATM   37  C   UNL     1       1.045   7.930 -28.600  1.00  0.00     0.003 A 
HETATM   38  C   UNL     1       0.306   7.189 -29.524  1.00  0.00     0.029 A 
BRANCH  35  39
HETATM   39  C   UNL     1      -1.488   8.390 -25.799  1.00  0.00     0.417 C 
HETATM   40  F   UNL     1      -2.408   9.387 -25.932  1.00  0.00    -0.166 F 
HETATM   41  F   UNL     1      -2.142   7.368 -25.177  1.00  0.00    -0.166 F 
HETATM   42  F   UNL     1      -0.570   8.847 -24.904  1.00  0.00    -0.166 F 
ENDBRANCH  35  39
ENDBRANCH  29  33
ENDBRANCH   4  27
TORSDOF 7
ENDMDL
MODEL 7
REMARK VINA RESULT:      -9.6      2.864      4.742
REMARK  7 active torsions:
REMARK  status: ('A' for Active; 'I' for Inactive)
REMARK    1  A    between atoms: C_3  and  C_4 
REMARK    2  A    between atoms: N_5  and  C_6 
REMARK    3  A    between atoms: C_9  and  N_10 
REMARK       I    between atoms: N_10  and  C_11 
REMARK       I    between atoms: C_11  and  N_12 
REMARK    4  A    between atoms: N_12  and  C_13 
REMARK    5  A    between atoms: C_15  and  C_16 
REMARK    6  A    between atoms: C_32  and  C_33 
REMARK    7  A    between atoms: C_33  and  N_34 
ROOT
HETATM    1  C   UNL     1      -4.160   8.580 -28.838  1.00  0.00     0.169 C 
HETATM    2  C   UNL     1      -4.038   7.160 -28.306  1.00  0.00     0.179 C 
HETATM    3  C   UNL     1      -4.503   6.270 -29.450  1.00  0.00     0.177 C 
HETATM    4  C   UNL     1      -5.635   5.429 -28.875  1.00  0.00     0.141 C 
HETATM    5  C   UNL     1      -5.517   5.655 -27.369  1.00  0.00     0.196 C 
HETATM    6  O   UNL     1      -4.926   6.955 -27.194  1.00  0.00    -0.379 OA
HETATM    7  O   UNL     1      -4.984   7.134 -30.495  1.00  0.00    -0.379 OA
HETATM    8  C   UNL     1      -4.258   8.365 -30.344  1.00  0.00     0.198 C 
ENDROOT
BRANCH   1   9
HETATM    9  N   UNL     1      -3.096   9.444 -28.398  1.00  0.00    -0.221 N 
HETATM   10  C   UNL     1      -1.735   9.227 -28.321  1.00  0.00     0.182 A 
HETATM   11  N   UNL     1      -1.180  10.388 -28.013  1.00  0.00    -0.108 NA
HETATM   12  N   UNL     1      -2.189  11.295 -27.875  1.00  0.00    -0.023 NA
HETATM   13  N   UNL     1      -3.358  10.735 -28.120  1.00  0.00    -0.043 NA
BRANCH  10  14
HETATM   14  C   UNL     1      -0.967   8.013 -28.606  1.00  0.00     0.014 A 
HETATM   15  C   UNL     1      -0.280   7.281 -27.634  1.00  0.00     0.015 A 
HETATM   16  C   UNL     1       0.457   6.146 -27.986  1.00  0.00     0.002 A 
HETATM   17  C   UNL     1       0.546   5.744 -29.317  1.00  0.00     0.009 A 
HETATM   18  C   UNL     1      -0.090   6.484 -30.320  1.00  0.00    -0.032 A 
HETATM   19  C   UNL     1      -0.850   7.606 -29.948  1.00  0.00     0.024 A 
BRANCH  18  20
HETATM   20  C   UNL     1       0.035   6.092 -31.766  1.00  0.00     0.273 C 
BRANCH  20  21
HETATM   21  N   UNL     1      -1.275   6.117 -32.503  1.00  0.00    -0.067 N 
HETATM   22  H   UNL     1      -1.834   6.868 -32.078  1.00  0.00     0.280 HD
HETATM   23  C   UNL     1      -2.068   4.830 -32.378  1.00  0.00     0.235 C 
HETATM   24  C   UNL     1      -2.181   4.307 -33.795  1.00  0.00     0.029 C 
HETATM   25  C   UNL     1      -2.224   5.572 -34.629  1.00  0.00     0.029 C 
HETATM   26  C   UNL     1      -1.157   6.433 -33.982  1.00  0.00     0.235 C 
ENDBRANCH  20  21
ENDBRANCH  18  20
ENDBRANCH  10  14
ENDBRANCH   1   9
BRANCH   4  27
HETATM   27  N   UNL     1      -5.627   4.036 -29.314  1.00  0.00    -0.334 N 
HETATM   28  C   UNL     1      -6.492   3.581 -30.289  1.00  0.00     0.321 C 
HETATM   29  N   UNL     1      -6.383   2.221 -30.462  1.00  0.00    -0.309 N 
HETATM   30  O   UNL     1      -7.233   4.343 -30.897  1.00  0.00    -0.247 OA
HETATM   31  H   UNL     1      -5.727   1.744 -29.863  1.00  0.00     0.170 HD
HETATM   32  H   UNL     1      -5.362   3.363 -28.608  1.00  0.00     0.164 HD
BRANCH  29  33
HETATM   33  C   UNL     1      -7.078   1.412 -31.385  1.00  0.00     0.037 A 
HETATM   34  C   UNL     1      -6.456   0.646 -32.375  1.00  0.00     0.045 A 
HETATM   35  C   UNL     1      -7.209  -0.157 -33.251  1.00  0.00     0.050 A 
HETATM   36  C   UNL     1      -8.606  -0.165 -33.138  1.00  0.00     0.016 A 
HETATM   37  C   UNL     1      -9.235   0.598 -32.157  1.00  0.00     0.003 A 
HETATM   38  C   UNL     1      -8.474   1.377 -31.283  1.00  0.00     0.029 A 
BRANCH  35  39
HETATM   39  C   UNL     1      -6.531  -0.984 -34.316  1.00  0.00     0.417 C 
HETATM   40  F   UNL     1      -5.187  -1.116 -34.131  1.00  0.00    -0.166 F 
HETATM   41  F   UNL     1      -7.019  -2.255 -34.379  1.00  0.00    -0.166 F 
HETATM   42  F   UNL     1      -6.687  -0.459 -35.561  1.00  0.00    -0.166 F 
ENDBRANCH  35  39
ENDBRANCH  29  33
ENDBRANCH   4  27
TORSDOF 7
ENDMDL
MODEL 8
REMARK VINA RESULT:      -9.5      5.542     11.809
REMARK  7 active torsions:
REMARK  status: ('A' for Active; 'I' for Inactive)
REMARK    1  A    between atoms: C_3  and  C_4 
REMARK    2  A    between atoms: N_5  and  C_6 
REMARK    3  A    between atoms: C_9  and  N_10 
REMARK       I    between atoms: N_10  and  C_11 
REMARK       I    between atoms: C_11  and  N_12 
REMARK    4  A    between atoms: N_12  and  C_13 
REMARK    5  A    between atoms: C_15  and  C_16 
REMARK    6  A    between atoms: C_32  and  C_33 
REMARK    7  A    between atoms: C_33  and  N_34 
ROOT
HETATM    1  C   UNL     1      -2.707   5.161 -31.930  1.00  0.00     0.169 C 
HETATM    2  C   UNL     1      -3.053   6.445 -31.193  1.00  0.00     0.179 C 
HETATM    3  C   UNL     1      -1.773   6.843 -30.472  1.00  0.00     0.177 C 
HETATM    4  C   UNL     1      -2.153   6.956 -29.002  1.00  0.00     0.141 C 
HETATM    5  C   UNL     1      -3.681   6.945 -29.028  1.00  0.00     0.196 C 
HETATM    6  O   UNL     1      -4.066   6.206 -30.200  1.00  0.00    -0.379 OA
HETATM    7  O   UNL     1      -0.821   5.783 -30.677  1.00  0.00    -0.379 OA
HETATM    8  C   UNL     1      -1.183   5.175 -31.927  1.00  0.00     0.198 C 
ENDROOT
BRANCH   1   9
HETATM    9  N   UNL     1      -3.329   5.066 -33.225  1.00  0.00    -0.221 N 
HETATM   10  C   UNL     1      -4.525   4.492 -33.608  1.00  0.00     0.182 A 
HETATM   11  N   UNL     1      -4.717   4.819 -34.876  1.00  0.00    -0.108 NA
HETATM   12  N   UNL     1      -3.640   5.559 -35.271  1.00  0.00    -0.023 NA
HETATM   13  N   UNL     1      -2.796   5.726 -34.270  1.00  0.00    -0.043 NA
BRANCH  10  14
HETATM   14  C   UNL     1      -5.496   3.742 -32.811  1.00  0.00     0.014 A 
HETATM   15  C   UNL     1      -6.414   4.336 -31.941  1.00  0.00     0.015 A 
HETATM   16  C   UNL     1      -7.294   3.551 -31.189  1.00  0.00     0.002 A 
HETATM   17  C   UNL     1      -7.248   2.160 -31.268  1.00  0.00     0.009 A 
HETATM   18  C   UNL     1      -6.306   1.534 -32.092  1.00  0.00    -0.032 A 
HETATM   19  C   UNL     1      -5.448   2.336 -32.863  1.00  0.00     0.024 A 
BRANCH  18  20
HETATM   20  C   UNL     1      -6.210   0.035 -32.153  1.00  0.00     0.273 C 
BRANCH  20  21
HETATM   21  N   UNL     1      -5.747  -0.476 -33.490  1.00  0.00    -0.067 N 
HETATM   22  H   UNL     1      -5.287   0.314 -33.959  1.00  0.00     0.280 HD
HETATM   23  C   UNL     1      -6.877  -0.947 -34.385  1.00  0.00     0.235 C 
HETATM   24  C   UNL     1      -6.602  -2.420 -34.610  1.00  0.00     0.029 C 
HETATM   25  C   UNL     1      -5.089  -2.499 -34.580  1.00  0.00     0.029 C 
HETATM   26  C   UNL     1      -4.731  -1.601 -33.413  1.00  0.00     0.235 C 
ENDBRANCH  20  21
ENDBRANCH  18  20
ENDBRANCH  10  14
ENDBRANCH   1   9
BRANCH   4  27
HETATM   27  N   UNL     1      -1.536   8.084 -28.310  1.00  0.00    -0.334 N 
HETATM   28  C   UNL     1      -1.243   8.031 -26.961  1.00  0.00     0.321 C 
HETATM   29  N   UNL     1      -0.770   9.239 -26.503  1.00  0.00    -0.309 N 
HETATM   30  O   UNL     1      -1.397   7.006 -26.311  1.00  0.00    -0.247 OA
HETATM   31  H   UNL     1      -0.720   9.987 -27.178  1.00  0.00     0.170 HD
HETATM   32  H   UNL     1      -1.770   8.997 -28.677  1.00  0.00     0.164 HD
BRANCH  29  33
HETATM   33  C   UNL     1      -0.340   9.555 -25.197  1.00  0.00     0.037 A 
HETATM   34  C   UNL     1       0.955   9.324 -24.725  1.00  0.00     0.045 A 
HETATM   35  C   UNL     1       1.325   9.684 -23.415  1.00  0.00     0.050 A 
HETATM   36  C   UNL     1       0.366  10.261 -22.571  1.00  0.00     0.016 A 
HETATM   37  C   UNL     1      -0.928  10.492 -23.032  1.00  0.00     0.003 A 
HETATM   38  C   UNL     1      -1.276  10.146 -24.339  1.00  0.00     0.029 A 
BRANCH  35  39
HETATM   39  C   UNL     1       2.725   9.435 -22.912  1.00  0.00     0.417 C 
HETATM   40  F   UNL     1       2.781   8.571 -21.859  1.00  0.00    -0.166 F 
HETATM   41  F   UNL     1       3.536   8.900 -23.869  1.00  0.00    -0.166 F 
HETATM   42  F   UNL     1       3.339  10.575 -22.495  1.00  0.00    -0.166 F 
ENDBRANCH  35  39
ENDBRANCH  29  33
ENDBRANCH   4  27
TORSDOF 7
ENDMDL
MODEL 9
REMARK VINA RESULT:      -9.3      3.797      5.614
REMARK  7 active torsions:
REMARK  status: ('A' for Active; 'I' for Inactive)
REMARK    1  A    between atoms: C_3  and  C_4 
REMARK    2  A    between atoms: N_5  and  C_6 
REMARK    3  A    between atoms: C_9  and  N_10 
REMARK       I    between atoms: N_10  and  C_11 
REMARK       I    between atoms: C_11  and  N_12 
REMARK    4  A    between atoms: N_12  and  C_13 
REMARK    5  A    between atoms: C_15  and  C_16 
REMARK    6  A    between atoms: C_32  and  C_33 
REMARK    7  A    between atoms: C_33  and  N_34 
ROOT
HETATM    1  C   UNL     1     -10.273   5.805 -32.263  1.00  0.00     0.169 C 
HETATM    2  C   UNL     1      -9.995   4.311 -32.217  1.00  0.00     0.179 C 
HETATM    3  C   UNL     1      -9.303   3.997 -33.536  1.00  0.00     0.177 C 
HETATM    4  C   UNL     1     -10.147   2.910 -34.188  1.00  0.00     0.141 C 
HETATM    5  C   UNL     1     -11.062   2.443 -33.058  1.00  0.00     0.196 C 
HETATM    6  O   UNL     1     -11.224   3.565 -32.171  1.00  0.00    -0.379 OA
HETATM    7  O   UNL     1      -9.320   5.202 -34.323  1.00  0.00    -0.379 OA
HETATM    8  C   UNL     1      -9.347   6.282 -33.376  1.00  0.00     0.198 C 
ENDROOT
BRANCH   1   9
HETATM    9  N   UNL     1     -10.104   6.453 -30.989  1.00  0.00    -0.221 N 
HETATM   10  C   UNL     1      -9.023   6.481 -30.130  1.00  0.00     0.182 A 
HETATM   11  N   UNL     1      -9.314   7.351 -29.177  1.00  0.00    -0.108 NA
HETATM   12  N   UNL     1     -10.567   7.827 -29.433  1.00  0.00    -0.023 NA
HETATM   13  N   UNL     1     -11.051   7.297 -30.540  1.00  0.00    -0.043 NA
BRANCH  10  14
HETATM   14  C   UNL     1      -7.734   5.794 -30.232  1.00  0.00     0.014 A 
HETATM   15  C   UNL     1      -7.424   4.615 -29.550  1.00  0.00     0.015 A 
HETATM   16  C   UNL     1      -6.159   4.031 -29.674  1.00  0.00     0.002 A 
HETATM   17  C   UNL     1      -5.174   4.633 -30.456  1.00  0.00     0.009 A 
HETATM   18  C   UNL     1      -5.438   5.841 -31.112  1.00  0.00    -0.032 A 
HETATM   19  C   UNL     1      -6.722   6.401 -30.999  1.00  0.00     0.024 A 
BRANCH  18  20
HETATM   20  C   UNL     1      -4.373   6.528 -31.919  1.00  0.00     0.273 C 
BRANCH  20  21
HETATM   21  N   UNL     1      -3.536   5.577 -32.729  1.00  0.00    -0.067 N 
HETATM   22  H   UNL     1      -3.612   4.660 -32.271  1.00  0.00     0.280 HD
HETATM   23  C   UNL     1      -2.066   5.946 -32.773  1.00  0.00     0.235 C 
HETATM   24  C   UNL     1      -1.776   6.207 -34.237  1.00  0.00     0.029 C 
HETATM   25  C   UNL     1      -2.713   5.253 -34.950  1.00  0.00     0.029 C 
HETATM   26  C   UNL     1      -4.000   5.398 -34.163  1.00  0.00     0.235 C 
ENDBRANCH  20  21
ENDBRANCH  18  20
ENDBRANCH  10  14
ENDBRANCH   1   9
BRANCH   4  27
HETATM   27  N   UNL     1      -9.369   1.866 -34.850  1.00  0.00    -0.334 N 
HETATM   28  C   UNL     1      -8.455   1.097 -34.157  1.00  0.00     0.321 C 
HETATM   29  N   UNL     1      -7.764   0.257 -35.000  1.00  0.00    -0.309 N 
HETATM   30  O   UNL     1      -8.329   1.189 -32.943  1.00  0.00    -0.247 OA
HETATM   31  H   UNL     1      -7.988   0.323 -35.981  1.00  0.00     0.170 HD
HETATM   32  H   UNL     1      -9.155   2.038 -35.823  1.00  0.00     0.164 HD
BRANCH  29  33
HETATM   33  C   UNL     1      -6.781  -0.692 -34.652  1.00  0.00     0.037 A 
HETATM   34  C   UNL     1      -6.905  -2.065 -34.883  1.00  0.00     0.045 A 
HETATM   35  C   UNL     1      -5.874  -2.956 -34.531  1.00  0.00     0.050 A 
HETATM   36  C   UNL     1      -4.719  -2.453 -33.917  1.00  0.00     0.016 A 
HETATM   37  C   UNL     1      -4.588  -1.087 -33.679  1.00  0.00     0.003 A 
HETATM   38  C   UNL     1      -5.611  -0.212 -34.050  1.00  0.00     0.029 A 
BRANCH  35  39
HETATM   39  C   UNL     1      -6.013  -4.436 -34.787  1.00  0.00     0.417 C 
HETATM   40  F   UNL     1      -5.050  -5.187 -34.182  1.00  0.00    -0.166 F 
HETATM   41  F   UNL     1      -7.200  -4.935 -34.340  1.00  0.00    -0.166 F 
HETATM   42  F   UNL     1      -5.952  -4.744 -36.111  1.00  0.00    -0.166 F 
ENDBRANCH  35  39
ENDBRANCH  29  33
ENDBRANCH   4  27
TORSDOF 7
ENDMDL
MODEL 10
REMARK VINA RESULT:      -9.2      3.950      5.715
REMARK  7 active torsions:
REMARK  status: ('A' for Active; 'I' for Inactive)
REMARK    1  A    between atoms: C_3  and  C_4 
REMARK    2  A    between atoms: N_5  and  C_6 
REMARK    3  A    between atoms: C_9  and  N_10 
REMARK       I    between atoms: N_10  and  C_11 
REMARK       I    between atoms: C_11  and  N_12 
REMARK    4  A    between atoms: N_12  and  C_13 
REMARK    5  A    between atoms: C_15  and  C_16 
REMARK    6  A    between atoms: C_32  and  C_33 
REMARK    7  A    between atoms: C_33  and  N_34 
ROOT
HETATM    1  C   UNL     1     -10.354   5.044 -32.686  1.00  0.00     0.169 C 
HETATM    2  C   UNL     1      -9.916   3.596 -32.527  1.00  0.00     0.179 C 
HETATM    3  C   UNL     1      -9.186   3.261 -33.820  1.00  0.00     0.177 C 
HETATM    4  C   UNL     1      -9.902   2.042 -34.386  1.00  0.00     0.141 C 
HETATM    5  C   UNL     1     -10.769   1.566 -33.222  1.00  0.00     0.196 C 
HETATM    6  O   UNL     1     -11.057   2.727 -32.423  1.00  0.00    -0.379 OA
HETATM    7  O   UNL     1      -9.328   4.394 -34.696  1.00  0.00    -0.379 OA
HETATM    8  C   UNL     1      -9.478   5.533 -33.834  1.00  0.00     0.198 C 
ENDROOT
BRANCH   1   9
HETATM    9  N   UNL     1     -10.264   5.801 -31.465  1.00  0.00    -0.221 N 
HETATM   10  C   UNL     1      -9.208   5.982 -30.595  1.00  0.00     0.182 A 
HETATM   11  N   UNL     1      -9.588   6.898 -29.718  1.00  0.00    -0.108 NA
HETATM   12  N   UNL     1     -10.868   7.251 -30.031  1.00  0.00    -0.023 NA
HETATM   13  N   UNL     1     -11.285   6.599 -31.100  1.00  0.00    -0.043 NA
BRANCH  10  14
HETATM   14  C   UNL     1      -7.867   5.396 -30.622  1.00  0.00     0.014 A 
HETATM   15  C   UNL     1      -7.462   4.340 -29.801  1.00  0.00     0.015 A 
HETATM   16  C   UNL     1      -6.154   3.850 -29.862  1.00  0.00     0.002 A 
HETATM   17  C   UNL     1      -5.221   4.428 -30.721  1.00  0.00     0.009 A 
HETATM   18  C   UNL     1      -5.582   5.519 -31.520  1.00  0.00    -0.032 A 
HETATM   19  C   UNL     1      -6.907   5.982 -31.467  1.00  0.00     0.024 A 
BRANCH  18  20
HETATM   20  C   UNL     1      -4.575   6.185 -32.416  1.00  0.00     0.273 C 
BRANCH  20  21
HETATM   21  N   UNL     1      -3.628   5.216 -33.068  1.00  0.00    -0.067 N 
HETATM   22  H   UNL     1      -3.996   4.275 -32.875  1.00  0.00     0.280 HD
HETATM   23  C   UNL     1      -2.217   5.278 -32.515  1.00  0.00     0.235 C 
HETATM   24  C   UNL     1      -1.359   5.691 -33.693  1.00  0.00     0.029 C 
HETATM   25  C   UNL     1      -2.071   5.068 -34.876  1.00  0.00     0.029 C 
HETATM   26  C   UNL     1      -3.529   5.353 -34.576  1.00  0.00     0.235 C 
ENDBRANCH  20  21
ENDBRANCH  18  20
ENDBRANCH  10  14
ENDBRANCH   1   9
BRANCH   4  27
HETATM   27  N   UNL     1      -9.011   1.042 -34.968  1.00  0.00    -0.334 N 
HETATM   28  C   UNL     1      -8.100   0.350 -34.196  1.00  0.00     0.321 C 
HETATM   29  N   UNL     1      -7.296  -0.456 -34.970  1.00  0.00    -0.309 N 
HETATM   30  O   UNL     1      -8.065   0.473 -32.979  1.00  0.00    -0.247 OA
HETATM   31  H   UNL     1      -7.454  -0.423 -35.965  1.00  0.00     0.170 HD
HETATM   32  H   UNL     1      -8.741   1.211 -35.928  1.00  0.00     0.164 HD
BRANCH  29  33
HETATM   33  C   UNL     1      -6.278  -1.329 -34.533  1.00  0.00     0.037 A 
HETATM   34  C   UNL     1      -5.308  -0.986 -33.587  1.00  0.00     0.045 A 
HETATM   35  C   UNL     1      -4.333  -1.914 -33.179  1.00  0.00     0.050 A 
HETATM   36  C   UNL     1      -4.327  -3.193 -33.752  1.00  0.00     0.016 A 
HETATM   37  C   UNL     1      -5.288  -3.543 -34.698  1.00  0.00     0.003 A 
HETATM   38  C   UNL     1      -6.260  -2.618 -35.081  1.00  0.00     0.029 A 
BRANCH  35  39
HETATM   39  C   UNL     1      -3.290  -1.539 -32.155  1.00  0.00     0.417 C 
HETATM   40  F   UNL     1      -2.335  -0.692 -32.634  1.00  0.00    -0.166 F 
HETATM   41  F   UNL     1      -3.826  -0.911 -31.070  1.00  0.00    -0.166 F 
HETATM   42  F   UNL     1      -2.622  -2.621 -31.671  1.00  0.00    -0.166 F 
ENDBRANCH  35  39
ENDBRANCH  29  33
ENDBRANCH   4  27
TORSDOF 7
ENDMDL
