MODEL 1
REMARK VINA RESULT:      -8.2      0.000      0.000
REMARK  6 active torsions:
REMARK  status: ('A' for Active; 'I' for Inactive)
REMARK    1  A    between atoms: O_2  and  C_3 
REMARK    2  A    between atoms: C_6  and  C_7 
REMARK    3  A    between atoms: C_7  and  N_8 
REMARK       I    between atoms: N_8  and  C_9 
REMARK       I    between atoms: C_9  and  N_10 
REMARK    4  A    between atoms: N_10  and  C_11 
REMARK    5  A    between atoms: C_11  and  C_12 
REMARK    6  A    between atoms: C_13  and  C_14 
ROOT
HETATM    1  N   UNL     1      -4.343   0.472 -31.095  1.00  0.00    -0.339 N 
HETATM    2  C   UNL     1      -4.401   1.821 -30.990  1.00  0.00     0.316 C 
HETATM    3  N   UNL     1      -3.281   2.499 -31.348  1.00  0.00    -0.339 N 
HETATM    4  O   UNL     1      -5.419   2.348 -30.554  1.00  0.00    -0.247 OA
HETATM    5  H   UNL     1      -5.202   0.024 -30.801  1.00  0.00     0.164 HD
HETATM    6  H   UNL     1      -2.663   2.056 -32.010  1.00  0.00     0.164 HD
ENDROOT
BRANCH   3   7
HETATM    7  C   UNL     1      -3.173   3.940 -31.205  1.00  0.00     0.163 C 
BRANCH   7   8
HETATM    8  C   UNL     1      -2.507   4.624 -32.385  1.00  0.00    -0.029 A 
HETATM    9  C   UNL     1      -1.397   5.476 -32.193  1.00  0.00    -0.018 A 
HETATM   10  C   UNL     1      -0.756   6.065 -33.296  1.00  0.00     0.013 A 
HETATM   11  C   UNL     1      -1.206   5.821 -34.592  1.00  0.00     0.001 A 
HETATM   12  C   UNL     1      -2.291   4.979 -34.796  1.00  0.00     0.001 A 
HETATM   13  C   UNL     1      -2.931   4.384 -33.706  1.00  0.00     0.010 A 
BRANCH   9  14
HETATM   14  C   UNL     1      -0.849   5.751 -30.872  1.00  0.00    -0.018 A 
HETATM   15  C   UNL     1      -1.307   6.803 -30.104  1.00  0.00     0.061 A 
HETATM   16  S   UNL     1      -0.474   6.926 -28.613  1.00  0.00    -0.113 SA
HETATM   17  C   UNL     1       0.527   5.594 -28.998  1.00  0.00     0.050 A 
HETATM   18  C   UNL     1       0.227   5.060 -30.232  1.00  0.00     0.020 A 
ENDBRANCH   9  14
ENDBRANCH   7   8
ENDBRANCH   3   7
BRANCH   1  19
HETATM   19  C   UNL     1      -3.203  -0.376 -31.365  1.00  0.00     0.162 C 
BRANCH  19  20
HETATM   20  C   UNL     1      -3.515  -1.546 -32.265  1.00  0.00    -0.040 A 
HETATM   21  C   UNL     1      -3.037  -2.823 -31.933  1.00  0.00     0.011 A 
HETATM   22  C   UNL     1      -3.376  -3.943 -32.703  1.00  0.00     0.037 A 
HETATM   23  C   UNL     1      -4.210  -3.805 -33.812  1.00  0.00     0.068 A 
HETATM   24  C   UNL     1      -4.688  -2.539 -34.149  1.00  0.00     0.037 A 
HETATM   25  C   UNL     1      -4.353  -1.420 -33.380  1.00  0.00     0.011 A 
BRANCH  23  26
HETATM   26  O   UNL     1      -4.629  -4.813 -34.636  1.00  0.00    -0.356 OA
HETATM   27  C   UNL     1      -5.956  -4.723 -35.139  1.00  0.00     0.210 C 
ENDBRANCH  23  26
ENDBRANCH  19  20
ENDBRANCH   1  19
TORSDOF 6
ENDMDL
MODEL 2
REMARK VINA RESULT:      -8.0      1.305      1.733
REMARK  6 active torsions:
REMARK  status: ('A' for Active; 'I' for Inactive)
REMARK    1  A    between atoms: O_2  and  C_3 
REMARK    2  A    between atoms: C_6  and  C_7 
REMARK    3  A    between atoms: C_7  and  N_8 
REMARK       I    between atoms: N_8  and  C_9 
REMARK       I    between atoms: C_9  and  N_10 
REMARK    4  A    between atoms: N_10  and  C_11 
REMARK    5  A    between atoms: C_11  and  C_12 
REMARK    6  A    between atoms: C_13  and  C_14 
ROOT
HETATM    1  N   UNL     1      -6.101   1.781 -31.917  1.00  0.00    -0.339 N 
HETATM    2  C   UNL     1      -5.117   2.467 -31.288  1.00  0.00     0.316 C 
HETATM    3  N   UNL     1      -4.263   3.159 -32.085  1.00  0.00    -0.339 N 
HETATM    4  O   UNL     1      -5.025   2.403 -30.066  1.00  0.00    -0.247 OA
HETATM    5  H   UNL     1      -6.695   1.277 -31.272  1.00  0.00     0.164 HD
HETATM    6  H   UNL     1      -4.605   3.453 -32.986  1.00  0.00     0.164 HD
ENDROOT
BRANCH   3   7
HETATM    7  C   UNL     1      -3.113   3.867 -31.551  1.00  0.00     0.163 C 
BRANCH   7   8
HETATM    8  C   UNL     1      -2.370   4.693 -32.585  1.00  0.00    -0.029 A 
HETATM    9  C   UNL     1      -1.435   5.675 -32.188  1.00  0.00    -0.018 A 
HETATM   10  C   UNL     1      -0.716   6.400 -33.152  1.00  0.00     0.013 A 
HETATM   11  C   UNL     1      -0.913   6.164 -34.511  1.00  0.00     0.001 A 
HETATM   12  C   UNL     1      -1.823   5.195 -34.916  1.00  0.00     0.001 A 
HETATM   13  C   UNL     1      -2.539   4.465 -33.964  1.00  0.00     0.010 A 
BRANCH   9  14
HETATM   14  C   UNL     1      -1.150   5.953 -30.787  1.00  0.00    -0.018 A 
HETATM   15  C   UNL     1      -1.910   6.845 -30.058  1.00  0.00     0.061 A 
HETATM   16  S   UNL     1      -1.344   7.016 -28.451  1.00  0.00    -0.113 SA
HETATM   17  C   UNL     1      -0.058   5.922 -28.729  1.00  0.00     0.050 A 
HETATM   18  C   UNL     1      -0.065   5.431 -30.016  1.00  0.00     0.020 A 
ENDBRANCH   9  14
ENDBRANCH   7   8
ENDBRANCH   3   7
BRANCH   1  19
HETATM   19  C   UNL     1      -6.277   1.526 -33.330  1.00  0.00     0.162 C 
BRANCH  19  20
HETATM   20  C   UNL     1      -5.997   0.098 -33.730  1.00  0.00    -0.040 A 
HETATM   21  C   UNL     1      -4.748  -0.470 -33.440  1.00  0.00     0.011 A 
HETATM   22  C   UNL     1      -4.484  -1.816 -33.725  1.00  0.00     0.037 A 
HETATM   23  C   UNL     1      -5.472  -2.619 -34.295  1.00  0.00     0.068 A 
HETATM   24  C   UNL     1      -6.716  -2.060 -34.588  1.00  0.00     0.037 A 
HETATM   25  C   UNL     1      -6.982  -0.717 -34.302  1.00  0.00     0.011 A 
BRANCH  23  26
HETATM   26  O   UNL     1      -5.352  -3.944 -34.609  1.00  0.00    -0.356 OA
HETATM   27  C   UNL     1      -6.411  -4.526 -35.357  1.00  0.00     0.210 C 
ENDBRANCH  23  26
ENDBRANCH  19  20
ENDBRANCH   1  19
TORSDOF 6
ENDMDL
MODEL 3
REMARK VINA RESULT:      -7.9      3.600      8.671
REMARK  6 active torsions:
REMARK  status: ('A' for Active; 'I' for Inactive)
REMARK    1  A    between atoms: O_2  and  C_3 
REMARK    2  A    between atoms: C_6  and  C_7 
REMARK    3  A    between atoms: C_7  and  N_8 
REMARK       I    between atoms: N_8  and  C_9 
REMARK       I    between atoms: C_9  and  N_10 
REMARK    4  A    between atoms: N_10  and  C_11 
REMARK    5  A    between atoms: C_11  and  C_12 
REMARK    6  A    between atoms: C_13  and  C_14 
ROOT
HETATM    1  N   UNL     1      -5.172   3.836 -32.509  1.00  0.00    -0.339 N 
HETATM    2  C   UNL     1      -5.708   2.722 -31.957  1.00  0.00     0.316 C 
HETATM    3  N   UNL     1      -5.065   1.554 -32.215  1.00  0.00    -0.339 N 
HETATM    4  O   UNL     1      -6.740   2.813 -31.300  1.00  0.00    -0.247 OA
HETATM    5  H   UNL     1      -5.702   4.669 -32.292  1.00  0.00     0.164 HD
HETATM    6  H   UNL     1      -4.082   1.605 -32.430  1.00  0.00     0.164 HD
ENDROOT
BRANCH   3   7
HETATM    7  C   UNL     1      -5.578   0.275 -31.760  1.00  0.00     0.163 C 
BRANCH   7   8
HETATM    8  C   UNL     1      -5.650  -0.779 -32.850  1.00  0.00    -0.029 A 
HETATM    9  C   UNL     1      -6.764  -0.844 -33.717  1.00  0.00    -0.018 A 
HETATM   10  C   UNL     1      -6.799  -1.790 -34.755  1.00  0.00     0.013 A 
HETATM   11  C   UNL     1      -5.742  -2.678 -34.943  1.00  0.00     0.001 A 
HETATM   12  C   UNL     1      -4.637  -2.620 -34.102  1.00  0.00     0.001 A 
HETATM   13  C   UNL     1      -4.590  -1.678 -33.071  1.00  0.00     0.010 A 
BRANCH   9  14
HETATM   14  C   UNL     1      -7.890   0.073 -33.605  1.00  0.00    -0.018 A 
HETATM   15  C   UNL     1      -8.013   1.171 -34.433  1.00  0.00     0.061 A 
HETATM   16  S   UNL     1      -9.403   2.101 -34.071  1.00  0.00    -0.113 SA
HETATM   17  C   UNL     1      -9.834   1.060 -32.784  1.00  0.00     0.050 A 
HETATM   18  C   UNL     1      -8.942   0.020 -32.639  1.00  0.00     0.020 A 
ENDBRANCH   9  14
ENDBRANCH   7   8
ENDBRANCH   3   7
BRANCH   1  19
HETATM   19  C   UNL     1      -4.110   3.952 -33.485  1.00  0.00     0.162 C 
BRANCH  19  20
HETATM   20  C   UNL     1      -2.874   4.640 -32.960  1.00  0.00    -0.040 A 
HETATM   21  C   UNL     1      -2.250   5.629 -33.734  1.00  0.00     0.011 A 
HETATM   22  C   UNL     1      -1.149   6.343 -33.242  1.00  0.00     0.037 A 
HETATM   23  C   UNL     1      -0.662   6.086 -31.961  1.00  0.00     0.068 A 
HETATM   24  C   UNL     1      -1.277   5.101 -31.186  1.00  0.00     0.037 A 
HETATM   25  C   UNL     1      -2.377   4.390 -31.674  1.00  0.00     0.011 A 
BRANCH  23  26
HETATM   26  O   UNL     1       0.389   6.716 -31.356  1.00  0.00    -0.356 OA
HETATM   27  C   UNL     1       0.304   6.903 -29.949  1.00  0.00     0.210 C 
ENDBRANCH  23  26
ENDBRANCH  19  20
ENDBRANCH   1  19
TORSDOF 6
ENDMDL
MODEL 4
REMARK VINA RESULT:      -7.9      3.808      8.709
REMARK  6 active torsions:
REMARK  status: ('A' for Active; 'I' for Inactive)
REMARK    1  A    between atoms: O_2  and  C_3 
REMARK    2  A    between atoms: C_6  and  C_7 
REMARK    3  A    between atoms: C_7  and  N_8 
REMARK       I    between atoms: N_8  and  C_9 
REMARK       I    between atoms: C_9  and  N_10 
REMARK    4  A    between atoms: N_10  and  C_11 
REMARK    5  A    between atoms: C_11  and  C_12 
REMARK    6  A    between atoms: C_13  and  C_14 
ROOT
HETATM    1  N   UNL     1      -4.120   5.395 -34.780  1.00  0.00    -0.339 N 
HETATM    2  C   UNL     1      -5.043   4.653 -34.122  1.00  0.00     0.316 C 
HETATM    3  N   UNL     1      -4.562   3.663 -33.327  1.00  0.00    -0.339 N 
HETATM    4  O   UNL     1      -6.235   4.882 -34.298  1.00  0.00    -0.247 OA
HETATM    5  H   UNL     1      -4.540   6.106 -35.364  1.00  0.00     0.164 HD
HETATM    6  H   UNL     1      -3.629   3.774 -32.961  1.00  0.00     0.164 HD
ENDROOT
BRANCH   3   7
HETATM    7  C   UNL     1      -5.439   2.738 -32.632  1.00  0.00     0.163 C 
BRANCH   7   8
HETATM    8  C   UNL     1      -4.960   1.298 -32.666  1.00  0.00    -0.029 A 
HETATM    9  C   UNL     1      -5.854   0.247 -32.970  1.00  0.00    -0.018 A 
HETATM   10  C   UNL     1      -5.391  -1.077 -33.048  1.00  0.00     0.013 A 
HETATM   11  C   UNL     1      -4.048  -1.374 -32.826  1.00  0.00     0.001 A 
HETATM   12  C   UNL     1      -3.156  -0.349 -32.534  1.00  0.00     0.001 A 
HETATM   13  C   UNL     1      -3.606   0.971 -32.460  1.00  0.00     0.010 A 
BRANCH   9  14
HETATM   14  C   UNL     1      -7.263   0.484 -33.249  1.00  0.00    -0.018 A 
HETATM   15  C   UNL     1      -8.222   0.385 -32.260  1.00  0.00     0.061 A 
HETATM   16  S   UNL     1      -9.800   0.676 -32.858  1.00  0.00    -0.113 SA
HETATM   17  C   UNL     1      -9.216   0.904 -34.449  1.00  0.00     0.050 A 
HETATM   18  C   UNL     1      -7.847   0.770 -34.523  1.00  0.00     0.020 A 
ENDBRANCH   9  14
ENDBRANCH   7   8
ENDBRANCH   3   7
BRANCH   1  19
HETATM   19  C   UNL     1      -2.695   5.179 -34.905  1.00  0.00     0.162 C 
BRANCH  19  20
HETATM   20  C   UNL     1      -1.892   5.745 -33.760  1.00  0.00    -0.040 A 
HETATM   21  C   UNL     1      -1.869   7.132 -33.548  1.00  0.00     0.011 A 
HETATM   22  C   UNL     1      -1.200   7.683 -32.448  1.00  0.00     0.037 A 
HETATM   23  C   UNL     1      -0.551   6.853 -31.534  1.00  0.00     0.068 A 
HETATM   24  C   UNL     1      -0.567   5.473 -31.740  1.00  0.00     0.037 A 
HETATM   25  C   UNL     1      -1.237   4.921 -32.836  1.00  0.00     0.011 A 
BRANCH  23  26
HETATM   26  O   UNL     1       0.124   7.257 -30.416  1.00  0.00    -0.356 OA
HETATM   27  C   UNL     1       0.109   6.374 -29.302  1.00  0.00     0.210 C 
ENDBRANCH  23  26
ENDBRANCH  19  20
ENDBRANCH   1  19
TORSDOF 6
ENDMDL
MODEL 5
REMARK VINA RESULT:      -7.8      2.812      3.853
REMARK  6 active torsions:
REMARK  status: ('A' for Active; 'I' for Inactive)
REMARK    1  A    between atoms: O_2  and  C_3 
REMARK    2  A    between atoms: C_6  and  C_7 
REMARK    3  A    between atoms: C_7  and  N_8 
REMARK       I    between atoms: N_8  and  C_9 
REMARK       I    between atoms: C_9  and  N_10 
REMARK    4  A    between atoms: N_10  and  C_11 
REMARK    5  A    between atoms: C_11  and  C_12 
REMARK    6  A    between atoms: C_13  and  C_14 
ROOT
HETATM    1  N   UNL     1      -7.885   1.266 -33.976  1.00  0.00    -0.339 N 
HETATM    2  C   UNL     1      -7.586   2.524 -33.572  1.00  0.00     0.316 C 
HETATM    3  N   UNL     1      -6.748   3.229 -34.375  1.00  0.00    -0.339 N 
HETATM    4  O   UNL     1      -8.043   2.941 -32.513  1.00  0.00    -0.247 OA
HETATM    5  H   UNL     1      -8.501   0.790 -33.332  1.00  0.00     0.164 HD
HETATM    6  H   UNL     1      -6.720   2.977 -35.351  1.00  0.00     0.164 HD
ENDROOT
BRANCH   3   7
HETATM    7  C   UNL     1      -6.275   4.555 -34.021  1.00  0.00     0.163 C 
BRANCH   7   8
HETATM    8  C   UNL     1      -4.762   4.672 -33.970  1.00  0.00    -0.029 A 
HETATM    9  C   UNL     1      -4.050   4.312 -32.804  1.00  0.00    -0.018 A 
HETATM   10  C   UNL     1      -2.646   4.376 -32.784  1.00  0.00     0.013 A 
HETATM   11  C   UNL     1      -1.938   4.798 -33.907  1.00  0.00     0.001 A 
HETATM   12  C   UNL     1      -2.626   5.147 -35.063  1.00  0.00     0.001 A 
HETATM   13  C   UNL     1      -4.021   5.081 -35.095  1.00  0.00     0.010 A 
BRANCH   9  14
HETATM   14  C   UNL     1      -4.718   3.829 -31.604  1.00  0.00    -0.018 A 
HETATM   15  C   UNL     1      -5.344   4.694 -30.728  1.00  0.00     0.061 A 
HETATM   16  S   UNL     1      -6.019   3.877 -29.384  1.00  0.00    -0.113 SA
HETATM   17  C   UNL     1      -5.451   2.365 -29.947  1.00  0.00     0.050 A 
HETATM   18  C   UNL     1      -4.769   2.479 -31.138  1.00  0.00     0.020 A 
ENDBRANCH   9  14
ENDBRANCH   7   8
ENDBRANCH   3   7
BRANCH   1  19
HETATM   19  C   UNL     1      -7.305   0.489 -35.050  1.00  0.00     0.162 C 
BRANCH  19  20
HETATM   20  C   UNL     1      -6.274  -0.511 -34.587  1.00  0.00    -0.040 A 
HETATM   21  C   UNL     1      -5.259  -0.104 -33.709  1.00  0.00     0.011 A 
HETATM   22  C   UNL     1      -4.335  -1.025 -33.197  1.00  0.00     0.037 A 
HETATM   23  C   UNL     1      -4.420  -2.372 -33.548  1.00  0.00     0.068 A 
HETATM   24  C   UNL     1      -5.426  -2.784 -34.422  1.00  0.00     0.037 A 
HETATM   25  C   UNL     1      -6.351  -1.867 -34.932  1.00  0.00     0.011 A 
BRANCH  23  26
HETATM   26  O   UNL     1      -3.597  -3.373 -33.112  1.00  0.00    -0.356 OA
HETATM   27  C   UNL     1      -3.671  -4.613 -33.802  1.00  0.00     0.210 C 
ENDBRANCH  23  26
ENDBRANCH  19  20
ENDBRANCH   1  19
TORSDOF 6
ENDMDL
MODEL 6
REMARK VINA RESULT:      -7.6      3.128      4.313
REMARK  6 active torsions:
REMARK  status: ('A' for Active; 'I' for Inactive)
REMARK    1  A    between atoms: O_2  and  C_3 
REMARK    2  A    between atoms: C_6  and  C_7 
REMARK    3  A    between atoms: C_7  and  N_8 
REMARK       I    between atoms: N_8  and  C_9 
REMARK       I    between atoms: C_9  and  N_10 
REMARK    4  A    between atoms: N_10  and  C_11 
REMARK    5  A    between atoms: C_11  and  C_12 
REMARK    6  A    between atoms: C_13  and  C_14 
ROOT
HETATM    1  N   UNL     1      -6.421   1.941 -29.829  1.00  0.00    -0.339 N 
HETATM    2  C   UNL     1      -6.011   3.205 -30.089  1.00  0.00     0.316 C 
HETATM    3  N   UNL     1      -4.783   3.334 -30.653  1.00  0.00    -0.339 N 
HETATM    4  O   UNL     1      -6.732   4.148 -29.777  1.00  0.00    -0.247 OA
HETATM    5  H   UNL     1      -7.336   1.912 -29.398  1.00  0.00     0.164 HD
HETATM    6  H   UNL     1      -4.436   2.556 -31.192  1.00  0.00     0.164 HD
ENDROOT
BRANCH   3   7
HETATM    7  C   UNL     1      -4.183   4.632 -30.905  1.00  0.00     0.163 C 
BRANCH   7   8
HETATM    8  C   UNL     1      -3.620   4.783 -32.307  1.00  0.00    -0.029 A 
HETATM    9  C   UNL     1      -4.465   5.095 -33.395  1.00  0.00    -0.018 A 
HETATM   10  C   UNL     1      -3.927   5.282 -34.679  1.00  0.00     0.013 A 
HETATM   11  C   UNL     1      -2.557   5.161 -34.900  1.00  0.00     0.001 A 
HETATM   12  C   UNL     1      -1.713   4.863 -33.838  1.00  0.00     0.001 A 
HETATM   13  C   UNL     1      -2.237   4.681 -32.556  1.00  0.00     0.010 A 
BRANCH   9  14
HETATM   14  C   UNL     1      -5.902   5.271 -33.236  1.00  0.00    -0.018 A 
HETATM   15  C   UNL     1      -6.802   4.347 -33.727  1.00  0.00     0.061 A 
HETATM   16  S   UNL     1      -8.425   4.808 -33.438  1.00  0.00    -0.113 SA
HETATM   17  C   UNL     1      -7.936   6.263 -32.683  1.00  0.00     0.050 A 
HETATM   18  C   UNL     1      -6.565   6.390 -32.643  1.00  0.00     0.020 A 
ENDBRANCH   9  14
ENDBRANCH   7   8
ENDBRANCH   3   7
BRANCH   1  19
HETATM   19  C   UNL     1      -5.672   0.705 -29.899  1.00  0.00     0.162 C 
BRANCH  19  20
HETATM   20  C   UNL     1      -5.837  -0.032 -31.206  1.00  0.00    -0.040 A 
HETATM   21  C   UNL     1      -7.043   0.076 -31.915  1.00  0.00     0.011 A 
HETATM   22  C   UNL     1      -7.199  -0.530 -33.168  1.00  0.00     0.037 A 
HETATM   23  C   UNL     1      -6.146  -1.244 -33.738  1.00  0.00     0.068 A 
HETATM   24  C   UNL     1      -4.945  -1.358 -33.037  1.00  0.00     0.037 A 
HETATM   25  C   UNL     1      -4.786  -0.752 -31.788  1.00  0.00     0.011 A 
BRANCH  23  26
HETATM   26  O   UNL     1      -6.160  -1.869 -34.954  1.00  0.00    -0.356 OA
HETATM   27  C   UNL     1      -5.363  -3.039 -35.086  1.00  0.00     0.210 C 
ENDBRANCH  23  26
ENDBRANCH  19  20
ENDBRANCH   1  19
TORSDOF 6
ENDMDL
MODEL 7
REMARK VINA RESULT:      -7.6      4.521      8.397
REMARK  6 active torsions:
REMARK  status: ('A' for Active; 'I' for Inactive)
REMARK    1  A    between atoms: O_2  and  C_3 
REMARK    2  A    between atoms: C_6  and  C_7 
REMARK    3  A    between atoms: C_7  and  N_8 
REMARK       I    between atoms: N_8  and  C_9 
REMARK       I    between atoms: C_9  and  N_10 
REMARK    4  A    between atoms: N_10  and  C_11 
REMARK    5  A    between atoms: C_11  and  C_12 
REMARK    6  A    between atoms: C_13  and  C_14 
ROOT
HETATM    1  N   UNL     1      -6.784   3.836 -30.177  1.00  0.00    -0.339 N 
HETATM    2  C   UNL     1      -7.695   2.921 -30.585  1.00  0.00     0.316 C 
HETATM    3  N   UNL     1      -7.233   1.658 -30.778  1.00  0.00    -0.339 N 
HETATM    4  O   UNL     1      -8.851   3.273 -30.791  1.00  0.00    -0.247 OA
HETATM    5  H   UNL     1      -7.185   4.757 -30.064  1.00  0.00     0.164 HD
HETATM    6  H   UNL     1      -6.415   1.380 -30.259  1.00  0.00     0.164 HD
ENDROOT
BRANCH   3   7
HETATM    7  C   UNL     1      -8.079   0.599 -31.297  1.00  0.00     0.163 C 
BRANCH   7   8
HETATM    8  C   UNL     1      -7.611   0.038 -32.627  1.00  0.00    -0.029 A 
HETATM    9  C   UNL     1      -8.300   0.345 -33.822  1.00  0.00    -0.018 A 
HETATM   10  C   UNL     1      -7.830  -0.138 -35.055  1.00  0.00     0.013 A 
HETATM   11  C   UNL     1      -6.683  -0.926 -35.118  1.00  0.00     0.001 A 
HETATM   12  C   UNL     1      -5.991  -1.229 -33.952  1.00  0.00     0.001 A 
HETATM   13  C   UNL     1      -6.447  -0.748 -32.722  1.00  0.00     0.010 A 
BRANCH   9  14
HETATM   14  C   UNL     1      -9.485   1.190 -33.840  1.00  0.00    -0.018 A 
HETATM   15  C   UNL     1      -9.414   2.527 -34.178  1.00  0.00     0.061 A 
HETATM   16  S   UNL     1     -10.939   3.299 -34.087  1.00  0.00    -0.113 SA
HETATM   17  C   UNL     1     -11.699   1.859 -33.563  1.00  0.00     0.050 A 
HETATM   18  C   UNL     1     -10.812   0.810 -33.469  1.00  0.00     0.020 A 
ENDBRANCH   9  14
ENDBRANCH   7   8
ENDBRANCH   3   7
BRANCH   1  19
HETATM   19  C   UNL     1      -5.345   3.714 -30.083  1.00  0.00     0.162 C 
BRANCH  19  20
HETATM   20  C   UNL     1      -4.624   4.029 -31.370  1.00  0.00    -0.040 A 
HETATM   21  C   UNL     1      -5.036   5.123 -32.146  1.00  0.00     0.011 A 
HETATM   22  C   UNL     1      -4.338   5.490 -33.304  1.00  0.00     0.037 A 
HETATM   23  C   UNL     1      -3.208   4.775 -33.698  1.00  0.00     0.068 A 
HETATM   24  C   UNL     1      -2.794   3.684 -32.933  1.00  0.00     0.037 A 
HETATM   25  C   UNL     1      -3.487   3.318 -31.776  1.00  0.00     0.011 A 
BRANCH  23  26
HETATM   26  O   UNL     1      -2.430   5.034 -34.792  1.00  0.00    -0.356 OA
HETATM   27  C   UNL     1      -1.230   5.763 -34.570  1.00  0.00     0.210 C 
ENDBRANCH  23  26
ENDBRANCH  19  20
ENDBRANCH   1  19
TORSDOF 6
ENDMDL
MODEL 8
REMARK VINA RESULT:      -7.6      4.494      8.676
REMARK  6 active torsions:
REMARK  status: ('A' for Active; 'I' for Inactive)
REMARK    1  A    between atoms: O_2  and  C_3 
REMARK    2  A    between atoms: C_6  and  C_7 
REMARK    3  A    between atoms: C_7  and  N_8 
REMARK       I    between atoms: N_8  and  C_9 
REMARK       I    between atoms: C_9  and  N_10 
REMARK    4  A    between atoms: N_10  and  C_11 
REMARK    5  A    between atoms: C_11  and  C_12 
REMARK    6  A    between atoms: C_13  and  C_14 
ROOT
HETATM    1  N   UNL     1      -4.653   0.361 -30.239  1.00  0.00    -0.339 N 
HETATM    2  C   UNL     1      -4.011  -0.184 -31.300  1.00  0.00     0.316 C 
HETATM    3  N   UNL     1      -4.725  -0.277 -32.451  1.00  0.00    -0.339 N 
HETATM    4  O   UNL     1      -2.861  -0.588 -31.164  1.00  0.00    -0.247 OA
HETATM    5  H   UNL     1      -4.075   0.390 -29.410  1.00  0.00     0.164 HD
HETATM    6  H   UNL     1      -5.480   0.378 -32.582  1.00  0.00     0.164 HD
ENDROOT
BRANCH   3   7
HETATM    7  C   UNL     1      -4.190  -0.917 -33.639  1.00  0.00     0.163 C 
BRANCH   7   8
HETATM    8  C   UNL     1      -4.902  -2.205 -34.013  1.00  0.00    -0.029 A 
HETATM    9  C   UNL     1      -6.278  -2.202 -34.332  1.00  0.00    -0.018 A 
HETATM   10  C   UNL     1      -6.916  -3.391 -34.725  1.00  0.00     0.013 A 
HETATM   11  C   UNL     1      -6.206  -4.586 -34.804  1.00  0.00     0.001 A 
HETATM   12  C   UNL     1      -4.850  -4.601 -34.501  1.00  0.00     0.001 A 
HETATM   13  C   UNL     1      -4.205  -3.424 -34.115  1.00  0.00     0.010 A 
BRANCH   9  14
HETATM   14  C   UNL     1      -7.079  -0.986 -34.307  1.00  0.00    -0.018 A 
HETATM   15  C   UNL     1      -7.988  -0.741 -33.298  1.00  0.00     0.061 A 
HETATM   16  S   UNL     1      -8.821   0.738 -33.522  1.00  0.00    -0.113 SA
HETATM   17  C   UNL     1      -7.994   1.045 -34.988  1.00  0.00     0.050 A 
HETATM   18  C   UNL     1      -7.096   0.047 -35.295  1.00  0.00     0.020 A 
ENDBRANCH   9  14
ENDBRANCH   7   8
ENDBRANCH   3   7
BRANCH   1  19
HETATM   19  C   UNL     1      -6.052   0.699 -30.093  1.00  0.00     0.162 C 
BRANCH  19  20
HETATM   20  C   UNL     1      -6.333   2.179 -30.196  1.00  0.00    -0.040 A 
HETATM   21  C   UNL     1      -7.655   2.625 -30.333  1.00  0.00     0.011 A 
HETATM   22  C   UNL     1      -7.957   3.993 -30.350  1.00  0.00     0.037 A 
HETATM   23  C   UNL     1      -6.939   4.938 -30.217  1.00  0.00     0.068 A 
HETATM   24  C   UNL     1      -5.621   4.500 -30.083  1.00  0.00     0.037 A 
HETATM   25  C   UNL     1      -5.318   3.136 -30.063  1.00  0.00     0.011 A 
BRANCH  23  26
HETATM   26  O   UNL     1      -7.096   6.296 -30.203  1.00  0.00    -0.356 OA
HETATM   27  C   UNL     1      -6.368   7.037 -31.173  1.00  0.00     0.210 C 
ENDBRANCH  23  26
ENDBRANCH  19  20
ENDBRANCH   1  19
TORSDOF 6
ENDMDL
MODEL 9
REMARK VINA RESULT:      -7.5      6.719      8.532
REMARK  6 active torsions:
REMARK  status: ('A' for Active; 'I' for Inactive)
REMARK    1  A    between atoms: O_2  and  C_3 
REMARK    2  A    between atoms: C_6  and  C_7 
REMARK    3  A    between atoms: C_7  and  N_8 
REMARK       I    between atoms: N_8  and  C_9 
REMARK       I    between atoms: C_9  and  N_10 
REMARK    4  A    between atoms: N_10  and  C_11 
REMARK    5  A    between atoms: C_11  and  C_12 
REMARK    6  A    between atoms: C_13  and  C_14 
ROOT
HETATM    1  N   UNL     1      -6.757   1.461 -32.342  1.00  0.00    -0.339 N 
HETATM    2  C   UNL     1      -8.036   1.829 -32.093  1.00  0.00     0.316 C 
HETATM    3  N   UNL     1      -8.898   1.753 -33.139  1.00  0.00    -0.339 N 
HETATM    4  O   UNL     1      -8.339   2.236 -30.976  1.00  0.00    -0.247 OA
HETATM    5  H   UNL     1      -6.163   1.552 -31.528  1.00  0.00     0.164 HD
HETATM    6  H   UNL     1      -8.680   1.094 -33.871  1.00  0.00     0.164 HD
ENDROOT
BRANCH   3   7
HETATM    7  C   UNL     1     -10.276   2.197 -33.037  1.00  0.00     0.163 C 
BRANCH   7   8
HETATM    8  C   UNL     1     -10.593   3.409 -33.893  1.00  0.00    -0.029 A 
HETATM    9  C   UNL     1     -11.903   3.630 -34.374  1.00  0.00    -0.018 A 
HETATM   10  C   UNL     1     -12.198   4.781 -35.124  1.00  0.00     0.013 A 
HETATM   11  C   UNL     1     -11.206   5.718 -35.407  1.00  0.00     0.001 A 
HETATM   12  C   UNL     1      -9.915   5.517 -34.933  1.00  0.00     0.001 A 
HETATM   13  C   UNL     1      -9.614   4.379 -34.182  1.00  0.00     0.010 A 
BRANCH   9  14
HETATM   14  C   UNL     1     -12.999   2.714 -34.090  1.00  0.00    -0.018 A 
HETATM   15  C   UNL     1     -13.832   2.898 -33.004  1.00  0.00     0.061 A 
HETATM   16  S   UNL     1     -15.013   1.666 -32.879  1.00  0.00    -0.113 SA
HETATM   17  C   UNL     1     -14.399   0.859 -34.257  1.00  0.00     0.050 A 
HETATM   18  C   UNL     1     -13.323   1.520 -34.806  1.00  0.00     0.020 A 
ENDBRANCH   9  14
ENDBRANCH   7   8
ENDBRANCH   3   7
BRANCH   1  19
HETATM   19  C   UNL     1      -6.121   1.164 -33.607  1.00  0.00     0.162 C 
BRANCH  19  20
HETATM   20  C   UNL     1      -5.810  -0.299 -33.803  1.00  0.00    -0.040 A 
HETATM   21  C   UNL     1      -6.763  -1.136 -34.402  1.00  0.00     0.011 A 
HETATM   22  C   UNL     1      -6.476  -2.481 -34.670  1.00  0.00     0.037 A 
HETATM   23  C   UNL     1      -5.224  -3.007 -34.354  1.00  0.00     0.068 A 
HETATM   24  C   UNL     1      -4.272  -2.181 -33.755  1.00  0.00     0.037 A 
HETATM   25  C   UNL     1      -4.556  -0.838 -33.489  1.00  0.00     0.011 A 
BRANCH  23  26
HETATM   26  O   UNL     1      -4.810  -4.291 -34.574  1.00  0.00    -0.356 OA
HETATM   27  C   UNL     1      -3.677  -4.737 -33.840  1.00  0.00     0.210 C 
ENDBRANCH  23  26
ENDBRANCH  19  20
ENDBRANCH   1  19
TORSDOF 6
ENDMDL
MODEL 10
REMARK VINA RESULT:      -7.4      6.914      8.916
REMARK  6 active torsions:
REMARK  status: ('A' for Active; 'I' for Inactive)
REMARK    1  A    between atoms: O_2  and  C_3 
REMARK    2  A    between atoms: C_6  and  C_7 
REMARK    3  A    between atoms: C_7  and  N_8 
REMARK       I    between atoms: N_8  and  C_9 
REMARK       I    between atoms: C_9  and  N_10 
REMARK    4  A    between atoms: N_10  and  C_11 
REMARK    5  A    between atoms: C_11  and  C_12 
REMARK    6  A    between atoms: C_13  and  C_14 
ROOT
HETATM    1  N   UNL     1      -6.845   2.166 -32.500  1.00  0.00    -0.339 N 
HETATM    2  C   UNL     1      -7.826   2.866 -33.119  1.00  0.00     0.316 C 
HETATM    3  N   UNL     1      -9.090   2.397 -32.961  1.00  0.00    -0.339 N 
HETATM    4  O   UNL     1      -7.529   3.840 -33.804  1.00  0.00    -0.247 OA
HETATM    5  H   UNL     1      -5.927   2.557 -32.666  1.00  0.00     0.164 HD
HETATM    6  H   UNL     1      -9.283   1.856 -32.133  1.00  0.00     0.164 HD
ENDROOT
BRANCH   3   7
HETATM    7  C   UNL     1     -10.225   2.998 -33.638  1.00  0.00     0.163 C 
BRANCH   7   8
HETATM    8  C   UNL     1     -11.441   2.092 -33.714  1.00  0.00    -0.029 A 
HETATM    9  C   UNL     1     -12.706   2.612 -34.070  1.00  0.00    -0.018 A 
HETATM   10  C   UNL     1     -13.815   1.757 -34.186  1.00  0.00     0.013 A 
HETATM   11  C   UNL     1     -13.687   0.390 -33.951  1.00  0.00     0.001 A 
HETATM   12  C   UNL     1     -12.447  -0.135 -33.608  1.00  0.00     0.001 A 
HETATM   13  C   UNL     1     -11.337   0.705 -33.496  1.00  0.00     0.010 A 
BRANCH   9  14
HETATM   14  C   UNL     1     -12.911   4.023 -34.365  1.00  0.00    -0.018 A 
HETATM   15  C   UNL     1     -12.695   4.536 -35.628  1.00  0.00     0.061 A 
HETATM   16  S   UNL     1     -12.975   6.223 -35.698  1.00  0.00    -0.113 SA
HETATM   17  C   UNL     1     -13.354   6.285 -34.031  1.00  0.00     0.050 A 
HETATM   18  C   UNL     1     -13.279   5.045 -33.436  1.00  0.00     0.020 A 
ENDBRANCH   9  14
ENDBRANCH   7   8
ENDBRANCH   3   7
BRANCH   1  19
HETATM   19  C   UNL     1      -6.919   0.884 -31.835  1.00  0.00     0.162 C 
BRANCH  19  20
HETATM   20  C   UNL     1      -6.543  -0.281 -32.718  1.00  0.00    -0.040 A 
HETATM   21  C   UNL     1      -7.481  -0.791 -33.629  1.00  0.00     0.011 A 
HETATM   22  C   UNL     1      -7.138  -1.818 -34.518  1.00  0.00     0.037 A 
HETATM   23  C   UNL     1      -5.847  -2.343 -34.519  1.00  0.00     0.068 A 
HETATM   24  C   UNL     1      -4.910  -1.842 -33.614  1.00  0.00     0.037 A 
HETATM   25  C   UNL     1      -5.249  -0.816 -32.727  1.00  0.00     0.011 A 
BRANCH  23  26
HETATM   26  O   UNL     1      -5.379  -3.331 -35.339  1.00  0.00    -0.356 OA
HETATM   27  C   UNL     1      -6.175  -4.503 -35.453  1.00  0.00     0.210 C 
ENDBRANCH  23  26
ENDBRANCH  19  20
ENDBRANCH   1  19
TORSDOF 6
ENDMDL
