MODEL 1
REMARK VINA RESULT:      -9.6      0.000      0.000
REMARK  2 active torsions:
REMARK  status: ('A' for Active; 'I' for Inactive)
REMARK       I    between atoms: C_2  and  N_3 
REMARK       I    between atoms: C_2  and  N_21 
REMARK    1  A    between atoms: N_3  and  C_4 
REMARK    2  A    between atoms: C_7  and  C_10 
ROOT
HETATM    1  C   UNL     1      -4.024   4.755 -31.213  1.00  0.00     0.036 A 
HETATM    2  C   UNL     1      -4.876   3.860 -30.554  1.00  0.00     0.030 A 
HETATM    3  C   UNL     1      -4.829   2.490 -30.838  1.00  0.00     0.014 A 
HETATM    4  C   UNL     1      -3.941   1.999 -31.802  1.00  0.00    -0.024 A 
HETATM    5  C   UNL     1      -3.116   2.898 -32.486  1.00  0.00     0.014 A 
HETATM    6  C   UNL     1      -3.157   4.265 -32.192  1.00  0.00     0.030 A 
ENDROOT
BRANCH   1   7
HETATM    7  N   UNL     1      -4.109   6.118 -30.859  1.00  0.00    -0.309 N 
HETATM    8  C   UNL     1      -3.143   6.867 -30.206  1.00  0.00     0.327 C 
HETATM    9  O   UNL     1      -2.121   6.380 -29.728  1.00  0.00    -0.247 OA
HETATM   10  N   UNL     1      -3.448   8.222 -30.139  1.00  0.00    -0.299 N 
HETATM   11  C   UNL     1      -4.536   8.917 -30.850  1.00  0.00     0.138 C 
HETATM   12  C   UNL     1      -2.734   9.183 -29.393  1.00  0.00     0.045 A 
HETATM   13  C   UNL     1      -4.327  10.425 -30.665  1.00  0.00     0.061 C 
HETATM   14  C   UNL     1      -3.240  10.460 -29.641  1.00  0.00    -0.030 A 
HETATM   15  C   UNL     1      -2.714  11.580 -29.013  1.00  0.00     0.009 A 
HETATM   16  C   UNL     1      -1.666  11.402 -28.110  1.00  0.00     0.001 A 
HETATM   17  C   UNL     1      -1.157  10.120 -27.856  1.00  0.00     0.002 A 
HETATM   18  C   UNL     1      -1.690   9.001 -28.501  1.00  0.00     0.030 A 
HETATM   19  H   UNL     1      -5.033   6.516 -30.866  1.00  0.00     0.170 HD
ENDBRANCH   1   7
BRANCH   4  20
HETATM   20  C   UNL     1      -3.855   0.552 -32.087  1.00  0.00     0.001 A 
HETATM   21  C   UNL     1      -2.916  -0.141 -31.417  1.00  0.00     0.104 A 
HETATM   22  N   UNL     1      -2.748  -1.492 -31.568  1.00  0.00    -0.332 N 
HETATM   23  C   UNL     1      -3.512  -2.285 -32.394  1.00  0.00     0.256 A 
HETATM   24  H   UNL     1      -2.032  -1.978 -31.042  1.00  0.00     0.168 HD
HETATM   25  O   UNL     1      -3.320  -3.492 -32.486  1.00  0.00    -0.267 OA
HETATM   26  C   UNL     1      -4.573  -1.592 -33.165  1.00  0.00     0.043 A 
HETATM   27  C   UNL     1      -5.393  -2.328 -34.028  1.00  0.00     0.018 A 
HETATM   28  C   UNL     1      -4.733  -0.204 -33.017  1.00  0.00    -0.008 A 
HETATM   29  C   UNL     1      -6.386  -1.681 -34.761  1.00  0.00     0.001 A 
HETATM   30  C   UNL     1      -6.553  -0.302 -34.634  1.00  0.00     0.001 A 
HETATM   31  C   UNL     1      -5.732   0.431 -33.772  1.00  0.00     0.013 A 
ENDBRANCH   4  20
TORSDOF 2
ENDMDL
MODEL 2
REMARK VINA RESULT:      -9.5      2.151     10.223
REMARK  2 active torsions:
REMARK  status: ('A' for Active; 'I' for Inactive)
REMARK       I    between atoms: C_2  and  N_3 
REMARK       I    between atoms: C_2  and  N_21 
REMARK    1  A    between atoms: N_3  and  C_4 
REMARK    2  A    between atoms: C_7  and  C_10 
ROOT
HETATM    1  C   UNL     1      -4.760   3.607 -32.496  1.00  0.00     0.036 A 
HETATM    2  C   UNL     1      -3.865   4.438 -33.180  1.00  0.00     0.030 A 
HETATM    3  C   UNL     1      -3.308   5.558 -32.552  1.00  0.00     0.014 A 
HETATM    4  C   UNL     1      -3.655   5.872 -31.234  1.00  0.00    -0.024 A 
HETATM    5  C   UNL     1      -4.578   5.064 -30.563  1.00  0.00     0.014 A 
HETATM    6  C   UNL     1      -5.125   3.938 -31.189  1.00  0.00     0.030 A 
ENDROOT
BRANCH   1   7
HETATM    7  N   UNL     1      -5.264   2.483 -33.184  1.00  0.00    -0.309 N 
HETATM    8  C   UNL     1      -4.857   1.167 -33.033  1.00  0.00     0.327 C 
HETATM    9  O   UNL     1      -3.887   0.836 -32.354  1.00  0.00    -0.247 OA
HETATM   10  N   UNL     1      -5.649   0.261 -33.729  1.00  0.00    -0.299 N 
HETATM   11  C   UNL     1      -6.933   0.543 -34.394  1.00  0.00     0.138 C 
HETATM   12  C   UNL     1      -5.368  -1.112 -33.890  1.00  0.00     0.045 A 
HETATM   13  C   UNL     1      -7.550  -0.800 -34.806  1.00  0.00     0.061 C 
HETATM   14  C   UNL     1      -6.426  -1.747 -34.543  1.00  0.00    -0.030 A 
HETATM   15  C   UNL     1      -6.385  -3.103 -34.834  1.00  0.00     0.009 A 
HETATM   16  C   UNL     1      -5.249  -3.826 -34.468  1.00  0.00     0.001 A 
HETATM   17  C   UNL     1      -4.184  -3.190 -33.814  1.00  0.00     0.002 A 
HETATM   18  C   UNL     1      -4.240  -1.825 -33.519  1.00  0.00     0.030 A 
HETATM   19  H   UNL     1      -5.791   2.679 -34.018  1.00  0.00     0.170 HD
ENDBRANCH   1   7
BRANCH   4  20
HETATM   20  C   UNL     1      -3.048   7.030 -30.545  1.00  0.00     0.001 A 
HETATM   21  C   UNL     1      -3.776   8.161 -30.507  1.00  0.00     0.104 A 
HETATM   22  N   UNL     1      -3.342   9.297 -29.878  1.00  0.00    -0.332 N 
HETATM   23  C   UNL     1      -2.143   9.410 -29.213  1.00  0.00     0.256 A 
HETATM   24  H   UNL     1      -3.923  10.127 -29.869  1.00  0.00     0.168 HD
HETATM   25  O   UNL     1      -1.807  10.452 -28.662  1.00  0.00    -0.267 OA
HETATM   26  C   UNL     1      -1.284   8.202 -29.207  1.00  0.00     0.043 A 
HETATM   27  C   UNL     1      -0.047   8.235 -28.552  1.00  0.00     0.018 A 
HETATM   28  C   UNL     1      -1.727   7.041 -29.865  1.00  0.00    -0.008 A 
HETATM   29  C   UNL     1       0.768   7.105 -28.551  1.00  0.00     0.001 A 
HETATM   30  C   UNL     1       0.348   5.948 -29.207  1.00  0.00     0.001 A 
HETATM   31  C   UNL     1      -0.887   5.917 -29.862  1.00  0.00     0.013 A 
ENDBRANCH   4  20
TORSDOF 2
ENDMDL
MODEL 3
REMARK VINA RESULT:      -9.5      6.312      7.296
REMARK  2 active torsions:
REMARK  status: ('A' for Active; 'I' for Inactive)
REMARK       I    between atoms: C_2  and  N_3 
REMARK       I    between atoms: C_2  and  N_21 
REMARK    1  A    between atoms: N_3  and  C_4 
REMARK    2  A    between atoms: C_7  and  C_10 
ROOT
HETATM    1  C   UNL     1      -8.471   1.397 -33.977  1.00  0.00     0.036 A 
HETATM    2  C   UNL     1      -8.401   0.839 -32.694  1.00  0.00     0.030 A 
HETATM    3  C   UNL     1      -7.362  -0.033 -32.351  1.00  0.00     0.014 A 
HETATM    4  C   UNL     1      -6.387  -0.375 -33.294  1.00  0.00    -0.024 A 
HETATM    5  C   UNL     1      -6.477   0.153 -34.586  1.00  0.00     0.014 A 
HETATM    6  C   UNL     1      -7.510   1.034 -34.924  1.00  0.00     0.030 A 
ENDROOT
BRANCH   1   7
HETATM    7  N   UNL     1      -9.532   2.287 -34.246  1.00  0.00    -0.309 N 
HETATM    8  C   UNL     1      -9.462   3.670 -34.296  1.00  0.00     0.327 C 
HETATM    9  O   UNL     1      -8.462   4.307 -33.971  1.00  0.00    -0.247 OA
HETATM   10  N   UNL     1     -10.637   4.266 -34.742  1.00  0.00    -0.299 N 
HETATM   11  C   UNL     1     -11.800   3.584 -35.337  1.00  0.00     0.138 C 
HETATM   12  C   UNL     1     -10.904   5.651 -34.732  1.00  0.00     0.045 A 
HETATM   13  C   UNL     1     -12.736   4.661 -35.898  1.00  0.00     0.061 C 
HETATM   14  C   UNL     1     -12.126   5.911 -35.355  1.00  0.00    -0.030 A 
HETATM   15  C   UNL     1     -12.621   7.203 -35.461  1.00  0.00     0.009 A 
HETATM   16  C   UNL     1     -11.873   8.247 -34.916  1.00  0.00     0.001 A 
HETATM   17  C   UNL     1     -10.647   7.988 -34.288  1.00  0.00     0.002 A 
HETATM   18  C   UNL     1     -10.154   6.684 -34.194  1.00  0.00     0.030 A 
HETATM   19  H   UNL     1     -10.458   1.904 -34.159  1.00  0.00     0.170 HD
ENDBRANCH   1   7
BRANCH   4  20
HETATM   20  C   UNL     1      -5.264  -1.265 -32.936  1.00  0.00     0.001 A 
HETATM   21  C   UNL     1      -4.406  -0.812 -32.003  1.00  0.00     0.104 A 
HETATM   22  N   UNL     1      -3.340  -1.548 -31.562  1.00  0.00    -0.332 N 
HETATM   23  C   UNL     1      -3.033  -2.816 -31.999  1.00  0.00     0.256 A 
HETATM   24  H   UNL     1      -2.719  -1.172 -30.855  1.00  0.00     0.168 HD
HETATM   25  O   UNL     1      -2.067  -3.432 -31.564  1.00  0.00    -0.267 OA
HETATM   26  C   UNL     1      -3.937  -3.388 -33.027  1.00  0.00     0.043 A 
HETATM   27  C   UNL     1      -3.694  -4.674 -33.523  1.00  0.00     0.018 A 
HETATM   28  C   UNL     1      -5.023  -2.624 -33.487  1.00  0.00    -0.008 A 
HETATM   29  C   UNL     1      -4.534  -5.212 -34.495  1.00  0.00     0.001 A 
HETATM   30  C   UNL     1      -5.611  -4.464 -34.971  1.00  0.00     0.001 A 
HETATM   31  C   UNL     1      -5.852  -3.180 -34.474  1.00  0.00     0.013 A 
ENDBRANCH   4  20
TORSDOF 2
ENDMDL
MODEL 4
REMARK VINA RESULT:      -8.9      2.226      3.093
REMARK  2 active torsions:
REMARK  status: ('A' for Active; 'I' for Inactive)
REMARK       I    between atoms: C_2  and  N_3 
REMARK       I    between atoms: C_2  and  N_21 
REMARK    1  A    between atoms: N_3  and  C_4 
REMARK    2  A    between atoms: C_7  and  C_10 
ROOT
HETATM    1  C   UNL     1      -4.235   5.438 -30.624  1.00  0.00     0.036 A 
HETATM    2  C   UNL     1      -5.162   4.561 -30.050  1.00  0.00     0.030 A 
HETATM    3  C   UNL     1      -5.740   3.536 -30.808  1.00  0.00     0.014 A 
HETATM    4  C   UNL     1      -5.412   3.388 -32.160  1.00  0.00    -0.024 A 
HETATM    5  C   UNL     1      -4.515   4.288 -32.743  1.00  0.00     0.014 A 
HETATM    6  C   UNL     1      -3.929   5.304 -31.980  1.00  0.00     0.030 A 
ENDROOT
BRANCH   1   7
HETATM    7  N   UNL     1      -3.675   6.432 -29.795  1.00  0.00    -0.309 N 
HETATM    8  C   UNL     1      -2.327   6.694 -29.608  1.00  0.00     0.327 C 
HETATM    9  O   UNL     1      -1.433   5.980 -30.059  1.00  0.00    -0.247 OA
HETATM   10  N   UNL     1      -2.086   7.839 -28.856  1.00  0.00    -0.299 N 
HETATM   11  C   UNL     1      -3.076   8.852 -28.453  1.00  0.00     0.138 C 
HETATM   12  C   UNL     1      -0.825   8.247 -28.373  1.00  0.00     0.045 A 
HETATM   13  C   UNL     1      -2.312  10.042 -27.859  1.00  0.00     0.061 C 
HETATM   14  C   UNL     1      -0.925   9.495 -27.757  1.00  0.00    -0.030 A 
HETATM   15  C   UNL     1       0.180  10.110 -27.186  1.00  0.00     0.009 A 
HETATM   16  C   UNL     1       1.405   9.444 -27.229  1.00  0.00     0.001 A 
HETATM   17  C   UNL     1       1.508   8.188 -27.845  1.00  0.00     0.002 A 
HETATM   18  C   UNL     1       0.389   7.583 -28.424  1.00  0.00     0.030 A 
HETATM   19  H   UNL     1      -4.291   6.824 -29.102  1.00  0.00     0.170 HD
ENDBRANCH   1   7
BRANCH   4  20
HETATM   20  C   UNL     1      -5.986   2.290 -32.964  1.00  0.00     0.001 A 
HETATM   21  C   UNL     1      -7.103   2.570 -33.660  1.00  0.00     0.104 A 
HETATM   22  N   UNL     1      -7.721   1.651 -34.465  1.00  0.00    -0.332 N 
HETATM   23  C   UNL     1      -7.275   0.364 -34.664  1.00  0.00     0.256 A 
HETATM   24  H   UNL     1      -8.559   1.903 -34.976  1.00  0.00     0.168 HD
HETATM   25  O   UNL     1      -7.866  -0.416 -35.402  1.00  0.00    -0.267 OA
HETATM   26  C   UNL     1      -6.044  -0.020 -33.932  1.00  0.00     0.043 A 
HETATM   27  C   UNL     1      -5.525  -1.312 -34.081  1.00  0.00     0.018 A 
HETATM   28  C   UNL     1      -5.420   0.922 -33.097  1.00  0.00    -0.008 A 
HETATM   29  C   UNL     1      -4.374  -1.680 -33.389  1.00  0.00     0.001 A 
HETATM   30  C   UNL     1      -3.747  -0.761 -32.548  1.00  0.00     0.001 A 
HETATM   31  C   UNL     1      -4.267   0.528 -32.400  1.00  0.00     0.013 A 
ENDBRANCH   4  20
TORSDOF 2
ENDMDL
MODEL 5
REMARK VINA RESULT:      -8.9      2.139      3.445
REMARK  2 active torsions:
REMARK  status: ('A' for Active; 'I' for Inactive)
REMARK       I    between atoms: C_2  and  N_3 
REMARK       I    between atoms: C_2  and  N_21 
REMARK    1  A    between atoms: N_3  and  C_4 
REMARK    2  A    between atoms: C_7  and  C_10 
ROOT
HETATM    1  C   UNL     1      -4.490   2.552 -32.137  1.00  0.00     0.036 A 
HETATM    2  C   UNL     1      -5.799   2.265 -32.545  1.00  0.00     0.030 A 
HETATM    3  C   UNL     1      -6.117   1.021 -33.101  1.00  0.00     0.014 A 
HETATM    4  C   UNL     1      -5.123   0.052 -33.275  1.00  0.00    -0.024 A 
HETATM    5  C   UNL     1      -3.809   0.352 -32.903  1.00  0.00     0.014 A 
HETATM    6  C   UNL     1      -3.496   1.592 -32.336  1.00  0.00     0.030 A 
ENDROOT
BRANCH   1   7
HETATM    7  N   UNL     1      -4.247   3.818 -31.564  1.00  0.00    -0.309 N 
HETATM    8  C   UNL     1      -3.013   4.356 -31.236  1.00  0.00     0.327 C 
HETATM    9  O   UNL     1      -1.964   3.719 -31.290  1.00  0.00    -0.247 OA
HETATM   10  N   UNL     1      -3.080   5.686 -30.835  1.00  0.00    -0.299 N 
HETATM   11  C   UNL     1      -4.249   6.578 -30.933  1.00  0.00     0.138 C 
HETATM   12  C   UNL     1      -2.012   6.429 -30.289  1.00  0.00     0.045 A 
HETATM   13  C   UNL     1      -3.780   8.000 -30.604  1.00  0.00     0.061 C 
HETATM   14  C   UNL     1      -2.393   7.759 -30.106  1.00  0.00    -0.030 A 
HETATM   15  C   UNL     1      -1.520   8.693 -29.567  1.00  0.00     0.009 A 
HETATM   16  C   UNL     1      -0.244   8.270 -29.196  1.00  0.00     0.001 A 
HETATM   17  C   UNL     1       0.141   6.933 -29.377  1.00  0.00     0.002 A 
HETATM   18  C   UNL     1      -0.744   6.004 -29.929  1.00  0.00     0.030 A 
HETATM   19  H   UNL     1      -5.041   4.267 -31.138  1.00  0.00     0.170 HD
ENDBRANCH   1   7
BRANCH   4  20
HETATM   20  C   UNL     1      -5.450  -1.279 -33.828  1.00  0.00     0.001 A 
HETATM   21  C   UNL     1      -6.484  -1.340 -34.686  1.00  0.00     0.104 A 
HETATM   22  N   UNL     1      -6.874  -2.505 -35.289  1.00  0.00    -0.332 N 
HETATM   23  C   UNL     1      -6.260  -3.723 -35.105  1.00  0.00     0.256 A 
HETATM   24  H   UNL     1      -7.657  -2.508 -35.933  1.00  0.00     0.168 HD
HETATM   25  O   UNL     1      -6.649  -4.734 -35.677  1.00  0.00    -0.267 OA
HETATM   26  C   UNL     1      -5.106  -3.736 -34.173  1.00  0.00     0.043 A 
HETATM   27  C   UNL     1      -4.426  -4.936 -33.932  1.00  0.00     0.018 A 
HETATM   28  C   UNL     1      -4.717  -2.540 -33.546  1.00  0.00    -0.008 A 
HETATM   29  C   UNL     1      -3.347  -4.956 -33.051  1.00  0.00     0.001 A 
HETATM   30  C   UNL     1      -2.953  -3.781 -32.412  1.00  0.00     0.001 A 
HETATM   31  C   UNL     1      -3.634  -2.583 -32.654  1.00  0.00     0.013 A 
ENDBRANCH   4  20
TORSDOF 2
ENDMDL
MODEL 6
REMARK VINA RESULT:      -8.9      1.598      2.452
REMARK  2 active torsions:
REMARK  status: ('A' for Active; 'I' for Inactive)
REMARK       I    between atoms: C_2  and  N_3 
REMARK       I    between atoms: C_2  and  N_21 
REMARK    1  A    between atoms: N_3  and  C_4 
REMARK    2  A    between atoms: C_7  and  C_10 
ROOT
HETATM    1  C   UNL     1      -4.501   2.623 -30.839  1.00  0.00     0.036 A 
HETATM    2  C   UNL     1      -3.551   2.341 -31.828  1.00  0.00     0.030 A 
HETATM    3  C   UNL     1      -3.411   1.045 -32.335  1.00  0.00     0.014 A 
HETATM    4  C   UNL     1      -4.209   0.006 -31.843  1.00  0.00    -0.024 A 
HETATM    5  C   UNL     1      -5.132   0.279 -30.829  1.00  0.00     0.014 A 
HETATM    6  C   UNL     1      -5.277   1.579 -30.332  1.00  0.00     0.030 A 
ENDROOT
BRANCH   1   7
HETATM    7  N   UNL     1      -4.602   3.957 -30.391  1.00  0.00    -0.309 N 
HETATM    8  C   UNL     1      -3.903   5.051 -30.878  1.00  0.00     0.327 C 
HETATM    9  O   UNL     1      -2.989   4.957 -31.694  1.00  0.00    -0.247 OA
HETATM   10  N   UNL     1      -4.334   6.262 -30.347  1.00  0.00    -0.299 N 
HETATM   11  C   UNL     1      -5.539   6.486 -29.529  1.00  0.00     0.138 C 
HETATM   12  C   UNL     1      -3.697   7.506 -30.534  1.00  0.00     0.045 A 
HETATM   13  C   UNL     1      -5.733   8.001 -29.389  1.00  0.00     0.061 C 
HETATM   14  C   UNL     1      -4.457   8.527 -29.959  1.00  0.00    -0.030 A 
HETATM   15  C   UNL     1      -4.035   9.849 -29.996  1.00  0.00     0.009 A 
HETATM   16  C   UNL     1      -2.819  10.140 -30.615  1.00  0.00     0.001 A 
HETATM   17  C   UNL     1      -2.053   9.116 -31.190  1.00  0.00     0.002 A 
HETATM   18  C   UNL     1      -2.492   7.790 -31.154  1.00  0.00     0.030 A 
HETATM   19  H   UNL     1      -5.036   4.087 -29.493  1.00  0.00     0.170 HD
ENDBRANCH   1   7
BRANCH   4  20
HETATM   20  C   UNL     1      -4.099  -1.361 -32.394  1.00  0.00     0.001 A 
HETATM   21  C   UNL     1      -3.121  -2.138 -31.892  1.00  0.00     0.104 A 
HETATM   22  N   UNL     1      -2.926  -3.432 -32.296  1.00  0.00    -0.332 N 
HETATM   23  C   UNL     1      -3.699  -4.081 -33.231  1.00  0.00     0.256 A 
HETATM   24  H   UNL     1      -2.180  -3.984 -31.890  1.00  0.00     0.168 HD
HETATM   25  O   UNL     1      -3.482  -5.245 -33.550  1.00  0.00    -0.267 OA
HETATM   26  C   UNL     1      -4.802  -3.291 -33.828  1.00  0.00     0.043 A 
HETATM   27  C   UNL     1      -5.635  -3.879 -34.787  1.00  0.00     0.018 A 
HETATM   28  C   UNL     1      -4.991  -1.959 -33.421  1.00  0.00    -0.008 A 
HETATM   29  C   UNL     1      -6.668  -3.138 -35.358  1.00  0.00     0.001 A 
HETATM   30  C   UNL     1      -6.862  -1.812 -34.973  1.00  0.00     0.001 A 
HETATM   31  C   UNL     1      -6.030  -1.226 -34.015  1.00  0.00     0.013 A 
ENDBRANCH   4  20
TORSDOF 2
ENDMDL
MODEL 7
REMARK VINA RESULT:      -8.9      6.600      8.010
REMARK  2 active torsions:
REMARK  status: ('A' for Active; 'I' for Inactive)
REMARK       I    between atoms: C_2  and  N_3 
REMARK       I    between atoms: C_2  and  N_21 
REMARK    1  A    between atoms: N_3  and  C_4 
REMARK    2  A    between atoms: C_7  and  C_10 
ROOT
HETATM    1  C   UNL     1      -8.972   1.941 -33.941  1.00  0.00     0.036 A 
HETATM    2  C   UNL     1      -7.657   2.394 -34.099  1.00  0.00     0.030 A 
HETATM    3  C   UNL     1      -6.574   1.566 -33.781  1.00  0.00     0.014 A 
HETATM    4  C   UNL     1      -6.794   0.278 -33.280  1.00  0.00    -0.024 A 
HETATM    5  C   UNL     1      -8.108  -0.160 -33.086  1.00  0.00     0.014 A 
HETATM    6  C   UNL     1      -9.189   0.665 -33.416  1.00  0.00     0.030 A 
ENDROOT
BRANCH   1   7
HETATM    7  N   UNL     1     -10.014   2.821 -34.304  1.00  0.00    -0.309 N 
HETATM    8  C   UNL     1     -10.958   3.382 -33.458  1.00  0.00     0.327 C 
HETATM    9  O   UNL     1     -11.078   3.064 -32.277  1.00  0.00    -0.247 OA
HETATM   10  N   UNL     1     -11.757   4.335 -34.079  1.00  0.00    -0.299 N 
HETATM   11  C   UNL     1     -11.556   4.918 -35.417  1.00  0.00     0.138 C 
HETATM   12  C   UNL     1     -12.898   4.939 -33.509  1.00  0.00     0.045 A 
HETATM   13  C   UNL     1     -12.532   6.091 -35.567  1.00  0.00     0.061 C 
HETATM   14  C   UNL     1     -13.394   5.930 -34.359  1.00  0.00    -0.030 A 
HETATM   15  C   UNL     1     -14.525   6.663 -34.029  1.00  0.00     0.009 A 
HETATM   16  C   UNL     1     -15.171   6.381 -32.825  1.00  0.00     0.001 A 
HETATM   17  C   UNL     1     -14.676   5.385 -31.972  1.00  0.00     0.002 A 
HETATM   18  C   UNL     1     -13.532   4.658 -32.310  1.00  0.00     0.030 A 
HETATM   19  H   UNL     1     -10.238   2.855 -35.284  1.00  0.00     0.170 HD
ENDBRANCH   1   7
BRANCH   4  20
HETATM   20  C   UNL     1      -5.662  -0.620 -32.973  1.00  0.00     0.001 A 
HETATM   21  C   UNL     1      -4.809  -0.213 -32.016  1.00  0.00     0.104 A 
HETATM   22  N   UNL     1      -3.735  -0.963 -31.617  1.00  0.00    -0.332 N 
HETATM   23  C   UNL     1      -3.415  -2.200 -32.128  1.00  0.00     0.256 A 
HETATM   24  H   UNL     1      -3.118  -0.621 -30.889  1.00  0.00     0.168 HD
HETATM   25  O   UNL     1      -2.442  -2.830 -31.729  1.00  0.00    -0.267 OA
HETATM   26  C   UNL     1      -4.312  -2.720 -33.188  1.00  0.00     0.043 A 
HETATM   27  C   UNL     1      -4.055  -3.972 -33.759  1.00  0.00     0.018 A 
HETATM   28  C   UNL     1      -5.407  -1.942 -33.603  1.00  0.00    -0.008 A 
HETATM   29  C   UNL     1      -4.890  -4.461 -34.761  1.00  0.00     0.001 A 
HETATM   30  C   UNL     1      -5.975  -3.698 -35.192  1.00  0.00     0.001 A 
HETATM   31  C   UNL     1      -6.230  -2.448 -34.621  1.00  0.00     0.013 A 
ENDBRANCH   4  20
TORSDOF 2
ENDMDL
MODEL 8
REMARK VINA RESULT:      -8.8      6.670      8.069
REMARK  2 active torsions:
REMARK  status: ('A' for Active; 'I' for Inactive)
REMARK       I    between atoms: C_2  and  N_3 
REMARK       I    between atoms: C_2  and  N_21 
REMARK    1  A    between atoms: N_3  and  C_4 
REMARK    2  A    between atoms: C_7  and  C_10 
ROOT
HETATM    1  C   UNL     1      -9.926   1.746 -33.743  1.00  0.00     0.036 A 
HETATM    2  C   UNL     1     -10.028   0.531 -33.055  1.00  0.00     0.030 A 
HETATM    3  C   UNL     1      -8.977  -0.393 -33.078  1.00  0.00     0.014 A 
HETATM    4  C   UNL     1      -7.816  -0.122 -33.810  1.00  0.00    -0.024 A 
HETATM    5  C   UNL     1      -7.730   1.074 -34.529  1.00  0.00     0.014 A 
HETATM    6  C   UNL     1      -8.776   2.002 -34.494  1.00  0.00     0.030 A 
ENDROOT
BRANCH   1   7
HETATM    7  N   UNL     1     -11.013   2.640 -33.656  1.00  0.00    -0.309 N 
HETATM    8  C   UNL     1     -11.391   3.381 -32.547  1.00  0.00     0.327 C 
HETATM    9  O   UNL     1     -10.882   3.239 -31.437  1.00  0.00    -0.247 OA
HETATM   10  N   UNL     1     -12.405   4.294 -32.813  1.00  0.00    -0.299 N 
HETATM   11  C   UNL     1     -12.928   4.670 -34.138  1.00  0.00     0.138 C 
HETATM   12  C   UNL     1     -13.094   5.052 -31.843  1.00  0.00     0.045 A 
HETATM   13  C   UNL     1     -13.852   5.879 -33.950  1.00  0.00     0.061 C 
HETATM   14  C   UNL     1     -13.967   5.949 -32.463  1.00  0.00    -0.030 A 
HETATM   15  C   UNL     1     -14.772   6.802 -31.721  1.00  0.00     0.009 A 
HETATM   16  C   UNL     1     -14.702   6.737 -30.330  1.00  0.00     0.001 A 
HETATM   17  C   UNL     1     -13.829   5.835 -29.704  1.00  0.00     0.002 A 
HETATM   18  C   UNL     1     -13.016   4.987 -30.462  1.00  0.00     0.030 A 
HETATM   19  H   UNL     1     -11.711   2.555 -34.376  1.00  0.00     0.170 HD
ENDBRANCH   1   7
BRANCH   4  20
HETATM   20  C   UNL     1      -6.685  -1.072 -33.816  1.00  0.00     0.001 A 
HETATM   21  C   UNL     1      -6.754  -2.091 -34.692  1.00  0.00     0.104 A 
HETATM   22  N   UNL     1      -5.761  -3.025 -34.818  1.00  0.00    -0.332 N 
HETATM   23  C   UNL     1      -4.594  -3.025 -34.090  1.00  0.00     0.256 A 
HETATM   24  H   UNL     1      -5.851  -3.775 -35.493  1.00  0.00     0.168 HD
HETATM   25  O   UNL     1      -3.735  -3.885 -34.248  1.00  0.00    -0.267 OA
HETATM   26  C   UNL     1      -4.441  -1.929 -33.103  1.00  0.00     0.043 A 
HETATM   27  C   UNL     1      -3.281  -1.858 -32.322  1.00  0.00     0.018 A 
HETATM   28  C   UNL     1      -5.468  -0.979 -32.967  1.00  0.00    -0.008 A 
HETATM   29  C   UNL     1      -3.136  -0.835 -31.387  1.00  0.00     0.001 A 
HETATM   30  C   UNL     1      -4.150   0.110 -31.232  1.00  0.00     0.001 A 
HETATM   31  C   UNL     1      -5.308   0.037 -32.013  1.00  0.00     0.013 A 
ENDBRANCH   4  20
TORSDOF 2
ENDMDL
MODEL 9
REMARK VINA RESULT:      -8.8      4.260      5.516
REMARK  2 active torsions:
REMARK  status: ('A' for Active; 'I' for Inactive)
REMARK       I    between atoms: C_2  and  N_3 
REMARK       I    between atoms: C_2  and  N_21 
REMARK    1  A    between atoms: N_3  and  C_4 
REMARK    2  A    between atoms: C_7  and  C_10 
ROOT
HETATM    1  C   UNL     1      -5.479   3.841 -32.400  1.00  0.00     0.036 A 
HETATM    2  C   UNL     1      -5.539   2.740 -33.264  1.00  0.00     0.030 A 
HETATM    3  C   UNL     1      -6.755   2.096 -33.515  1.00  0.00     0.014 A 
HETATM    4  C   UNL     1      -7.927   2.532 -32.889  1.00  0.00    -0.024 A 
HETATM    5  C   UNL     1      -7.861   3.608 -31.997  1.00  0.00     0.014 A 
HETATM    6  C   UNL     1      -6.646   4.258 -31.757  1.00  0.00     0.030 A 
ENDROOT
BRANCH   1   7
HETATM    7  N   UNL     1      -4.223   4.456 -32.212  1.00  0.00    -0.309 N 
HETATM    8  C   UNL     1      -3.812   5.180 -31.104  1.00  0.00     0.327 C 
HETATM    9  O   UNL     1      -4.566   5.489 -30.183  1.00  0.00    -0.247 OA
HETATM   10  N   UNL     1      -2.466   5.527 -31.140  1.00  0.00    -0.299 N 
HETATM   11  C   UNL     1      -1.454   5.034 -32.090  1.00  0.00     0.138 C 
HETATM   12  C   UNL     1      -1.824   6.399 -30.235  1.00  0.00     0.045 A 
HETATM   13  C   UNL     1      -0.080   5.494 -31.589  1.00  0.00     0.061 C 
HETATM   14  C   UNL     1      -0.452   6.435 -30.491  1.00  0.00    -0.030 A 
HETATM   15  C   UNL     1       0.401   7.233 -29.743  1.00  0.00     0.009 A 
HETATM   16  C   UNL     1      -0.145   8.017 -28.727  1.00  0.00     0.001 A 
HETATM   17  C   UNL     1      -1.524   7.985 -28.469  1.00  0.00     0.002 A 
HETATM   18  C   UNL     1      -2.372   7.170 -29.224  1.00  0.00     0.030 A 
HETATM   19  H   UNL     1      -3.668   4.585 -33.041  1.00  0.00     0.170 HD
ENDBRANCH   1   7
BRANCH   4  20
HETATM   20  C   UNL     1      -9.225   1.885 -33.171  1.00  0.00     0.001 A 
HETATM   21  C   UNL     1      -9.473   0.725 -32.537  1.00  0.00     0.104 A 
HETATM   22  N   UNL     1     -10.646   0.036 -32.689  1.00  0.00    -0.332 N 
HETATM   23  C   UNL     1     -11.694   0.447 -33.481  1.00  0.00     0.256 A 
HETATM   24  H   UNL     1     -10.795  -0.833 -32.190  1.00  0.00     0.168 HD
HETATM   25  O   UNL     1     -12.726  -0.207 -33.576  1.00  0.00    -0.267 OA
HETATM   26  C   UNL     1     -11.498   1.723 -34.212  1.00  0.00     0.043 A 
HETATM   27  C   UNL     1     -12.517   2.210 -35.038  1.00  0.00     0.018 A 
HETATM   28  C   UNL     1     -10.287   2.420 -34.063  1.00  0.00    -0.008 A 
HETATM   29  C   UNL     1     -12.335   3.404 -35.734  1.00  0.00     0.001 A 
HETATM   30  C   UNL     1     -11.135   4.103 -35.606  1.00  0.00     0.001 A 
HETATM   31  C   UNL     1     -10.118   3.614 -34.780  1.00  0.00     0.013 A 
ENDBRANCH   4  20
TORSDOF 2
ENDMDL
MODEL 10
REMARK VINA RESULT:      -8.8      1.996     10.175
REMARK  2 active torsions:
REMARK  status: ('A' for Active; 'I' for Inactive)
REMARK       I    between atoms: C_2  and  N_3 
REMARK       I    between atoms: C_2  and  N_21 
REMARK    1  A    between atoms: N_3  and  C_4 
REMARK    2  A    between atoms: C_7  and  C_10 
ROOT
HETATM    1  C   UNL     1      -4.451   3.727 -32.331  1.00  0.00     0.036 A 
HETATM    2  C   UNL     1      -5.062   4.182 -31.156  1.00  0.00     0.030 A 
HETATM    3  C   UNL     1      -4.510   5.244 -30.430  1.00  0.00     0.014 A 
HETATM    4  C   UNL     1      -3.326   5.852 -30.860  1.00  0.00    -0.024 A 
HETATM    5  C   UNL     1      -2.695   5.373 -32.013  1.00  0.00     0.014 A 
HETATM    6  C   UNL     1      -3.255   4.319 -32.743  1.00  0.00     0.030 A 
ENDROOT
BRANCH   1   7
HETATM    7  N   UNL     1      -5.075   2.669 -33.025  1.00  0.00    -0.309 N 
HETATM    8  C   UNL     1      -4.732   1.327 -32.973  1.00  0.00     0.327 C 
HETATM    9  O   UNL     1      -3.729   0.909 -32.399  1.00  0.00    -0.247 OA
HETATM   10  N   UNL     1      -5.631   0.502 -33.639  1.00  0.00    -0.299 N 
HETATM   11  C   UNL     1      -6.949   0.886 -34.175  1.00  0.00     0.138 C 
HETATM   12  C   UNL     1      -5.444  -0.874 -33.890  1.00  0.00     0.045 A 
HETATM   13  C   UNL     1      -7.674  -0.399 -34.595  1.00  0.00     0.061 C 
HETATM   14  C   UNL     1      -6.588  -1.417 -34.477  1.00  0.00    -0.030 A 
HETATM   15  C   UNL     1      -6.650  -2.756 -34.835  1.00  0.00     0.009 A 
HETATM   16  C   UNL     1      -5.531  -3.556 -34.604  1.00  0.00     0.001 A 
HETATM   17  C   UNL     1      -4.379  -3.013 -34.017  1.00  0.00     0.002 A 
HETATM   18  C   UNL     1      -4.332  -1.664 -33.654  1.00  0.00     0.030 A 
HETATM   19  H   UNL     1      -5.658   2.936 -33.800  1.00  0.00     0.170 HD
ENDBRANCH   1   7
BRANCH   4  20
HETATM   20  C   UNL     1      -2.751   6.997 -30.124  1.00  0.00     0.001 A 
HETATM   21  C   UNL     1      -1.666   6.746 -29.368  1.00  0.00     0.104 A 
HETATM   22  N   UNL     1      -1.021   7.723 -28.657  1.00  0.00    -0.332 N 
HETATM   23  C   UNL     1      -1.388   9.049 -28.643  1.00  0.00     0.256 A 
HETATM   24  H   UNL     1      -0.204   7.493 -28.103  1.00  0.00     0.168 HD
HETATM   25  O   UNL     1      -0.769   9.882 -27.991  1.00  0.00    -0.267 OA
HETATM   26  C   UNL     1      -2.576   9.405 -29.456  1.00  0.00     0.043 A 
HETATM   27  C   UNL     1      -3.014  10.734 -29.495  1.00  0.00     0.018 A 
HETATM   28  C   UNL     1      -3.243   8.398 -30.174  1.00  0.00    -0.008 A 
HETATM   29  C   UNL     1      -4.134  11.073 -30.251  1.00  0.00     0.001 A 
HETATM   30  C   UNL     1      -4.815  10.084 -30.961  1.00  0.00     0.001 A 
HETATM   31  C   UNL     1      -4.376   8.758 -30.921  1.00  0.00     0.013 A 
ENDBRANCH   4  20
TORSDOF 2
ENDMDL
