MODEL 1
REMARK VINA RESULT:      -8.8      0.000      0.000
REMARK  5 active torsions:
REMARK  status: ('A' for Active; 'I' for Inactive)
REMARK    1  A    between atoms: C_2  and  C_3 
REMARK    2  A    between atoms: C_2  and  C_18 
REMARK       I    between atoms: C_3  and  N_4 
REMARK    3  A    between atoms: N_4  and  C_5 
REMARK    4  A    between atoms: C_7  and  C_8 
REMARK    5  A    between atoms: C_18  and  C_19 
ROOT
HETATM    1  C   UNL     1      -7.070   0.535 -32.110  1.00  0.00     0.226 C 
HETATM    2  N   UNL     1      -7.667   0.727 -33.349  1.00  0.00    -0.327 N 
HETATM    3  O   UNL     1      -7.388   1.118 -31.080  1.00  0.00    -0.273 OA
HETATM    4  H   UNL     1      -7.167   0.377 -34.156  1.00  0.00     0.169 HD
ENDROOT
BRANCH   2   5
HETATM    5  C   UNL     1      -8.843   1.458 -33.623  1.00  0.00     0.035 A 
HETATM    6  C   UNL     1     -10.118   0.883 -33.671  1.00  0.00     0.042 A 
HETATM    7  C   UNL     1     -11.256   1.650 -33.985  1.00  0.00    -0.021 A 
HETATM    8  C   UNL     1     -11.085   3.019 -34.237  1.00  0.00     0.012 A 
HETATM    9  C   UNL     1      -9.817   3.600 -34.196  1.00  0.00     0.003 A 
HETATM   10  C   UNL     1      -8.700   2.820 -33.901  1.00  0.00     0.029 A 
BRANCH   7  11
HETATM   11  C   UNL     1     -12.583   1.047 -34.072  1.00  0.00     0.010 A 
HETATM   12  C   UNL     1     -13.793   1.541 -34.621  1.00  0.00     0.152 A 
HETATM   13  N   UNL     1     -14.808   0.677 -34.521  1.00  0.00    -0.187 NA
HETATM   14  N   UNL     1     -14.254  -0.379 -33.907  1.00  0.00    -0.289 N 
HETATM   15  H   UNL     1     -14.838  -1.187 -33.717  1.00  0.00     0.188 HD
HETATM   16  C   UNL     1     -12.932  -0.209 -33.617  1.00  0.00     0.123 A 
ENDBRANCH   7  11
ENDBRANCH   2   5
BRANCH   1  17
HETATM   17  C   UNL     1      -5.900  -0.456 -32.174  1.00  0.00     0.078 C 
HETATM   18  C   UNL     1      -4.751  -0.010 -31.267  1.00  0.00     0.020 C 
BRANCH  17  19
HETATM   19  C   UNL     1      -5.447  -0.773 -33.616  1.00  0.00     0.052 C 
BRANCH  19  20
HETATM   20  C   UNL     1      -5.490  -2.218 -34.063  1.00  0.00    -0.057 A 
HETATM   21  C   UNL     1      -4.366  -3.045 -33.924  1.00  0.00     0.007 A 
HETATM   22  C   UNL     1      -4.412  -4.382 -34.324  1.00  0.00     0.001 A 
HETATM   23  C   UNL     1      -5.583  -4.911 -34.860  1.00  0.00     0.000 A 
HETATM   24  C   UNL     1      -6.709  -4.104 -34.995  1.00  0.00     0.001 A 
HETATM   25  C   UNL     1      -6.663  -2.766 -34.597  1.00  0.00     0.007 A 
ENDBRANCH  19  20
ENDBRANCH  17  19
ENDBRANCH   1  17
TORSDOF 5
ENDMDL
MODEL 2
REMARK VINA RESULT:      -8.4      4.293      7.546
REMARK  5 active torsions:
REMARK  status: ('A' for Active; 'I' for Inactive)
REMARK    1  A    between atoms: C_2  and  C_3 
REMARK    2  A    between atoms: C_2  and  C_18 
REMARK       I    between atoms: C_3  and  N_4 
REMARK    3  A    between atoms: N_4  and  C_5 
REMARK    4  A    between atoms: C_7  and  C_8 
REMARK    5  A    between atoms: C_18  and  C_19 
ROOT
HETATM    1  C   UNL     1      -5.366   2.192 -31.633  1.00  0.00     0.226 C 
HETATM    2  N   UNL     1      -5.176   1.813 -32.956  1.00  0.00    -0.327 N 
HETATM    3  O   UNL     1      -6.266   1.783 -30.909  1.00  0.00    -0.273 OA
HETATM    4  H   UNL     1      -4.560   2.391 -33.512  1.00  0.00     0.169 HD
ENDROOT
BRANCH   2   5
HETATM    5  C   UNL     1      -5.837   0.774 -33.647  1.00  0.00     0.035 A 
HETATM    6  C   UNL     1      -5.389  -0.551 -33.664  1.00  0.00     0.042 A 
HETATM    7  C   UNL     1      -6.064  -1.544 -34.399  1.00  0.00    -0.021 A 
HETATM    8  C   UNL     1      -7.215  -1.175 -35.110  1.00  0.00     0.012 A 
HETATM    9  C   UNL     1      -7.667   0.145 -35.103  1.00  0.00     0.003 A 
HETATM   10  C   UNL     1      -6.974   1.118 -34.384  1.00  0.00     0.029 A 
BRANCH   7  11
HETATM   11  C   UNL     1      -5.580  -2.920 -34.448  1.00  0.00     0.010 A 
HETATM   12  C   UNL     1      -6.205  -4.109 -34.903  1.00  0.00     0.152 A 
HETATM   13  N   UNL     1      -5.423  -5.187 -34.797  1.00  0.00    -0.187 NA
HETATM   14  N   UNL     1      -4.289  -4.697 -34.274  1.00  0.00    -0.289 N 
HETATM   15  H   UNL     1      -3.523  -5.338 -34.098  1.00  0.00     0.188 HD
HETATM   16  C   UNL     1      -4.332  -3.352 -34.046  1.00  0.00     0.123 A 
ENDBRANCH   7  11
ENDBRANCH   2   5
BRANCH   1  17
HETATM   17  C   UNL     1      -4.350   3.249 -31.178  1.00  0.00     0.078 C 
HETATM   18  C   UNL     1      -4.911   4.662 -31.356  1.00  0.00     0.020 C 
BRANCH  17  19
HETATM   19  C   UNL     1      -2.954   3.066 -31.811  1.00  0.00     0.052 C 
BRANCH  19  20
HETATM   20  C   UNL     1      -2.301   4.280 -32.433  1.00  0.00    -0.057 A 
HETATM   21  C   UNL     1      -2.456   4.555 -33.800  1.00  0.00     0.007 A 
HETATM   22  C   UNL     1      -1.863   5.685 -34.370  1.00  0.00     0.001 A 
HETATM   23  C   UNL     1      -1.117   6.557 -33.580  1.00  0.00     0.000 A 
HETATM   24  C   UNL     1      -0.964   6.300 -32.221  1.00  0.00     0.001 A 
HETATM   25  C   UNL     1      -1.554   5.170 -31.650  1.00  0.00     0.007 A 
ENDBRANCH  19  20
ENDBRANCH  17  19
ENDBRANCH   1  17
TORSDOF 5
ENDMDL
MODEL 3
REMARK VINA RESULT:      -8.2      1.724      2.339
REMARK  5 active torsions:
REMARK  status: ('A' for Active; 'I' for Inactive)
REMARK    1  A    between atoms: C_2  and  C_3 
REMARK    2  A    between atoms: C_2  and  C_18 
REMARK       I    between atoms: C_3  and  N_4 
REMARK    3  A    between atoms: N_4  and  C_5 
REMARK    4  A    between atoms: C_7  and  C_8 
REMARK    5  A    between atoms: C_18  and  C_19 
ROOT
HETATM    1  C   UNL     1      -5.916   0.587 -32.572  1.00  0.00     0.226 C 
HETATM    2  N   UNL     1      -7.190   0.370 -32.063  1.00  0.00    -0.327 N 
HETATM    3  O   UNL     1      -5.603   1.520 -33.303  1.00  0.00    -0.273 OA
HETATM    4  H   UNL     1      -7.379  -0.548 -31.681  1.00  0.00     0.169 HD
ENDROOT
BRANCH   2   5
HETATM    5  C   UNL     1      -8.292   1.251 -32.121  1.00  0.00     0.035 A 
HETATM    6  C   UNL     1      -9.153   1.341 -33.221  1.00  0.00     0.042 A 
HETATM    7  C   UNL     1     -10.217   2.262 -33.245  1.00  0.00    -0.021 A 
HETATM    8  C   UNL     1     -10.407   3.086 -32.127  1.00  0.00     0.012 A 
HETATM    9  C   UNL     1      -9.551   3.007 -31.027  1.00  0.00     0.003 A 
HETATM   10  C   UNL     1      -8.491   2.101 -31.030  1.00  0.00     0.029 A 
BRANCH   7  11
HETATM   11  C   UNL     1     -11.095   2.385 -34.405  1.00  0.00     0.010 A 
HETATM   12  C   UNL     1     -12.095   1.515 -34.909  1.00  0.00     0.152 A 
HETATM   13  N   UNL     1     -12.701   1.988 -36.002  1.00  0.00    -0.187 NA
HETATM   14  N   UNL     1     -12.094   3.166 -36.207  1.00  0.00    -0.289 N 
HETATM   15  H   UNL     1     -12.389   3.730 -36.997  1.00  0.00     0.188 HD
HETATM   16  C   UNL     1     -11.129   3.448 -35.284  1.00  0.00     0.123 A 
ENDBRANCH   7  11
ENDBRANCH   2   5
BRANCH   1  17
HETATM   17  C   UNL     1      -4.932  -0.521 -32.173  1.00  0.00     0.078 C 
HETATM   18  C   UNL     1      -3.941  -0.021 -31.120  1.00  0.00     0.020 C 
BRANCH  17  19
HETATM   19  C   UNL     1      -4.248  -1.194 -33.382  1.00  0.00     0.052 C 
BRANCH  19  20
HETATM   20  C   UNL     1      -4.876  -2.456 -33.930  1.00  0.00    -0.057 A 
HETATM   21  C   UNL     1      -6.158  -2.430 -34.498  1.00  0.00     0.007 A 
HETATM   22  C   UNL     1      -6.731  -3.594 -35.015  1.00  0.00     0.001 A 
HETATM   23  C   UNL     1      -6.027  -4.795 -34.980  1.00  0.00     0.000 A 
HETATM   24  C   UNL     1      -4.750  -4.833 -34.427  1.00  0.00     0.001 A 
HETATM   25  C   UNL     1      -4.177  -3.670 -33.907  1.00  0.00     0.007 A 
ENDBRANCH  19  20
ENDBRANCH  17  19
ENDBRANCH   1  17
TORSDOF 5
ENDMDL
MODEL 4
REMARK VINA RESULT:      -8.1      5.308      8.675
REMARK  5 active torsions:
REMARK  status: ('A' for Active; 'I' for Inactive)
REMARK    1  A    between atoms: C_2  and  C_3 
REMARK    2  A    between atoms: C_2  and  C_18 
REMARK       I    between atoms: C_3  and  N_4 
REMARK    3  A    between atoms: N_4  and  C_5 
REMARK    4  A    between atoms: C_7  and  C_8 
REMARK    5  A    between atoms: C_18  and  C_19 
ROOT
HETATM    1  C   UNL     1      -4.168   1.534 -32.330  1.00  0.00     0.226 C 
HETATM    2  N   UNL     1      -4.165   2.868 -32.719  1.00  0.00    -0.327 N 
HETATM    3  O   UNL     1      -3.165   0.879 -32.067  1.00  0.00    -0.273 OA
HETATM    4  H   UNL     1      -5.015   3.222 -33.138  1.00  0.00     0.169 HD
ENDROOT
BRANCH   2   5
HETATM    5  C   UNL     1      -3.069   3.758 -32.702  1.00  0.00     0.035 A 
HETATM    6  C   UNL     1      -2.414   4.156 -31.531  1.00  0.00     0.042 A 
HETATM    7  C   UNL     1      -1.349   5.075 -31.564  1.00  0.00    -0.021 A 
HETATM    8  C   UNL     1      -0.943   5.577 -32.809  1.00  0.00     0.012 A 
HETATM    9  C   UNL     1      -1.593   5.189 -33.982  1.00  0.00     0.003 A 
HETATM   10  C   UNL     1      -2.659   4.292 -33.927  1.00  0.00     0.029 A 
BRANCH   7  11
HETATM   11  C   UNL     1      -0.687   5.522 -30.342  1.00  0.00     0.010 A 
HETATM   12  C   UNL     1       0.470   5.036 -29.681  1.00  0.00     0.152 A 
HETATM   13  N   UNL     1       0.774   5.726 -28.578  1.00  0.00    -0.187 NA
HETATM   14  N   UNL     1      -0.186   6.661 -28.524  1.00  0.00    -0.289 N 
HETATM   15  H   UNL     1      -0.169   7.325 -27.757  1.00  0.00     0.188 HD
HETATM   16  C   UNL     1      -1.082   6.582 -29.550  1.00  0.00     0.123 A 
ENDBRANCH   7  11
ENDBRANCH   2   5
BRANCH   1  17
HETATM   17  C   UNL     1      -5.578   0.931 -32.326  1.00  0.00     0.078 C 
HETATM   18  C   UNL     1      -5.713  -0.145 -31.247  1.00  0.00     0.020 C 
BRANCH  17  19
HETATM   19  C   UNL     1      -6.042   0.455 -33.720  1.00  0.00     0.052 C 
BRANCH  19  20
HETATM   20  C   UNL     1      -5.876  -1.012 -34.050  1.00  0.00    -0.057 A 
HETATM   21  C   UNL     1      -6.991  -1.813 -34.336  1.00  0.00     0.007 A 
HETATM   22  C   UNL     1      -6.835  -3.164 -34.654  1.00  0.00     0.001 A 
HETATM   23  C   UNL     1      -5.562  -3.728 -34.699  1.00  0.00     0.000 A 
HETATM   24  C   UNL     1      -4.446  -2.943 -34.426  1.00  0.00     0.001 A 
HETATM   25  C   UNL     1      -4.602  -1.592 -34.106  1.00  0.00     0.007 A 
ENDBRANCH  19  20
ENDBRANCH  17  19
ENDBRANCH   1  17
TORSDOF 5
ENDMDL
MODEL 5
REMARK VINA RESULT:      -7.9      2.128      3.010
REMARK  5 active torsions:
REMARK  status: ('A' for Active; 'I' for Inactive)
REMARK    1  A    between atoms: C_2  and  C_3 
REMARK    2  A    between atoms: C_2  and  C_18 
REMARK       I    between atoms: C_3  and  N_4 
REMARK    3  A    between atoms: N_4  and  C_5 
REMARK    4  A    between atoms: C_7  and  C_8 
REMARK    5  A    between atoms: C_18  and  C_19 
ROOT
HETATM    1  C   UNL     1      -7.337   0.607 -32.297  1.00  0.00     0.226 C 
HETATM    2  N   UNL     1      -8.104   0.523 -33.452  1.00  0.00    -0.327 N 
HETATM    3  O   UNL     1      -7.563   1.363 -31.359  1.00  0.00    -0.273 OA
HETATM    4  H   UNL     1      -7.687   0.049 -34.243  1.00  0.00     0.169 HD
ENDROOT
BRANCH   2   5
HETATM    5  C   UNL     1      -9.358   1.127 -33.687  1.00  0.00     0.035 A 
HETATM    6  C   UNL     1      -9.510   2.436 -34.159  1.00  0.00     0.042 A 
HETATM    7  C   UNL     1     -10.784   3.005 -34.343  1.00  0.00    -0.021 A 
HETATM    8  C   UNL     1     -11.910   2.220 -34.053  1.00  0.00     0.012 A 
HETATM    9  C   UNL     1     -11.768   0.916 -33.577  1.00  0.00     0.003 A 
HETATM   10  C   UNL     1     -10.497   0.376 -33.385  1.00  0.00     0.029 A 
BRANCH   7  11
HETATM   11  C   UNL     1     -10.947   4.381 -34.800  1.00  0.00     0.010 A 
HETATM   12  C   UNL     1      -9.986   5.359 -35.164  1.00  0.00     0.152 A 
HETATM   13  N   UNL     1     -10.534   6.517 -35.547  1.00  0.00    -0.187 NA
HETATM   14  N   UNL     1     -11.850   6.289 -35.434  1.00  0.00    -0.289 N 
HETATM   15  H   UNL     1     -12.492   7.036 -35.677  1.00  0.00     0.188 HD
HETATM   16  C   UNL     1     -12.149   5.033 -34.992  1.00  0.00     0.123 A 
ENDBRANCH   7  11
ENDBRANCH   2   5
BRANCH   1  17
HETATM   17  C   UNL     1      -6.112  -0.317 -32.342  1.00  0.00     0.078 C 
HETATM   18  C   UNL     1      -4.971   0.242 -31.491  1.00  0.00     0.020 C 
BRANCH  17  19
HETATM   19  C   UNL     1      -5.677  -0.684 -33.777  1.00  0.00     0.052 C 
BRANCH  19  20
HETATM   20  C   UNL     1      -5.605  -2.152 -34.135  1.00  0.00    -0.057 A 
HETATM   21  C   UNL     1      -4.429  -2.885 -33.920  1.00  0.00     0.007 A 
HETATM   22  C   UNL     1      -4.368  -4.243 -34.238  1.00  0.00     0.001 A 
HETATM   23  C   UNL     1      -5.484  -4.888 -34.766  1.00  0.00     0.000 A 
HETATM   24  C   UNL     1      -6.661  -4.174 -34.976  1.00  0.00     0.001 A 
HETATM   25  C   UNL     1      -6.722  -2.815 -34.660  1.00  0.00     0.007 A 
ENDBRANCH  19  20
ENDBRANCH  17  19
ENDBRANCH   1  17
TORSDOF 5
ENDMDL
MODEL 6
REMARK VINA RESULT:      -7.8      4.572      7.196
REMARK  5 active torsions:
REMARK  status: ('A' for Active; 'I' for Inactive)
REMARK    1  A    between atoms: C_2  and  C_3 
REMARK    2  A    between atoms: C_2  and  C_18 
REMARK       I    between atoms: C_3  and  N_4 
REMARK    3  A    between atoms: N_4  and  C_5 
REMARK    4  A    between atoms: C_7  and  C_8 
REMARK    5  A    between atoms: C_18  and  C_19 
ROOT
HETATM    1  C   UNL     1      -6.048   1.491 -32.722  1.00  0.00     0.226 C 
HETATM    2  N   UNL     1      -5.377   1.954 -31.598  1.00  0.00    -0.327 N 
HETATM    3  O   UNL     1      -6.613   2.205 -33.544  1.00  0.00    -0.273 OA
HETATM    4  H   UNL     1      -5.167   1.272 -30.880  1.00  0.00     0.169 HD
ENDROOT
BRANCH   2   5
HETATM    5  C   UNL     1      -5.055   3.293 -31.289  1.00  0.00     0.035 A 
HETATM    6  C   UNL     1      -4.171   4.071 -32.046  1.00  0.00     0.042 A 
HETATM    7  C   UNL     1      -3.855   5.391 -31.675  1.00  0.00    -0.021 A 
HETATM    8  C   UNL     1      -4.461   5.921 -30.527  1.00  0.00     0.012 A 
HETATM    9  C   UNL     1      -5.340   5.152 -29.763  1.00  0.00     0.003 A 
HETATM   10  C   UNL     1      -5.627   3.840 -30.137  1.00  0.00     0.029 A 
BRANCH   7  11
HETATM   11  C   UNL     1      -2.906   6.193 -32.441  1.00  0.00     0.010 A 
HETATM   12  C   UNL     1      -2.755   6.369 -33.840  1.00  0.00     0.152 A 
HETATM   13  N   UNL     1      -1.763   7.205 -34.161  1.00  0.00    -0.187 NA
HETATM   14  N   UNL     1      -1.270   7.571 -32.969  1.00  0.00    -0.289 N 
HETATM   15  H   UNL     1      -0.491   8.222 -32.949  1.00  0.00     0.188 HD
HETATM   16  C   UNL     1      -1.914   6.996 -31.913  1.00  0.00     0.123 A 
ENDBRANCH   7  11
ENDBRANCH   2   5
BRANCH   1  17
HETATM   17  C   UNL     1      -6.068  -0.041 -32.800  1.00  0.00     0.078 C 
HETATM   18  C   UNL     1      -5.214  -0.659 -31.692  1.00  0.00     0.020 C 
BRANCH  17  19
HETATM   19  C   UNL     1      -5.727  -0.585 -34.205  1.00  0.00     0.052 C 
BRANCH  19  20
HETATM   20  C   UNL     1      -5.649  -2.086 -34.375  1.00  0.00    -0.057 A 
HETATM   21  C   UNL     1      -4.432  -2.764 -34.209  1.00  0.00     0.007 A 
HETATM   22  C   UNL     1      -4.365  -4.151 -34.354  1.00  0.00     0.001 A 
HETATM   23  C   UNL     1      -5.513  -4.879 -34.656  1.00  0.00     0.000 A 
HETATM   24  C   UNL     1      -6.729  -4.220 -34.814  1.00  0.00     0.001 A 
HETATM   25  C   UNL     1      -6.797  -2.832 -34.672  1.00  0.00     0.007 A 
ENDBRANCH  19  20
ENDBRANCH  17  19
ENDBRANCH   1  17
TORSDOF 5
ENDMDL
MODEL 7
REMARK VINA RESULT:      -7.6     13.640     14.659
REMARK  5 active torsions:
REMARK  status: ('A' for Active; 'I' for Inactive)
REMARK    1  A    between atoms: C_2  and  C_3 
REMARK    2  A    between atoms: C_2  and  C_18 
REMARK       I    between atoms: C_3  and  N_4 
REMARK    3  A    between atoms: N_4  and  C_5 
REMARK    4  A    between atoms: C_7  and  C_8 
REMARK    5  A    between atoms: C_18  and  C_19 
ROOT
HETATM    1  C   UNL     1      -5.075 -14.470 -36.837  1.00  0.00     0.226 C 
HETATM    2  N   UNL     1      -5.510 -13.197 -37.183  1.00  0.00    -0.327 N 
HETATM    3  O   UNL     1      -5.308 -15.488 -37.479  1.00  0.00    -0.273 OA
HETATM    4  H   UNL     1      -5.464 -12.488 -36.462  1.00  0.00     0.169 HD
ENDROOT
BRANCH   2   5
HETATM    5  C   UNL     1      -6.119 -12.804 -38.394  1.00  0.00     0.035 A 
HETATM    6  C   UNL     1      -7.491 -12.923 -38.645  1.00  0.00     0.042 A 
HETATM    7  C   UNL     1      -8.044 -12.551 -39.884  1.00  0.00    -0.021 A 
HETATM    8  C   UNL     1      -7.186 -12.040 -40.868  1.00  0.00     0.012 A 
HETATM    9  C   UNL     1      -5.816 -11.922 -40.629  1.00  0.00     0.003 A 
HETATM   10  C   UNL     1      -5.284 -12.313 -39.401  1.00  0.00     0.029 A 
BRANCH   7  11
HETATM   11  C   UNL     1      -9.469 -12.708 -40.162  1.00  0.00     0.010 A 
HETATM   12  C   UNL     1     -10.278 -13.870 -40.238  1.00  0.00     0.152 A 
HETATM   13  N   UNL     1     -11.560 -13.601 -40.506  1.00  0.00    -0.187 NA
HETATM   14  N   UNL     1     -11.581 -12.264 -40.604  1.00  0.00    -0.289 N 
HETATM   15  H   UNL     1     -12.466 -11.809 -40.805  1.00  0.00     0.188 HD
HETATM   16  C   UNL     1     -10.362 -11.684 -40.409  1.00  0.00     0.123 A 
ENDBRANCH   7  11
ENDBRANCH   2   5
BRANCH   1  17
HETATM   17  C   UNL     1      -4.309 -14.483 -35.507  1.00  0.00     0.078 C 
HETATM   18  C   UNL     1      -4.657 -13.257 -34.661  1.00  0.00     0.020 C 
BRANCH  17  19
HETATM   19  C   UNL     1      -2.789 -14.691 -35.680  1.00  0.00     0.052 C 
BRANCH  19  20
HETATM   20  C   UNL     1      -2.176 -14.309 -37.009  1.00  0.00    -0.057 A 
HETATM   21  C   UNL     1      -1.992 -12.962 -37.353  1.00  0.00     0.007 A 
HETATM   22  C   UNL     1      -1.414 -12.612 -38.575  1.00  0.00     0.001 A 
HETATM   23  C   UNL     1      -1.004 -13.603 -39.464  1.00  0.00     0.000 A 
HETATM   24  C   UNL     1      -1.173 -14.944 -39.131  1.00  0.00     0.001 A 
HETATM   25  C   UNL     1      -1.753 -15.295 -37.911  1.00  0.00     0.007 A 
ENDBRANCH  19  20
ENDBRANCH  17  19
ENDBRANCH   1  17
TORSDOF 5
ENDMDL
MODEL 8
REMARK VINA RESULT:      -7.6      4.703      7.948
REMARK  5 active torsions:
REMARK  status: ('A' for Active; 'I' for Inactive)
REMARK    1  A    between atoms: C_2  and  C_3 
REMARK    2  A    between atoms: C_2  and  C_18 
REMARK       I    between atoms: C_3  and  N_4 
REMARK    3  A    between atoms: N_4  and  C_5 
REMARK    4  A    between atoms: C_7  and  C_8 
REMARK    5  A    between atoms: C_18  and  C_19 
ROOT
HETATM    1  C   UNL     1      -4.668   3.188 -32.386  1.00  0.00     0.226 C 
HETATM    2  N   UNL     1      -5.240   1.942 -32.167  1.00  0.00    -0.327 N 
HETATM    3  O   UNL     1      -4.442   3.671 -33.490  1.00  0.00    -0.273 OA
HETATM    4  H   UNL     1      -5.152   1.558 -31.235  1.00  0.00     0.169 HD
ENDROOT
BRANCH   2   5
HETATM    5  C   UNL     1      -5.832   1.096 -33.129  1.00  0.00     0.035 A 
HETATM    6  C   UNL     1      -5.538  -0.267 -33.246  1.00  0.00     0.042 A 
HETATM    7  C   UNL     1      -6.129  -1.062 -34.247  1.00  0.00    -0.021 A 
HETATM    8  C   UNL     1      -7.039  -0.455 -35.124  1.00  0.00     0.012 A 
HETATM    9  C   UNL     1      -7.336   0.905 -35.018  1.00  0.00     0.003 A 
HETATM   10  C   UNL     1      -6.726   1.679 -34.031  1.00  0.00     0.029 A 
BRANCH   7  11
HETATM   11  C   UNL     1      -5.797  -2.475 -34.395  1.00  0.00     0.010 A 
HETATM   12  C   UNL     1      -4.578  -3.170 -34.190  1.00  0.00     0.152 A 
HETATM   13  N   UNL     1      -4.675  -4.482 -34.422  1.00  0.00    -0.187 NA
HETATM   14  N   UNL     1      -5.958  -4.639 -34.777  1.00  0.00    -0.289 N 
HETATM   15  H   UNL     1      -6.285  -5.573 -35.004  1.00  0.00     0.188 HD
HETATM   16  C   UNL     1      -6.669  -3.474 -34.778  1.00  0.00     0.123 A 
ENDBRANCH   7  11
ENDBRANCH   2   5
BRANCH   1  17
HETATM   17  C   UNL     1      -4.277   3.889 -31.078  1.00  0.00     0.078 C 
HETATM   18  C   UNL     1      -5.353   3.694 -30.008  1.00  0.00     0.020 C 
BRANCH  17  19
HETATM   19  C   UNL     1      -3.876   5.367 -31.274  1.00  0.00     0.052 C 
BRANCH  19  20
HETATM   20  C   UNL     1      -2.418   5.727 -31.096  1.00  0.00    -0.057 A 
HETATM   21  C   UNL     1      -1.415   4.997 -31.750  1.00  0.00     0.007 A 
HETATM   22  C   UNL     1      -0.069   5.339 -31.595  1.00  0.00     0.001 A 
HETATM   23  C   UNL     1       0.289   6.420 -30.792  1.00  0.00     0.000 A 
HETATM   24  C   UNL     1      -0.697   7.158 -30.145  1.00  0.00     0.001 A 
HETATM   25  C   UNL     1      -2.043   6.815 -30.298  1.00  0.00     0.007 A 
ENDBRANCH  19  20
ENDBRANCH  17  19
ENDBRANCH   1  17
TORSDOF 5
ENDMDL
MODEL 9
REMARK VINA RESULT:      -7.5      6.011      8.637
REMARK  5 active torsions:
REMARK  status: ('A' for Active; 'I' for Inactive)
REMARK    1  A    between atoms: C_2  and  C_3 
REMARK    2  A    between atoms: C_2  and  C_18 
REMARK       I    between atoms: C_3  and  N_4 
REMARK    3  A    between atoms: N_4  and  C_5 
REMARK    4  A    between atoms: C_7  and  C_8 
REMARK    5  A    between atoms: C_18  and  C_19 
ROOT
HETATM    1  C   UNL     1      -3.811   2.587 -32.269  1.00  0.00     0.226 C 
HETATM    2  N   UNL     1      -3.820   3.704 -33.095  1.00  0.00    -0.327 N 
HETATM    3  O   UNL     1      -2.892   2.278 -31.518  1.00  0.00    -0.273 OA
HETATM    4  H   UNL     1      -4.512   3.720 -33.833  1.00  0.00     0.169 HD
ENDROOT
BRANCH   2   5
HETATM    5  C   UNL     1      -2.896   4.772 -33.094  1.00  0.00     0.035 A 
HETATM    6  C   UNL     1      -2.793   5.704 -32.055  1.00  0.00     0.042 A 
HETATM    7  C   UNL     1      -1.879   6.773 -32.118  1.00  0.00    -0.021 A 
HETATM    8  C   UNL     1      -1.057   6.877 -33.249  1.00  0.00     0.012 A 
HETATM    9  C   UNL     1      -1.156   5.955 -34.292  1.00  0.00     0.003 A 
HETATM   10  C   UNL     1      -2.080   4.913 -34.219  1.00  0.00     0.029 A 
BRANCH   7  11
HETATM   11  C   UNL     1      -1.794   7.768 -31.053  1.00  0.00     0.010 A 
HETATM   12  C   UNL     1      -2.434   9.024 -30.902  1.00  0.00     0.152 A 
HETATM   13  N   UNL     1      -2.104   9.649 -29.768  1.00  0.00    -0.187 NA
HETATM   14  N   UNL     1      -1.250   8.797 -29.182  1.00  0.00    -0.289 N 
HETATM   15  H   UNL     1      -0.854   9.052 -28.284  1.00  0.00     0.188 HD
HETATM   16  C   UNL     1      -1.031   7.662 -29.907  1.00  0.00     0.123 A 
ENDBRANCH   7  11
ENDBRANCH   2   5
BRANCH   1  17
HETATM   17  C   UNL     1      -5.067   1.723 -32.443  1.00  0.00     0.078 C 
HETATM   18  C   UNL     1      -6.283   2.384 -31.791  1.00  0.00     0.020 C 
BRANCH  17  19
HETATM   19  C   UNL     1      -4.864   0.256 -32.005  1.00  0.00     0.052 C 
BRANCH  19  20
HETATM   20  C   UNL     1      -5.187  -0.826 -33.011  1.00  0.00    -0.057 A 
HETATM   21  C   UNL     1      -4.193  -1.708 -33.460  1.00  0.00     0.007 A 
HETATM   22  C   UNL     1      -4.496  -2.715 -34.378  1.00  0.00     0.001 A 
HETATM   23  C   UNL     1      -5.798  -2.860 -34.853  1.00  0.00     0.000 A 
HETATM   24  C   UNL     1      -6.796  -1.997 -34.409  1.00  0.00     0.001 A 
HETATM   25  C   UNL     1      -6.493  -0.988 -33.492  1.00  0.00     0.007 A 
ENDBRANCH  19  20
ENDBRANCH  17  19
ENDBRANCH   1  17
TORSDOF 5
ENDMDL
MODEL 10
REMARK VINA RESULT:      -7.4      5.744      8.946
REMARK  5 active torsions:
REMARK  status: ('A' for Active; 'I' for Inactive)
REMARK    1  A    between atoms: C_2  and  C_3 
REMARK    2  A    between atoms: C_2  and  C_18 
REMARK       I    between atoms: C_3  and  N_4 
REMARK    3  A    between atoms: N_4  and  C_5 
REMARK    4  A    between atoms: C_7  and  C_8 
REMARK    5  A    between atoms: C_18  and  C_19 
ROOT
HETATM    1  C   UNL     1      -2.557   4.299 -32.148  1.00  0.00     0.226 C 
HETATM    2  N   UNL     1      -3.864   3.899 -32.396  1.00  0.00    -0.327 N 
HETATM    3  O   UNL     1      -1.801   3.763 -31.345  1.00  0.00    -0.273 OA
HETATM    4  H   UNL     1      -4.456   4.555 -32.889  1.00  0.00     0.169 HD
ENDROOT
BRANCH   2   5
HETATM    5  C   UNL     1      -4.497   2.723 -31.936  1.00  0.00     0.035 A 
HETATM    6  C   UNL     1      -4.694   1.590 -32.732  1.00  0.00     0.042 A 
HETATM    7  C   UNL     1      -5.364   0.455 -32.238  1.00  0.00    -0.021 A 
HETATM    8  C   UNL     1      -5.822   0.479 -30.913  1.00  0.00     0.012 A 
HETATM    9  C   UNL     1      -5.634   1.607 -30.112  1.00  0.00     0.003 A 
HETATM   10  C   UNL     1      -4.984   2.729 -30.626  1.00  0.00     0.029 A 
BRANCH   7  11
HETATM   11  C   UNL     1      -5.604  -0.716 -33.076  1.00  0.00     0.010 A 
HETATM   12  C   UNL     1      -6.809  -1.261 -33.587  1.00  0.00     0.152 A 
HETATM   13  N   UNL     1      -6.617  -2.351 -34.337  1.00  0.00    -0.187 NA
HETATM   14  N   UNL     1      -5.286  -2.512 -34.313  1.00  0.00    -0.289 N 
HETATM   15  H   UNL     1      -4.885  -3.291 -34.825  1.00  0.00     0.188 HD
HETATM   16  C   UNL     1      -4.637  -1.565 -33.575  1.00  0.00     0.123 A 
ENDBRANCH   7  11
ENDBRANCH   2   5
BRANCH   1  17
HETATM   17  C   UNL     1      -2.167   5.547 -32.950  1.00  0.00     0.078 C 
HETATM   18  C   UNL     1      -2.291   5.295 -34.454  1.00  0.00     0.020 C 
BRANCH  17  19
HETATM   19  C   UNL     1      -0.797   6.131 -32.542  1.00  0.00     0.052 C 
BRANCH  19  20
HETATM   20  C   UNL     1      -0.719   6.887 -31.235  1.00  0.00    -0.057 A 
HETATM   21  C   UNL     1       0.384   6.732 -30.382  1.00  0.00     0.007 A 
HETATM   22  C   UNL     1       0.461   7.441 -29.181  1.00  0.00     0.001 A 
HETATM   23  C   UNL     1      -0.558   8.320 -28.822  1.00  0.00     0.000 A 
HETATM   24  C   UNL     1      -1.653   8.491 -29.664  1.00  0.00     0.001 A 
HETATM   25  C   UNL     1      -1.732   7.781 -30.864  1.00  0.00     0.007 A 
ENDBRANCH  19  20
ENDBRANCH  17  19
ENDBRANCH   1  17
TORSDOF 5
ENDMDL
