MODEL 1
REMARK VINA RESULT:      -9.2      0.000      0.000
REMARK  6 active torsions:
REMARK  status: ('A' for Active; 'I' for Inactive)
REMARK    1  A    between atoms: C_2  and  C_3 
REMARK    2  A    between atoms: C_2  and  C_9 
REMARK    3  A    between atoms: C_9  and  C_10 
REMARK    4  A    between atoms: C_10  and  C_11 
REMARK       I    between atoms: C_11  and  N_12 
REMARK    5  A    between atoms: N_12  and  C_13 
REMARK    6  A    between atoms: C_20  and  C_21 
REMARK       I    between atoms: C_21  and  N_22 
ROOT
HETATM    1  C   UNL     1      -4.272   3.332 -32.743  1.00  0.00     0.035 A 
HETATM    2  C   UNL     1      -3.098   3.736 -32.084  1.00  0.00     0.046 A 
HETATM    3  C   UNL     1      -2.405   4.883 -32.524  1.00  0.00     0.030 A 
HETATM    4  C   UNL     1      -2.904   5.590 -33.610  1.00  0.00     0.063 A 
HETATM    5  N   UNL     1      -2.038   6.631 -33.795  1.00  0.00    -0.277 N 
HETATM    6  H   UNL     1      -2.094   7.356 -34.501  1.00  0.00     0.189 HD
HETATM    7  N   UNL     1      -1.014   6.664 -32.926  1.00  0.00    -0.168 NA
HETATM    8  C   UNL     1      -1.227   5.587 -32.135  1.00  0.00     0.156 A 
HETATM    9  C   UNL     1      -4.064   5.217 -34.289  1.00  0.00     0.034 A 
HETATM   10  C   UNL     1      -4.736   4.074 -33.833  1.00  0.00     0.032 A 
ENDROOT
BRANCH   1  11
HETATM   11  N   UNL     1      -4.923   2.183 -32.240  1.00  0.00    -0.327 N 
HETATM   12  C   UNL     1      -4.464   0.880 -32.262  1.00  0.00     0.222 C 
HETATM   13  O   UNL     1      -3.379   0.493 -32.688  1.00  0.00    -0.273 OA
HETATM   14  H   UNL     1      -5.821   2.346 -31.800  1.00  0.00     0.169 HD
BRANCH  12  15
HETATM   15  C   UNL     1      -5.462  -0.112 -31.688  1.00  0.00     0.103 C 
BRANCH  15  16
HETATM   16  C   UNL     1      -6.598  -0.399 -32.674  1.00  0.00     0.018 C 
BRANCH  16  17
HETATM   17  C   UNL     1      -6.110  -0.721 -34.104  1.00  0.00     0.015 C 
HETATM   18  C   UNL     1      -7.133  -0.239 -35.139  1.00  0.00     0.015 C 
BRANCH  17  19
HETATM   19  C   UNL     1      -5.808  -2.199 -34.301  1.00  0.00    -0.054 A 
HETATM   20  C   UNL     1      -6.796  -3.099 -34.730  1.00  0.00     0.007 A 
HETATM   21  C   UNL     1      -6.501  -4.453 -34.897  1.00  0.00     0.001 A 
HETATM   22  C   UNL     1      -5.216  -4.924 -34.642  1.00  0.00     0.000 A 
HETATM   23  C   UNL     1      -4.223  -4.041 -34.222  1.00  0.00     0.001 A 
HETATM   24  C   UNL     1      -4.516  -2.687 -34.053  1.00  0.00     0.007 A 
ENDBRANCH  17  19
ENDBRANCH  16  17
ENDBRANCH  15  16
ENDBRANCH  12  15
ENDBRANCH   1  11
BRANCH   8  25
HETATM   25  C   UNL     1      -0.316   5.254 -31.033  1.00  0.00     0.270 C 
HETATM   26  N   UNL     1      -0.785   5.603 -29.796  1.00  0.00    -0.365 N 
HETATM   27  H   UNL     1      -1.692   6.048 -29.729  1.00  0.00     0.159 HD
HETATM   28  H   UNL     1      -0.230   5.412 -28.975  1.00  0.00     0.159 HD
HETATM   29  O   UNL     1       0.775   4.711 -31.175  1.00  0.00    -0.266 OA
ENDBRANCH   8  25
TORSDOF 6
ENDMDL
MODEL 2
REMARK VINA RESULT:      -8.9      1.191      1.361
REMARK  6 active torsions:
REMARK  status: ('A' for Active; 'I' for Inactive)
REMARK    1  A    between atoms: C_2  and  C_3 
REMARK    2  A    between atoms: C_2  and  C_9 
REMARK    3  A    between atoms: C_9  and  C_10 
REMARK    4  A    between atoms: C_10  and  C_11 
REMARK       I    between atoms: C_11  and  N_12 
REMARK    5  A    between atoms: N_12  and  C_13 
REMARK    6  A    between atoms: C_20  and  C_21 
REMARK       I    between atoms: C_21  and  N_22 
ROOT
HETATM    1  C   UNL     1      -3.306   3.643 -32.627  1.00  0.00     0.035 A 
HETATM    2  C   UNL     1      -2.303   3.912 -31.679  1.00  0.00     0.046 A 
HETATM    3  C   UNL     1      -1.585   5.124 -31.742  1.00  0.00     0.030 A 
HETATM    4  C   UNL     1      -1.889   6.030 -32.749  1.00  0.00     0.063 A 
HETATM    5  N   UNL     1      -1.047   7.089 -32.551  1.00  0.00    -0.277 N 
HETATM    6  H   UNL     1      -0.993   7.939 -33.101  1.00  0.00     0.189 HD
HETATM    7  N   UNL     1      -0.218   6.952 -31.503  1.00  0.00    -0.168 NA
HETATM    8  C   UNL     1      -0.538   5.740 -30.994  1.00  0.00     0.156 A 
HETATM    9  C   UNL     1      -2.876   5.797 -33.707  1.00  0.00     0.034 A 
HETATM   10  C   UNL     1      -3.577   4.585 -33.624  1.00  0.00     0.032 A 
ENDROOT
BRANCH   1  11
HETATM   11  N   UNL     1      -3.996   2.417 -32.497  1.00  0.00    -0.327 N 
HETATM   12  C   UNL     1      -5.260   2.216 -31.976  1.00  0.00     0.222 C 
HETATM   13  O   UNL     1      -6.030   3.080 -31.569  1.00  0.00    -0.273 OA
HETATM   14  H   UNL     1      -3.507   1.600 -32.844  1.00  0.00     0.169 HD
BRANCH  12  15
HETATM   15  C   UNL     1      -5.658   0.749 -31.931  1.00  0.00     0.103 C 
BRANCH  15  16
HETATM   16  C   UNL     1      -5.002  -0.045 -33.064  1.00  0.00     0.018 C 
BRANCH  16  17
HETATM   17  C   UNL     1      -6.015  -0.673 -34.046  1.00  0.00     0.015 C 
HETATM   18  C   UNL     1      -7.450  -0.429 -33.562  1.00  0.00     0.015 C 
BRANCH  17  19
HETATM   19  C   UNL     1      -5.774  -2.158 -34.268  1.00  0.00    -0.054 A 
HETATM   20  C   UNL     1      -6.799  -3.012 -34.705  1.00  0.00     0.007 A 
HETATM   21  C   UNL     1      -6.559  -4.374 -34.895  1.00  0.00     0.001 A 
HETATM   22  C   UNL     1      -5.292  -4.900 -34.655  1.00  0.00     0.000 A 
HETATM   23  C   UNL     1      -4.263  -4.063 -34.227  1.00  0.00     0.001 A 
HETATM   24  C   UNL     1      -4.501  -2.701 -34.036  1.00  0.00     0.007 A 
ENDBRANCH  17  19
ENDBRANCH  16  17
ENDBRANCH  15  16
ENDBRANCH  12  15
ENDBRANCH   1  11
BRANCH   8  25
HETATM   25  C   UNL     1       0.151   5.198 -29.816  1.00  0.00     0.270 C 
HETATM   26  N   UNL     1      -0.248   5.753 -28.631  1.00  0.00    -0.365 N 
HETATM   27  H   UNL     1      -0.963   6.471 -28.648  1.00  0.00     0.159 HD
HETATM   28  H   UNL     1       0.166   5.444 -27.766  1.00  0.00     0.159 HD
HETATM   29  O   UNL     1       1.011   4.324 -29.857  1.00  0.00    -0.266 OA
ENDBRANCH   8  25
TORSDOF 6
ENDMDL
MODEL 3
REMARK VINA RESULT:      -8.6      4.921      7.384
REMARK  6 active torsions:
REMARK  status: ('A' for Active; 'I' for Inactive)
REMARK    1  A    between atoms: C_2  and  C_3 
REMARK    2  A    between atoms: C_2  and  C_9 
REMARK    3  A    between atoms: C_9  and  C_10 
REMARK    4  A    between atoms: C_10  and  C_11 
REMARK       I    between atoms: C_11  and  N_12 
REMARK    5  A    between atoms: N_12  and  C_13 
REMARK    6  A    between atoms: C_20  and  C_21 
REMARK       I    between atoms: C_21  and  N_22 
ROOT
HETATM    1  C   UNL     1      -9.257   2.400 -31.821  1.00  0.00     0.035 A 
HETATM    2  C   UNL     1     -10.115   2.269 -32.927  1.00  0.00     0.046 A 
HETATM    3  C   UNL     1     -11.323   2.997 -32.968  1.00  0.00     0.030 A 
HETATM    4  C   UNL     1     -11.636   3.832 -31.905  1.00  0.00     0.063 A 
HETATM    5  N   UNL     1     -12.840   4.394 -32.227  1.00  0.00    -0.277 N 
HETATM    6  H   UNL     1     -13.371   5.061 -31.678  1.00  0.00     0.189 HD
HETATM    7  N   UNL     1     -13.341   3.997 -33.409  1.00  0.00    -0.168 NA
HETATM    8  C   UNL     1     -12.414   3.131 -33.878  1.00  0.00     0.156 A 
HETATM    9  C   UNL     1     -10.810   3.986 -30.791  1.00  0.00     0.034 A 
HETATM   10  C   UNL     1      -9.615   3.252 -30.772  1.00  0.00     0.032 A 
ENDROOT
BRANCH   1  11
HETATM   11  N   UNL     1      -8.058   1.654 -31.852  1.00  0.00    -0.327 N 
HETATM   12  C   UNL     1      -6.837   2.046 -32.367  1.00  0.00     0.222 C 
HETATM   13  O   UNL     1      -6.566   3.139 -32.855  1.00  0.00    -0.273 OA
HETATM   14  H   UNL     1      -8.103   0.733 -31.430  1.00  0.00     0.169 HD
BRANCH  12  15
HETATM   15  C   UNL     1      -5.780   0.957 -32.288  1.00  0.00     0.103 C 
BRANCH  15  16
HETATM   16  C   UNL     1      -6.357  -0.413 -32.658  1.00  0.00     0.018 C 
BRANCH  16  17
HETATM   17  C   UNL     1      -6.113  -0.808 -34.131  1.00  0.00     0.015 C 
HETATM   18  C   UNL     1      -7.334  -0.453 -34.988  1.00  0.00     0.015 C 
BRANCH  17  19
HETATM   19  C   UNL     1      -5.760  -2.279 -34.293  1.00  0.00    -0.054 A 
HETATM   20  C   UNL     1      -6.692  -3.210 -34.780  1.00  0.00     0.007 A 
HETATM   21  C   UNL     1      -6.351  -4.556 -34.913  1.00  0.00     0.001 A 
HETATM   22  C   UNL     1      -5.074  -4.991 -34.566  1.00  0.00     0.000 A 
HETATM   23  C   UNL     1      -4.136  -4.078 -34.088  1.00  0.00     0.001 A 
HETATM   24  C   UNL     1      -4.476  -2.730 -33.953  1.00  0.00     0.007 A 
ENDBRANCH  17  19
ENDBRANCH  16  17
ENDBRANCH  15  16
ENDBRANCH  12  15
ENDBRANCH   1  11
BRANCH   8  25
HETATM   25  C   UNL     1     -12.581   2.455 -35.170  1.00  0.00     0.270 C 
HETATM   26  N   UNL     1     -12.009   3.114 -36.223  1.00  0.00    -0.365 N 
HETATM   27  H   UNL     1     -11.528   3.988 -36.045  1.00  0.00     0.159 HD
HETATM   28  H   UNL     1     -12.069   2.727 -37.152  1.00  0.00     0.159 HD
HETATM   29  O   UNL     1     -13.175   1.393 -35.326  1.00  0.00    -0.266 OA
ENDBRANCH   8  25
TORSDOF 6
ENDMDL
MODEL 4
REMARK VINA RESULT:      -8.3      2.288      2.447
REMARK  6 active torsions:
REMARK  status: ('A' for Active; 'I' for Inactive)
REMARK    1  A    between atoms: C_2  and  C_3 
REMARK    2  A    between atoms: C_2  and  C_9 
REMARK    3  A    between atoms: C_9  and  C_10 
REMARK    4  A    between atoms: C_10  and  C_11 
REMARK       I    between atoms: C_11  and  N_12 
REMARK    5  A    between atoms: N_12  and  C_13 
REMARK    6  A    between atoms: C_20  and  C_21 
REMARK       I    between atoms: C_21  and  N_22 
ROOT
HETATM    1  C   UNL     1      -3.499   4.093 -32.679  1.00  0.00     0.035 A 
HETATM    2  C   UNL     1      -3.783   5.303 -32.022  1.00  0.00     0.046 A 
HETATM    3  C   UNL     1      -2.988   6.441 -32.271  1.00  0.00     0.030 A 
HETATM    4  C   UNL     1      -1.933   6.336 -33.167  1.00  0.00     0.063 A 
HETATM    5  N   UNL     1      -1.362   7.577 -33.203  1.00  0.00    -0.277 N 
HETATM    6  H   UNL     1      -0.564   7.868 -33.757  1.00  0.00     0.189 HD
HETATM    7  N   UNL     1      -1.951   8.484 -32.406  1.00  0.00    -0.168 NA
HETATM    8  C   UNL     1      -2.957   7.795 -31.821  1.00  0.00     0.156 A 
HETATM    9  C   UNL     1      -1.620   5.152 -33.836  1.00  0.00     0.034 A 
HETATM   10  C   UNL     1      -2.425   4.034 -33.573  1.00  0.00     0.032 A 
ENDROOT
BRANCH   1  11
HETATM   11  N   UNL     1      -4.345   2.998 -32.394  1.00  0.00    -0.327 N 
HETATM   12  C   UNL     1      -5.462   2.593 -33.100  1.00  0.00     0.222 C 
HETATM   13  O   UNL     1      -5.895   3.093 -34.134  1.00  0.00    -0.273 OA
HETATM   14  H   UNL     1      -4.084   2.441 -31.589  1.00  0.00     0.169 HD
BRANCH  12  15
HETATM   15  C   UNL     1      -6.170   1.407 -32.465  1.00  0.00     0.103 C 
BRANCH  15  16
HETATM   16  C   UNL     1      -5.544   0.080 -32.902  1.00  0.00     0.018 C 
BRANCH  16  17
HETATM   17  C   UNL     1      -6.210  -0.534 -34.154  1.00  0.00     0.015 C 
HETATM   18  C   UNL     1      -7.726  -0.311 -34.116  1.00  0.00     0.015 C 
BRANCH  17  19
HETATM   19  C   UNL     1      -5.894  -2.013 -34.320  1.00  0.00    -0.054 A 
HETATM   20  C   UNL     1      -6.885  -2.941 -34.677  1.00  0.00     0.007 A 
HETATM   21  C   UNL     1      -6.575  -4.295 -34.817  1.00  0.00     0.001 A 
HETATM   22  C   UNL     1      -5.273  -4.739 -34.605  1.00  0.00     0.000 A 
HETATM   23  C   UNL     1      -4.277  -3.829 -34.256  1.00  0.00     0.001 A 
HETATM   24  C   UNL     1      -4.584  -2.474 -34.115  1.00  0.00     0.007 A 
ENDBRANCH  17  19
ENDBRANCH  16  17
ENDBRANCH  15  16
ENDBRANCH  12  15
ENDBRANCH   1  11
BRANCH   8  25
HETATM   25  C   UNL     1      -3.864   8.431 -30.857  1.00  0.00     0.270 C 
HETATM   26  N   UNL     1      -3.490   8.273 -29.551  1.00  0.00    -0.365 N 
HETATM   27  H   UNL     1      -2.647   7.749 -29.348  1.00  0.00     0.159 HD
HETATM   28  H   UNL     1      -4.049   8.676 -28.815  1.00  0.00     0.159 HD
HETATM   29  O   UNL     1      -4.874   9.056 -31.163  1.00  0.00    -0.266 OA
ENDBRANCH   8  25
TORSDOF 6
ENDMDL
MODEL 5
REMARK VINA RESULT:      -8.1      1.874      2.489
REMARK  6 active torsions:
REMARK  status: ('A' for Active; 'I' for Inactive)
REMARK    1  A    between atoms: C_2  and  C_3 
REMARK    2  A    between atoms: C_2  and  C_9 
REMARK    3  A    between atoms: C_9  and  C_10 
REMARK    4  A    between atoms: C_10  and  C_11 
REMARK       I    between atoms: C_11  and  N_12 
REMARK    5  A    between atoms: N_12  and  C_13 
REMARK    6  A    between atoms: C_20  and  C_21 
REMARK       I    between atoms: C_21  and  N_22 
ROOT
HETATM    1  C   UNL     1      -5.941   3.268 -31.521  1.00  0.00     0.035 A 
HETATM    2  C   UNL     1      -4.918   3.740 -32.361  1.00  0.00     0.046 A 
HETATM    3  C   UNL     1      -4.480   5.076 -32.251  1.00  0.00     0.030 A 
HETATM    4  C   UNL     1      -5.077   5.900 -31.305  1.00  0.00     0.063 A 
HETATM    5  N   UNL     1      -4.452   7.109 -31.429  1.00  0.00    -0.277 N 
HETATM    6  H   UNL     1      -4.632   7.950 -30.892  1.00  0.00     0.189 HD
HETATM    7  N   UNL     1      -3.499   7.148 -32.376  1.00  0.00    -0.168 NA
HETATM    8  C   UNL     1      -3.506   5.898 -32.893  1.00  0.00     0.156 A 
HETATM    9  C   UNL     1      -6.095   5.466 -30.456  1.00  0.00     0.034 A 
HETATM   10  C   UNL     1      -6.514   4.134 -30.585  1.00  0.00     0.032 A 
ENDROOT
BRANCH   1  11
HETATM   11  N   UNL     1      -6.321   1.916 -31.676  1.00  0.00    -0.327 N 
HETATM   12  C   UNL     1      -5.722   0.805 -31.113  1.00  0.00     0.222 C 
HETATM   13  O   UNL     1      -4.771   0.801 -30.337  1.00  0.00    -0.273 OA
HETATM   14  H   UNL     1      -7.137   1.753 -32.254  1.00  0.00     0.169 HD
BRANCH  12  15
HETATM   15  C   UNL     1      -6.360  -0.502 -31.552  1.00  0.00     0.103 C 
BRANCH  15  16
HETATM   16  C   UNL     1      -7.193  -0.321 -32.824  1.00  0.00     0.018 C 
BRANCH  16  17
HETATM   17  C   UNL     1      -6.394  -0.557 -34.125  1.00  0.00     0.015 C 
HETATM   18  C   UNL     1      -7.181  -0.042 -35.336  1.00  0.00     0.015 C 
BRANCH  17  19
HETATM   19  C   UNL     1      -6.011  -2.016 -34.321  1.00  0.00    -0.054 A 
HETATM   20  C   UNL     1      -6.956  -2.979 -34.708  1.00  0.00     0.007 A 
HETATM   21  C   UNL     1      -6.586  -4.314 -34.874  1.00  0.00     0.001 A 
HETATM   22  C   UNL     1      -5.267  -4.705 -34.660  1.00  0.00     0.000 A 
HETATM   23  C   UNL     1      -4.315  -3.759 -34.282  1.00  0.00     0.001 A 
HETATM   24  C   UNL     1      -4.684  -2.423 -34.114  1.00  0.00     0.007 A 
ENDBRANCH  17  19
ENDBRANCH  16  17
ENDBRANCH  15  16
ENDBRANCH  12  15
ENDBRANCH   1  11
BRANCH   8  25
HETATM   25  C   UNL     1      -2.595   5.512 -33.978  1.00  0.00     0.270 C 
HETATM   26  N   UNL     1      -3.151   5.581 -35.226  1.00  0.00    -0.365 N 
HETATM   27  H   UNL     1      -4.114   5.882 -35.312  1.00  0.00     0.159 HD
HETATM   28  H   UNL     1      -2.602   5.337 -36.035  1.00  0.00     0.159 HD
HETATM   29  O   UNL     1      -1.433   5.155 -33.813  1.00  0.00    -0.266 OA
ENDBRANCH   8  25
TORSDOF 6
ENDMDL
MODEL 6
REMARK VINA RESULT:      -7.9      5.353      7.397
REMARK  6 active torsions:
REMARK  status: ('A' for Active; 'I' for Inactive)
REMARK    1  A    between atoms: C_2  and  C_3 
REMARK    2  A    between atoms: C_2  and  C_9 
REMARK    3  A    between atoms: C_9  and  C_10 
REMARK    4  A    between atoms: C_10  and  C_11 
REMARK       I    between atoms: C_11  and  N_12 
REMARK    5  A    between atoms: N_12  and  C_13 
REMARK    6  A    between atoms: C_20  and  C_21 
REMARK       I    between atoms: C_21  and  N_22 
ROOT
HETATM    1  C   UNL     1      -9.966   2.136 -33.289  1.00  0.00     0.035 A 
HETATM    2  C   UNL     1     -10.673   2.890 -32.336  1.00  0.00     0.046 A 
HETATM    3  C   UNL     1     -11.879   3.526 -32.697  1.00  0.00     0.030 A 
HETATM    4  C   UNL     1     -12.341   3.391 -33.999  1.00  0.00     0.063 A 
HETATM    5  N   UNL     1     -13.509   4.100 -34.046  1.00  0.00    -0.277 N 
HETATM    6  H   UNL     1     -14.123   4.218 -34.844  1.00  0.00     0.189 HD
HETATM    7  N   UNL     1     -13.849   4.688 -32.887  1.00  0.00    -0.168 NA
HETATM    8  C   UNL     1     -12.849   4.344 -32.044  1.00  0.00     0.156 A 
HETATM    9  C   UNL     1     -11.666   2.653 -34.972  1.00  0.00     0.034 A 
HETATM   10  C   UNL     1     -10.469   2.030 -34.589  1.00  0.00     0.032 A 
ENDROOT
BRANCH   1  11
HETATM   11  N   UNL     1      -8.774   1.515 -32.855  1.00  0.00    -0.327 N 
HETATM   12  C   UNL     1      -7.492   2.028 -32.907  1.00  0.00     0.222 C 
HETATM   13  O   UNL     1      -7.166   3.143 -33.303  1.00  0.00    -0.273 OA
HETATM   14  H   UNL     1      -8.883   0.595 -32.445  1.00  0.00     0.169 HD
BRANCH  12  15
HETATM   15  C   UNL     1      -6.439   1.051 -32.410  1.00  0.00     0.103 C 
BRANCH  15  16
HETATM   16  C   UNL     1      -6.766  -0.386 -32.825  1.00  0.00     0.018 C 
BRANCH  16  17
HETATM   17  C   UNL     1      -6.234  -0.760 -34.226  1.00  0.00     0.015 C 
HETATM   18  C   UNL     1      -7.278  -0.430 -35.300  1.00  0.00     0.015 C 
BRANCH  17  19
HETATM   19  C   UNL     1      -5.814  -2.219 -34.323  1.00  0.00    -0.054 A 
HETATM   20  C   UNL     1      -6.705  -3.213 -34.761  1.00  0.00     0.007 A 
HETATM   21  C   UNL     1      -6.302  -4.547 -34.835  1.00  0.00     0.001 A 
HETATM   22  C   UNL     1      -5.006  -4.906 -34.477  1.00  0.00     0.000 A 
HETATM   23  C   UNL     1      -4.109  -3.930 -34.047  1.00  0.00     0.001 A 
HETATM   24  C   UNL     1      -4.509  -2.595 -33.971  1.00  0.00     0.007 A 
ENDBRANCH  17  19
ENDBRANCH  16  17
ENDBRANCH  15  16
ENDBRANCH  12  15
ENDBRANCH   1  11
BRANCH   8  25
HETATM   25  C   UNL     1     -12.835   4.792 -30.646  1.00  0.00     0.270 C 
HETATM   26  N   UNL     1     -12.674   3.783 -29.737  1.00  0.00    -0.365 N 
HETATM   27  H   UNL     1     -12.579   2.834 -30.078  1.00  0.00     0.159 HD
HETATM   28  H   UNL     1     -12.650   3.992 -28.751  1.00  0.00     0.159 HD
HETATM   29  O   UNL     1     -12.955   5.960 -30.291  1.00  0.00    -0.266 OA
ENDBRANCH   8  25
TORSDOF 6
ENDMDL
MODEL 7
REMARK VINA RESULT:      -7.9      3.772      7.229
REMARK  6 active torsions:
REMARK  status: ('A' for Active; 'I' for Inactive)
REMARK    1  A    between atoms: C_2  and  C_3 
REMARK    2  A    between atoms: C_2  and  C_9 
REMARK    3  A    between atoms: C_9  and  C_10 
REMARK    4  A    between atoms: C_10  and  C_11 
REMARK       I    between atoms: C_11  and  N_12 
REMARK    5  A    between atoms: N_12  and  C_13 
REMARK    6  A    between atoms: C_20  and  C_21 
REMARK       I    between atoms: C_21  and  N_22 
ROOT
HETATM    1  C   UNL     1      -6.800   0.168 -33.021  1.00  0.00     0.035 A 
HETATM    2  C   UNL     1      -5.690  -0.549 -32.542  1.00  0.00     0.046 A 
HETATM    3  C   UNL     1      -5.172  -1.626 -33.292  1.00  0.00     0.030 A 
HETATM    4  C   UNL     1      -5.780  -1.955 -34.496  1.00  0.00     0.063 A 
HETATM    5  N   UNL     1      -5.069  -3.014 -34.985  1.00  0.00    -0.277 N 
HETATM    6  H   UNL     1      -5.231  -3.513 -35.852  1.00  0.00     0.189 HD
HETATM    7  N   UNL     1      -4.050  -3.408 -34.203  1.00  0.00    -0.168 NA
HETATM    8  C   UNL     1      -4.103  -2.559 -33.151  1.00  0.00     0.156 A 
HETATM    9  C   UNL     1      -6.885  -1.267 -35.001  1.00  0.00     0.034 A 
HETATM   10  C   UNL     1      -7.381  -0.200 -34.238  1.00  0.00     0.032 A 
ENDROOT
BRANCH   1  11
HETATM   11  N   UNL     1      -7.256   1.243 -32.226  1.00  0.00    -0.327 N 
HETATM   12  C   UNL     1      -8.467   1.347 -31.569  1.00  0.00     0.222 C 
HETATM   13  O   UNL     1      -9.350   0.496 -31.523  1.00  0.00    -0.273 OA
HETATM   14  H   UNL     1      -6.608   2.015 -32.118  1.00  0.00     0.169 HD
BRANCH  12  15
HETATM   15  C   UNL     1      -8.647   2.679 -30.860  1.00  0.00     0.103 C 
BRANCH  15  16
HETATM   16  C   UNL     1      -7.426   3.030 -30.005  1.00  0.00     0.018 C 
BRANCH  16  17
HETATM   17  C   UNL     1      -6.682   4.297 -30.481  1.00  0.00     0.015 C 
HETATM   18  C   UNL     1      -7.594   5.149 -31.372  1.00  0.00     0.015 C 
BRANCH  17  19
HETATM   19  C   UNL     1      -5.382   3.976 -31.203  1.00  0.00    -0.054 A 
HETATM   20  C   UNL     1      -4.563   2.908 -30.803  1.00  0.00     0.007 A 
HETATM   21  C   UNL     1      -3.370   2.635 -31.474  1.00  0.00     0.001 A 
HETATM   22  C   UNL     1      -2.981   3.422 -32.555  1.00  0.00     0.000 A 
HETATM   23  C   UNL     1      -3.786   4.482 -32.968  1.00  0.00     0.001 A 
HETATM   24  C   UNL     1      -4.980   4.757 -32.298  1.00  0.00     0.007 A 
ENDBRANCH  17  19
ENDBRANCH  16  17
ENDBRANCH  15  16
ENDBRANCH  12  15
ENDBRANCH   1  11
BRANCH   8  25
HETATM   25  C   UNL     1      -3.143  -2.650 -32.044  1.00  0.00     0.270 C 
HETATM   26  N   UNL     1      -2.555  -1.459 -31.715  1.00  0.00    -0.365 N 
HETATM   27  H   UNL     1      -2.814  -0.630 -32.237  1.00  0.00     0.159 HD
HETATM   28  H   UNL     1      -1.883  -1.420 -30.965  1.00  0.00     0.159 HD
HETATM   29  O   UNL     1      -2.869  -3.685 -31.446  1.00  0.00    -0.266 OA
ENDBRANCH   8  25
TORSDOF 6
ENDMDL
MODEL 8
REMARK VINA RESULT:      -7.8      3.153      7.430
REMARK  6 active torsions:
REMARK  status: ('A' for Active; 'I' for Inactive)
REMARK    1  A    between atoms: C_2  and  C_3 
REMARK    2  A    between atoms: C_2  and  C_9 
REMARK    3  A    between atoms: C_9  and  C_10 
REMARK    4  A    between atoms: C_10  and  C_11 
REMARK       I    between atoms: C_11  and  N_12 
REMARK    5  A    between atoms: N_12  and  C_13 
REMARK    6  A    between atoms: C_20  and  C_21 
REMARK       I    between atoms: C_21  and  N_22 
ROOT
HETATM    1  C   UNL     1      -6.166   0.932 -33.432  1.00  0.00     0.035 A 
HETATM    2  C   UNL     1      -5.151   0.136 -32.875  1.00  0.00     0.046 A 
HETATM    3  C   UNL     1      -4.930  -1.167 -33.368  1.00  0.00     0.030 A 
HETATM    4  C   UNL     1      -5.730  -1.635 -34.401  1.00  0.00     0.063 A 
HETATM    5  N   UNL     1      -5.284  -2.901 -34.661  1.00  0.00    -0.277 N 
HETATM    6  H   UNL     1      -5.638  -3.543 -35.362  1.00  0.00     0.189 HD
HETATM    7  N   UNL     1      -4.263  -3.301 -33.885  1.00  0.00    -0.168 NA
HETATM    8  C   UNL     1      -4.034  -2.240 -33.079  1.00  0.00     0.156 A 
HETATM    9  C   UNL     1      -6.748  -0.875 -34.978  1.00  0.00     0.034 A 
HETATM   10  C   UNL     1      -6.948   0.418 -34.471  1.00  0.00     0.032 A 
ENDROOT
BRANCH   1  11
HETATM   11  N   UNL     1      -6.323   2.232 -32.901  1.00  0.00    -0.327 N 
HETATM   12  C   UNL     1      -7.107   2.611 -31.828  1.00  0.00     0.222 C 
HETATM   13  O   UNL     1      -7.778   1.872 -31.115  1.00  0.00    -0.273 OA
HETATM   14  H   UNL     1      -5.781   2.959 -33.354  1.00  0.00     0.169 HD
BRANCH  12  15
HETATM   15  C   UNL     1      -7.085   4.110 -31.576  1.00  0.00     0.103 C 
BRANCH  15  16
HETATM   16  C   UNL     1      -5.716   4.574 -31.071  1.00  0.00     0.018 C 
BRANCH  16  17
HETATM   17  C   UNL     1      -5.183   5.831 -31.795  1.00  0.00     0.015 C 
HETATM   18  C   UNL     1      -6.325   6.554 -32.519  1.00  0.00     0.015 C 
BRANCH  17  19
HETATM   19  C   UNL     1      -4.055   5.515 -32.765  1.00  0.00    -0.054 A 
HETATM   20  C   UNL     1      -4.248   5.552 -34.155  1.00  0.00     0.007 A 
HETATM   21  C   UNL     1      -3.201   5.251 -35.027  1.00  0.00     0.001 A 
HETATM   22  C   UNL     1      -1.948   4.911 -34.524  1.00  0.00     0.000 A 
HETATM   23  C   UNL     1      -1.739   4.877 -33.147  1.00  0.00     0.001 A 
HETATM   24  C   UNL     1      -2.785   5.177 -32.272  1.00  0.00     0.007 A 
ENDBRANCH  17  19
ENDBRANCH  16  17
ENDBRANCH  15  16
ENDBRANCH  12  15
ENDBRANCH   1  11
BRANCH   8  25
HETATM   25  C   UNL     1      -2.977  -2.264 -32.060  1.00  0.00     0.270 C 
HETATM   26  N   UNL     1      -2.804  -3.484 -31.465  1.00  0.00    -0.365 N 
HETATM   27  H   UNL     1      -3.393  -4.254 -31.757  1.00  0.00     0.159 HD
HETATM   28  H   UNL     1      -2.099  -3.600 -30.753  1.00  0.00     0.159 HD
HETATM   29  O   UNL     1      -2.292  -1.296 -31.748  1.00  0.00    -0.266 OA
ENDBRANCH   8  25
TORSDOF 6
ENDMDL
MODEL 9
REMARK VINA RESULT:      -7.8      4.177      7.252
REMARK  6 active torsions:
REMARK  status: ('A' for Active; 'I' for Inactive)
REMARK    1  A    between atoms: C_2  and  C_3 
REMARK    2  A    between atoms: C_2  and  C_9 
REMARK    3  A    between atoms: C_9  and  C_10 
REMARK    4  A    between atoms: C_10  and  C_11 
REMARK       I    between atoms: C_11  and  N_12 
REMARK    5  A    between atoms: N_12  and  C_13 
REMARK    6  A    between atoms: C_20  and  C_21 
REMARK       I    between atoms: C_21  and  N_22 
ROOT
HETATM    1  C   UNL     1      -6.766   0.584 -33.481  1.00  0.00     0.035 A 
HETATM    2  C   UNL     1      -5.641  -0.029 -32.903  1.00  0.00     0.046 A 
HETATM    3  C   UNL     1      -5.175  -1.261 -33.409  1.00  0.00     0.030 A 
HETATM    4  C   UNL     1      -5.848  -1.843 -34.475  1.00  0.00     0.063 A 
HETATM    5  N   UNL     1      -5.175  -3.003 -34.739  1.00  0.00    -0.277 N 
HETATM    6  H   UNL     1      -5.387  -3.684 -35.460  1.00  0.00     0.189 HD
HETATM    7  N   UNL     1      -4.121  -3.230 -33.937  1.00  0.00    -0.168 NA
HETATM    8  C   UNL     1      -4.110  -2.162 -33.108  1.00  0.00     0.156 A 
HETATM    9  C   UNL     1      -6.969  -1.266 -35.072  1.00  0.00     0.034 A 
HETATM   10  C   UNL     1      -7.413  -0.041 -34.552  1.00  0.00     0.032 A 
ENDROOT
BRANCH   1  11
HETATM   11  N   UNL     1      -7.169   1.822 -32.935  1.00  0.00    -0.327 N 
HETATM   12  C   UNL     1      -6.753   3.084 -33.317  1.00  0.00     0.222 C 
HETATM   13  O   UNL     1      -5.985   3.354 -34.234  1.00  0.00    -0.273 OA
HETATM   14  H   UNL     1      -7.855   1.771 -32.191  1.00  0.00     0.169 HD
BRANCH  12  15
HETATM   15  C   UNL     1      -7.348   4.191 -32.461  1.00  0.00     0.103 C 
BRANCH  15  16
HETATM   16  C   UNL     1      -8.863   4.297 -32.655  1.00  0.00     0.018 C 
BRANCH  16  17
HETATM   17  C   UNL     1      -9.284   4.519 -34.125  1.00  0.00     0.015 C 
HETATM   18  C   UNL     1      -9.722   5.972 -34.342  1.00  0.00     0.015 C 
BRANCH  17  19
HETATM   19  C   UNL     1     -10.378   3.561 -34.572  1.00  0.00    -0.054 A 
HETATM   20  C   UNL     1     -11.344   3.939 -35.518  1.00  0.00     0.007 A 
HETATM   21  C   UNL     1     -12.345   3.048 -35.909  1.00  0.00     0.001 A 
HETATM   22  C   UNL     1     -12.391   1.768 -35.364  1.00  0.00     0.000 A 
HETATM   23  C   UNL     1     -11.435   1.375 -34.430  1.00  0.00     0.001 A 
HETATM   24  C   UNL     1     -10.434   2.265 -34.036  1.00  0.00     0.007 A 
ENDBRANCH  17  19
ENDBRANCH  16  17
ENDBRANCH  15  16
ENDBRANCH  12  15
ENDBRANCH   1  11
BRANCH   8  25
HETATM   25  C   UNL     1      -3.096  -2.018 -32.056  1.00  0.00     0.270 C 
HETATM   26  N   UNL     1      -2.718  -3.199 -31.479  1.00  0.00    -0.365 N 
HETATM   27  H   UNL     1      -3.147  -4.057 -31.804  1.00  0.00     0.159 HD
HETATM   28  H   UNL     1      -2.025  -3.202 -30.747  1.00  0.00     0.159 HD
HETATM   29  O   UNL     1      -2.610  -0.948 -31.703  1.00  0.00    -0.266 OA
ENDBRANCH   8  25
TORSDOF 6
ENDMDL
MODEL 10
REMARK VINA RESULT:      -7.7      5.377      7.601
REMARK  6 active torsions:
REMARK  status: ('A' for Active; 'I' for Inactive)
REMARK    1  A    between atoms: C_2  and  C_3 
REMARK    2  A    between atoms: C_2  and  C_9 
REMARK    3  A    between atoms: C_9  and  C_10 
REMARK    4  A    between atoms: C_10  and  C_11 
REMARK       I    between atoms: C_11  and  N_12 
REMARK    5  A    between atoms: N_12  and  C_13 
REMARK    6  A    between atoms: C_20  and  C_21 
REMARK       I    between atoms: C_21  and  N_22 
ROOT
HETATM    1  C   UNL     1      -9.364   2.847 -32.885  1.00  0.00     0.035 A 
HETATM    2  C   UNL     1     -10.767   2.901 -32.816  1.00  0.00     0.046 A 
HETATM    3  C   UNL     1     -11.392   3.721 -31.854  1.00  0.00     0.030 A 
HETATM    4  C   UNL     1     -10.597   4.461 -30.989  1.00  0.00     0.063 A 
HETATM    5  N   UNL     1     -11.468   5.147 -30.190  1.00  0.00    -0.277 N 
HETATM    6  H   UNL     1     -11.237   5.791 -29.443  1.00  0.00     0.189 HD
HETATM    7  N   UNL     1     -12.765   4.916 -30.457  1.00  0.00    -0.168 NA
HETATM    8  C   UNL     1     -12.733   4.035 -31.482  1.00  0.00     0.156 A 
HETATM    9  C   UNL     1      -9.202   4.432 -31.027  1.00  0.00     0.034 A 
HETATM   10  C   UNL     1      -8.604   3.609 -31.993  1.00  0.00     0.032 A 
ENDROOT
BRANCH   1  11
HETATM   11  N   UNL     1      -8.805   2.017 -33.882  1.00  0.00    -0.327 N 
HETATM   12  C   UNL     1      -8.882   0.640 -33.969  1.00  0.00     0.222 C 
HETATM   13  O   UNL     1      -9.491  -0.108 -33.210  1.00  0.00    -0.273 OA
HETATM   14  H   UNL     1      -8.307   2.496 -34.624  1.00  0.00     0.169 HD
BRANCH  12  15
HETATM   15  C   UNL     1      -8.103   0.073 -35.144  1.00  0.00     0.103 C 
BRANCH  15  16
HETATM   16  C   UNL     1      -6.592   0.146 -34.904  1.00  0.00     0.018 C 
BRANCH  16  17
HETATM   17  C   UNL     1      -6.116  -0.701 -33.703  1.00  0.00     0.015 C 
HETATM   18  C   UNL     1      -4.899  -0.047 -33.038  1.00  0.00     0.015 C 
BRANCH  17  19
HETATM   19  C   UNL     1      -5.803  -2.139 -34.088  1.00  0.00    -0.054 A 
HETATM   20  C   UNL     1      -4.507  -2.667 -33.969  1.00  0.00     0.007 A 
HETATM   21  C   UNL     1      -4.240  -3.987 -34.334  1.00  0.00     0.001 A 
HETATM   22  C   UNL     1      -5.262  -4.798 -34.820  1.00  0.00     0.000 A 
HETATM   23  C   UNL     1      -6.555  -4.291 -34.937  1.00  0.00     0.001 A 
HETATM   24  C   UNL     1      -6.825  -2.970 -34.573  1.00  0.00     0.007 A 
ENDBRANCH  17  19
ENDBRANCH  16  17
ENDBRANCH  15  16
ENDBRANCH  12  15
ENDBRANCH   1  11
BRANCH   8  25
HETATM   25  C   UNL     1     -13.966   3.514 -32.085  1.00  0.00     0.270 C 
HETATM   26  N   UNL     1     -14.381   4.204 -33.191  1.00  0.00    -0.365 N 
HETATM   27  H   UNL     1     -13.830   4.994 -33.505  1.00  0.00     0.159 HD
HETATM   28  H   UNL     1     -15.218   3.920 -33.676  1.00  0.00     0.159 HD
HETATM   29  O   UNL     1     -14.593   2.549 -31.660  1.00  0.00    -0.266 OA
ENDBRANCH   8  25
TORSDOF 6
ENDMDL
