MODEL 1
REMARK VINA RESULT:      -9.3      0.000      0.000
REMARK  5 active torsions:
REMARK  status: ('A' for Active; 'I' for Inactive)
REMARK    1  A    between atoms: C_9  and  C_10 
REMARK       I    between atoms: C_10  and  N_11 
REMARK    2  A    between atoms: N_11  and  C_12 
REMARK    3  A    between atoms: C_12  and  C_13 
REMARK    4  A    between atoms: C_16  and  N_17 
REMARK       I    between atoms: N_17  and  C_18 
REMARK       I    between atoms: C_18  and  N_19 
REMARK    5  A    between atoms: N_19  and  C_20 
ROOT
HETATM    1  C   UNL     1      -6.755   1.591 -30.965  1.00  0.00     0.161 C 
ENDROOT
BRANCH   1   2
HETATM    2  N   UNL     1      -5.895   0.462 -31.191  1.00  0.00    -0.351 N 
HETATM    3  C   UNL     1      -4.973   0.411 -32.208  1.00  0.00     0.273 C 
HETATM    4  O   UNL     1      -4.795   1.327 -33.004  1.00  0.00    -0.266 OA
HETATM    5  H   UNL     1      -5.939  -0.358 -30.593  1.00  0.00     0.163 HD
BRANCH   3   6
HETATM    6  C   UNL     1      -4.232  -0.862 -32.240  1.00  0.00     0.157 A 
HETATM    7  C   UNL     1      -4.528  -2.023 -33.014  1.00  0.00     0.029 A 
HETATM    8  C   UNL     1      -5.510  -2.397 -33.951  1.00  0.00     0.023 A 
HETATM    9  C   UNL     1      -3.541  -2.941 -32.676  1.00  0.00     0.063 A 
HETATM   10  C   UNL     1      -5.472  -3.683 -34.517  1.00  0.00    -0.061 A 
HETATM   11  C   UNL     1      -6.505  -4.103 -35.523  1.00  0.00     0.048 C 
HETATM   12  C   UNL     1      -4.458  -4.577 -34.149  1.00  0.00     0.009 A 
HETATM   13  C   UNL     1      -3.473  -4.226 -33.221  1.00  0.00     0.032 A 
HETATM   14  N   UNL     1      -2.749  -2.302 -31.765  1.00  0.00    -0.277 N 
HETATM   15  H   UNL     1      -1.928  -2.673 -31.300  1.00  0.00     0.189 HD
HETATM   16  N   UNL     1      -3.132  -1.048 -31.476  1.00  0.00    -0.168 NA
ENDBRANCH   3   6
ENDBRANCH   1   2
BRANCH   1  17
HETATM   17  C   UNL     1      -7.884   1.586 -31.960  1.00  0.00    -0.040 A 
HETATM   18  C   UNL     1      -8.665   0.440 -32.155  1.00  0.00     0.011 A 
HETATM   19  C   UNL     1      -9.651   0.410 -33.148  1.00  0.00     0.030 A 
HETATM   20  C   UNL     1      -9.854   1.513 -33.981  1.00  0.00     0.036 A 
HETATM   21  C   UNL     1      -9.109   2.675 -33.752  1.00  0.00     0.030 A 
HETATM   22  C   UNL     1      -8.124   2.709 -32.761  1.00  0.00     0.011 A 
BRANCH  20  23
HETATM   23  N   UNL     1     -10.786   1.553 -35.033  1.00  0.00    -0.309 N 
HETATM   24  C   UNL     1     -12.130   1.785 -35.073  1.00  0.00     0.321 C 
HETATM   25  N   UNL     1     -12.802   1.751 -33.890  1.00  0.00    -0.339 N 
HETATM   26  O   UNL     1     -12.670   1.945 -36.164  1.00  0.00    -0.247 OA
HETATM   27  H   UNL     1     -12.367   1.148 -33.207  1.00  0.00     0.164 HD
HETATM   28  H   UNL     1     -10.426   1.379 -35.963  1.00  0.00     0.170 HD
BRANCH  25  29
HETATM   29  C   UNL     1     -14.250   1.872 -33.769  1.00  0.00     0.078 C 
HETATM   30  C   UNL     1     -15.001   0.626 -34.236  1.00  0.00     0.032 C 
HETATM   31  C   UNL     1     -14.668   2.285 -32.360  1.00  0.00     0.032 C 
ENDBRANCH  25  29
ENDBRANCH  20  23
ENDBRANCH   1  17
TORSDOF 5
ENDMDL
MODEL 2
REMARK VINA RESULT:      -8.5      4.602      7.637
REMARK  5 active torsions:
REMARK  status: ('A' for Active; 'I' for Inactive)
REMARK    1  A    between atoms: C_9  and  C_10 
REMARK       I    between atoms: C_10  and  N_11 
REMARK    2  A    between atoms: N_11  and  C_12 
REMARK    3  A    between atoms: C_12  and  C_13 
REMARK    4  A    between atoms: C_16  and  N_17 
REMARK       I    between atoms: N_17  and  C_18 
REMARK       I    between atoms: C_18  and  N_19 
REMARK    5  A    between atoms: N_19  and  C_20 
ROOT
HETATM    1  C   UNL     1      -6.532   2.553 -32.630  1.00  0.00     0.161 C 
ENDROOT
BRANCH   1   2
HETATM    2  N   UNL     1      -5.733   1.363 -32.539  1.00  0.00    -0.351 N 
HETATM    3  C   UNL     1      -5.668   0.422 -33.539  1.00  0.00     0.273 C 
HETATM    4  O   UNL     1      -6.276   0.523 -34.600  1.00  0.00    -0.266 OA
HETATM    5  H   UNL     1      -5.175   1.168 -31.712  1.00  0.00     0.163 HD
BRANCH   3   6
HETATM    6  C   UNL     1      -4.798  -0.715 -33.194  1.00  0.00     0.157 A 
HETATM    7  C   UNL     1      -4.887  -2.057 -33.670  1.00  0.00     0.029 A 
HETATM    8  C   UNL     1      -5.721  -2.768 -34.554  1.00  0.00     0.023 A 
HETATM    9  C   UNL     1      -3.849  -2.732 -33.038  1.00  0.00     0.063 A 
HETATM   10  C   UNL     1      -5.489  -4.137 -34.773  1.00  0.00    -0.061 A 
HETATM   11  C   UNL     1      -6.361  -4.915 -35.716  1.00  0.00     0.048 C 
HETATM   12  C   UNL     1      -4.431  -4.779 -34.117  1.00  0.00     0.009 A 
HETATM   13  C   UNL     1      -3.590  -4.091 -33.236  1.00  0.00     0.032 A 
HETATM   14  N   UNL     1      -3.229  -1.796 -32.260  1.00  0.00    -0.277 N 
HETATM   15  H   UNL     1      -2.427  -1.936 -31.657  1.00  0.00     0.189 HD
HETATM   16  N   UNL     1      -3.770  -0.568 -32.327  1.00  0.00    -0.168 NA
ENDBRANCH   3   6
ENDBRANCH   1   2
BRANCH   1  17
HETATM   17  C   UNL     1      -5.662   3.771 -32.473  1.00  0.00    -0.040 A 
HETATM   18  C   UNL     1      -5.697   4.534 -31.301  1.00  0.00     0.011 A 
HETATM   19  C   UNL     1      -4.957   5.718 -31.198  1.00  0.00     0.030 A 
HETATM   20  C   UNL     1      -4.192   6.173 -32.274  1.00  0.00     0.036 A 
HETATM   21  C   UNL     1      -4.116   5.383 -33.427  1.00  0.00     0.030 A 
HETATM   22  C   UNL     1      -4.853   4.200 -33.533  1.00  0.00     0.011 A 
BRANCH  20  23
HETATM   23  N   UNL     1      -3.458   7.372 -32.277  1.00  0.00    -0.309 N 
HETATM   24  C   UNL     1      -2.154   7.662 -32.000  1.00  0.00     0.321 C 
HETATM   25  N   UNL     1      -1.422   6.699 -31.376  1.00  0.00    -0.339 N 
HETATM   26  O   UNL     1      -1.728   8.783 -32.263  1.00  0.00    -0.247 OA
HETATM   27  H   UNL     1      -1.984   6.086 -30.803  1.00  0.00     0.164 HD
HETATM   28  H   UNL     1      -3.964   8.212 -32.528  1.00  0.00     0.170 HD
BRANCH  25  29
HETATM   29  C   UNL     1      -0.051   6.884 -30.915  1.00  0.00     0.078 C 
HETATM   30  C   UNL     1       0.042   7.597 -29.567  1.00  0.00     0.032 C 
HETATM   31  C   UNL     1       0.727   5.571 -30.911  1.00  0.00     0.032 C 
ENDBRANCH  25  29
ENDBRANCH  20  23
ENDBRANCH   1  17
TORSDOF 5
ENDMDL
MODEL 3
REMARK VINA RESULT:      -8.4      4.242      6.286
REMARK  5 active torsions:
REMARK  status: ('A' for Active; 'I' for Inactive)
REMARK    1  A    between atoms: C_9  and  C_10 
REMARK       I    between atoms: C_10  and  N_11 
REMARK    2  A    between atoms: N_11  and  C_12 
REMARK    3  A    between atoms: C_12  and  C_13 
REMARK    4  A    between atoms: C_16  and  N_17 
REMARK       I    between atoms: N_17  and  C_18 
REMARK       I    between atoms: C_18  and  N_19 
REMARK    5  A    between atoms: N_19  and  C_20 
ROOT
HETATM    1  C   UNL     1      -5.090   0.644 -32.193  1.00  0.00     0.161 C 
ENDROOT
BRANCH   1   2
HETATM    2  N   UNL     1      -4.726   1.936 -32.707  1.00  0.00    -0.351 N 
HETATM    3  C   UNL     1      -3.661   2.662 -32.231  1.00  0.00     0.273 C 
HETATM    4  O   UNL     1      -2.922   2.266 -31.335  1.00  0.00    -0.266 OA
HETATM    5  H   UNL     1      -5.256   2.369 -33.458  1.00  0.00     0.163 HD
BRANCH   3   6
HETATM    6  C   UNL     1      -3.512   3.962 -32.907  1.00  0.00     0.157 A 
HETATM    7  C   UNL     1      -2.507   4.949 -32.686  1.00  0.00     0.029 A 
HETATM    8  C   UNL     1      -1.381   5.084 -31.850  1.00  0.00     0.023 A 
HETATM    9  C   UNL     1      -2.818   5.982 -33.562  1.00  0.00     0.063 A 
HETATM   10  C   UNL     1      -0.605   6.254 -31.918  1.00  0.00    -0.061 A 
HETATM   11  C   UNL     1       0.603   6.419 -31.042  1.00  0.00     0.048 C 
HETATM   12  C   UNL     1      -0.954   7.271 -32.817  1.00  0.00     0.009 A 
HETATM   13  C   UNL     1      -2.067   7.157 -33.656  1.00  0.00     0.032 A 
HETATM   14  N   UNL     1      -3.938   5.569 -34.225  1.00  0.00    -0.277 N 
HETATM   15  H   UNL     1      -4.446   6.073 -34.943  1.00  0.00     0.189 HD
HETATM   16  N   UNL     1      -4.387   4.356 -33.860  1.00  0.00    -0.168 NA
ENDBRANCH   3   6
ENDBRANCH   1   2
BRANCH   1  17
HETATM   17  C   UNL     1      -6.561   0.404 -32.398  1.00  0.00    -0.040 A 
HETATM   18  C   UNL     1      -7.053  -0.029 -33.635  1.00  0.00     0.011 A 
HETATM   19  C   UNL     1      -8.430  -0.159 -33.848  1.00  0.00     0.030 A 
HETATM   20  C   UNL     1      -9.339   0.169 -32.840  1.00  0.00     0.036 A 
HETATM   21  C   UNL     1      -8.846   0.553 -31.588  1.00  0.00     0.030 A 
HETATM   22  C   UNL     1      -7.471   0.682 -31.371  1.00  0.00     0.011 A 
BRANCH  20  23
HETATM   23  N   UNL     1     -10.737   0.116 -32.982  1.00  0.00    -0.309 N 
HETATM   24  C   UNL     1     -11.644   0.958 -33.556  1.00  0.00     0.321 C 
HETATM   25  N   UNL     1     -11.216   2.213 -33.866  1.00  0.00    -0.339 N 
HETATM   26  O   UNL     1     -12.800   0.573 -33.702  1.00  0.00    -0.247 OA
HETATM   27  H   UNL     1     -10.468   2.533 -33.269  1.00  0.00     0.164 HD
HETATM   28  H   UNL     1     -11.201  -0.695 -32.591  1.00  0.00     0.170 HD
BRANCH  25  29
HETATM   29  C   UNL     1     -12.082   3.267 -34.385  1.00  0.00     0.078 C 
HETATM   30  C   UNL     1     -11.657   4.667 -33.947  1.00  0.00     0.032 C 
HETATM   31  C   UNL     1     -12.239   3.175 -35.900  1.00  0.00     0.032 C 
ENDBRANCH  25  29
ENDBRANCH  20  23
ENDBRANCH   1  17
TORSDOF 5
ENDMDL
MODEL 4
REMARK VINA RESULT:      -8.3      5.123      9.134
REMARK  5 active torsions:
REMARK  status: ('A' for Active; 'I' for Inactive)
REMARK    1  A    between atoms: C_9  and  C_10 
REMARK       I    between atoms: C_10  and  N_11 
REMARK    2  A    between atoms: N_11  and  C_12 
REMARK    3  A    between atoms: C_12  and  C_13 
REMARK    4  A    between atoms: C_16  and  N_17 
REMARK       I    between atoms: N_17  and  C_18 
REMARK       I    between atoms: C_18  and  N_19 
REMARK    5  A    between atoms: N_19  and  C_20 
ROOT
HETATM    1  C   UNL     1      -6.112   5.635 -32.962  1.00  0.00     0.161 C 
ENDROOT
BRANCH   1   2
HETATM    2  N   UNL     1      -6.596   4.393 -33.499  1.00  0.00    -0.351 N 
HETATM    3  C   UNL     1      -7.623   3.678 -32.931  1.00  0.00     0.273 C 
HETATM    4  O   UNL     1      -8.223   4.042 -31.925  1.00  0.00    -0.266 OA
HETATM    5  H   UNL     1      -6.187   3.989 -34.337  1.00  0.00     0.163 HD
BRANCH   3   6
HETATM    6  C   UNL     1      -7.915   2.430 -33.657  1.00  0.00     0.157 A 
HETATM    7  C   UNL     1      -7.084   1.277 -33.780  1.00  0.00     0.029 A 
HETATM    8  C   UNL     1      -5.811   0.889 -33.321  1.00  0.00     0.023 A 
HETATM    9  C   UNL     1      -7.811   0.391 -34.566  1.00  0.00     0.063 A 
HETATM   10  C   UNL     1      -5.306  -0.375 -33.668  1.00  0.00    -0.061 A 
HETATM   11  C   UNL     1      -3.954  -0.815 -33.185  1.00  0.00     0.048 C 
HETATM   12  C   UNL     1      -6.073  -1.239 -34.461  1.00  0.00     0.009 A 
HETATM   13  C   UNL     1      -7.341  -0.873 -34.927  1.00  0.00     0.032 A 
HETATM   14  N   UNL     1      -8.981   1.037 -34.850  1.00  0.00    -0.277 N 
HETATM   15  H   UNL     1      -9.754   0.687 -35.405  1.00  0.00     0.189 HD
HETATM   16  N   UNL     1      -9.083   2.267 -34.320  1.00  0.00    -0.168 NA
ENDBRANCH   3   6
ENDBRANCH   1   2
BRANCH   1  17
HETATM   17  C   UNL     1      -4.709   5.461 -32.448  1.00  0.00    -0.040 A 
HETATM   18  C   UNL     1      -3.825   6.545 -32.388  1.00  0.00     0.011 A 
HETATM   19  C   UNL     1      -2.493   6.358 -31.999  1.00  0.00     0.030 A 
HETATM   20  C   UNL     1      -2.015   5.083 -31.690  1.00  0.00     0.036 A 
HETATM   21  C   UNL     1      -2.911   4.009 -31.700  1.00  0.00     0.030 A 
HETATM   22  C   UNL     1      -4.242   4.191 -32.087  1.00  0.00     0.011 A 
BRANCH  20  23
HETATM   23  N   UNL     1      -0.685   4.797 -31.338  1.00  0.00    -0.309 N 
HETATM   24  C   UNL     1       0.051   5.039 -30.215  1.00  0.00     0.321 C 
HETATM   25  N   UNL     1      -0.464   5.921 -29.314  1.00  0.00    -0.339 N 
HETATM   26  O   UNL     1       1.153   4.510 -30.103  1.00  0.00    -0.247 OA
HETATM   27  H   UNL     1      -1.066   6.611 -29.739  1.00  0.00     0.164 HD
HETATM   28  H   UNL     1      -0.126   4.315 -32.033  1.00  0.00     0.170 HD
BRANCH  25  29
HETATM   29  C   UNL     1       0.239   6.371 -28.118  1.00  0.00     0.078 C 
HETATM   30  C   UNL     1       0.865   7.756 -28.271  1.00  0.00     0.032 C 
HETATM   31  C   UNL     1      -0.646   6.287 -26.877  1.00  0.00     0.032 C 
ENDBRANCH  25  29
ENDBRANCH  20  23
ENDBRANCH   1  17
TORSDOF 5
ENDMDL
MODEL 5
REMARK VINA RESULT:      -7.9      3.892      9.072
REMARK  5 active torsions:
REMARK  status: ('A' for Active; 'I' for Inactive)
REMARK    1  A    between atoms: C_9  and  C_10 
REMARK       I    between atoms: C_10  and  N_11 
REMARK    2  A    between atoms: N_11  and  C_12 
REMARK    3  A    between atoms: C_12  and  C_13 
REMARK    4  A    between atoms: C_16  and  N_17 
REMARK       I    between atoms: N_17  and  C_18 
REMARK       I    between atoms: C_18  and  N_19 
REMARK    5  A    between atoms: N_19  and  C_20 
ROOT
HETATM    1  C   UNL     1      -6.255   0.556 -30.222  1.00  0.00     0.161 C 
ENDROOT
BRANCH   1   2
HETATM    2  N   UNL     1      -7.508   0.737 -30.902  1.00  0.00    -0.351 N 
HETATM    3  C   UNL     1      -7.788   0.177 -32.124  1.00  0.00     0.273 C 
HETATM    4  O   UNL     1      -6.999  -0.535 -32.737  1.00  0.00    -0.266 OA
HETATM    5  H   UNL     1      -8.249   1.300 -30.493  1.00  0.00     0.163 HD
BRANCH   3   6
HETATM    6  C   UNL     1      -9.130   0.531 -32.618  1.00  0.00     0.157 A 
HETATM    7  C   UNL     1      -9.562   1.782 -33.149  1.00  0.00     0.029 A 
HETATM    8  C   UNL     1      -8.974   3.037 -33.400  1.00  0.00     0.023 A 
HETATM    9  C   UNL     1     -10.905   1.599 -33.455  1.00  0.00     0.063 A 
HETATM   10  C   UNL     1      -9.754   4.069 -33.948  1.00  0.00    -0.061 A 
HETATM   11  C   UNL     1      -9.148   5.414 -34.231  1.00  0.00     0.048 C 
HETATM   12  C   UNL     1     -11.105   3.841 -34.244  1.00  0.00     0.009 A 
HETATM   13  C   UNL     1     -11.708   2.603 -34.003  1.00  0.00     0.032 A 
HETATM   14  N   UNL     1     -11.183   0.307 -33.108  1.00  0.00    -0.277 N 
HETATM   15  H   UNL     1     -12.071  -0.172 -33.193  1.00  0.00     0.189 HD
HETATM   16  N   UNL     1     -10.139  -0.370 -32.600  1.00  0.00    -0.168 NA
ENDBRANCH   3   6
ENDBRANCH   1   2
BRANCH   1  17
HETATM   17  C   UNL     1      -5.264   1.589 -30.686  1.00  0.00    -0.040 A 
HETATM   18  C   UNL     1      -5.466   2.949 -30.422  1.00  0.00     0.011 A 
HETATM   19  C   UNL     1      -4.591   3.913 -30.937  1.00  0.00     0.030 A 
HETATM   20  C   UNL     1      -3.518   3.537 -31.748  1.00  0.00     0.036 A 
HETATM   21  C   UNL     1      -3.287   2.175 -31.969  1.00  0.00     0.030 A 
HETATM   22  C   UNL     1      -4.157   1.210 -31.455  1.00  0.00     0.011 A 
BRANCH  20  23
HETATM   23  N   UNL     1      -2.621   4.439 -32.347  1.00  0.00    -0.309 N 
HETATM   24  C   UNL     1      -1.476   5.037 -31.908  1.00  0.00     0.321 C 
HETATM   25  N   UNL     1      -1.216   4.977 -30.573  1.00  0.00    -0.339 N 
HETATM   26  O   UNL     1      -0.780   5.647 -32.715  1.00  0.00    -0.247 OA
HETATM   27  H   UNL     1      -2.052   4.909 -30.012  1.00  0.00     0.164 HD
HETATM   28  H   UNL     1      -2.833   4.727 -33.294  1.00  0.00     0.170 HD
BRANCH  25  29
HETATM   29  C   UNL     1      -0.095   5.653 -29.928  1.00  0.00     0.078 C 
HETATM   30  C   UNL     1      -0.519   6.541 -28.760  1.00  0.00     0.032 C 
HETATM   31  C   UNL     1       0.998   4.670 -29.520  1.00  0.00     0.032 C 
ENDBRANCH  25  29
ENDBRANCH  20  23
ENDBRANCH   1  17
TORSDOF 5
ENDMDL
MODEL 6
REMARK VINA RESULT:      -7.9      6.034      8.783
REMARK  5 active torsions:
REMARK  status: ('A' for Active; 'I' for Inactive)
REMARK    1  A    between atoms: C_9  and  C_10 
REMARK       I    between atoms: C_10  and  N_11 
REMARK    2  A    between atoms: N_11  and  C_12 
REMARK    3  A    between atoms: C_12  and  C_13 
REMARK    4  A    between atoms: C_16  and  N_17 
REMARK       I    between atoms: N_17  and  C_18 
REMARK       I    between atoms: C_18  and  N_19 
REMARK    5  A    between atoms: N_19  and  C_20 
ROOT
HETATM    1  C   UNL     1      -3.524   6.262 -32.960  1.00  0.00     0.161 C 
ENDROOT
BRANCH   1   2
HETATM    2  N   UNL     1      -2.585   6.116 -31.882  1.00  0.00    -0.351 N 
HETATM    3  C   UNL     1      -1.319   5.610 -32.051  1.00  0.00     0.273 C 
HETATM    4  O   UNL     1      -0.876   5.251 -33.137  1.00  0.00    -0.266 OA
HETATM    5  H   UNL     1      -2.829   6.387 -30.933  1.00  0.00     0.163 HD
BRANCH   3   6
HETATM    6  C   UNL     1      -0.561   5.541 -30.790  1.00  0.00     0.157 A 
HETATM    7  C   UNL     1      -0.473   6.534 -29.770  1.00  0.00     0.029 A 
HETATM    8  C   UNL     1      -1.002   7.822 -29.557  1.00  0.00     0.023 A 
HETATM    9  C   UNL     1       0.366   5.987 -28.807  1.00  0.00     0.063 A 
HETATM   10  C   UNL     1      -0.669   8.522 -28.385  1.00  0.00    -0.061 A 
HETATM   11  C   UNL     1      -1.226   9.893 -28.132  1.00  0.00     0.048 C 
HETATM   12  C   UNL     1       0.179   7.932 -27.438  1.00  0.00     0.009 A 
HETATM   13  C   UNL     1       0.715   6.654 -27.629  1.00  0.00     0.032 A 
HETATM   14  N   UNL     1       0.711   4.755 -29.285  1.00  0.00    -0.277 N 
HETATM   15  H   UNL     1       1.316   4.074 -28.841  1.00  0.00     0.189 HD
HETATM   16  N   UNL     1       0.173   4.448 -30.476  1.00  0.00    -0.168 NA
ENDBRANCH   3   6
ENDBRANCH   1   2
BRANCH   1  17
HETATM   17  C   UNL     1      -4.621   5.241 -32.829  1.00  0.00    -0.040 A 
HETATM   18  C   UNL     1      -4.914   4.653 -31.592  1.00  0.00     0.011 A 
HETATM   19  C   UNL     1      -5.870   3.636 -31.495  1.00  0.00     0.030 A 
HETATM   20  C   UNL     1      -6.528   3.168 -32.634  1.00  0.00     0.036 A 
HETATM   21  C   UNL     1      -6.273   3.790 -33.861  1.00  0.00     0.030 A 
HETATM   22  C   UNL     1      -5.320   4.807 -33.962  1.00  0.00     0.011 A 
BRANCH  20  23
HETATM   23  N   UNL     1      -7.464   2.119 -32.636  1.00  0.00    -0.309 N 
HETATM   24  C   UNL     1      -7.339   0.764 -32.720  1.00  0.00     0.321 C 
HETATM   25  N   UNL     1      -6.128   0.275 -33.107  1.00  0.00    -0.339 N 
HETATM   26  O   UNL     1      -8.325   0.063 -32.510  1.00  0.00    -0.247 OA
HETATM   27  H   UNL     1      -5.616   0.914 -33.698  1.00  0.00     0.164 HD
HETATM   28  H   UNL     1      -8.440   2.383 -32.563  1.00  0.00     0.170 HD
BRANCH  25  29
HETATM   29  C   UNL     1      -5.856  -1.137 -33.349  1.00  0.00     0.078 C 
HETATM   30  C   UNL     1      -6.352  -1.623 -34.710  1.00  0.00     0.032 C 
HETATM   31  C   UNL     1      -4.383  -1.475 -33.134  1.00  0.00     0.032 C 
ENDBRANCH  25  29
ENDBRANCH  20  23
ENDBRANCH   1  17
TORSDOF 5
ENDMDL
MODEL 7
REMARK VINA RESULT:      -7.8      4.708      7.992
REMARK  5 active torsions:
REMARK  status: ('A' for Active; 'I' for Inactive)
REMARK    1  A    between atoms: C_9  and  C_10 
REMARK       I    between atoms: C_10  and  N_11 
REMARK    2  A    between atoms: N_11  and  C_12 
REMARK    3  A    between atoms: C_12  and  C_13 
REMARK    4  A    between atoms: C_16  and  N_17 
REMARK       I    between atoms: N_17  and  C_18 
REMARK       I    between atoms: C_18  and  N_19 
REMARK    5  A    between atoms: N_19  and  C_20 
ROOT
HETATM    1  C   UNL     1      -7.454   3.868 -32.926  1.00  0.00     0.161 C 
ENDROOT
BRANCH   1   2
HETATM    2  N   UNL     1      -7.297   2.576 -33.535  1.00  0.00    -0.351 N 
HETATM    3  C   UNL     1      -7.109   1.422 -32.813  1.00  0.00     0.273 C 
HETATM    4  O   UNL     1      -7.069   1.393 -31.587  1.00  0.00    -0.266 OA
HETATM    5  H   UNL     1      -7.321   2.466 -34.545  1.00  0.00     0.163 HD
BRANCH   3   6
HETATM    6  C   UNL     1      -6.953   0.235 -33.670  1.00  0.00     0.157 A 
HETATM    7  C   UNL     1      -5.983  -0.805 -33.552  1.00  0.00     0.029 A 
HETATM    8  C   UNL     1      -4.914  -1.103 -32.686  1.00  0.00     0.023 A 
HETATM    9  C   UNL     1      -6.258  -1.674 -34.601  1.00  0.00     0.063 A 
HETATM   10  C   UNL     1      -4.152  -2.264 -32.902  1.00  0.00    -0.061 A 
HETATM   11  C   UNL     1      -3.011  -2.608 -31.988  1.00  0.00     0.048 C 
HETATM   12  C   UNL     1      -4.464  -3.114 -33.971  1.00  0.00     0.009 A 
HETATM   13  C   UNL     1      -5.522  -2.837 -34.843  1.00  0.00     0.032 A 
HETATM   14  N   UNL     1      -7.328  -1.129 -35.252  1.00  0.00    -0.277 N 
HETATM   15  H   UNL     1      -7.799  -1.496 -36.071  1.00  0.00     0.189 HD
HETATM   16  N   UNL     1      -7.777   0.021 -34.722  1.00  0.00    -0.168 NA
ENDBRANCH   3   6
ENDBRANCH   1   2
BRANCH   1  17
HETATM   17  C   UNL     1      -6.158   4.630 -32.995  1.00  0.00    -0.040 A 
HETATM   18  C   UNL     1      -5.926   5.732 -32.163  1.00  0.00     0.011 A 
HETATM   19  C   UNL     1      -4.760   6.493 -32.297  1.00  0.00     0.030 A 
HETATM   20  C   UNL     1      -3.819   6.184 -33.282  1.00  0.00     0.036 A 
HETATM   21  C   UNL     1      -4.026   5.053 -34.078  1.00  0.00     0.030 A 
HETATM   22  C   UNL     1      -5.189   4.289 -33.947  1.00  0.00     0.011 A 
BRANCH  20  23
HETATM   23  N   UNL     1      -2.646   6.922 -33.519  1.00  0.00    -0.309 N 
HETATM   24  C   UNL     1      -1.426   6.948 -32.908  1.00  0.00     0.321 C 
HETATM   25  N   UNL     1      -1.327   6.341 -31.693  1.00  0.00    -0.339 N 
HETATM   26  O   UNL     1      -0.509   7.563 -33.444  1.00  0.00    -0.247 OA
HETATM   27  H   UNL     1      -2.199   6.335 -31.184  1.00  0.00     0.164 HD
HETATM   28  H   UNL     1      -2.672   7.578 -34.291  1.00  0.00     0.170 HD
BRANCH  25  29
HETATM   29  C   UNL     1      -0.130   6.369 -30.861  1.00  0.00     0.078 C 
HETATM   30  C   UNL     1      -0.213   7.378 -29.717  1.00  0.00     0.032 C 
HETATM   31  C   UNL     1       0.241   4.977 -30.357  1.00  0.00     0.032 C 
ENDBRANCH  25  29
ENDBRANCH  20  23
ENDBRANCH   1  17
TORSDOF 5
ENDMDL
MODEL 8
REMARK VINA RESULT:      -7.8      6.416      9.703
REMARK  5 active torsions:
REMARK  status: ('A' for Active; 'I' for Inactive)
REMARK    1  A    between atoms: C_9  and  C_10 
REMARK       I    between atoms: C_10  and  N_11 
REMARK    2  A    between atoms: N_11  and  C_12 
REMARK    3  A    between atoms: C_12  and  C_13 
REMARK    4  A    between atoms: C_16  and  N_17 
REMARK       I    between atoms: N_17  and  C_18 
REMARK       I    between atoms: C_18  and  N_19 
REMARK    5  A    between atoms: N_19  and  C_20 
ROOT
HETATM    1  C   UNL     1      -2.327   4.306 -33.145  1.00  0.00     0.161 C 
ENDROOT
BRANCH   1   2
HETATM    2  N   UNL     1      -3.602   3.645 -33.098  1.00  0.00    -0.351 N 
HETATM    3  C   UNL     1      -3.833   2.509 -32.360  1.00  0.00     0.273 C 
HETATM    4  O   UNL     1      -2.976   1.968 -31.669  1.00  0.00    -0.266 OA
HETATM    5  H   UNL     1      -4.397   4.002 -33.621  1.00  0.00     0.163 HD
BRANCH   3   6
HETATM    6  C   UNL     1      -5.214   2.014 -32.496  1.00  0.00     0.157 A 
HETATM    7  C   UNL     1      -5.643   0.764 -33.031  1.00  0.00     0.029 A 
HETATM    8  C   UNL     1      -5.020  -0.376 -33.576  1.00  0.00     0.023 A 
HETATM    9  C   UNL     1      -7.029   0.792 -32.944  1.00  0.00     0.063 A 
HETATM   10  C   UNL     1      -5.809  -1.451 -34.018  1.00  0.00    -0.061 A 
HETATM   11  C   UNL     1      -5.168  -2.680 -34.596  1.00  0.00     0.048 C 
HETATM   12  C   UNL     1      -7.205  -1.382 -33.910  1.00  0.00     0.009 A 
HETATM   13  C   UNL     1      -7.843  -0.260 -33.372  1.00  0.00     0.032 A 
HETATM   14  N   UNL     1      -7.332   2.000 -32.385  1.00  0.00    -0.277 N 
HETATM   15  H   UNL     1      -8.255   2.363 -32.173  1.00  0.00     0.189 HD
HETATM   16  N   UNL     1      -6.266   2.766 -32.100  1.00  0.00    -0.168 NA
ENDBRANCH   3   6
ENDBRANCH   1   2
BRANCH   1  17
HETATM   17  C   UNL     1      -2.365   5.559 -32.313  1.00  0.00    -0.040 A 
HETATM   18  C   UNL     1      -1.752   6.737 -32.756  1.00  0.00     0.011 A 
HETATM   19  C   UNL     1      -1.709   7.870 -31.937  1.00  0.00     0.030 A 
HETATM   20  C   UNL     1      -2.252   7.838 -30.651  1.00  0.00     0.036 A 
HETATM   21  C   UNL     1      -2.909   6.679 -30.227  1.00  0.00     0.030 A 
HETATM   22  C   UNL     1      -2.956   5.545 -31.043  1.00  0.00     0.011 A 
BRANCH  20  23
HETATM   23  N   UNL     1      -2.210   8.912 -29.744  1.00  0.00    -0.309 N 
HETATM   24  C   UNL     1      -1.358   9.235 -28.728  1.00  0.00     0.321 C 
HETATM   25  N   UNL     1      -0.498   8.268 -28.307  1.00  0.00    -0.339 N 
HETATM   26  O   UNL     1      -1.452  10.344 -28.208  1.00  0.00    -0.247 OA
HETATM   27  H   UNL     1      -0.854   7.334 -28.451  1.00  0.00     0.164 HD
HETATM   28  H   UNL     1      -2.943   9.605 -29.829  1.00  0.00     0.170 HD
BRANCH  25  29
HETATM   29  C   UNL     1       0.401   8.414 -27.167  1.00  0.00     0.078 C 
HETATM   30  C   UNL     1       0.502   7.151 -26.314  1.00  0.00     0.032 C 
HETATM   31  C   UNL     1       1.778   8.916 -27.593  1.00  0.00     0.032 C 
ENDBRANCH  25  29
ENDBRANCH  20  23
ENDBRANCH   1  17
TORSDOF 5
ENDMDL
MODEL 9
REMARK VINA RESULT:      -7.7      4.568      7.757
REMARK  5 active torsions:
REMARK  status: ('A' for Active; 'I' for Inactive)
REMARK    1  A    between atoms: C_9  and  C_10 
REMARK       I    between atoms: C_10  and  N_11 
REMARK    2  A    between atoms: N_11  and  C_12 
REMARK    3  A    between atoms: C_12  and  C_13 
REMARK    4  A    between atoms: C_16  and  N_17 
REMARK       I    between atoms: N_17  and  C_18 
REMARK       I    between atoms: C_18  and  N_19 
REMARK    5  A    between atoms: N_19  and  C_20 
ROOT
HETATM    1  C   UNL     1      -6.763   2.612 -31.432  1.00  0.00     0.161 C 
ENDROOT
BRANCH   1   2
HETATM    2  N   UNL     1      -5.893   1.470 -31.472  1.00  0.00    -0.351 N 
HETATM    3  C   UNL     1      -5.539   0.833 -32.637  1.00  0.00     0.273 C 
HETATM    4  O   UNL     1      -5.926   1.191 -33.745  1.00  0.00    -0.266 OA
HETATM    5  H   UNL     1      -5.498   1.082 -30.619  1.00  0.00     0.163 HD
BRANCH   3   6
HETATM    6  C   UNL     1      -4.656  -0.323 -32.407  1.00  0.00     0.157 A 
HETATM    7  C   UNL     1      -4.707  -1.599 -33.044  1.00  0.00     0.029 A 
HETATM    8  C   UNL     1      -5.504  -2.211 -34.030  1.00  0.00     0.023 A 
HETATM    9  C   UNL     1      -3.672  -2.328 -32.471  1.00  0.00     0.063 A 
HETATM   10  C   UNL     1      -5.240  -3.539 -34.406  1.00  0.00    -0.061 A 
HETATM   11  C   UNL     1      -6.072  -4.213 -35.459  1.00  0.00     0.048 C 
HETATM   12  C   UNL     1      -4.186  -4.239 -33.803  1.00  0.00     0.009 A 
HETATM   13  C   UNL     1      -3.381  -3.649 -32.823  1.00  0.00     0.032 A 
HETATM   14  N   UNL     1      -3.090  -1.484 -31.569  1.00  0.00    -0.277 N 
HETATM   15  H   UNL     1      -2.301  -1.682 -30.965  1.00  0.00     0.189 HD
HETATM   16  N   UNL     1      -3.653  -0.266 -31.501  1.00  0.00    -0.168 NA
ENDBRANCH   3   6
ENDBRANCH   1   2
BRANCH   1  17
HETATM   17  C   UNL     1      -6.045   3.786 -30.824  1.00  0.00    -0.040 A 
HETATM   18  C   UNL     1      -6.136   4.053 -29.452  1.00  0.00     0.011 A 
HETATM   19  C   UNL     1      -5.545   5.199 -28.908  1.00  0.00     0.030 A 
HETATM   20  C   UNL     1      -4.877   6.111 -29.728  1.00  0.00     0.036 A 
HETATM   21  C   UNL     1      -4.742   5.818 -31.089  1.00  0.00     0.030 A 
HETATM   22  C   UNL     1      -5.330   4.674 -31.636  1.00  0.00     0.011 A 
BRANCH  20  23
HETATM   23  N   UNL     1      -4.297   7.309 -29.276  1.00  0.00    -0.309 N 
HETATM   24  C   UNL     1      -3.016   7.662 -28.968  1.00  0.00     0.321 C 
HETATM   25  N   UNL     1      -2.111   6.654 -28.829  1.00  0.00    -0.339 N 
HETATM   26  O   UNL     1      -2.758   8.846 -28.771  1.00  0.00    -0.247 OA
HETATM   27  H   UNL     1      -2.531   5.786 -28.530  1.00  0.00     0.164 HD
HETATM   28  H   UNL     1      -4.925   8.092 -29.137  1.00  0.00     0.170 HD
BRANCH  25  29
HETATM   29  C   UNL     1      -0.730   6.849 -28.401  1.00  0.00     0.078 C 
HETATM   30  C   UNL     1      -0.479   6.413 -26.959  1.00  0.00     0.032 C 
HETATM   31  C   UNL     1       0.258   6.199 -29.365  1.00  0.00     0.032 C 
ENDBRANCH  25  29
ENDBRANCH  20  23
ENDBRANCH   1  17
TORSDOF 5
ENDMDL
MODEL 10
REMARK VINA RESULT:      -7.6     14.195     16.390
REMARK  5 active torsions:
REMARK  status: ('A' for Active; 'I' for Inactive)
REMARK    1  A    between atoms: C_9  and  C_10 
REMARK       I    between atoms: C_10  and  N_11 
REMARK    2  A    between atoms: N_11  and  C_12 
REMARK    3  A    between atoms: C_12  and  C_13 
REMARK    4  A    between atoms: C_16  and  N_17 
REMARK       I    between atoms: N_17  and  C_18 
REMARK       I    between atoms: C_18  and  N_19 
REMARK    5  A    between atoms: N_19  and  C_20 
ROOT
HETATM    1  C   UNL     1      -4.506 -12.385 -38.430  1.00  0.00     0.161 C 
ENDROOT
BRANCH   1   2
HETATM    2  N   UNL     1      -3.802 -13.466 -39.064  1.00  0.00    -0.351 N 
HETATM    3  C   UNL     1      -2.432 -13.527 -39.143  1.00  0.00     0.273 C 
HETATM    4  O   UNL     1      -1.690 -12.673 -38.670  1.00  0.00    -0.266 OA
HETATM    5  H   UNL     1      -4.305 -14.241 -39.488  1.00  0.00     0.163 HD
BRANCH   3   6
HETATM    6  C   UNL     1      -1.958 -14.722 -39.862  1.00  0.00     0.157 A 
HETATM    7  C   UNL     1      -2.325 -15.156 -41.170  1.00  0.00     0.029 A 
HETATM    8  C   UNL     1      -3.173 -14.692 -42.194  1.00  0.00     0.023 A 
HETATM    9  C   UNL     1      -1.612 -16.332 -41.373  1.00  0.00     0.063 A 
HETATM   10  C   UNL     1      -3.281 -15.424 -43.389  1.00  0.00    -0.061 A 
HETATM   11  C   UNL     1      -4.173 -14.947 -44.497  1.00  0.00     0.048 C 
HETATM   12  C   UNL     1      -2.543 -16.604 -43.552  1.00  0.00     0.009 A 
HETATM   13  C   UNL     1      -1.694 -17.083 -42.548  1.00  0.00     0.032 A 
HETATM   14  N   UNL     1      -0.892 -16.520 -40.228  1.00  0.00    -0.277 N 
HETATM   15  H   UNL     1      -0.257 -17.283 -40.022  1.00  0.00     0.189 HD
HETATM   16  N   UNL     1      -1.072 -15.572 -39.293  1.00  0.00    -0.168 NA
ENDBRANCH   3   6
ENDBRANCH   1   2
BRANCH   1  17
HETATM   17  C   UNL     1      -5.953 -12.402 -38.839  1.00  0.00    -0.040 A 
HETATM   18  C   UNL     1      -6.963 -12.656 -37.903  1.00  0.00     0.011 A 
HETATM   19  C   UNL     1      -8.298 -12.765 -38.307  1.00  0.00     0.030 A 
HETATM   20  C   UNL     1      -8.645 -12.651 -39.655  1.00  0.00     0.036 A 
HETATM   21  C   UNL     1      -7.643 -12.346 -40.583  1.00  0.00     0.030 A 
HETATM   22  C   UNL     1      -6.308 -12.235 -40.183  1.00  0.00     0.011 A 
BRANCH  20  23
HETATM   23  N   UNL     1      -9.951 -12.795 -40.155  1.00  0.00    -0.309 N 
HETATM   24  C   UNL     1     -10.735 -13.883 -40.402  1.00  0.00     0.321 C 
HETATM   25  N   UNL     1     -10.125 -15.101 -40.406  1.00  0.00    -0.339 N 
HETATM   26  O   UNL     1     -11.921 -13.711 -40.669  1.00  0.00    -0.247 OA
HETATM   27  H   UNL     1      -9.151 -15.052 -40.668  1.00  0.00     0.164 HD
HETATM   28  H   UNL     1     -10.441 -11.941 -40.393  1.00  0.00     0.170 HD
BRANCH  25  29
HETATM   29  C   UNL     1     -10.793 -16.349 -40.755  1.00  0.00     0.078 C 
HETATM   30  C   UNL     1     -10.617 -16.737 -42.222  1.00  0.00     0.032 C 
HETATM   31  C   UNL     1     -10.392 -17.486 -39.820  1.00  0.00     0.032 C 
ENDBRANCH  25  29
ENDBRANCH  20  23
ENDBRANCH   1  17
TORSDOF 5
ENDMDL
