MODEL 1
REMARK VINA RESULT:      -7.9      0.000      0.000
REMARK  3 active torsions:
REMARK  status: ('A' for Active; 'I' for Inactive)
REMARK    1  A    between atoms: C_2  and  C_3 
REMARK    2  A    between atoms: C_9  and  C_10 
REMARK    3  A    between atoms: C_20  and  N_21 
ROOT
HETATM    1  C   UNL     1      -4.585   2.942 -32.777  1.00  0.00     0.043 A 
HETATM    2  N   UNL     1      -3.705   3.515 -31.882  1.00  0.00    -0.279 N 
HETATM    3  H   UNL     1      -3.551   4.501 -31.702  1.00  0.00     0.189 HD
HETATM    4  N   UNL     1      -2.945   2.624 -31.216  1.00  0.00    -0.148 NA
HETATM    5  C   UNL     1      -3.398   1.463 -31.670  1.00  0.00     0.199 A 
HETATM    6  C   UNL     1      -4.425   1.578 -32.614  1.00  0.00     0.035 A 
HETATM    7  C   UNL     1      -4.995   0.364 -33.253  1.00  0.00     0.106 A 
HETATM    8  C   UNL     1      -4.234  -0.881 -32.835  1.00  0.00     0.067 A 
HETATM    9  C   UNL     1      -4.517  -2.132 -33.650  1.00  0.00     0.020 C 
HETATM   10  N   UNL     1      -4.753  -3.171 -34.325  1.00  0.00    -0.096 N 
HETATM   11  C   UNL     1      -3.237  -0.875 -31.913  1.00  0.00     0.139 A 
HETATM   12  O   UNL     1      -2.839   0.306 -31.263  1.00  0.00    -0.277 OA
ENDROOT
BRANCH   7  13
HETATM   13  C   UNL     1      -6.492   0.336 -32.965  1.00  0.00    -0.022 A 
HETATM   14  C   UNL     1      -7.516   0.300 -33.932  1.00  0.00     0.041 A 
HETATM   15 CL   UNL     1      -7.221   0.292 -35.632  1.00  0.00    -0.084 Cl
HETATM   16  C   UNL     1      -8.864   0.283 -33.549  1.00  0.00     0.024 A 
HETATM   17  C   UNL     1      -9.221   0.316 -32.203  1.00  0.00     0.002 A 
HETATM   18  C   UNL     1      -8.231   0.369 -31.232  1.00  0.00     0.001 A 
HETATM   19  C   UNL     1      -6.885   0.380 -31.607  1.00  0.00     0.010 A 
ENDBRANCH   7  13
BRANCH  11  20
HETATM   20  N   UNL     1      -2.491  -1.969 -31.538  1.00  0.00    -0.282 NA
HETATM   21  H   UNL     1      -1.560  -2.041 -31.938  1.00  0.00     0.126 HD
HETATM   22  H   UNL     1      -2.515  -2.121 -30.532  1.00  0.00     0.126 HD
ENDBRANCH  11  20
BRANCH   1  23
HETATM   23  C   UNL     1      -5.463   3.749 -33.685  1.00  0.00     0.029 C 
HETATM   24  C   UNL     1      -4.790   5.064 -34.082  1.00  0.00     0.016 C 
HETATM   25  C   UNL     1      -6.832   4.001 -33.057  1.00  0.00     0.016 C 
ENDBRANCH   1  23
TORSDOF 3
ENDMDL
MODEL 2
REMARK VINA RESULT:      -7.6      1.409      1.752
REMARK  3 active torsions:
REMARK  status: ('A' for Active; 'I' for Inactive)
REMARK    1  A    between atoms: C_2  and  C_3 
REMARK    2  A    between atoms: C_9  and  C_10 
REMARK    3  A    between atoms: C_20  and  N_21 
ROOT
HETATM    1  C   UNL     1      -4.408   2.304 -32.511  1.00  0.00     0.043 A 
HETATM    2  N   UNL     1      -3.486   2.537 -31.511  1.00  0.00    -0.279 N 
HETATM    3  H   UNL     1      -3.169   3.430 -31.150  1.00  0.00     0.189 HD
HETATM    4  N   UNL     1      -2.931   1.418 -31.007  1.00  0.00    -0.148 NA
HETATM    5  C   UNL     1      -3.559   0.459 -31.674  1.00  0.00     0.199 A 
HETATM    6  C   UNL     1      -4.500   0.926 -32.599  1.00  0.00     0.035 A 
HETATM    7  C   UNL     1      -5.245  -0.029 -33.460  1.00  0.00     0.106 A 
HETATM    8  C   UNL     1      -4.738  -1.447 -33.264  1.00  0.00     0.067 A 
HETATM    9  C   UNL     1      -5.197  -2.460 -34.300  1.00  0.00     0.020 C 
HETATM   10  N   UNL     1      -5.579  -3.301 -35.158  1.00  0.00    -0.096 N 
HETATM   11  C   UNL     1      -3.804  -1.787 -32.340  1.00  0.00     0.139 A 
HETATM   12  O   UNL     1      -3.236  -0.835 -31.478  1.00  0.00    -0.277 OA
ENDROOT
BRANCH   7  13
HETATM   13  C   UNL     1      -6.735   0.167 -33.208  1.00  0.00    -0.022 A 
HETATM   14  C   UNL     1      -7.365   0.156 -31.948  1.00  0.00     0.041 A 
HETATM   15 CL   UNL     1      -6.523  -0.099 -30.463  1.00  0.00    -0.084 Cl
HETATM   16  C   UNL     1      -8.751   0.342 -31.838  1.00  0.00     0.024 A 
HETATM   17  C   UNL     1      -9.535   0.528 -32.973  1.00  0.00     0.002 A 
HETATM   18  C   UNL     1      -8.940   0.527 -34.226  1.00  0.00     0.001 A 
HETATM   19  C   UNL     1      -7.559   0.347 -34.343  1.00  0.00     0.010 A 
ENDBRANCH   7  13
BRANCH  11  20
HETATM   20  N   UNL     1      -3.284  -3.049 -32.159  1.00  0.00    -0.282 NA
HETATM   21  H   UNL     1      -3.788  -3.660 -31.523  1.00  0.00     0.126 HD
HETATM   22  H   UNL     1      -3.041  -3.492 -33.043  1.00  0.00     0.126 HD
ENDBRANCH  11  20
BRANCH   1  23
HETATM   23  C   UNL     1      -5.081   3.406 -33.270  1.00  0.00     0.029 C 
HETATM   24  C   UNL     1      -4.143   4.597 -33.470  1.00  0.00     0.016 C 
HETATM   25  C   UNL     1      -6.380   3.838 -32.591  1.00  0.00     0.016 C 
ENDBRANCH   1  23
TORSDOF 3
ENDMDL
MODEL 3
REMARK VINA RESULT:      -7.3      3.234      4.992
REMARK  3 active torsions:
REMARK  status: ('A' for Active; 'I' for Inactive)
REMARK    1  A    between atoms: C_2  and  C_3 
REMARK    2  A    between atoms: C_9  and  C_10 
REMARK    3  A    between atoms: C_20  and  N_21 
ROOT
HETATM    1  C   UNL     1      -9.734   2.840 -32.497  1.00  0.00     0.043 A 
HETATM    2  N   UNL     1     -10.525   3.042 -31.384  1.00  0.00    -0.279 N 
HETATM    3  H   UNL     1     -11.536   3.118 -31.342  1.00  0.00     0.189 HD
HETATM    4  N   UNL     1      -9.831   3.195 -30.240  1.00  0.00    -0.148 NA
HETATM    5  C   UNL     1      -8.576   3.033 -30.640  1.00  0.00     0.199 A 
HETATM    6  C   UNL     1      -8.440   2.786 -32.011  1.00  0.00     0.035 A 
HETATM    7  C   UNL     1      -7.091   2.638 -32.616  1.00  0.00     0.106 A 
HETATM    8  C   UNL     1      -6.003   2.919 -31.594  1.00  0.00     0.067 A 
HETATM    9  C   UNL     1      -4.603   3.103 -32.157  1.00  0.00     0.020 C 
HETATM   10  N   UNL     1      -3.441   3.255 -32.622  1.00  0.00    -0.096 N 
HETATM   11  C   UNL     1      -6.252   3.163 -30.283  1.00  0.00     0.139 A 
HETATM   12  O   UNL     1      -7.559   3.164 -29.767  1.00  0.00    -0.277 OA
ENDROOT
BRANCH   7  13
HETATM   13  C   UNL     1      -7.017   1.270 -33.282  1.00  0.00    -0.022 A 
HETATM   14  C   UNL     1      -6.877   0.036 -32.616  1.00  0.00     0.041 A 
HETATM   15 CL   UNL     1      -6.753  -0.112 -30.901  1.00  0.00    -0.084 Cl
HETATM   16  C   UNL     1      -6.814  -1.165 -33.337  1.00  0.00     0.024 A 
HETATM   17  C   UNL     1      -6.874  -1.163 -34.728  1.00  0.00     0.002 A 
HETATM   18  C   UNL     1      -6.996   0.041 -35.407  1.00  0.00     0.001 A 
HETATM   19  C   UNL     1      -7.065   1.241 -34.695  1.00  0.00     0.010 A 
ENDBRANCH   7  13
BRANCH  11  20
HETATM   20  N   UNL     1      -5.302   3.466 -29.334  1.00  0.00    -0.282 NA
HETATM   21  H   UNL     1      -5.099   4.451 -29.195  1.00  0.00     0.126 HD
HETATM   22  H   UNL     1      -5.453   2.955 -28.466  1.00  0.00     0.126 HD
ENDBRANCH  11  20
BRANCH   1  23
HETATM   23  C   UNL     1     -10.292   2.733 -33.883  1.00  0.00     0.029 C 
HETATM   24  C   UNL     1     -11.414   3.748 -34.110  1.00  0.00     0.016 C 
HETATM   25  C   UNL     1     -10.767   1.313 -34.185  1.00  0.00     0.016 C 
ENDBRANCH   1  23
TORSDOF 3
ENDMDL
MODEL 4
REMARK VINA RESULT:      -7.1      2.772      4.803
REMARK  3 active torsions:
REMARK  status: ('A' for Active; 'I' for Inactive)
REMARK    1  A    between atoms: C_2  and  C_3 
REMARK    2  A    between atoms: C_9  and  C_10 
REMARK    3  A    between atoms: C_20  and  N_21 
ROOT
HETATM    1  C   UNL     1      -8.802   1.823 -32.071  1.00  0.00     0.043 A 
HETATM    2  N   UNL     1      -9.544   2.155 -30.957  1.00  0.00    -0.279 N 
HETATM    3  H   UNL     1     -10.513   1.926 -30.761  1.00  0.00     0.189 HD
HETATM    4  N   UNL     1      -8.879   2.911 -30.061  1.00  0.00    -0.148 NA
HETATM    5  C   UNL     1      -7.674   3.011 -30.608  1.00  0.00     0.199 A 
HETATM    6  C   UNL     1      -7.543   2.346 -31.833  1.00  0.00     0.035 A 
HETATM    7  C   UNL     1      -6.267   2.415 -32.591  1.00  0.00     0.106 A 
HETATM    8  C   UNL     1      -5.286   3.360 -31.921  1.00  0.00     0.067 A 
HETATM    9  C   UNL     1      -4.076   3.753 -32.753  1.00  0.00     0.020 C 
HETATM   10  N   UNL     1      -3.072   4.078 -33.443  1.00  0.00    -0.096 N 
HETATM   11  C   UNL     1      -5.525   3.967 -30.731  1.00  0.00     0.139 A 
HETATM   12  O   UNL     1      -6.715   3.751 -30.017  1.00  0.00    -0.277 OA
ENDROOT
BRANCH   7  13
HETATM   13  C   UNL     1      -5.760   0.992 -32.794  1.00  0.00    -0.022 A 
HETATM   14  C   UNL     1      -5.968   0.200 -33.940  1.00  0.00     0.041 A 
HETATM   15 CL   UNL     1      -6.860   0.733 -35.318  1.00  0.00    -0.084 Cl
HETATM   16  C   UNL     1      -5.457  -1.104 -34.013  1.00  0.00     0.024 A 
HETATM   17  C   UNL     1      -4.745  -1.649 -32.948  1.00  0.00     0.002 A 
HETATM   18  C   UNL     1      -4.542  -0.894 -31.801  1.00  0.00     0.001 A 
HETATM   19  C   UNL     1      -5.043   0.407 -31.724  1.00  0.00     0.010 A 
ENDBRANCH   7  13
BRANCH  11  20
HETATM   20  N   UNL     1      -4.685   4.865 -30.111  1.00  0.00    -0.282 NA
HETATM   21  H   UNL     1      -5.102   5.458 -29.398  1.00  0.00     0.126 HD
HETATM   22  H   UNL     1      -3.811   4.432 -29.820  1.00  0.00     0.126 HD
ENDBRANCH  11  20
BRANCH   1  23
HETATM   23  C   UNL     1      -9.369   1.063 -33.230  1.00  0.00     0.029 C 
HETATM   24  C   UNL     1     -10.277   1.950 -34.086  1.00  0.00     0.016 C 
HETATM   25  C   UNL     1     -10.108  -0.192 -32.767  1.00  0.00     0.016 C 
ENDBRANCH   1  23
TORSDOF 3
ENDMDL
MODEL 5
REMARK VINA RESULT:      -6.7      2.524      4.881
REMARK  3 active torsions:
REMARK  status: ('A' for Active; 'I' for Inactive)
REMARK    1  A    between atoms: C_2  and  C_3 
REMARK    2  A    between atoms: C_9  and  C_10 
REMARK    3  A    between atoms: C_20  and  N_21 
ROOT
HETATM    1  C   UNL     1      -4.435   1.562 -31.300  1.00  0.00     0.043 A 
HETATM    2  N   UNL     1      -3.112   1.949 -31.359  1.00  0.00    -0.279 N 
HETATM    3  H   UNL     1      -2.296   1.431 -31.053  1.00  0.00     0.189 HD
HETATM    4  N   UNL     1      -2.926   3.191 -31.849  1.00  0.00    -0.148 NA
HETATM    5  C   UNL     1      -4.161   3.569 -32.151  1.00  0.00     0.199 A 
HETATM    6  C   UNL     1      -5.140   2.610 -31.866  1.00  0.00     0.035 A 
HETATM    7  C   UNL     1      -6.576   2.911 -32.100  1.00  0.00     0.106 A 
HETATM    8  C   UNL     1      -6.766   4.356 -32.528  1.00  0.00     0.067 A 
HETATM    9  C   UNL     1      -8.197   4.869 -32.498  1.00  0.00     0.020 C 
HETATM   10  N   UNL     1      -9.383   5.296 -32.474  1.00  0.00    -0.096 N 
HETATM   11  C   UNL     1      -5.737   5.208 -32.764  1.00  0.00     0.139 A 
HETATM   12  O   UNL     1      -4.398   4.804 -32.635  1.00  0.00    -0.277 OA
ENDROOT
BRANCH   7  13
HETATM   13  C   UNL     1      -7.127   1.871 -33.067  1.00  0.00    -0.022 A 
HETATM   14  C   UNL     1      -8.245   1.044 -32.838  1.00  0.00     0.041 A 
HETATM   15 CL   UNL     1      -9.175   1.080 -31.385  1.00  0.00    -0.084 Cl
HETATM   16  C   UNL     1      -8.658   0.114 -33.802  1.00  0.00     0.024 A 
HETATM   17  C   UNL     1      -7.965  -0.023 -35.002  1.00  0.00     0.002 A 
HETATM   18  C   UNL     1      -6.851   0.769 -35.244  1.00  0.00     0.001 A 
HETATM   19  C   UNL     1      -6.436   1.701 -34.290  1.00  0.00     0.010 A 
ENDBRANCH   7  13
BRANCH  11  20
HETATM   20  N   UNL     1      -5.864   6.535 -33.109  1.00  0.00    -0.282 NA
HETATM   21  H   UNL     1      -6.614   7.051 -32.658  1.00  0.00     0.126 HD
HETATM   22  H   UNL     1      -4.970   7.021 -33.094  1.00  0.00     0.126 HD
ENDBRANCH  11  20
BRANCH   1  23
HETATM   23  C   UNL     1      -4.877   0.258 -30.709  1.00  0.00     0.029 C 
HETATM   24  C   UNL     1      -5.242  -0.751 -31.800  1.00  0.00     0.016 C 
HETATM   25  C   UNL     1      -6.035   0.452 -29.732  1.00  0.00     0.016 C 
ENDBRANCH   1  23
TORSDOF 3
ENDMDL
MODEL 6
REMARK VINA RESULT:      -6.5      3.024      4.678
REMARK  3 active torsions:
REMARK  status: ('A' for Active; 'I' for Inactive)
REMARK    1  A    between atoms: C_2  and  C_3 
REMARK    2  A    between atoms: C_9  and  C_10 
REMARK    3  A    between atoms: C_20  and  N_21 
ROOT
HETATM    1  C   UNL     1      -8.571   1.948 -31.520  1.00  0.00     0.043 A 
HETATM    2  N   UNL     1      -9.833   1.547 -31.907  1.00  0.00    -0.279 N 
HETATM    3  H   UNL     1     -10.726   1.936 -31.622  1.00  0.00     0.189 HD
HETATM    4  N   UNL     1      -9.841   0.480 -32.730  1.00  0.00    -0.148 NA
HETATM    5  C   UNL     1      -8.548   0.240 -32.902  1.00  0.00     0.199 A 
HETATM    6  C   UNL     1      -7.705   1.117 -32.210  1.00  0.00     0.035 A 
HETATM    7  C   UNL     1      -6.231   0.939 -32.262  1.00  0.00     0.106 A 
HETATM    8  C   UNL     1      -5.862  -0.327 -33.014  1.00  0.00     0.067 A 
HETATM    9  C   UNL     1      -4.418  -0.782 -32.872  1.00  0.00     0.020 C 
HETATM   10  N   UNL     1      -3.221  -1.159 -32.756  1.00  0.00    -0.096 N 
HETATM   11  C   UNL     1      -6.770  -1.117 -33.641  1.00  0.00     0.139 A 
HETATM   12  O   UNL     1      -8.141  -0.808 -33.645  1.00  0.00    -0.277 OA
ENDROOT
BRANCH   7  13
HETATM   13  C   UNL     1      -5.617   2.221 -32.811  1.00  0.00    -0.022 A 
HETATM   14  C   UNL     1      -4.437   2.834 -32.346  1.00  0.00     0.041 A 
HETATM   15 CL   UNL     1      -3.491   2.214 -31.043  1.00  0.00    -0.084 Cl
HETATM   16  C   UNL     1      -3.969   4.022 -32.926  1.00  0.00     0.024 A 
HETATM   17  C   UNL     1      -4.669   4.629 -33.966  1.00  0.00     0.002 A 
HETATM   18  C   UNL     1      -5.843   4.053 -34.431  1.00  0.00     0.001 A 
HETATM   19  C   UNL     1      -6.312   2.867 -33.861  1.00  0.00     0.010 A 
ENDBRANCH   7  13
BRANCH  11  20
HETATM   20  N   UNL     1      -6.487  -2.295 -34.295  1.00  0.00    -0.282 NA
HETATM   21  H   UNL     1      -6.498  -2.264 -35.310  1.00  0.00     0.126 HD
HETATM   22  H   UNL     1      -5.664  -2.757 -33.911  1.00  0.00     0.126 HD
ENDBRANCH  11  20
BRANCH   1  23
HETATM   23  C   UNL     1      -8.332   3.055 -30.540  1.00  0.00     0.029 C 
HETATM   24  C   UNL     1      -8.228   4.409 -31.247  1.00  0.00     0.016 C 
HETATM   25  C   UNL     1      -7.096   2.787 -29.685  1.00  0.00     0.016 C 
ENDBRANCH   1  23
TORSDOF 3
ENDMDL
MODEL 7
REMARK VINA RESULT:      -6.5      3.720      6.169
REMARK  3 active torsions:
REMARK  status: ('A' for Active; 'I' for Inactive)
REMARK    1  A    between atoms: C_2  and  C_3 
REMARK    2  A    between atoms: C_9  and  C_10 
REMARK    3  A    between atoms: C_20  and  N_21 
ROOT
HETATM    1  C   UNL     1      -8.866   1.409 -34.376  1.00  0.00     0.043 A 
HETATM    2  N   UNL     1     -10.224   1.619 -34.495  1.00  0.00    -0.279 N 
HETATM    3  H   UNL     1     -10.936   0.956 -34.783  1.00  0.00     0.189 HD
HETATM    4  N   UNL     1     -10.608   2.883 -34.230  1.00  0.00    -0.148 NA
HETATM    5  C   UNL     1      -9.466   3.465 -33.886  1.00  0.00     0.199 A 
HETATM    6  C   UNL     1      -8.355   2.614 -33.928  1.00  0.00     0.035 A 
HETATM    7  C   UNL     1      -6.998   3.137 -33.622  1.00  0.00     0.106 A 
HETATM    8  C   UNL     1      -7.028   4.641 -33.417  1.00  0.00     0.067 A 
HETATM    9  C   UNL     1      -5.674   5.332 -33.406  1.00  0.00     0.020 C 
HETATM   10  N   UNL     1      -4.551   5.905 -33.396  1.00  0.00    -0.096 N 
HETATM   11  C   UNL     1      -8.171   5.374 -33.412  1.00  0.00     0.139 A 
HETATM   12  O   UNL     1      -9.431   4.779 -33.589  1.00  0.00    -0.277 OA
ENDROOT
BRANCH   7  13
HETATM   13  C   UNL     1      -6.433   2.336 -32.455  1.00  0.00    -0.022 A 
HETATM   14  C   UNL     1      -7.004   2.236 -31.171  1.00  0.00     0.041 A 
HETATM   15 CL   UNL     1      -8.462   3.037 -30.712  1.00  0.00    -0.084 Cl
HETATM   16  C   UNL     1      -6.389   1.471 -30.170  1.00  0.00     0.024 A 
HETATM   17  C   UNL     1      -5.193   0.804 -30.419  1.00  0.00     0.002 A 
HETATM   18  C   UNL     1      -4.602   0.900 -31.672  1.00  0.00     0.001 A 
HETATM   19  C   UNL     1      -5.212   1.656 -32.675  1.00  0.00     0.010 A 
ENDBRANCH   7  13
BRANCH  11  20
HETATM   20  N   UNL     1      -8.240   6.742 -33.276  1.00  0.00    -0.282 NA
HETATM   21  H   UNL     1      -9.169   7.153 -33.298  1.00  0.00     0.126 HD
HETATM   22  H   UNL     1      -7.664   7.079 -32.507  1.00  0.00     0.126 HD
ENDBRANCH  11  20
BRANCH   1  23
HETATM   23  C   UNL     1      -8.212   0.103 -34.708  1.00  0.00     0.029 C 
HETATM   24  C   UNL     1      -7.880  -0.690 -33.442  1.00  0.00     0.016 C 
HETATM   25  C   UNL     1      -6.968   0.306 -35.570  1.00  0.00     0.016 C 
ENDBRANCH   1  23
TORSDOF 3
ENDMDL
MODEL 8
REMARK VINA RESULT:      -6.4      3.114      4.698
REMARK  3 active torsions:
REMARK  status: ('A' for Active; 'I' for Inactive)
REMARK    1  A    between atoms: C_2  and  C_3 
REMARK    2  A    between atoms: C_9  and  C_10 
REMARK    3  A    between atoms: C_20  and  N_21 
ROOT
HETATM    1  C   UNL     1      -7.801   2.812 -30.790  1.00  0.00     0.043 A 
HETATM    2  N   UNL     1      -7.565   2.990 -29.442  1.00  0.00    -0.279 N 
HETATM    3  H   UNL     1      -8.184   2.782 -28.667  1.00  0.00     0.189 HD
HETATM    4  N   UNL     1      -6.371   3.550 -29.165  1.00  0.00    -0.148 NA
HETATM    5  C   UNL     1      -5.827   3.678 -30.369  1.00  0.00     0.199 A 
HETATM    6  C   UNL     1      -6.637   3.222 -31.415  1.00  0.00     0.035 A 
HETATM    7  C   UNL     1      -6.185   3.351 -32.825  1.00  0.00     0.106 A 
HETATM    8  C   UNL     1      -4.878   4.119 -32.909  1.00  0.00     0.067 A 
HETATM    9  C   UNL     1      -4.475   4.582 -34.299  1.00  0.00     0.020 C 
HETATM   10  N   UNL     1      -4.139   4.966 -35.452  1.00  0.00    -0.096 N 
HETATM   11  C   UNL     1      -4.179   4.529 -31.820  1.00  0.00     0.139 A 
HETATM   12  O   UNL     1      -4.619   4.258 -30.514  1.00  0.00    -0.277 OA
ENDROOT
BRANCH   7  13
HETATM   13  C   UNL     1      -6.160   1.958 -33.443  1.00  0.00    -0.022 A 
HETATM   14  C   UNL     1      -5.335   0.891 -33.035  1.00  0.00     0.041 A 
HETATM   15 CL   UNL     1      -4.193   1.008 -31.747  1.00  0.00    -0.084 Cl
HETATM   16  C   UNL     1      -5.394  -0.350 -33.686  1.00  0.00     0.024 A 
HETATM   17  C   UNL     1      -6.259  -0.550 -34.758  1.00  0.00     0.002 A 
HETATM   18  C   UNL     1      -7.069   0.491 -35.189  1.00  0.00     0.001 A 
HETATM   19  C   UNL     1      -7.020   1.728 -34.542  1.00  0.00     0.010 A 
ENDBRANCH   7  13
BRANCH  11  20
HETATM   20  N   UNL     1      -3.016   5.265 -31.851  1.00  0.00    -0.282 NA
HETATM   21  H   UNL     1      -2.743   5.716 -30.982  1.00  0.00     0.126 HD
HETATM   22  H   UNL     1      -2.256   4.761 -32.304  1.00  0.00     0.126 HD
ENDBRANCH  11  20
BRANCH   1  23
HETATM   23  C   UNL     1      -9.098   2.288 -31.326  1.00  0.00     0.029 C 
HETATM   24  C   UNL     1      -8.974   0.821 -31.743  1.00  0.00     0.016 C 
HETATM   25  C   UNL     1      -9.610   3.145 -32.482  1.00  0.00     0.016 C 
ENDBRANCH   1  23
TORSDOF 3
ENDMDL
MODEL 9
REMARK VINA RESULT:      -6.2      3.118      5.645
REMARK  3 active torsions:
REMARK  status: ('A' for Active; 'I' for Inactive)
REMARK    1  A    between atoms: C_2  and  C_3 
REMARK    2  A    between atoms: C_9  and  C_10 
REMARK    3  A    between atoms: C_20  and  N_21 
ROOT
HETATM    1  C   UNL     1      -8.132   0.318 -33.109  1.00  0.00     0.043 A 
HETATM    2  N   UNL     1      -9.379   0.164 -32.539  1.00  0.00    -0.279 N 
HETATM    3  H   UNL     1     -10.100  -0.505 -32.786  1.00  0.00     0.189 HD
HETATM    4  N   UNL     1      -9.651   1.058 -31.567  1.00  0.00    -0.148 NA
HETATM    5  C   UNL     1      -8.524   1.755 -31.494  1.00  0.00     0.199 A 
HETATM    6  C   UNL     1      -7.535   1.342 -32.395  1.00  0.00     0.035 A 
HETATM    7  C   UNL     1      -6.239   2.064 -32.468  1.00  0.00     0.106 A 
HETATM    8  C   UNL     1      -6.248   3.291 -31.575  1.00  0.00     0.067 A 
HETATM    9  C   UNL     1      -5.110   4.275 -31.794  1.00  0.00     0.020 C 
HETATM   10  N   UNL     1      -4.166   5.090 -31.975  1.00  0.00    -0.096 N 
HETATM   11  C   UNL     1      -7.275   3.607 -30.745  1.00  0.00     0.139 A 
HETATM   12  O   UNL     1      -8.420   2.798 -30.648  1.00  0.00    -0.277 OA
ENDROOT
BRANCH   7  13
HETATM   13  C   UNL     1      -5.123   1.065 -32.185  1.00  0.00    -0.022 A 
HETATM   14  C   UNL     1      -4.909   0.394 -30.965  1.00  0.00     0.041 A 
HETATM   15 CL   UNL     1      -5.898   0.617 -29.568  1.00  0.00    -0.084 Cl
HETATM   16  C   UNL     1      -3.841  -0.503 -30.818  1.00  0.00     0.024 A 
HETATM   17  C   UNL     1      -2.961  -0.739 -31.870  1.00  0.00     0.002 A 
HETATM   18  C   UNL     1      -3.142  -0.078 -33.077  1.00  0.00     0.001 A 
HETATM   19  C   UNL     1      -4.206   0.813 -33.232  1.00  0.00     0.010 A 
ENDBRANCH   7  13
BRANCH  11  20
HETATM   20  N   UNL     1      -7.345   4.731 -29.954  1.00  0.00    -0.282 NA
HETATM   21  H   UNL     1      -7.713   4.602 -29.016  1.00  0.00     0.126 HD
HETATM   22  H   UNL     1      -6.484   5.272 -29.983  1.00  0.00     0.126 HD
ENDBRANCH  11  20
BRANCH   1  23
HETATM   23  C   UNL     1      -7.658  -0.509 -34.264  1.00  0.00     0.029 C 
HETATM   24  C   UNL     1      -6.677  -1.590 -33.807  1.00  0.00     0.016 C 
HETATM   25  C   UNL     1      -7.044   0.362 -35.359  1.00  0.00     0.016 C 
ENDBRANCH   1  23
TORSDOF 3
ENDMDL
MODEL 10
REMARK VINA RESULT:      -6.1      3.023      6.001
REMARK  3 active torsions:
REMARK  status: ('A' for Active; 'I' for Inactive)
REMARK    1  A    between atoms: C_2  and  C_3 
REMARK    2  A    between atoms: C_9  and  C_10 
REMARK    3  A    between atoms: C_20  and  N_21 
ROOT
HETATM    1  C   UNL     1      -5.812   1.348 -32.568  1.00  0.00     0.043 A 
HETATM    2  N   UNL     1      -5.686   0.313 -31.665  1.00  0.00    -0.279 N 
HETATM    3  H   UNL     1      -5.730  -0.684 -31.848  1.00  0.00     0.189 HD
HETATM    4  N   UNL     1      -5.529   0.716 -30.389  1.00  0.00    -0.148 NA
HETATM    5  C   UNL     1      -5.506   2.037 -30.505  1.00  0.00     0.199 A 
HETATM    6  C   UNL     1      -5.649   2.500 -31.818  1.00  0.00     0.035 A 
HETATM    7  C   UNL     1      -5.697   3.958 -32.099  1.00  0.00     0.106 A 
HETATM    8  C   UNL     1      -5.704   4.760 -30.810  1.00  0.00     0.067 A 
HETATM    9  C   UNL     1      -6.061   6.231 -30.952  1.00  0.00     0.020 C 
HETATM   10  N   UNL     1      -6.356   7.451 -31.068  1.00  0.00    -0.096 N 
HETATM   11  C   UNL     1      -5.573   4.202 -29.580  1.00  0.00     0.139 A 
HETATM   12  O   UNL     1      -5.409   2.817 -29.411  1.00  0.00    -0.277 OA
ENDROOT
BRANCH   7  13
HETATM   13  C   UNL     1      -4.567   4.292 -33.065  1.00  0.00    -0.022 A 
HETATM   14  C   UNL     1      -3.190   4.157 -32.799  1.00  0.00     0.041 A 
HETATM   15 CL   UNL     1      -2.561   3.587 -31.296  1.00  0.00    -0.084 Cl
HETATM   16  C   UNL     1      -2.235   4.503 -33.766  1.00  0.00     0.024 A 
HETATM   17  C   UNL     1      -2.628   5.002 -35.005  1.00  0.00     0.002 A 
HETATM   18  C   UNL     1      -3.978   5.159 -35.285  1.00  0.00     0.001 A 
HETATM   19  C   UNL     1      -4.934   4.811 -34.328  1.00  0.00     0.010 A 
ENDBRANCH   7  13
BRANCH  11  20
HETATM   20  N   UNL     1      -5.619   4.885 -28.386  1.00  0.00    -0.282 NA
HETATM   21  H   UNL     1      -6.541   5.148 -28.049  1.00  0.00     0.126 HD
HETATM   22  H   UNL     1      -5.035   4.451 -27.674  1.00  0.00     0.126 HD
ENDBRANCH  11  20
BRANCH   1  23
HETATM   23  C   UNL     1      -6.082   1.129 -34.025  1.00  0.00     0.029 C 
HETATM   24  C   UNL     1      -7.407   1.766 -34.447  1.00  0.00     0.016 C 
HETATM   25  C   UNL     1      -6.050  -0.357 -34.381  1.00  0.00     0.016 C 
ENDBRANCH   1  23
TORSDOF 3
ENDMDL
