MODEL 1
REMARK VINA RESULT:      -8.1      0.000      0.000
REMARK  9 active torsions:
REMARK  status: ('A' for Active; 'I' for Inactive)
REMARK    1  A    between atoms: N_4  and  C_5 
REMARK    2  A    between atoms: C_13  and  C_14 
REMARK    3  A    between atoms: C_15  and  C_16 
REMARK       I    between atoms: C_16  and  N_17 
REMARK    4  A    between atoms: N_17  and  C_18 
REMARK    5  A    between atoms: C_18  and  C_19 
REMARK    6  A    between atoms: C_19  and  N_20 
REMARK    7  A    between atoms: C_21  and  O_22 
REMARK    8  A    between atoms: C_21  and  C_23 
REMARK    9  A    between atoms: C_28  and  O_29 
ROOT
HETATM    1  C   UNL     1      -7.885   4.740 -33.099  1.00  0.00     0.241 C 
HETATM    2  N   UNL     1      -8.023   5.497 -31.965  1.00  0.00    -0.356 N 
HETATM    3  O   UNL     1      -7.797   5.207 -34.228  1.00  0.00    -0.269 OA
HETATM    4  H   UNL     1      -7.927   5.089 -31.044  1.00  0.00     0.162 HD
ENDROOT
BRANCH   1   5
HETATM    5  C   UNL     1      -7.858   3.280 -32.836  1.00  0.00     0.075 C 
HETATM    6  C   UNL     1      -6.679   2.640 -32.886  1.00  0.00     0.021 C 
BRANCH   6   7
HETATM    7  C   UNL     1      -6.451   1.240 -32.720  1.00  0.00     0.014 C 
HETATM    8  C   UNL     1      -6.104   0.486 -31.578  1.00  0.00     0.063 C 
HETATM    9  C   UNL     1      -5.847   0.938 -30.187  1.00  0.00     0.073 C 
HETATM   10  N   UNL     1      -6.020  -0.815 -31.861  1.00  0.00    -0.171 NA
HETATM   11  N   UNL     1      -6.177  -0.910 -33.210  1.00  0.00    -0.237 N 
HETATM   12  C   UNL     1      -6.564   0.315 -33.747  1.00  0.00     0.045 C 
HETATM   13  C   UNL     1      -7.071   0.521 -35.133  1.00  0.00     0.071 C 
BRANCH  11  14
HETATM   14  C   UNL     1      -5.933  -2.169 -33.845  1.00  0.00     0.058 A 
HETATM   15  C   UNL     1      -4.622  -2.676 -33.868  1.00  0.00     0.031 A 
HETATM   16  C   UNL     1      -4.342  -3.903 -34.478  1.00  0.00     0.002 A 
HETATM   17  C   UNL     1      -5.364  -4.628 -35.085  1.00  0.00     0.000 A 
HETATM   18  C   UNL     1      -6.661  -4.123 -35.093  1.00  0.00     0.002 A 
HETATM   19  C   UNL     1      -6.946  -2.896 -34.482  1.00  0.00     0.031 A 
ENDBRANCH  11  14
ENDBRANCH   6   7
ENDBRANCH   1   5
BRANCH   2  20
HETATM   20  C   UNL     1      -7.972   6.946 -32.021  1.00  0.00     0.144 C 
BRANCH  20  21
HETATM   21  C   UNL     1      -6.677   7.488 -31.413  1.00  0.00     0.171 C 
BRANCH  21  22
HETATM   22  N   UNL     1      -5.571   7.231 -32.334  1.00  0.00    -0.263 NA
HETATM   23  C   UNL     1      -4.770   6.246 -32.138  1.00  0.00     0.189 C 
BRANCH  23  24
HETATM   24  O   UNL     1      -4.923   5.360 -31.130  1.00  0.00    -0.343 OA
HETATM   25  H   UNL     1      -5.352   4.545 -31.413  1.00  0.00     0.219 HD
ENDBRANCH  23  24
BRANCH  23  26
HETATM   26  C   UNL     1      -3.558   5.927 -32.966  1.00  0.00     0.141 A 
HETATM   27  N   UNL     1      -2.355   6.157 -32.358  1.00  0.00    -0.254 NA
HETATM   28  C   UNL     1      -1.236   5.913 -33.069  1.00  0.00     0.117 A 
HETATM   29  C   UNL     1      -1.242   5.444 -34.370  1.00  0.00     0.022 A 
HETATM   30  C   UNL     1      -2.470   5.207 -34.982  1.00  0.00     0.040 A 
HETATM   31  C   UNL     1      -3.650   5.449 -34.277  1.00  0.00     0.098 A 
BRANCH  31  32
HETATM   32  O   UNL     1      -4.844   5.213 -34.899  1.00  0.00    -0.358 OA
HETATM   33  H   UNL     1      -4.861   4.308 -35.249  1.00  0.00     0.218 HD
ENDBRANCH  31  32
ENDBRANCH  23  26
ENDBRANCH  21  22
ENDBRANCH  20  21
ENDBRANCH   2  20
TORSDOF 9
ENDMDL
MODEL 2
REMARK VINA RESULT:      -8.1      3.287      6.040
REMARK  9 active torsions:
REMARK  status: ('A' for Active; 'I' for Inactive)
REMARK    1  A    between atoms: N_4  and  C_5 
REMARK    2  A    between atoms: C_13  and  C_14 
REMARK    3  A    between atoms: C_15  and  C_16 
REMARK       I    between atoms: C_16  and  N_17 
REMARK    4  A    between atoms: N_17  and  C_18 
REMARK    5  A    between atoms: C_18  and  C_19 
REMARK    6  A    between atoms: C_19  and  N_20 
REMARK    7  A    between atoms: C_21  and  O_22 
REMARK    8  A    between atoms: C_21  and  C_23 
REMARK    9  A    between atoms: C_28  and  O_29 
ROOT
HETATM    1  C   UNL     1      -6.908   4.905 -33.399  1.00  0.00     0.241 C 
HETATM    2  N   UNL     1      -8.250   4.841 -33.668  1.00  0.00    -0.356 N 
HETATM    3  O   UNL     1      -6.259   5.944 -33.394  1.00  0.00    -0.269 OA
HETATM    4  H   UNL     1      -8.780   3.995 -33.503  1.00  0.00     0.162 HD
ENDROOT
BRANCH   1   5
HETATM    5  C   UNL     1      -6.296   3.582 -33.118  1.00  0.00     0.075 C 
HETATM    6  C   UNL     1      -7.034   2.478 -33.317  1.00  0.00     0.021 C 
BRANCH   6   7
HETATM    7  C   UNL     1      -6.651   1.128 -33.054  1.00  0.00     0.014 C 
HETATM    8  C   UNL     1      -6.113   0.525 -31.896  1.00  0.00     0.063 C 
HETATM    9  C   UNL     1      -5.757   1.136 -30.590  1.00  0.00     0.073 C 
HETATM   10  N   UNL     1      -5.930  -0.785 -32.069  1.00  0.00    -0.171 NA
HETATM   11  N   UNL     1      -6.217  -1.027 -33.378  1.00  0.00    -0.237 N 
HETATM   12  C   UNL     1      -6.780   0.099 -33.974  1.00  0.00     0.045 C 
HETATM   13  C   UNL     1      -7.448   0.119 -35.306  1.00  0.00     0.071 C 
BRANCH  11  14
HETATM   14  C   UNL     1      -5.918  -2.317 -33.921  1.00  0.00     0.058 A 
HETATM   15  C   UNL     1      -4.589  -2.773 -33.893  1.00  0.00     0.031 A 
HETATM   16  C   UNL     1      -4.255  -4.027 -34.414  1.00  0.00     0.002 A 
HETATM   17  C   UNL     1      -5.239  -4.831 -34.982  1.00  0.00     0.000 A 
HETATM   18  C   UNL     1      -6.554  -4.377 -35.041  1.00  0.00     0.002 A 
HETATM   19  C   UNL     1      -6.893  -3.124 -34.518  1.00  0.00     0.031 A 
ENDBRANCH  11  14
ENDBRANCH   6   7
ENDBRANCH   1   5
BRANCH   2  20
HETATM   20  C   UNL     1      -9.032   6.045 -33.872  1.00  0.00     0.144 C 
BRANCH  20  21
HETATM   21  C   UNL     1     -10.059   5.867 -34.992  1.00  0.00     0.171 C 
BRANCH  21  22
HETATM   22  N   UNL     1     -11.218   5.147 -34.470  1.00  0.00    -0.263 NA
HETATM   23  C   UNL     1     -11.314   3.872 -34.602  1.00  0.00     0.189 C 
BRANCH  23  24
HETATM   24  O   UNL     1     -10.346   3.115 -35.162  1.00  0.00    -0.343 OA
HETATM   25  H   UNL     1      -9.462   3.363 -34.869  1.00  0.00     0.219 HD
ENDBRANCH  23  24
BRANCH  23  26
HETATM   26  C   UNL     1     -12.485   3.034 -34.177  1.00  0.00     0.141 A 
HETATM   27  N   UNL     1     -13.038   3.366 -32.971  1.00  0.00    -0.254 NA
HETATM   28  C   UNL     1     -14.074   2.626 -32.532  1.00  0.00     0.117 A 
HETATM   29  C   UNL     1     -14.604   1.557 -33.231  1.00  0.00     0.022 A 
HETATM   30  C   UNL     1     -14.040   1.226 -34.460  1.00  0.00     0.040 A 
HETATM   31  C   UNL     1     -12.965   1.970 -34.948  1.00  0.00     0.098 A 
BRANCH  31  32
HETATM   32  O   UNL     1     -12.424   1.625 -36.155  1.00  0.00    -0.358 OA
HETATM   33  H   UNL     1     -12.714   2.251 -36.837  1.00  0.00     0.218 HD
ENDBRANCH  31  32
ENDBRANCH  23  26
ENDBRANCH  21  22
ENDBRANCH  20  21
ENDBRANCH   2  20
TORSDOF 9
ENDMDL
MODEL 3
REMARK VINA RESULT:      -8.0      1.621      2.148
REMARK  9 active torsions:
REMARK  status: ('A' for Active; 'I' for Inactive)
REMARK    1  A    between atoms: N_4  and  C_5 
REMARK    2  A    between atoms: C_13  and  C_14 
REMARK    3  A    between atoms: C_15  and  C_16 
REMARK       I    between atoms: C_16  and  N_17 
REMARK    4  A    between atoms: N_17  and  C_18 
REMARK    5  A    between atoms: C_18  and  C_19 
REMARK    6  A    between atoms: C_19  and  N_20 
REMARK    7  A    between atoms: C_21  and  O_22 
REMARK    8  A    between atoms: C_21  and  C_23 
REMARK    9  A    between atoms: C_28  and  O_29 
ROOT
HETATM    1  C   UNL     1      -5.385   4.954 -33.474  1.00  0.00     0.241 C 
HETATM    2  N   UNL     1      -6.170   5.397 -32.443  1.00  0.00    -0.356 N 
HETATM    3  O   UNL     1      -4.901   5.685 -34.330  1.00  0.00    -0.269 OA
HETATM    4  H   UNL     1      -6.414   4.793 -31.669  1.00  0.00     0.162 HD
ENDROOT
BRANCH   1   5
HETATM    5  C   UNL     1      -5.174   3.485 -33.468  1.00  0.00     0.075 C 
HETATM    6  C   UNL     1      -6.088   2.707 -32.868  1.00  0.00     0.021 C 
BRANCH   6   7
HETATM    7  C   UNL     1      -6.040   1.289 -32.706  1.00  0.00     0.014 C 
HETATM    8  C   UNL     1      -5.799   0.493 -31.565  1.00  0.00     0.063 C 
HETATM    9  C   UNL     1      -5.496   0.905 -30.171  1.00  0.00     0.073 C 
HETATM   10  N   UNL     1      -5.879  -0.807 -31.853  1.00  0.00    -0.171 NA
HETATM   11  N   UNL     1      -6.037  -0.877 -33.204  1.00  0.00    -0.237 N 
HETATM   12  C   UNL     1      -6.263   0.389 -33.738  1.00  0.00     0.045 C 
HETATM   13  C   UNL     1      -6.731   0.662 -35.126  1.00  0.00     0.071 C 
BRANCH  11  14
HETATM   14  C   UNL     1      -5.951  -2.155 -33.842  1.00  0.00     0.058 A 
HETATM   15  C   UNL     1      -4.688  -2.750 -34.002  1.00  0.00     0.031 A 
HETATM   16  C   UNL     1      -4.561  -3.997 -34.621  1.00  0.00     0.002 A 
HETATM   17  C   UNL     1      -5.690  -4.656 -35.100  1.00  0.00     0.000 A 
HETATM   18  C   UNL     1      -6.943  -4.063 -34.972  1.00  0.00     0.002 A 
HETATM   19  C   UNL     1      -7.075  -2.816 -34.351  1.00  0.00     0.031 A 
ENDBRANCH  11  14
ENDBRANCH   6   7
ENDBRANCH   1   5
BRANCH   2  20
HETATM   20  C   UNL     1      -6.405   6.814 -32.234  1.00  0.00     0.144 C 
BRANCH  20  21
HETATM   21  C   UNL     1      -5.778   7.302 -30.927  1.00  0.00     0.171 C 
BRANCH  21  22
HETATM   22  N   UNL     1      -4.324   7.323 -31.071  1.00  0.00    -0.263 NA
HETATM   23  C   UNL     1      -3.607   6.351 -30.632  1.00  0.00     0.189 C 
BRANCH  23  24
HETATM   24  O   UNL     1      -4.135   5.238 -30.076  1.00  0.00    -0.343 OA
HETATM   25  H   UNL     1      -3.626   4.922 -29.321  1.00  0.00     0.219 HD
ENDBRANCH  23  24
BRANCH  23  26
HETATM   26  C   UNL     1      -2.107   6.292 -30.652  1.00  0.00     0.141 A 
HETATM   27  N   UNL     1      -1.470   7.363 -30.089  1.00  0.00    -0.254 NA
HETATM   28  C   UNL     1      -0.123   7.372 -30.107  1.00  0.00     0.117 A 
HETATM   29  C   UNL     1       0.643   6.361 -30.659  1.00  0.00     0.022 A 
HETATM   30  C   UNL     1      -0.011   5.272 -31.227  1.00  0.00     0.040 A 
HETATM   31  C   UNL     1      -1.406   5.228 -31.227  1.00  0.00     0.098 A 
BRANCH  31  32
HETATM   32  O   UNL     1      -2.027   4.150 -31.793  1.00  0.00    -0.358 OA
HETATM   33  H   UNL     1      -1.430   3.385 -31.789  1.00  0.00     0.218 HD
ENDBRANCH  31  32
ENDBRANCH  23  26
ENDBRANCH  21  22
ENDBRANCH  20  21
ENDBRANCH   2  20
TORSDOF 9
ENDMDL
MODEL 4
REMARK VINA RESULT:      -7.9      2.931      3.661
REMARK  9 active torsions:
REMARK  status: ('A' for Active; 'I' for Inactive)
REMARK    1  A    between atoms: N_4  and  C_5 
REMARK    2  A    between atoms: C_13  and  C_14 
REMARK    3  A    between atoms: C_15  and  C_16 
REMARK       I    between atoms: C_16  and  N_17 
REMARK    4  A    between atoms: N_17  and  C_18 
REMARK    5  A    between atoms: C_18  and  C_19 
REMARK    6  A    between atoms: C_19  and  N_20 
REMARK    7  A    between atoms: C_21  and  O_22 
REMARK    8  A    between atoms: C_21  and  C_23 
REMARK    9  A    between atoms: C_28  and  O_29 
ROOT
HETATM    1  C   UNL     1      -6.411   4.785 -28.942  1.00  0.00     0.241 C 
HETATM    2  N   UNL     1      -5.267   5.020 -28.228  1.00  0.00    -0.356 N 
HETATM    3  O   UNL     1      -7.514   5.221 -28.633  1.00  0.00    -0.269 OA
HETATM    4  H   UNL     1      -4.356   4.784 -28.599  1.00  0.00     0.162 HD
ENDROOT
BRANCH   1   5
HETATM    5  C   UNL     1      -6.198   3.935 -30.140  1.00  0.00     0.075 C 
HETATM    6  C   UNL     1      -5.294   2.945 -30.072  1.00  0.00     0.021 C 
BRANCH   6   7
HETATM    7  C   UNL     1      -4.905   2.060 -31.123  1.00  0.00     0.014 C 
HETATM    8  C   UNL     1      -3.910   2.183 -32.117  1.00  0.00     0.063 C 
HETATM    9  C   UNL     1      -2.970   3.301 -32.383  1.00  0.00     0.073 C 
HETATM   10  N   UNL     1      -3.857   1.096 -32.890  1.00  0.00    -0.171 NA
HETATM   11  N   UNL     1      -4.901   0.314 -32.497  1.00  0.00    -0.237 N 
HETATM   12  C   UNL     1      -5.484   0.819 -31.338  1.00  0.00     0.045 C 
HETATM   13  C   UNL     1      -6.471   0.094 -30.489  1.00  0.00     0.071 C 
BRANCH  11  14
HETATM   14  C   UNL     1      -5.232  -0.837 -33.281  1.00  0.00     0.058 A 
HETATM   15  C   UNL     1      -4.251  -1.822 -33.489  1.00  0.00     0.031 A 
HETATM   16  C   UNL     1      -4.535  -2.961 -34.248  1.00  0.00     0.002 A 
HETATM   17  C   UNL     1      -5.793  -3.121 -34.822  1.00  0.00     0.000 A 
HETATM   18  C   UNL     1      -6.764  -2.138 -34.647  1.00  0.00     0.002 A 
HETATM   19  C   UNL     1      -6.485  -0.997 -33.885  1.00  0.00     0.031 A 
ENDBRANCH  11  14
ENDBRANCH   6   7
ENDBRANCH   1   5
BRANCH   2  20
HETATM   20  C   UNL     1      -5.268   5.909 -27.080  1.00  0.00     0.144 C 
BRANCH  20  21
HETATM   21  C   UNL     1      -4.354   7.115 -27.302  1.00  0.00     0.171 C 
BRANCH  21  22
HETATM   22  N   UNL     1      -3.827   7.074 -28.664  1.00  0.00    -0.263 NA
HETATM   23  C   UNL     1      -2.571   6.902 -28.877  1.00  0.00     0.189 C 
BRANCH  23  24
HETATM   24  O   UNL     1      -1.678   6.688 -27.886  1.00  0.00    -0.343 OA
HETATM   25  H   UNL     1      -1.737   7.345 -27.184  1.00  0.00     0.219 HD
ENDBRANCH  23  24
BRANCH  23  26
HETATM   26  C   UNL     1      -1.901   6.916 -30.221  1.00  0.00     0.141 A 
HETATM   27  N   UNL     1      -2.343   7.879 -31.086  1.00  0.00    -0.254 NA
HETATM   28  C   UNL     1      -1.793   7.918 -32.315  1.00  0.00     0.117 A 
HETATM   29  C   UNL     1      -0.813   7.042 -32.744  1.00  0.00     0.022 A 
HETATM   30  C   UNL     1      -0.364   6.066 -31.858  1.00  0.00     0.040 A 
HETATM   31  C   UNL     1      -0.911   5.995 -30.576  1.00  0.00     0.098 A 
BRANCH  31  32
HETATM   32  O   UNL     1      -0.458   5.028 -29.724  1.00  0.00    -0.358 OA
HETATM   33  H   UNL     1      -1.051   4.957 -28.959  1.00  0.00     0.218 HD
ENDBRANCH  31  32
ENDBRANCH  23  26
ENDBRANCH  21  22
ENDBRANCH  20  21
ENDBRANCH   2  20
TORSDOF 9
ENDMDL
MODEL 5
REMARK VINA RESULT:      -7.8      1.870      4.419
REMARK  9 active torsions:
REMARK  status: ('A' for Active; 'I' for Inactive)
REMARK    1  A    between atoms: N_4  and  C_5 
REMARK    2  A    between atoms: C_13  and  C_14 
REMARK    3  A    between atoms: C_15  and  C_16 
REMARK       I    between atoms: C_16  and  N_17 
REMARK    4  A    between atoms: N_17  and  C_18 
REMARK    5  A    between atoms: C_18  and  C_19 
REMARK    6  A    between atoms: C_19  and  N_20 
REMARK    7  A    between atoms: C_21  and  O_22 
REMARK    8  A    between atoms: C_21  and  C_23 
REMARK    9  A    between atoms: C_28  and  O_29 
ROOT
HETATM    1  C   UNL     1      -5.247   5.019 -33.379  1.00  0.00     0.241 C 
HETATM    2  N   UNL     1      -6.191   5.384 -32.456  1.00  0.00    -0.356 N 
HETATM    3  O   UNL     1      -4.818   5.764 -34.252  1.00  0.00    -0.269 OA
HETATM    4  H   UNL     1      -6.398   4.801 -31.655  1.00  0.00     0.162 HD
ENDROOT
BRANCH   1   5
HETATM    5  C   UNL     1      -4.787   3.616 -33.233  1.00  0.00     0.075 C 
HETATM    6  C   UNL     1      -5.705   2.636 -33.234  1.00  0.00     0.021 C 
BRANCH   6   7
HETATM    7  C   UNL     1      -5.474   1.239 -33.051  1.00  0.00     0.014 C 
HETATM    8  C   UNL     1      -4.703   0.544 -32.093  1.00  0.00     0.063 C 
HETATM    9  C   UNL     1      -3.870   1.074 -30.984  1.00  0.00     0.073 C 
HETATM   10  N   UNL     1      -4.788  -0.776 -32.265  1.00  0.00    -0.171 NA
HETATM   11  N   UNL     1      -5.501  -0.954 -33.411  1.00  0.00    -0.237 N 
HETATM   12  C   UNL     1      -6.039   0.254 -33.847  1.00  0.00     0.045 C 
HETATM   13  C   UNL     1      -7.075   0.397 -34.908  1.00  0.00     0.071 C 
BRANCH  11  14
HETATM   14  C   UNL     1      -5.587  -2.268 -33.971  1.00  0.00     0.058 A 
HETATM   15  C   UNL     1      -4.430  -3.065 -34.016  1.00  0.00     0.031 A 
HETATM   16  C   UNL     1      -4.473  -4.354 -34.555  1.00  0.00     0.002 A 
HETATM   17  C   UNL     1      -5.666  -4.855 -35.070  1.00  0.00     0.000 A 
HETATM   18  C   UNL     1      -6.812  -4.064 -35.057  1.00  0.00     0.002 A 
HETATM   19  C   UNL     1      -6.773  -2.774 -34.516  1.00  0.00     0.031 A 
ENDBRANCH  11  14
ENDBRANCH   6   7
ENDBRANCH   1   5
BRANCH   2  20
HETATM   20  C   UNL     1      -6.685   6.747 -32.387  1.00  0.00     0.144 C 
BRANCH  20  21
HETATM   21  C   UNL     1      -8.211   6.798 -32.487  1.00  0.00     0.171 C 
BRANCH  21  22
HETATM   22  N   UNL     1      -8.744   5.443 -32.375  1.00  0.00    -0.263 NA
HETATM   23  C   UNL     1      -8.926   4.720 -33.422  1.00  0.00     0.189 C 
BRANCH  23  24
HETATM   24  O   UNL     1      -8.585   5.126 -34.665  1.00  0.00    -0.343 OA
HETATM   25  H   UNL     1      -7.871   4.602 -35.045  1.00  0.00     0.219 HD
ENDBRANCH  23  24
BRANCH  23  26
HETATM   26  C   UNL     1      -9.535   3.348 -33.444  1.00  0.00     0.141 A 
HETATM   27  N   UNL     1      -9.191   2.537 -32.398  1.00  0.00    -0.254 NA
HETATM   28  C   UNL     1      -9.690   1.285 -32.386  1.00  0.00     0.117 A 
HETATM   29  C   UNL     1     -10.525   0.783 -33.367  1.00  0.00     0.022 A 
HETATM   30  C   UNL     1     -10.875   1.615 -34.426  1.00  0.00     0.040 A 
HETATM   31  C   UNL     1     -10.378   2.918 -34.473  1.00  0.00     0.098 A 
BRANCH  31  32
HETATM   32  O   UNL     1     -10.732   3.716 -35.525  1.00  0.00    -0.358 OA
HETATM   33  H   UNL     1     -10.171   4.508 -35.542  1.00  0.00     0.218 HD
ENDBRANCH  31  32
ENDBRANCH  23  26
ENDBRANCH  21  22
ENDBRANCH  20  21
ENDBRANCH   2  20
TORSDOF 9
ENDMDL
MODEL 6
REMARK VINA RESULT:      -7.7      1.425      2.342
REMARK  9 active torsions:
REMARK  status: ('A' for Active; 'I' for Inactive)
REMARK    1  A    between atoms: N_4  and  C_5 
REMARK    2  A    between atoms: C_13  and  C_14 
REMARK    3  A    between atoms: C_15  and  C_16 
REMARK       I    between atoms: C_16  and  N_17 
REMARK    4  A    between atoms: N_17  and  C_18 
REMARK    5  A    between atoms: C_18  and  C_19 
REMARK    6  A    between atoms: C_19  and  N_20 
REMARK    7  A    between atoms: C_21  and  O_22 
REMARK    8  A    between atoms: C_21  and  C_23 
REMARK    9  A    between atoms: C_28  and  O_29 
ROOT
HETATM    1  C   UNL     1      -6.663   3.771 -30.301  1.00  0.00     0.241 C 
HETATM    2  N   UNL     1      -7.513   4.797 -30.617  1.00  0.00    -0.356 N 
HETATM    3  O   UNL     1      -5.726   3.874 -29.518  1.00  0.00    -0.269 OA
HETATM    4  H   UNL     1      -8.367   4.634 -31.136  1.00  0.00     0.162 HD
ENDROOT
BRANCH   1   5
HETATM    5  C   UNL     1      -6.976   2.504 -31.007  1.00  0.00     0.075 C 
HETATM    6  C   UNL     1      -6.316   2.221 -32.141  1.00  0.00     0.021 C 
BRANCH   6   7
HETATM    7  C   UNL     1      -6.509   1.090 -32.992  1.00  0.00     0.014 C 
HETATM    8  C   UNL     1      -7.503   0.814 -33.956  1.00  0.00     0.063 C 
HETATM    9  C   UNL     1      -8.678   1.626 -34.363  1.00  0.00     0.073 C 
HETATM   10  N   UNL     1      -7.288  -0.358 -34.554  1.00  0.00    -0.171 NA
HETATM   11  N   UNL     1      -6.236  -0.920 -33.898  1.00  0.00    -0.237 N 
HETATM   12  C   UNL     1      -5.660  -0.006 -33.019  1.00  0.00     0.045 C 
HETATM   13  C   UNL     1      -4.349  -0.184 -32.335  1.00  0.00     0.071 C 
BRANCH  11  14
HETATM   14  C   UNL     1      -5.896  -2.281 -34.180  1.00  0.00     0.058 A 
HETATM   15  C   UNL     1      -4.563  -2.696 -34.015  1.00  0.00     0.031 A 
HETATM   16  C   UNL     1      -4.190  -4.017 -34.280  1.00  0.00     0.002 A 
HETATM   17  C   UNL     1      -5.138  -4.933 -34.729  1.00  0.00     0.000 A 
HETATM   18  C   UNL     1      -6.455  -4.526 -34.924  1.00  0.00     0.002 A 
HETATM   19  C   UNL     1      -6.833  -3.205 -34.657  1.00  0.00     0.031 A 
ENDBRANCH  11  14
ENDBRANCH   6   7
ENDBRANCH   1   5
BRANCH   2  20
HETATM   20  C   UNL     1      -7.418   6.083 -29.951  1.00  0.00     0.144 C 
BRANCH  20  21
HETATM   21  C   UNL     1      -6.898   7.169 -30.895  1.00  0.00     0.171 C 
BRANCH  21  22
HETATM   22  N   UNL     1      -5.567   6.795 -31.368  1.00  0.00    -0.263 NA
HETATM   23  C   UNL     1      -5.414   6.202 -32.497  1.00  0.00     0.189 C 
BRANCH  23  24
HETATM   24  O   UNL     1      -6.439   5.943 -33.339  1.00  0.00    -0.343 OA
HETATM   25  H   UNL     1      -7.218   6.479 -33.151  1.00  0.00     0.219 HD
ENDBRANCH  23  24
BRANCH  23  26
HETATM   26  C   UNL     1      -4.112   5.702 -33.054  1.00  0.00     0.141 A 
HETATM   27  N   UNL     1      -3.929   5.909 -34.394  1.00  0.00    -0.254 NA
HETATM   28  C   UNL     1      -2.788   5.454 -34.948  1.00  0.00     0.117 A 
HETATM   29  C   UNL     1      -1.801   4.795 -34.239  1.00  0.00     0.022 A 
HETATM   30  C   UNL     1      -1.991   4.590 -32.876  1.00  0.00     0.040 A 
HETATM   31  C   UNL     1      -3.160   5.048 -32.266  1.00  0.00     0.098 A 
BRANCH  31  32
HETATM   32  O   UNL     1      -3.328   4.833 -30.927  1.00  0.00    -0.358 OA
HETATM   33  H   UNL     1      -3.176   5.658 -30.439  1.00  0.00     0.218 HD
ENDBRANCH  31  32
ENDBRANCH  23  26
ENDBRANCH  21  22
ENDBRANCH  20  21
ENDBRANCH   2  20
TORSDOF 9
ENDMDL
MODEL 7
REMARK VINA RESULT:      -7.6      4.486      5.421
REMARK  9 active torsions:
REMARK  status: ('A' for Active; 'I' for Inactive)
REMARK    1  A    between atoms: N_4  and  C_5 
REMARK    2  A    between atoms: C_13  and  C_14 
REMARK    3  A    between atoms: C_15  and  C_16 
REMARK       I    between atoms: C_16  and  N_17 
REMARK    4  A    between atoms: N_17  and  C_18 
REMARK    5  A    between atoms: C_18  and  C_19 
REMARK    6  A    between atoms: C_19  and  N_20 
REMARK    7  A    between atoms: C_21  and  O_22 
REMARK    8  A    between atoms: C_21  and  C_23 
REMARK    9  A    between atoms: C_28  and  O_29 
ROOT
HETATM    1  C   UNL     1      -6.095   5.428 -28.967  1.00  0.00     0.241 C 
HETATM    2  N   UNL     1      -5.257   6.486 -28.736  1.00  0.00    -0.356 N 
HETATM    3  O   UNL     1      -7.053   5.145 -28.257  1.00  0.00    -0.269 OA
HETATM    4  H   UNL     1      -4.582   6.785 -29.428  1.00  0.00     0.162 HD
ENDROOT
BRANCH   1   5
HETATM    5  C   UNL     1      -5.733   4.637 -30.169  1.00  0.00     0.075 C 
HETATM    6  C   UNL     1      -5.289   3.381 -30.001  1.00  0.00     0.021 C 
BRANCH   6   7
HETATM    7  C   UNL     1      -4.839   2.483 -31.016  1.00  0.00     0.014 C 
HETATM    8  C   UNL     1      -3.750   2.564 -31.910  1.00  0.00     0.063 C 
HETATM    9  C   UNL     1      -2.741   3.641 -32.077  1.00  0.00     0.073 C 
HETATM   10  N   UNL     1      -3.671   1.479 -32.681  1.00  0.00    -0.171 NA
HETATM   11  N   UNL     1      -4.780   0.742 -32.396  1.00  0.00    -0.237 N 
HETATM   12  C   UNL     1      -5.449   1.269 -31.294  1.00  0.00     0.045 C 
HETATM   13  C   UNL     1      -6.542   0.584 -30.548  1.00  0.00     0.071 C 
BRANCH  11  14
HETATM   14  C   UNL     1      -5.083  -0.391 -33.215  1.00  0.00     0.058 A 
HETATM   15  C   UNL     1      -6.258  -0.376 -33.986  1.00  0.00     0.031 A 
HETATM   16  C   UNL     1      -6.590  -1.464 -34.800  1.00  0.00     0.002 A 
HETATM   17  C   UNL     1      -5.763  -2.583 -34.840  1.00  0.00     0.000 A 
HETATM   18  C   UNL     1      -4.612  -2.621 -34.059  1.00  0.00     0.002 A 
HETATM   19  C   UNL     1      -4.274  -1.533 -33.245  1.00  0.00     0.031 A 
ENDBRANCH  11  14
ENDBRANCH   6   7
ENDBRANCH   1   5
BRANCH   2  20
HETATM   20  C   UNL     1      -5.515   7.426 -27.660  1.00  0.00     0.144 C 
BRANCH  20  21
HETATM   21  C   UNL     1      -4.678   7.105 -26.420  1.00  0.00     0.171 C 
BRANCH  21  22
HETATM   22  N   UNL     1      -3.335   7.654 -26.592  1.00  0.00    -0.263 NA
HETATM   23  C   UNL     1      -2.299   6.971 -26.260  1.00  0.00     0.189 C 
BRANCH  23  24
HETATM   24  O   UNL     1      -2.369   5.703 -25.799  1.00  0.00    -0.343 OA
HETATM   25  H   UNL     1      -3.001   5.603 -25.079  1.00  0.00     0.219 HD
ENDBRANCH  23  24
BRANCH  23  26
HETATM   26  C   UNL     1      -0.878   7.452 -26.318  1.00  0.00     0.141 A 
HETATM   27  N   UNL     1      -0.628   8.623 -25.657  1.00  0.00    -0.254 NA
HETATM   28  C   UNL     1       0.627   9.113 -25.702  1.00  0.00     0.117 A 
HETATM   29  C   UNL     1       1.666   8.497 -26.374  1.00  0.00     0.022 A 
HETATM   30  C   UNL     1       1.407   7.304 -27.042  1.00  0.00     0.040 A 
HETATM   31  C   UNL     1       0.119   6.766 -27.018  1.00  0.00     0.098 A 
BRANCH  31  32
HETATM   32  O   UNL     1      -0.114   5.595 -27.683  1.00  0.00    -0.358 OA
HETATM   33  H   UNL     1       0.297   4.857 -27.206  1.00  0.00     0.218 HD
ENDBRANCH  31  32
ENDBRANCH  23  26
ENDBRANCH  21  22
ENDBRANCH  20  21
ENDBRANCH   2  20
TORSDOF 9
ENDMDL
MODEL 8
REMARK VINA RESULT:      -7.6      2.583      4.867
REMARK  9 active torsions:
REMARK  status: ('A' for Active; 'I' for Inactive)
REMARK    1  A    between atoms: N_4  and  C_5 
REMARK    2  A    between atoms: C_13  and  C_14 
REMARK    3  A    between atoms: C_15  and  C_16 
REMARK       I    between atoms: C_16  and  N_17 
REMARK    4  A    between atoms: N_17  and  C_18 
REMARK    5  A    between atoms: C_18  and  C_19 
REMARK    6  A    between atoms: C_19  and  N_20 
REMARK    7  A    between atoms: C_21  and  O_22 
REMARK    8  A    between atoms: C_21  and  C_23 
REMARK    9  A    between atoms: C_28  and  O_29 
ROOT
HETATM    1  C   UNL     1      -6.639   4.797 -29.435  1.00  0.00     0.241 C 
HETATM    2  N   UNL     1      -7.727   4.942 -30.253  1.00  0.00    -0.356 N 
HETATM    3  O   UNL     1      -6.541   5.309 -28.326  1.00  0.00    -0.269 OA
HETATM    4  H   UNL     1      -7.842   4.376 -31.084  1.00  0.00     0.162 HD
ENDROOT
BRANCH   1   5
HETATM    5  C   UNL     1      -5.565   3.956 -30.021  1.00  0.00     0.075 C 
HETATM    6  C   UNL     1      -5.916   2.884 -30.749  1.00  0.00     0.021 C 
BRANCH   6   7
HETATM    7  C   UNL     1      -5.041   1.925 -31.346  1.00  0.00     0.014 C 
HETATM    8  C   UNL     1      -3.783   2.078 -31.967  1.00  0.00     0.063 C 
HETATM    9  C   UNL     1      -2.990   3.310 -32.208  1.00  0.00     0.073 C 
HETATM   10  N   UNL     1      -3.289   0.904 -32.364  1.00  0.00    -0.171 NA
HETATM   11  N   UNL     1      -4.274  -0.007 -32.130  1.00  0.00    -0.237 N 
HETATM   12  C   UNL     1      -5.309   0.565 -31.395  1.00  0.00     0.045 C 
HETATM   13  C   UNL     1      -6.416  -0.189 -30.744  1.00  0.00     0.071 C 
BRANCH  11  14
HETATM   14  C   UNL     1      -4.118  -1.335 -32.642  1.00  0.00     0.058 A 
HETATM   15  C   UNL     1      -4.794  -1.691 -33.822  1.00  0.00     0.031 A 
HETATM   16  C   UNL     1      -4.668  -2.978 -34.354  1.00  0.00     0.002 A 
HETATM   17  C   UNL     1      -3.882  -3.927 -33.705  1.00  0.00     0.000 A 
HETATM   18  C   UNL     1      -3.231  -3.594 -32.521  1.00  0.00     0.002 A 
HETATM   19  C   UNL     1      -3.352  -2.306 -31.986  1.00  0.00     0.031 A 
ENDBRANCH  11  14
ENDBRANCH   6   7
ENDBRANCH   1   5
BRANCH   2  20
HETATM   20  C   UNL     1      -8.912   5.652 -29.806  1.00  0.00     0.144 C 
BRANCH  20  21
HETATM   21  C   UNL     1     -10.169   5.158 -30.526  1.00  0.00     0.171 C 
BRANCH  21  22
HETATM   22  N   UNL     1      -9.777   4.287 -31.632  1.00  0.00    -0.263 NA
HETATM   23  C   UNL     1      -9.601   3.028 -31.445  1.00  0.00     0.189 C 
BRANCH  23  24
HETATM   24  O   UNL     1      -9.822   2.421 -30.258  1.00  0.00    -0.343 OA
HETATM   25  H   UNL     1     -10.651   2.694 -29.849  1.00  0.00     0.219 HD
ENDBRANCH  23  24
BRANCH  23  26
HETATM   26  C   UNL     1      -9.128   2.048 -32.479  1.00  0.00     0.141 A 
HETATM   27  N   UNL     1      -9.577   0.766 -32.322  1.00  0.00    -0.254 NA
HETATM   28  C   UNL     1      -9.158  -0.158 -33.208  1.00  0.00     0.117 A 
HETATM   29  C   UNL     1      -8.305   0.120 -34.260  1.00  0.00     0.022 A 
HETATM   30  C   UNL     1      -7.854   1.427 -34.418  1.00  0.00     0.040 A 
HETATM   31  C   UNL     1      -8.266   2.412 -33.519  1.00  0.00     0.098 A 
BRANCH  31  32
HETATM   32  O   UNL     1      -7.808   3.688 -33.691  1.00  0.00    -0.358 OA
HETATM   33  H   UNL     1      -8.013   3.995 -34.588  1.00  0.00     0.218 HD
ENDBRANCH  31  32
ENDBRANCH  23  26
ENDBRANCH  21  22
ENDBRANCH  20  21
ENDBRANCH   2  20
TORSDOF 9
ENDMDL
MODEL 9
REMARK VINA RESULT:      -7.4      2.738      8.330
REMARK  9 active torsions:
REMARK  status: ('A' for Active; 'I' for Inactive)
REMARK    1  A    between atoms: N_4  and  C_5 
REMARK    2  A    between atoms: C_13  and  C_14 
REMARK    3  A    between atoms: C_15  and  C_16 
REMARK       I    between atoms: C_16  and  N_17 
REMARK    4  A    between atoms: N_17  and  C_18 
REMARK    5  A    between atoms: C_18  and  C_19 
REMARK    6  A    between atoms: C_19  and  N_20 
REMARK    7  A    between atoms: C_21  and  O_22 
REMARK    8  A    between atoms: C_21  and  C_23 
REMARK    9  A    between atoms: C_28  and  O_29 
ROOT
HETATM    1  C   UNL     1      -6.951   4.607 -33.784  1.00  0.00     0.241 C 
HETATM    2  N   UNL     1      -6.920   3.290 -33.407  1.00  0.00    -0.356 N 
HETATM    3  O   UNL     1      -7.908   5.141 -34.331  1.00  0.00    -0.269 OA
HETATM    4  H   UNL     1      -6.183   2.928 -32.815  1.00  0.00     0.162 HD
ENDROOT
BRANCH   1   5
HETATM    5  C   UNL     1      -5.699   5.341 -33.473  1.00  0.00     0.075 C 
HETATM    6  C   UNL     1      -4.634   4.643 -33.047  1.00  0.00     0.021 C 
BRANCH   6   7
HETATM    7  C   UNL     1      -3.366   5.164 -32.646  1.00  0.00     0.014 C 
HETATM    8  C   UNL     1      -2.167   5.344 -33.369  1.00  0.00     0.063 C 
HETATM    9  C   UNL     1      -1.856   5.016 -34.784  1.00  0.00     0.073 C 
HETATM   10  N   UNL     1      -1.220   5.901 -32.612  1.00  0.00    -0.171 NA
HETATM   11  N   UNL     1      -1.744   5.966 -31.356  1.00  0.00    -0.237 N 
HETATM   12  C   UNL     1      -3.097   5.637 -31.371  1.00  0.00     0.045 C 
HETATM   13  C   UNL     1      -4.043   5.850 -30.239  1.00  0.00     0.071 C 
BRANCH  11  14
HETATM   14  C   UNL     1      -0.887   6.333 -30.271  1.00  0.00     0.058 A 
HETATM   15  C   UNL     1      -0.877   7.670 -29.836  1.00  0.00     0.031 A 
HETATM   16  C   UNL     1      -0.054   8.069 -28.778  1.00  0.00     0.002 A 
HETATM   17  C   UNL     1       0.780   7.144 -28.156  1.00  0.00     0.000 A 
HETATM   18  C   UNL     1       0.800   5.824 -28.598  1.00  0.00     0.002 A 
HETATM   19  C   UNL     1      -0.025   5.419 -29.654  1.00  0.00     0.031 A 
ENDBRANCH  11  14
ENDBRANCH   6   7
ENDBRANCH   1   5
BRANCH   2  20
HETATM   20  C   UNL     1      -8.090   2.443 -33.546  1.00  0.00     0.144 C 
BRANCH  20  21
HETATM   21  C   UNL     1      -8.166   1.401 -32.428  1.00  0.00     0.171 C 
BRANCH  21  22
HETATM   22  N   UNL     1      -7.569   0.152 -32.896  1.00  0.00    -0.263 NA
HETATM   23  C   UNL     1      -6.296  -0.021 -32.858  1.00  0.00     0.189 C 
BRANCH  23  24
HETATM   24  O   UNL     1      -5.444   0.889 -32.337  1.00  0.00    -0.343 OA
HETATM   25  H   UNL     1      -4.594   0.905 -32.791  1.00  0.00     0.219 HD
ENDBRANCH  23  24
BRANCH  23  26
HETATM   26  C   UNL     1      -5.561  -1.223 -33.376  1.00  0.00     0.141 A 
HETATM   27  N   UNL     1      -6.103  -1.807 -34.488  1.00  0.00    -0.254 NA
HETATM   28  C   UNL     1      -5.496  -2.907 -34.977  1.00  0.00     0.117 A 
HETATM   29  C   UNL     1      -4.362  -3.469 -34.419  1.00  0.00     0.022 A 
HETATM   30  C   UNL     1      -3.813  -2.867 -33.290  1.00  0.00     0.040 A 
HETATM   31  C   UNL     1      -4.414  -1.727 -32.755  1.00  0.00     0.098 A 
BRANCH  31  32
HETATM   32  O   UNL     1      -3.860  -1.155 -31.644  1.00  0.00    -0.358 OA
HETATM   33  H   UNL     1      -2.960  -0.851 -31.844  1.00  0.00     0.218 HD
ENDBRANCH  31  32
ENDBRANCH  23  26
ENDBRANCH  21  22
ENDBRANCH  20  21
ENDBRANCH   2  20
TORSDOF 9
ENDMDL
MODEL 10
REMARK VINA RESULT:      -7.3      1.411      2.067
REMARK  9 active torsions:
REMARK  status: ('A' for Active; 'I' for Inactive)
REMARK    1  A    between atoms: N_4  and  C_5 
REMARK    2  A    between atoms: C_13  and  C_14 
REMARK    3  A    between atoms: C_15  and  C_16 
REMARK       I    between atoms: C_16  and  N_17 
REMARK    4  A    between atoms: N_17  and  C_18 
REMARK    5  A    between atoms: C_18  and  C_19 
REMARK    6  A    between atoms: C_19  and  N_20 
REMARK    7  A    between atoms: C_21  and  O_22 
REMARK    8  A    between atoms: C_21  and  C_23 
REMARK    9  A    between atoms: C_28  and  O_29 
ROOT
HETATM    1  C   UNL     1      -6.683   3.773 -30.272  1.00  0.00     0.241 C 
HETATM    2  N   UNL     1      -7.283   4.238 -31.411  1.00  0.00    -0.356 N 
HETATM    3  O   UNL     1      -6.667   4.380 -29.208  1.00  0.00    -0.269 OA
HETATM    4  H   UNL     1      -7.417   3.642 -32.218  1.00  0.00     0.162 HD
ENDROOT
BRANCH   1   5
HETATM    5  C   UNL     1      -6.034   2.449 -30.442  1.00  0.00     0.075 C 
HETATM    6  C   UNL     1      -6.036   1.885 -31.661  1.00  0.00     0.021 C 
BRANCH   6   7
HETATM    7  C   UNL     1      -5.518   0.603 -32.017  1.00  0.00     0.014 C 
HETATM    8  C   UNL     1      -4.263   0.007 -31.768  1.00  0.00     0.063 C 
HETATM    9  C   UNL     1      -3.077   0.559 -31.065  1.00  0.00     0.073 C 
HETATM   10  N   UNL     1      -4.207  -1.234 -32.255  1.00  0.00    -0.171 NA
HETATM   11  N   UNL     1      -5.369  -1.412 -32.942  1.00  0.00    -0.237 N 
HETATM   12  C   UNL     1      -6.244  -0.353 -32.712  1.00  0.00     0.045 C 
HETATM   13  C   UNL     1      -7.686  -0.337 -33.086  1.00  0.00     0.071 C 
BRANCH  11  14
HETATM   14  C   UNL     1      -5.516  -2.582 -33.753  1.00  0.00     0.058 A 
HETATM   15  C   UNL     1      -6.700  -2.753 -34.491  1.00  0.00     0.031 A 
HETATM   16  C   UNL     1      -6.883  -3.882 -35.295  1.00  0.00     0.002 A 
HETATM   17  C   UNL     1      -5.894  -4.860 -35.358  1.00  0.00     0.000 A 
HETATM   18  C   UNL     1      -4.730  -4.716 -34.609  1.00  0.00     0.002 A 
HETATM   19  C   UNL     1      -4.542  -3.586 -33.805  1.00  0.00     0.031 A 
ENDBRANCH  11  14
ENDBRANCH   6   7
ENDBRANCH   1   5
BRANCH   2  20
HETATM   20  C   UNL     1      -8.047   5.472 -31.406  1.00  0.00     0.144 C 
BRANCH  20  21
HETATM   21  C   UNL     1      -7.550   6.447 -32.475  1.00  0.00     0.171 C 
BRANCH  21  22
HETATM   22  N   UNL     1      -6.088   6.459 -32.469  1.00  0.00    -0.263 NA
HETATM   23  C   UNL     1      -5.423   5.728 -33.290  1.00  0.00     0.189 C 
BRANCH  23  24
HETATM   24  O   UNL     1      -6.009   4.961 -34.236  1.00  0.00    -0.343 OA
HETATM   25  H   UNL     1      -5.592   4.097 -34.325  1.00  0.00     0.219 HD
ENDBRANCH  23  24
BRANCH  23  26
HETATM   26  C   UNL     1      -3.928   5.596 -33.331  1.00  0.00     0.141 A 
HETATM   27  N   UNL     1      -3.306   5.596 -32.113  1.00  0.00    -0.254 NA
HETATM   28  C   UNL     1      -1.961   5.508 -32.096  1.00  0.00     0.117 A 
HETATM   29  C   UNL     1      -1.184   5.418 -33.236  1.00  0.00     0.022 A 
HETATM   30  C   UNL     1      -1.823   5.415 -34.473  1.00  0.00     0.040 A 
HETATM   31  C   UNL     1      -3.215   5.504 -34.530  1.00  0.00     0.098 A 
BRANCH  31  32
HETATM   32  O   UNL     1      -3.821   5.503 -35.755  1.00  0.00    -0.358 OA
HETATM   33  H   UNL     1      -3.163   5.659 -36.450  1.00  0.00     0.218 HD
ENDBRANCH  31  32
ENDBRANCH  23  26
ENDBRANCH  21  22
ENDBRANCH  20  21
ENDBRANCH   2  20
TORSDOF 9
ENDMDL
