MODEL 1
REMARK VINA RESULT:      -8.6      0.000      0.000
REMARK  8 active torsions:
REMARK  status: ('A' for Active; 'I' for Inactive)
REMARK    1  A    between atoms: C_9  and  S_10 
REMARK    2  A    between atoms: S_10  and  C_11 
REMARK    3  A    between atoms: C_11  and  C_12 
REMARK       I    between atoms: C_12  and  N_13 
REMARK    4  A    between atoms: N_13  and  C_14 
REMARK    5  A    between atoms: C_15  and  O_16 
REMARK    6  A    between atoms: C_20  and  O_21 
REMARK    7  A    between atoms: N_25  and  C_26 
REMARK    8  A    between atoms: C_33  and  N_34 
ROOT
HETATM    1  C   UNL     1      -3.971  -3.432 -33.703  1.00  0.00     0.073 C 
HETATM    2  C   UNL     1      -3.970  -2.250 -32.800  1.00  0.00     0.068 A 
HETATM    3  N   UNL     1      -2.917  -2.046 -31.997  1.00  0.00    -0.177 NA
HETATM    4  N   UNL     1      -3.213  -0.915 -31.337  1.00  0.00    -0.260 N 
HETATM    5  H   UNL     1      -2.551  -0.542 -30.661  1.00  0.00     0.191 HD
HETATM    6  C   UNL     1      -4.441  -0.421 -31.670  1.00  0.00     0.162 A 
HETATM    7  C   UNL     1      -4.976  -1.251 -32.629  1.00  0.00     0.081 A 
HETATM    8  N   UNL     1      -5.019   0.652 -31.143  1.00  0.00    -0.204 NA
HETATM    9  C   UNL     1      -6.240   0.889 -31.636  1.00  0.00     0.177 A 
HETATM   10  N   UNL     1      -6.836   0.144 -32.611  1.00  0.00    -0.276 N 
HETATM   11  C   UNL     1      -6.250  -0.964 -33.152  1.00  0.00     0.124 A 
ENDROOT
BRANCH   9  12
HETATM   12  S   UNL     1      -7.125   2.203 -30.770  1.00  0.00    -0.082 SA
BRANCH  12  13
HETATM   13  C   UNL     1      -5.809   2.994 -29.763  1.00  0.00     0.185 C 
BRANCH  13  14
HETATM   14  C   UNL     1      -4.936   3.990 -30.514  1.00  0.00     0.232 C 
HETATM   15  N   UNL     1      -3.746   3.468 -31.007  1.00  0.00    -0.324 N 
HETATM   16  H   UNL     1      -3.740   2.471 -31.157  1.00  0.00     0.169 HD
HETATM   17  O   UNL     1      -5.332   5.142 -30.685  1.00  0.00    -0.272 OA
BRANCH  15  18
HETATM   18  C   UNL     1      -2.902   4.239 -31.841  1.00  0.00     0.071 A 
HETATM   19  C   UNL     1      -3.147   4.388 -33.221  1.00  0.00     0.095 A 
HETATM   20  C   UNL     1      -2.247   5.134 -33.989  1.00  0.00     0.042 A 
HETATM   21  C   UNL     1      -1.126   5.720 -33.392  1.00  0.00     0.039 A 
HETATM   22  C   UNL     1      -0.895   5.574 -32.026  1.00  0.00     0.070 A 
HETATM   23  C   UNL     1      -1.806   4.873 -31.240  1.00  0.00     0.069 A 
BRANCH  19  24
HETATM   24  O   UNL     1      -4.316   3.852 -33.695  1.00  0.00    -0.354 OA
HETATM   25  C   UNL     1      -5.269   4.745 -34.255  1.00  0.00     0.210 C 
ENDBRANCH  19  24
BRANCH  22  26
HETATM   26  O   UNL     1       0.223   6.186 -31.533  1.00  0.00    -0.356 OA
HETATM   27  C   UNL     1       0.135   6.537 -30.154  1.00  0.00     0.210 C 
ENDBRANCH  22  26
ENDBRANCH  15  18
ENDBRANCH  13  14
ENDBRANCH  12  13
ENDBRANCH   9  12
BRANCH  10  28
HETATM   28  C   UNL     1      -8.115   0.549 -33.124  1.00  0.00     0.043 A 
HETATM   29  C   UNL     1      -9.261  -0.075 -32.622  1.00  0.00     0.031 A 
HETATM   30  C   UNL     1     -10.509   0.344 -33.084  1.00  0.00     0.021 A 
HETATM   31  C   UNL     1     -10.592   1.371 -34.028  1.00  0.00     0.011 A 
HETATM   32 BR   UNL     1     -12.286   1.930 -34.651  1.00  0.00    -0.051 Br
HETATM   33  C   UNL     1      -9.438   1.995 -34.513  1.00  0.00     0.021 A 
HETATM   34  C   UNL     1      -8.183   1.591 -34.052  1.00  0.00     0.031 A 
ENDBRANCH  10  28
BRANCH  11  35
HETATM   35  N   UNL     1      -6.865  -1.756 -34.110  1.00  0.00    -0.384 N 
HETATM   36  H   UNL     1      -6.543  -1.820 -35.068  1.00  0.00     0.157 HD
HETATM   37  H   UNL     1      -7.813  -2.082 -33.957  1.00  0.00     0.157 HD
ENDBRANCH  11  35
TORSDOF 8
ENDMDL
MODEL 2
REMARK VINA RESULT:      -8.2      1.293      1.794
REMARK  8 active torsions:
REMARK  status: ('A' for Active; 'I' for Inactive)
REMARK    1  A    between atoms: C_9  and  S_10 
REMARK    2  A    between atoms: S_10  and  C_11 
REMARK    3  A    between atoms: C_11  and  C_12 
REMARK       I    between atoms: C_12  and  N_13 
REMARK    4  A    between atoms: N_13  and  C_14 
REMARK    5  A    between atoms: C_15  and  O_16 
REMARK    6  A    between atoms: C_20  and  O_21 
REMARK    7  A    between atoms: N_25  and  C_26 
REMARK    8  A    between atoms: C_33  and  N_34 
ROOT
HETATM    1  C   UNL     1      -3.879  -3.364 -33.567  1.00  0.00     0.073 C 
HETATM    2  C   UNL     1      -3.871  -2.166 -32.686  1.00  0.00     0.068 A 
HETATM    3  N   UNL     1      -2.805  -1.937 -31.908  1.00  0.00    -0.177 NA
HETATM    4  N   UNL     1      -3.099  -0.797 -31.262  1.00  0.00    -0.260 N 
HETATM    5  H   UNL     1      -2.428  -0.405 -30.607  1.00  0.00     0.191 HD
HETATM    6  C   UNL     1      -4.338  -0.321 -31.580  1.00  0.00     0.162 A 
HETATM    7  C   UNL     1      -4.884  -1.173 -32.513  1.00  0.00     0.081 A 
HETATM    8  N   UNL     1      -4.916   0.756 -31.061  1.00  0.00    -0.204 NA
HETATM    9  C   UNL     1      -6.150   0.973 -31.534  1.00  0.00     0.177 A 
HETATM   10  N   UNL     1      -6.757   0.204 -32.483  1.00  0.00    -0.276 N 
HETATM   11  C   UNL     1      -6.171  -0.909 -33.016  1.00  0.00     0.124 A 
ENDROOT
BRANCH   9  12
HETATM   12  S   UNL     1      -7.030   2.294 -30.674  1.00  0.00    -0.082 SA
BRANCH  12  13
HETATM   13  C   UNL     1      -6.491   3.802 -31.571  1.00  0.00     0.185 C 
BRANCH  13  14
HETATM   14  C   UNL     1      -5.181   4.406 -31.084  1.00  0.00     0.232 C 
HETATM   15  N   UNL     1      -4.269   4.710 -32.089  1.00  0.00    -0.324 N 
HETATM   16  H   UNL     1      -4.666   4.859 -33.004  1.00  0.00     0.169 HD
HETATM   17  O   UNL     1      -5.021   4.633 -29.886  1.00  0.00    -0.272 OA
BRANCH  15  18
HETATM   18  C   UNL     1      -3.068   5.400 -31.799  1.00  0.00     0.071 A 
HETATM   19  C   UNL     1      -2.991   6.807 -31.818  1.00  0.00     0.095 A 
HETATM   20  C   UNL     1      -1.760   7.418 -31.559  1.00  0.00     0.042 A 
HETATM   21  C   UNL     1      -0.630   6.641 -31.284  1.00  0.00     0.039 A 
HETATM   22  C   UNL     1      -0.716   5.251 -31.260  1.00  0.00     0.070 A 
HETATM   23  C   UNL     1      -1.945   4.629 -31.471  1.00  0.00     0.069 A 
BRANCH  19  24
HETATM   24  O   UNL     1      -4.169   7.481 -32.008  1.00  0.00    -0.354 OA
HETATM   25  C   UNL     1      -4.741   8.136 -30.884  1.00  0.00     0.210 C 
ENDBRANCH  19  24
BRANCH  22  26
HETATM   26  O   UNL     1       0.439   4.578 -30.978  1.00  0.00    -0.356 OA
HETATM   27  C   UNL     1       0.944   4.810 -29.667  1.00  0.00     0.210 C 
ENDBRANCH  22  26
ENDBRANCH  15  18
ENDBRANCH  13  14
ENDBRANCH  12  13
ENDBRANCH   9  12
BRANCH  10  28
HETATM   28  C   UNL     1      -8.050   0.587 -32.978  1.00  0.00     0.043 A 
HETATM   29  C   UNL     1      -8.117   1.562 -33.977  1.00  0.00     0.031 A 
HETATM   30  C   UNL     1      -9.366   1.907 -34.494  1.00  0.00     0.021 A 
HETATM   31  C   UNL     1     -10.516   1.276 -34.012  1.00  0.00     0.011 A 
HETATM   32 BR   UNL     1     -12.204   1.752 -34.715  1.00  0.00    -0.051 Br
HETATM   33  C   UNL     1     -10.434   0.293 -33.021  1.00  0.00     0.021 A 
HETATM   34  C   UNL     1      -9.189  -0.068 -32.501  1.00  0.00     0.031 A 
ENDBRANCH  10  28
BRANCH  11  35
HETATM   35  N   UNL     1      -6.796  -1.724 -33.946  1.00  0.00    -0.384 N 
HETATM   36  H   UNL     1      -6.478  -2.660 -34.167  1.00  0.00     0.157 HD
HETATM   37  H   UNL     1      -7.422  -1.314 -34.631  1.00  0.00     0.157 HD
ENDBRANCH  11  35
TORSDOF 8
ENDMDL
MODEL 3
REMARK VINA RESULT:      -8.1      3.629      7.312
REMARK  8 active torsions:
REMARK  status: ('A' for Active; 'I' for Inactive)
REMARK    1  A    between atoms: C_9  and  S_10 
REMARK    2  A    between atoms: S_10  and  C_11 
REMARK    3  A    between atoms: C_11  and  C_12 
REMARK       I    between atoms: C_12  and  N_13 
REMARK    4  A    between atoms: N_13  and  C_14 
REMARK    5  A    between atoms: C_15  and  O_16 
REMARK    6  A    between atoms: C_20  and  O_21 
REMARK    7  A    between atoms: N_25  and  C_26 
REMARK    8  A    between atoms: C_33  and  N_34 
ROOT
HETATM    1  C   UNL     1     -11.079   4.117 -34.691  1.00  0.00     0.073 C 
HETATM    2  C   UNL     1     -10.403   3.340 -33.619  1.00  0.00     0.068 A 
HETATM    3  N   UNL     1     -11.063   2.334 -33.029  1.00  0.00    -0.177 NA
HETATM    4  N   UNL     1     -10.190   1.838 -32.137  1.00  0.00    -0.260 N 
HETATM    5  H   UNL     1     -10.460   1.045 -31.560  1.00  0.00     0.191 HD
HETATM    6  C   UNL     1      -9.013   2.527 -32.118  1.00  0.00     0.162 A 
HETATM    7  C   UNL     1      -9.095   3.515 -33.073  1.00  0.00     0.081 A 
HETATM    8  N   UNL     1      -7.988   2.297 -31.306  1.00  0.00    -0.204 NA
HETATM    9  C   UNL     1      -6.970   3.149 -31.486  1.00  0.00     0.177 A 
HETATM   10  N   UNL     1      -6.948   4.134 -32.429  1.00  0.00    -0.276 N 
HETATM   11  C   UNL     1      -8.001   4.380 -33.263  1.00  0.00     0.124 A 
ENDROOT
BRANCH   9  12
HETATM   12  S   UNL     1      -5.671   2.993 -30.242  1.00  0.00    -0.082 SA
BRANCH  12  13
HETATM   13  C   UNL     1      -4.465   1.864 -31.042  1.00  0.00     0.185 C 
BRANCH  13  14
HETATM   14  C   UNL     1      -5.055   0.567 -31.577  1.00  0.00     0.232 C 
HETATM   15  N   UNL     1      -4.901   0.374 -32.945  1.00  0.00    -0.324 N 
HETATM   16  H   UNL     1      -4.134   0.874 -33.368  1.00  0.00     0.169 HD
HETATM   17  O   UNL     1      -5.572  -0.235 -30.799  1.00  0.00    -0.272 OA
BRANCH  15  18
HETATM   18  C   UNL     1      -5.277  -0.845 -33.556  1.00  0.00     0.071 A 
HETATM   19  C   UNL     1      -6.600  -1.100 -33.967  1.00  0.00     0.095 A 
HETATM   20  C   UNL     1      -6.905  -2.343 -34.529  1.00  0.00     0.042 A 
HETATM   21  C   UNL     1      -5.909  -3.313 -34.680  1.00  0.00     0.039 A 
HETATM   22  C   UNL     1      -4.601  -3.052 -34.279  1.00  0.00     0.070 A 
HETATM   23  C   UNL     1      -4.272  -1.802 -33.759  1.00  0.00     0.069 A 
BRANCH  19  24
HETATM   24  O   UNL     1      -7.484  -0.057 -33.860  1.00  0.00    -0.354 OA
HETATM   25  C   UNL     1      -7.873   0.601 -35.058  1.00  0.00     0.210 C 
ENDBRANCH  19  24
BRANCH  22  26
HETATM   26  O   UNL     1      -3.697  -4.058 -34.469  1.00  0.00    -0.356 OA
HETATM   27  C   UNL     1      -3.528  -4.912 -33.341  1.00  0.00     0.210 C 
ENDBRANCH  22  26
ENDBRANCH  15  18
ENDBRANCH  13  14
ENDBRANCH  12  13
ENDBRANCH   9  12
BRANCH  10  28
HETATM   28  C   UNL     1      -5.763   4.930 -32.588  1.00  0.00     0.043 A 
HETATM   29  C   UNL     1      -5.619   6.074 -31.798  1.00  0.00     0.031 A 
HETATM   30  C   UNL     1      -4.451   6.827 -31.916  1.00  0.00     0.021 A 
HETATM   31  C   UNL     1      -3.453   6.427 -32.809  1.00  0.00     0.011 A 
HETATM   32 BR   UNL     1      -1.875   7.454 -32.965  1.00  0.00    -0.051 Br
HETATM   33  C   UNL     1      -3.604   5.273 -33.584  1.00  0.00     0.021 A 
HETATM   34  C   UNL     1      -4.765   4.506 -33.470  1.00  0.00     0.031 A 
ENDBRANCH  10  28
BRANCH  11  35
HETATM   35  N   UNL     1      -8.008   5.407 -34.193  1.00  0.00    -0.384 N 
HETATM   36  H   UNL     1      -8.840   5.934 -34.432  1.00  0.00     0.157 HD
HETATM   37  H   UNL     1      -7.250   5.483 -34.861  1.00  0.00     0.157 HD
ENDBRANCH  11  35
TORSDOF 8
ENDMDL
MODEL 4
REMARK VINA RESULT:      -8.1      4.030      7.465
REMARK  8 active torsions:
REMARK  status: ('A' for Active; 'I' for Inactive)
REMARK    1  A    between atoms: C_9  and  S_10 
REMARK    2  A    between atoms: S_10  and  C_11 
REMARK    3  A    between atoms: C_11  and  C_12 
REMARK       I    between atoms: C_12  and  N_13 
REMARK    4  A    between atoms: N_13  and  C_14 
REMARK    5  A    between atoms: C_15  and  O_16 
REMARK    6  A    between atoms: C_20  and  O_21 
REMARK    7  A    between atoms: N_25  and  C_26 
REMARK    8  A    between atoms: C_33  and  N_34 
ROOT
HETATM    1  C   UNL     1     -14.954   0.665 -34.180  1.00  0.00     0.073 C 
HETATM    2  C   UNL     1     -13.522   0.534 -33.803  1.00  0.00     0.068 A 
HETATM    3  N   UNL     1     -13.052  -0.667 -33.439  1.00  0.00    -0.177 NA
HETATM    4  N   UNL     1     -11.752  -0.454 -33.181  1.00  0.00    -0.260 N 
HETATM    5  H   UNL     1     -11.166  -1.232 -32.889  1.00  0.00     0.191 HD
HETATM    6  C   UNL     1     -11.396   0.854 -33.332  1.00  0.00     0.162 A 
HETATM    7  C   UNL     1     -12.513   1.544 -33.745  1.00  0.00     0.081 A 
HETATM    8  N   UNL     1     -10.194   1.367 -33.097  1.00  0.00    -0.204 NA
HETATM    9  C   UNL     1     -10.135   2.689 -33.299  1.00  0.00     0.177 A 
HETATM   10  N   UNL     1     -11.179   3.448 -33.741  1.00  0.00    -0.276 N 
HETATM   11  C   UNL     1     -12.420   2.928 -33.978  1.00  0.00     0.124 A 
ENDROOT
BRANCH   9  12
HETATM   12  S   UNL     1      -8.578   3.432 -32.767  1.00  0.00    -0.082 SA
BRANCH  12  13
HETATM   13  C   UNL     1      -8.112   2.418 -31.309  1.00  0.00     0.185 C 
BRANCH  13  14
HETATM   14  C   UNL     1      -7.474   1.075 -31.638  1.00  0.00     0.232 C 
HETATM   15  N   UNL     1      -7.039   0.941 -32.951  1.00  0.00    -0.324 N 
HETATM   16  H   UNL     1      -6.840   1.805 -33.432  1.00  0.00     0.169 HD
HETATM   17  O   UNL     1      -7.335   0.232 -30.752  1.00  0.00    -0.272 OA
BRANCH  15  18
HETATM   18  C   UNL     1      -6.306  -0.197 -33.363  1.00  0.00     0.071 A 
HETATM   19  C   UNL     1      -4.902  -0.260 -33.261  1.00  0.00     0.095 A 
HETATM   20  C   UNL     1      -4.242  -1.402 -33.725  1.00  0.00     0.042 A 
HETATM   21  C   UNL     1      -4.969  -2.461 -34.277  1.00  0.00     0.039 A 
HETATM   22  C   UNL     1      -6.357  -2.395 -34.368  1.00  0.00     0.070 A 
HETATM   23  C   UNL     1      -7.032  -1.284 -33.869  1.00  0.00     0.069 A 
BRANCH  19  24
HETATM   24  O   UNL     1      -4.289   0.788 -32.625  1.00  0.00    -0.354 OA
HETATM   25  C   UNL     1      -3.702   0.535 -31.356  1.00  0.00     0.210 C 
ENDBRANCH  19  24
BRANCH  22  26
HETATM   26  O   UNL     1      -6.980  -3.480 -34.919  1.00  0.00    -0.356 OA
HETATM   27  C   UNL     1      -6.101  -4.552 -35.249  1.00  0.00     0.210 C 
ENDBRANCH  22  26
ENDBRANCH  15  18
ENDBRANCH  13  14
ENDBRANCH  12  13
ENDBRANCH   9  12
BRANCH  10  28
HETATM   28  C   UNL     1     -10.972   4.845 -34.007  1.00  0.00     0.043 A 
HETATM   29  C   UNL     1     -10.534   5.221 -35.279  1.00  0.00     0.031 A 
HETATM   30  C   UNL     1     -10.373   6.578 -35.558  1.00  0.00     0.021 A 
HETATM   31  C   UNL     1     -10.653   7.529 -34.572  1.00  0.00     0.011 A 
HETATM   32 BR   UNL     1     -10.430   9.365 -34.957  1.00  0.00    -0.051 Br
HETATM   33  C   UNL     1     -11.104   7.139 -33.307  1.00  0.00     0.021 A 
HETATM   34  C   UNL     1     -11.277   5.784 -33.018  1.00  0.00     0.031 A 
ENDBRANCH  10  28
BRANCH  11  35
HETATM   35  N   UNL     1     -13.500   3.697 -34.382  1.00  0.00    -0.384 N 
HETATM   36  H   UNL     1     -13.903   3.643 -35.310  1.00  0.00     0.157 HD
HETATM   37  H   UNL     1     -13.746   4.530 -33.859  1.00  0.00     0.157 HD
ENDBRANCH  11  35
TORSDOF 8
ENDMDL
MODEL 5
REMARK VINA RESULT:      -8.0      2.772      6.381
REMARK  8 active torsions:
REMARK  status: ('A' for Active; 'I' for Inactive)
REMARK    1  A    between atoms: C_9  and  S_10 
REMARK    2  A    between atoms: S_10  and  C_11 
REMARK    3  A    between atoms: C_11  and  C_12 
REMARK       I    between atoms: C_12  and  N_13 
REMARK    4  A    between atoms: N_13  and  C_14 
REMARK    5  A    between atoms: C_15  and  O_16 
REMARK    6  A    between atoms: C_20  and  O_21 
REMARK    7  A    between atoms: N_25  and  C_26 
REMARK    8  A    between atoms: C_33  and  N_34 
ROOT
HETATM    1  C   UNL     1      -1.238   5.548 -34.557  1.00  0.00     0.073 C 
HETATM    2  C   UNL     1      -1.761   5.073 -33.250  1.00  0.00     0.068 A 
HETATM    3  N   UNL     1      -0.901   4.845 -32.248  1.00  0.00    -0.177 NA
HETATM    4  N   UNL     1      -1.675   4.450 -31.225  1.00  0.00    -0.260 N 
HETATM    5  H   UNL     1      -1.246   4.223 -30.331  1.00  0.00     0.191 HD
HETATM    6  C   UNL     1      -2.995   4.383 -31.562  1.00  0.00     0.162 A 
HETATM    7  C   UNL     1      -3.109   4.788 -32.873  1.00  0.00     0.081 A 
HETATM    8  N   UNL     1      -3.983   3.977 -30.773  1.00  0.00    -0.204 NA
HETATM    9  C   UNL     1      -5.178   3.983 -31.376  1.00  0.00     0.177 A 
HETATM   10  N   UNL     1      -5.392   4.400 -32.658  1.00  0.00    -0.276 N 
HETATM   11  C   UNL     1      -4.380   4.813 -33.477  1.00  0.00     0.124 A 
ENDROOT
BRANCH   9  12
HETATM   12  S   UNL     1      -6.486   3.222 -30.393  1.00  0.00    -0.082 SA
BRANCH  12  13
HETATM   13  C   UNL     1      -5.757   1.607 -29.912  1.00  0.00     0.185 C 
BRANCH  13  14
HETATM   14  C   UNL     1      -6.145   0.435 -30.804  1.00  0.00     0.232 C 
HETATM   15  N   UNL     1      -5.643   0.495 -32.099  1.00  0.00    -0.324 N 
HETATM   16  H   UNL     1      -4.814   1.057 -32.217  1.00  0.00     0.169 HD
HETATM   17  O   UNL     1      -6.811  -0.490 -30.341  1.00  0.00    -0.272 OA
BRANCH  15  18
HETATM   18  C   UNL     1      -5.808  -0.587 -32.995  1.00  0.00     0.071 A 
HETATM   19  C   UNL     1      -7.013  -0.805 -33.693  1.00  0.00     0.095 A 
HETATM   20  C   UNL     1      -7.114  -1.919 -34.532  1.00  0.00     0.042 A 
HETATM   21  C   UNL     1      -6.035  -2.796 -34.675  1.00  0.00     0.039 A 
HETATM   22  C   UNL     1      -4.844  -2.570 -33.988  1.00  0.00     0.070 A 
HETATM   23  C   UNL     1      -4.712  -1.441 -33.183  1.00  0.00     0.069 A 
BRANCH  19  24
HETATM   24  O   UNL     1      -7.979   0.157 -33.557  1.00  0.00    -0.354 OA
HETATM   25  C   UNL     1      -9.204  -0.223 -32.945  1.00  0.00     0.210 C 
ENDBRANCH  19  24
BRANCH  22  26
HETATM   26  O   UNL     1      -3.845  -3.479 -34.193  1.00  0.00    -0.356 OA
HETATM   27  C   UNL     1      -4.248  -4.836 -34.030  1.00  0.00     0.210 C 
ENDBRANCH  22  26
ENDBRANCH  15  18
ENDBRANCH  13  14
ENDBRANCH  12  13
ENDBRANCH   9  12
BRANCH  10  28
HETATM   28  C   UNL     1      -6.734   4.446 -33.168  1.00  0.00     0.043 A 
HETATM   29  C   UNL     1      -7.438   5.651 -33.078  1.00  0.00     0.031 A 
HETATM   30  C   UNL     1      -8.725   5.715 -33.612  1.00  0.00     0.021 A 
HETATM   31  C   UNL     1      -9.282   4.589 -34.224  1.00  0.00     0.011 A 
HETATM   32 BR   UNL     1     -11.027   4.684 -34.941  1.00  0.00    -0.051 Br
HETATM   33  C   UNL     1      -8.561   3.394 -34.318  1.00  0.00     0.021 A 
HETATM   34  C   UNL     1      -7.269   3.318 -33.796  1.00  0.00     0.031 A 
ENDBRANCH  10  28
BRANCH  11  35
HETATM   35  N   UNL     1      -4.579   5.194 -34.795  1.00  0.00    -0.384 N 
HETATM   36  H   UNL     1      -4.899   4.557 -35.514  1.00  0.00     0.157 HD
HETATM   37  H   UNL     1      -4.150   6.046 -35.140  1.00  0.00     0.157 HD
ENDBRANCH  11  35
TORSDOF 8
ENDMDL
MODEL 6
REMARK VINA RESULT:      -7.9      3.001      5.136
REMARK  8 active torsions:
REMARK  status: ('A' for Active; 'I' for Inactive)
REMARK    1  A    between atoms: C_9  and  S_10 
REMARK    2  A    between atoms: S_10  and  C_11 
REMARK    3  A    between atoms: C_11  and  C_12 
REMARK       I    between atoms: C_12  and  N_13 
REMARK    4  A    between atoms: N_13  and  C_14 
REMARK    5  A    between atoms: C_15  and  O_16 
REMARK    6  A    between atoms: C_20  and  O_21 
REMARK    7  A    between atoms: N_25  and  C_26 
REMARK    8  A    between atoms: C_33  and  N_34 
ROOT
HETATM    1  C   UNL     1     -12.743   0.592 -33.635  1.00  0.00     0.073 C 
HETATM    2  C   UNL     1     -11.867   1.789 -33.736  1.00  0.00     0.068 A 
HETATM    3  N   UNL     1     -12.420   2.979 -34.006  1.00  0.00    -0.177 NA
HETATM    4  N   UNL     1     -11.386   3.835 -34.015  1.00  0.00    -0.260 N 
HETATM    5  H   UNL     1     -11.554   4.822 -34.192  1.00  0.00     0.191 HD
HETATM    6  C   UNL     1     -10.191   3.214 -33.798  1.00  0.00     0.162 A 
HETATM    7  C   UNL     1     -10.447   1.876 -33.602  1.00  0.00     0.081 A 
HETATM    8  N   UNL     1      -8.997   3.796 -33.802  1.00  0.00    -0.204 NA
HETATM    9  C   UNL     1      -7.991   2.939 -33.591  1.00  0.00     0.177 A 
HETATM   10  N   UNL     1      -8.151   1.605 -33.353  1.00  0.00    -0.276 N 
HETATM   11  C   UNL     1      -9.376   0.999 -33.354  1.00  0.00     0.124 A 
ENDROOT
BRANCH   9  12
HETATM   12  S   UNL     1      -6.358   3.674 -33.820  1.00  0.00    -0.082 SA
BRANCH  12  13
HETATM   13  C   UNL     1      -6.028   4.465 -32.196  1.00  0.00     0.185 C 
BRANCH  13  14
HETATM   14  C   UNL     1      -4.576   4.416 -31.740  1.00  0.00     0.232 C 
HETATM   15  N   UNL     1      -3.831   5.549 -32.045  1.00  0.00    -0.324 N 
HETATM   16  H   UNL     1      -4.363   6.395 -32.179  1.00  0.00     0.169 HD
HETATM   17  O   UNL     1      -4.166   3.443 -31.109  1.00  0.00    -0.272 OA
BRANCH  15  18
HETATM   18  C   UNL     1      -2.509   5.703 -31.564  1.00  0.00     0.071 A 
HETATM   19  C   UNL     1      -1.394   5.199 -32.264  1.00  0.00     0.095 A 
HETATM   20  C   UNL     1      -0.121   5.354 -31.707  1.00  0.00     0.042 A 
HETATM   21  C   UNL     1       0.038   6.002 -30.478  1.00  0.00     0.039 A 
HETATM   22  C   UNL     1      -1.068   6.504 -29.795  1.00  0.00     0.070 A 
HETATM   23  C   UNL     1      -2.337   6.397 -30.358  1.00  0.00     0.069 A 
BRANCH  19  24
HETATM   24  O   UNL     1      -1.642   4.661 -33.500  1.00  0.00    -0.354 OA
HETATM   25  C   UNL     1      -1.334   5.455 -34.637  1.00  0.00     0.210 C 
ENDBRANCH  19  24
BRANCH  22  26
HETATM   26  O   UNL     1      -0.814   7.124 -28.605  1.00  0.00    -0.356 OA
HETATM   27  C   UNL     1       0.045   6.389 -27.737  1.00  0.00     0.210 C 
ENDBRANCH  22  26
ENDBRANCH  15  18
ENDBRANCH  13  14
ENDBRANCH  12  13
ENDBRANCH   9  12
BRANCH  10  28
HETATM   28  C   UNL     1      -7.001   0.800 -33.051  1.00  0.00     0.043 A 
HETATM   29  C   UNL     1      -6.614   0.668 -31.714  1.00  0.00     0.031 A 
HETATM   30  C   UNL     1      -5.525  -0.149 -31.410  1.00  0.00     0.021 A 
HETATM   31  C   UNL     1      -4.848  -0.815 -32.435  1.00  0.00     0.011 A 
HETATM   32 BR   UNL     1      -3.371  -1.917 -32.014  1.00  0.00    -0.051 Br
HETATM   33  C   UNL     1      -5.253  -0.684 -33.766  1.00  0.00     0.021 A 
HETATM   34  C   UNL     1      -6.347   0.123 -34.084  1.00  0.00     0.031 A 
ENDBRANCH  10  28
BRANCH  11  35
HETATM   35  N   UNL     1      -9.548  -0.362 -33.159  1.00  0.00    -0.384 N 
HETATM   36  H   UNL     1     -10.456  -0.798 -33.059  1.00  0.00     0.157 HD
HETATM   37  H   UNL     1      -8.768  -0.925 -32.836  1.00  0.00     0.157 HD
ENDBRANCH  11  35
TORSDOF 8
ENDMDL
MODEL 7
REMARK VINA RESULT:      -7.9      2.181      2.614
REMARK  8 active torsions:
REMARK  status: ('A' for Active; 'I' for Inactive)
REMARK    1  A    between atoms: C_9  and  S_10 
REMARK    2  A    between atoms: S_10  and  C_11 
REMARK    3  A    between atoms: C_11  and  C_12 
REMARK       I    between atoms: C_12  and  N_13 
REMARK    4  A    between atoms: N_13  and  C_14 
REMARK    5  A    between atoms: C_15  and  O_16 
REMARK    6  A    between atoms: C_20  and  O_21 
REMARK    7  A    between atoms: N_25  and  C_26 
REMARK    8  A    between atoms: C_33  and  N_34 
ROOT
HETATM    1  C   UNL     1      -6.096  -3.990 -35.601  1.00  0.00     0.073 C 
HETATM    2  C   UNL     1      -5.257  -3.347 -34.555  1.00  0.00     0.068 A 
HETATM    3  N   UNL     1      -4.176  -3.994 -34.099  1.00  0.00    -0.177 NA
HETATM    4  N   UNL     1      -3.641  -3.158 -33.195  1.00  0.00    -0.260 N 
HETATM    5  H   UNL     1      -2.790  -3.426 -32.707  1.00  0.00     0.191 HD
HETATM    6  C   UNL     1      -4.374  -2.019 -33.038  1.00  0.00     0.162 A 
HETATM    7  C   UNL     1      -5.438  -2.086 -33.909  1.00  0.00     0.081 A 
HETATM    8  N   UNL     1      -4.117  -1.037 -32.181  1.00  0.00    -0.204 NA
HETATM    9  C   UNL     1      -5.023  -0.052 -32.219  1.00  0.00     0.177 A 
HETATM   10  N   UNL     1      -6.087  -0.016 -33.071  1.00  0.00    -0.276 N 
HETATM   11  C   UNL     1      -6.361  -1.025 -33.951  1.00  0.00     0.124 A 
ENDROOT
BRANCH   9  12
HETATM   12  S   UNL     1      -4.813   1.171 -30.907  1.00  0.00    -0.082 SA
BRANCH  12  13
HETATM   13  C   UNL     1      -3.257   2.023 -31.381  1.00  0.00     0.185 C 
BRANCH  13  14
HETATM   14  C   UNL     1      -3.376   3.532 -31.545  1.00  0.00     0.232 C 
HETATM   15  N   UNL     1      -2.212   4.243 -31.276  1.00  0.00    -0.324 N 
HETATM   16  H   UNL     1      -1.354   3.720 -31.369  1.00  0.00     0.169 HD
HETATM   17  O   UNL     1      -4.434   4.023 -31.938  1.00  0.00    -0.272 OA
BRANCH  15  18
HETATM   18  C   UNL     1      -2.134   5.634 -31.518  1.00  0.00     0.071 A 
HETATM   19  C   UNL     1      -1.531   6.160 -32.677  1.00  0.00     0.095 A 
HETATM   20  C   UNL     1      -1.457   7.548 -32.829  1.00  0.00     0.042 A 
HETATM   21  C   UNL     1      -1.977   8.395 -31.845  1.00  0.00     0.039 A 
HETATM   22  C   UNL     1      -2.579   7.868 -30.705  1.00  0.00     0.070 A 
HETATM   23  C   UNL     1      -2.700   6.488 -30.560  1.00  0.00     0.069 A 
BRANCH  19  24
HETATM   24  O   UNL     1      -1.132   5.252 -33.624  1.00  0.00    -0.354 OA
HETATM   25  C   UNL     1      -1.956   5.093 -34.770  1.00  0.00     0.210 C 
ENDBRANCH  19  24
BRANCH  22  26
HETATM   26  O   UNL     1      -3.061   8.773 -29.802  1.00  0.00    -0.356 OA
HETATM   27  C   UNL     1      -2.054   9.562 -29.173  1.00  0.00     0.210 C 
ENDBRANCH  22  26
ENDBRANCH  15  18
ENDBRANCH  13  14
ENDBRANCH  12  13
ENDBRANCH   9  12
BRANCH  10  28
HETATM   28  C   UNL     1      -6.943   1.138 -33.082  1.00  0.00     0.043 A 
HETATM   29  C   UNL     1      -8.054   1.149 -32.234  1.00  0.00     0.031 A 
HETATM   30  C   UNL     1      -8.864   2.284 -32.206  1.00  0.00     0.021 A 
HETATM   31  C   UNL     1      -8.552   3.380 -33.016  1.00  0.00     0.011 A 
HETATM   32 BR   UNL     1      -9.657   4.913 -32.975  1.00  0.00    -0.051 Br
HETATM   33  C   UNL     1      -7.431   3.360 -33.850  1.00  0.00     0.021 A 
HETATM   34  C   UNL     1      -6.606   2.234 -33.880  1.00  0.00     0.031 A 
ENDBRANCH  10  28
BRANCH  11  35
HETATM   35  N   UNL     1      -7.465  -1.021 -34.789  1.00  0.00    -0.384 N 
HETATM   36  H   UNL     1      -8.105  -0.240 -34.859  1.00  0.00     0.157 HD
HETATM   37  H   UNL     1      -7.823  -1.899 -35.150  1.00  0.00     0.157 HD
ENDBRANCH  11  35
TORSDOF 8
ENDMDL
MODEL 8
REMARK VINA RESULT:      -7.8      3.697      7.599
REMARK  8 active torsions:
REMARK  status: ('A' for Active; 'I' for Inactive)
REMARK    1  A    between atoms: C_9  and  S_10 
REMARK    2  A    between atoms: S_10  and  C_11 
REMARK    3  A    between atoms: C_11  and  C_12 
REMARK       I    between atoms: C_12  and  N_13 
REMARK    4  A    between atoms: N_13  and  C_14 
REMARK    5  A    between atoms: C_15  and  O_16 
REMARK    6  A    between atoms: C_20  and  O_21 
REMARK    7  A    between atoms: N_25  and  C_26 
REMARK    8  A    between atoms: C_33  and  N_34 
ROOT
HETATM    1  C   UNL     1      -2.754  -3.783 -32.087  1.00  0.00     0.073 C 
HETATM    2  C   UNL     1      -3.755  -3.231 -33.038  1.00  0.00     0.068 A 
HETATM    3  N   UNL     1      -4.101  -3.953 -34.111  1.00  0.00    -0.177 NA
HETATM    4  N   UNL     1      -5.012  -3.198 -34.745  1.00  0.00    -0.260 N 
HETATM    5  H   UNL     1      -5.440  -3.542 -35.601  1.00  0.00     0.191 HD
HETATM    6  C   UNL     1      -5.222  -2.002 -34.124  1.00  0.00     0.162 A 
HETATM    7  C   UNL     1      -4.431  -1.973 -32.998  1.00  0.00     0.081 A 
HETATM    8  N   UNL     1      -6.027  -1.034 -34.548  1.00  0.00    -0.204 NA
HETATM    9  C   UNL     1      -6.016   0.046 -33.757  1.00  0.00     0.177 A 
HETATM   10  N   UNL     1      -5.292   0.151 -32.605  1.00  0.00    -0.276 N 
HETATM   11  C   UNL     1      -4.459  -0.839 -32.167  1.00  0.00     0.124 A 
ENDROOT
BRANCH   9  12
HETATM   12  S   UNL     1      -6.924   1.449 -34.439  1.00  0.00    -0.082 SA
BRANCH  12  13
HETATM   13  C   UNL     1      -8.571   0.731 -34.819  1.00  0.00     0.185 C 
BRANCH  13  14
HETATM   14  C   UNL     1      -9.676   1.106 -33.841  1.00  0.00     0.232 C 
HETATM   15  N   UNL     1     -10.473   2.173 -34.241  1.00  0.00    -0.324 N 
HETATM   16  H   UNL     1     -10.503   2.342 -35.235  1.00  0.00     0.169 HD
HETATM   17  O   UNL     1      -9.835   0.445 -32.816  1.00  0.00    -0.272 OA
BRANCH  15  18
HETATM   18  C   UNL     1     -11.620   2.543 -33.501  1.00  0.00     0.071 A 
HETATM   19  C   UNL     1     -11.586   3.560 -32.525  1.00  0.00     0.095 A 
HETATM   20  C   UNL     1     -12.751   3.844 -31.806  1.00  0.00     0.042 A 
HETATM   21  C   UNL     1     -13.927   3.130 -32.056  1.00  0.00     0.039 A 
HETATM   22  C   UNL     1     -13.955   2.132 -33.026  1.00  0.00     0.070 A 
HETATM   23  C   UNL     1     -12.816   1.868 -33.783  1.00  0.00     0.069 A 
BRANCH  19  24
HETATM   24  O   UNL     1     -10.414   4.262 -32.417  1.00  0.00    -0.354 OA
HETATM   25  C   UNL     1      -9.650   4.086 -31.232  1.00  0.00     0.210 C 
ENDBRANCH  19  24
BRANCH  22  26
HETATM   26  O   UNL     1     -15.150   1.492 -33.202  1.00  0.00    -0.356 OA
HETATM   27  C   UNL     1     -15.190   0.636 -34.341  1.00  0.00     0.210 C 
ENDBRANCH  22  26
ENDBRANCH  15  18
ENDBRANCH  13  14
ENDBRANCH  12  13
ENDBRANCH   9  12
BRANCH  10  28
HETATM   28  C   UNL     1      -5.430   1.326 -31.791  1.00  0.00     0.043 A 
HETATM   29  C   UNL     1      -6.426   1.342 -30.809  1.00  0.00     0.031 A 
HETATM   30  C   UNL     1      -6.536   2.462 -29.986  1.00  0.00     0.021 A 
HETATM   31  C   UNL     1      -5.658   3.536 -30.151  1.00  0.00     0.011 A 
HETATM   32 BR   UNL     1      -5.816   5.051 -29.033  1.00  0.00    -0.051 Br
HETATM   33  C   UNL     1      -4.658   3.502 -31.128  1.00  0.00     0.021 A 
HETATM   34  C   UNL     1      -4.531   2.383 -31.954  1.00  0.00     0.031 A 
ENDBRANCH  10  28
BRANCH  11  35
HETATM   35  N   UNL     1      -3.683  -0.726 -31.023  1.00  0.00    -0.384 N 
HETATM   36  H   UNL     1      -3.557   0.146 -30.522  1.00  0.00     0.157 HD
HETATM   37  H   UNL     1      -3.000  -1.443 -30.809  1.00  0.00     0.157 HD
ENDBRANCH  11  35
TORSDOF 8
ENDMDL
MODEL 9
REMARK VINA RESULT:      -7.5      4.154      8.920
REMARK  8 active torsions:
REMARK  status: ('A' for Active; 'I' for Inactive)
REMARK    1  A    between atoms: C_9  and  S_10 
REMARK    2  A    between atoms: S_10  and  C_11 
REMARK    3  A    between atoms: C_11  and  C_12 
REMARK       I    between atoms: C_12  and  N_13 
REMARK    4  A    between atoms: N_13  and  C_14 
REMARK    5  A    between atoms: C_15  and  O_16 
REMARK    6  A    between atoms: C_20  and  O_21 
REMARK    7  A    between atoms: N_25  and  C_26 
REMARK    8  A    between atoms: C_33  and  N_34 
ROOT
HETATM    1  C   UNL     1       1.630   8.128 -26.076  1.00  0.00     0.073 C 
HETATM    2  C   UNL     1       0.189   8.450 -26.245  1.00  0.00     0.068 A 
HETATM    3  N   UNL     1      -0.464   9.057 -25.246  1.00  0.00    -0.177 NA
HETATM    4  N   UNL     1      -1.714   9.217 -25.709  1.00  0.00    -0.260 N 
HETATM    5  H   UNL     1      -2.411   9.672 -25.125  1.00  0.00     0.191 HD
HETATM    6  C   UNL     1      -1.880   8.693 -26.958  1.00  0.00     0.162 A 
HETATM    7  C   UNL     1      -0.665   8.185 -27.360  1.00  0.00     0.081 A 
HETATM    8  N   UNL     1      -3.016   8.659 -27.645  1.00  0.00    -0.204 NA
HETATM    9  C   UNL     1      -2.895   8.055 -28.834  1.00  0.00     0.177 A 
HETATM   10  N   UNL     1      -1.727   7.555 -29.330  1.00  0.00    -0.276 N 
HETATM   11  C   UNL     1      -0.557   7.581 -28.625  1.00  0.00     0.124 A 
ENDROOT
BRANCH   9  12
HETATM   12  S   UNL     1      -4.472   7.801 -29.676  1.00  0.00    -0.082 SA
BRANCH  12  13
HETATM   13  C   UNL     1      -5.066   6.212 -28.973  1.00  0.00     0.185 C 
BRANCH  13  14
HETATM   14  C   UNL     1      -5.206   5.077 -29.978  1.00  0.00     0.232 C 
HETATM   15  N   UNL     1      -5.129   3.801 -29.432  1.00  0.00    -0.324 N 
HETATM   16  H   UNL     1      -5.361   3.733 -28.453  1.00  0.00     0.169 HD
HETATM   17  O   UNL     1      -5.423   5.333 -31.161  1.00  0.00    -0.272 OA
BRANCH  15  18
HETATM   18  C   UNL     1      -5.379   2.654 -30.222  1.00  0.00     0.071 A 
HETATM   19  C   UNL     1      -6.667   2.094 -30.343  1.00  0.00     0.095 A 
HETATM   20  C   UNL     1      -6.830   0.937 -31.110  1.00  0.00     0.042 A 
HETATM   21  C   UNL     1      -5.731   0.351 -31.747  1.00  0.00     0.039 A 
HETATM   22  C   UNL     1      -4.463   0.914 -31.629  1.00  0.00     0.070 A 
HETATM   23  C   UNL     1      -4.292   2.092 -30.905  1.00  0.00     0.069 A 
BRANCH  19  24
HETATM   24  O   UNL     1      -7.692   2.790 -29.757  1.00  0.00    -0.354 OA
HETATM   25  C   UNL     1      -8.606   3.460 -30.614  1.00  0.00     0.210 C 
ENDBRANCH  19  24
BRANCH  22  26
HETATM   26  O   UNL     1      -3.452   0.274 -32.289  1.00  0.00    -0.356 OA
HETATM   27  C   UNL     1      -3.896  -0.679 -33.252  1.00  0.00     0.210 C 
ENDBRANCH  22  26
ENDBRANCH  15  18
ENDBRANCH  13  14
ENDBRANCH  12  13
ENDBRANCH   9  12
BRANCH  10  28
HETATM   28  C   UNL     1      -1.702   7.008 -30.658  1.00  0.00     0.043 A 
HETATM   29  C   UNL     1      -1.503   7.881 -31.732  1.00  0.00     0.031 A 
HETATM   30  C   UNL     1      -1.433   7.351 -33.021  1.00  0.00     0.021 A 
HETATM   31  C   UNL     1      -1.559   5.973 -33.214  1.00  0.00     0.011 A 
HETATM   32 BR   UNL     1      -1.466   5.265 -34.963  1.00  0.00    -0.051 Br
HETATM   33  C   UNL     1      -1.745   5.110 -32.129  1.00  0.00     0.021 A 
HETATM   34  C   UNL     1      -1.808   5.626 -30.833  1.00  0.00     0.031 A 
ENDBRANCH  10  28
BRANCH  11  35
HETATM   35  N   UNL     1       0.626   7.034 -29.099  1.00  0.00    -0.384 N 
HETATM   36  H   UNL     1       1.263   7.533 -29.709  1.00  0.00     0.157 HD
HETATM   37  H   UNL     1       0.757   6.029 -29.077  1.00  0.00     0.157 HD
ENDBRANCH  11  35
TORSDOF 8
ENDMDL
MODEL 10
REMARK VINA RESULT:      -7.4      2.196      2.759
REMARK  8 active torsions:
REMARK  status: ('A' for Active; 'I' for Inactive)
REMARK    1  A    between atoms: C_9  and  S_10 
REMARK    2  A    between atoms: S_10  and  C_11 
REMARK    3  A    between atoms: C_11  and  C_12 
REMARK       I    between atoms: C_12  and  N_13 
REMARK    4  A    between atoms: N_13  and  C_14 
REMARK    5  A    between atoms: C_15  and  O_16 
REMARK    6  A    between atoms: C_20  and  O_21 
REMARK    7  A    between atoms: N_25  and  C_26 
REMARK    8  A    between atoms: C_33  and  N_34 
ROOT
HETATM    1  C   UNL     1      -5.820  -2.315 -34.396  1.00  0.00     0.073 C 
HETATM    2  C   UNL     1      -5.072  -1.245 -33.685  1.00  0.00     0.068 A 
HETATM    3  N   UNL     1      -3.746  -1.364 -33.539  1.00  0.00    -0.177 NA
HETATM    4  N   UNL     1      -3.379  -0.252 -32.882  1.00  0.00    -0.260 N 
HETATM    5  H   UNL     1      -2.399  -0.104 -32.657  1.00  0.00     0.191 HD
HETATM    6  C   UNL     1      -4.441   0.547 -32.572  1.00  0.00     0.162 A 
HETATM    7  C   UNL     1      -5.572  -0.051 -33.081  1.00  0.00     0.081 A 
HETATM    8  N   UNL     1      -4.389   1.681 -31.884  1.00  0.00    -0.204 NA
HETATM    9  C   UNL     1      -5.590   2.243 -31.701  1.00  0.00     0.177 A 
HETATM   10  N   UNL     1      -6.759   1.743 -32.196  1.00  0.00    -0.276 N 
HETATM   11  C   UNL     1      -6.820   0.574 -32.900  1.00  0.00     0.124 A 
ENDROOT
BRANCH   9  12
HETATM   12  S   UNL     1      -5.561   3.656 -30.578  1.00  0.00    -0.082 SA
BRANCH  12  13
HETATM   13  C   UNL     1      -5.433   5.089 -31.719  1.00  0.00     0.185 C 
BRANCH  13  14
HETATM   14  C   UNL     1      -4.184   5.941 -31.542  1.00  0.00     0.232 C 
HETATM   15  N   UNL     1      -3.168   5.344 -30.804  1.00  0.00    -0.324 N 
HETATM   16  H   UNL     1      -3.184   4.336 -30.783  1.00  0.00     0.169 HD
HETATM   17  O   UNL     1      -4.117   7.046 -32.079  1.00  0.00    -0.272 OA
BRANCH  15  18
HETATM   18  C   UNL     1      -1.901   5.960 -30.675  1.00  0.00     0.071 A 
HETATM   19  C   UNL     1      -0.842   5.686 -31.562  1.00  0.00     0.095 A 
HETATM   20  C   UNL     1       0.394   6.304 -31.348  1.00  0.00     0.042 A 
HETATM   21  C   UNL     1       0.569   7.180 -30.272  1.00  0.00     0.039 A 
HETATM   22  C   UNL     1      -0.485   7.451 -29.404  1.00  0.00     0.070 A 
HETATM   23  C   UNL     1      -1.735   6.879 -29.629  1.00  0.00     0.069 A 
BRANCH  19  24
HETATM   24  O   UNL     1      -1.136   4.886 -32.636  1.00  0.00    -0.354 OA
HETATM   25  C   UNL     1      -1.285   5.513 -33.902  1.00  0.00     0.210 C 
ENDBRANCH  19  24
BRANCH  22  26
HETATM   26  O   UNL     1      -0.221   8.322 -28.384  1.00  0.00    -0.356 OA
HETATM   27  C   UNL     1       1.105   8.232 -27.870  1.00  0.00     0.210 C 
ENDBRANCH  22  26
ENDBRANCH  15  18
ENDBRANCH  13  14
ENDBRANCH  12  13
ENDBRANCH   9  12
BRANCH  10  28
HETATM   28  C   UNL     1      -7.976   2.482 -32.011  1.00  0.00     0.043 A 
HETATM   29  C   UNL     1      -8.648   2.361 -30.791  1.00  0.00     0.031 A 
HETATM   30  C   UNL     1      -9.807   3.110 -30.588  1.00  0.00     0.021 A 
HETATM   31  C   UNL     1     -10.270   3.962 -31.595  1.00  0.00     0.011 A 
HETATM   32 BR   UNL     1     -11.842   4.971 -31.312  1.00  0.00    -0.051 Br
HETATM   33  C   UNL     1      -9.581   4.083 -32.805  1.00  0.00     0.021 A 
HETATM   34  C   UNL     1      -8.415   3.346 -33.018  1.00  0.00     0.031 A 
ENDBRANCH  10  28
BRANCH  11  35
HETATM   35  N   UNL     1      -8.007   0.032 -33.368  1.00  0.00    -0.384 N 
HETATM   36  H   UNL     1      -8.903   0.192 -32.925  1.00  0.00     0.157 HD
HETATM   37  H   UNL     1      -7.981  -0.760 -34.001  1.00  0.00     0.157 HD
ENDBRANCH  11  35
TORSDOF 8
ENDMDL
