MODEL 1
REMARK VINA RESULT:     -10.6      0.000      0.000
REMARK  4 active torsions:
REMARK  status: ('A' for Active; 'I' for Inactive)
REMARK       I    between atoms: N_10  and  C_11 
REMARK    1  A    between atoms: C_11  and  C_12 
REMARK    2  A    between atoms: C_14  and  O_15 
REMARK    3  A    between atoms: O_15  and  C_16 
REMARK    4  A    between atoms: C_16  and  C_17 
ROOT
HETATM    1  C   UNL     1      -4.599   4.614 -33.816  1.00  0.00     0.034 A 
HETATM    2  C   UNL     1      -3.884   4.398 -32.630  1.00  0.00     0.053 A 
HETATM    3  C   UNL     1      -2.509   4.632 -32.603  1.00  0.00     0.070 A 
HETATM    4  C   UNL     1      -1.864   5.065 -33.767  1.00  0.00     0.037 A 
HETATM    5  C   UNL     1      -2.572   5.248 -34.956  1.00  0.00     0.004 A 
HETATM    6  C   UNL     1      -3.943   5.013 -34.985  1.00  0.00     0.017 A 
ENDROOT
BRANCH   1   7
HETATM    7  C   UNL     1      -6.051   4.331 -33.828  1.00  0.00     0.254 C 
HETATM    8  N   UNL     1      -6.490   3.028 -33.613  1.00  0.00    -0.343 N 
HETATM    9  C   UNL     1      -5.592   1.857 -33.500  1.00  0.00     0.167 C 
HETATM   10  C   UNL     1      -7.932   2.808 -33.380  1.00  0.00     0.132 C 
HETATM   11  C   UNL     1      -6.285   0.611 -33.948  1.00  0.00    -0.005 A 
HETATM   12  C   UNL     1      -5.775  -0.715 -34.069  1.00  0.00     0.000 A 
HETATM   13  C   UNL     1      -7.614   0.564 -34.309  1.00  0.00     0.020 A 
HETATM   14  C   UNL     1      -4.518  -1.310 -33.843  1.00  0.00     0.014 A 
HETATM   15  C   UNL     1      -6.830  -1.522 -34.507  1.00  0.00     0.043 A 
HETATM   16  C   UNL     1      -4.360  -2.684 -34.057  1.00  0.00     0.001 A 
HETATM   17  C   UNL     1      -5.429  -3.465 -34.491  1.00  0.00     0.002 A 
HETATM   18  C   UNL     1      -6.685  -2.899 -34.725  1.00  0.00     0.030 A 
HETATM   19  N   UNL     1      -7.937  -0.714 -34.657  1.00  0.00    -0.358 N 
HETATM   20  H   UNL     1      -8.844  -1.034 -34.969  1.00  0.00     0.166 HD
HETATM   21  C   UNL     1      -8.527   1.736 -34.314  1.00  0.00     0.077 C 
HETATM   22  O   UNL     1      -6.803   5.282 -34.030  1.00  0.00    -0.267 OA
ENDBRANCH   1   7
BRANCH   3  23
HETATM   23  O   UNL     1      -1.684   4.478 -31.524  1.00  0.00    -0.345 OA
BRANCH  23  24
HETATM   24  C   UNL     1      -0.427   5.165 -31.554  1.00  0.00     0.236 C 
BRANCH  24  25
HETATM   25  C   UNL     1      -0.394   6.267 -30.544  1.00  0.00     0.077 A 
HETATM   26  N   UNL     1       0.759   6.536 -29.831  1.00  0.00    -0.232 NA
HETATM   27  C   UNL     1       0.452   7.529 -29.023  1.00  0.00     0.134 A 
HETATM   28  N   UNL     1      -0.868   7.932 -29.191  1.00  0.00    -0.316 N 
HETATM   29  C   UNL     1       1.221   8.219 -28.042  1.00  0.00     0.051 A 
HETATM   30  C   UNL     1      -1.402   7.137 -30.170  1.00  0.00     0.127 A 
HETATM   31  C   UNL     1      -1.460   8.957 -28.456  1.00  0.00     0.098 A 
HETATM   32  C   UNL     1      -0.732   9.602 -27.529  1.00  0.00     0.018 A 
HETATM   33  C   UNL     1       0.655   9.210 -27.325  1.00  0.00     0.005 A 
ENDBRANCH  24  25
ENDBRANCH  23  24
ENDBRANCH   3  23
TORSDOF 4
ENDMDL
MODEL 2
REMARK VINA RESULT:     -10.0      1.567      2.377
REMARK  4 active torsions:
REMARK  status: ('A' for Active; 'I' for Inactive)
REMARK       I    between atoms: N_10  and  C_11 
REMARK    1  A    between atoms: C_11  and  C_12 
REMARK    2  A    between atoms: C_14  and  O_15 
REMARK    3  A    between atoms: O_15  and  C_16 
REMARK    4  A    between atoms: C_16  and  C_17 
ROOT
HETATM    1  C   UNL     1      -5.842   3.252 -32.660  1.00  0.00     0.034 A 
HETATM    2  C   UNL     1      -4.787   3.949 -33.264  1.00  0.00     0.053 A 
HETATM    3  C   UNL     1      -3.870   4.635 -32.468  1.00  0.00     0.070 A 
HETATM    4  C   UNL     1      -4.029   4.628 -31.077  1.00  0.00     0.037 A 
HETATM    5  C   UNL     1      -5.099   3.961 -30.479  1.00  0.00     0.004 A 
HETATM    6  C   UNL     1      -6.016   3.278 -31.272  1.00  0.00     0.017 A 
ENDROOT
BRANCH   1   7
HETATM    7  C   UNL     1      -6.819   2.557 -33.527  1.00  0.00     0.254 C 
HETATM    8  N   UNL     1      -6.835   1.166 -33.551  1.00  0.00    -0.343 N 
HETATM    9  C   UNL     1      -5.843   0.312 -32.859  1.00  0.00     0.167 C 
HETATM   10  C   UNL     1      -7.967   0.492 -34.219  1.00  0.00     0.132 C 
HETATM   11  C   UNL     1      -5.681  -0.994 -33.567  1.00  0.00    -0.005 A 
HETATM   12  C   UNL     1      -4.790  -2.071 -33.288  1.00  0.00     0.000 A 
HETATM   13  C   UNL     1      -6.442  -1.375 -34.651  1.00  0.00     0.020 A 
HETATM   14  C   UNL     1      -3.789  -2.295 -32.321  1.00  0.00     0.014 A 
HETATM   15  C   UNL     1      -5.048  -3.074 -34.228  1.00  0.00     0.043 A 
HETATM   16  C   UNL     1      -3.088  -3.506 -32.324  1.00  0.00     0.001 A 
HETATM   17  C   UNL     1      -3.369  -4.488 -33.271  1.00  0.00     0.002 A 
HETATM   18  C   UNL     1      -4.355  -4.291 -34.243  1.00  0.00     0.030 A 
HETATM   19  N   UNL     1      -6.053  -2.617 -35.055  1.00  0.00    -0.358 N 
HETATM   20  H   UNL     1      -6.439  -3.137 -35.831  1.00  0.00     0.166 HD
HETATM   21  C   UNL     1      -7.508  -0.542 -35.265  1.00  0.00     0.077 C 
HETATM   22  O   UNL     1      -7.578   3.261 -34.189  1.00  0.00    -0.267 OA
ENDBRANCH   1   7
BRANCH   3  23
HETATM   23  O   UNL     1      -2.790   5.345 -32.909  1.00  0.00    -0.345 OA
BRANCH  23  24
HETATM   24  C   UNL     1      -1.490   4.861 -32.547  1.00  0.00     0.236 C 
BRANCH  24  25
HETATM   25  C   UNL     1      -0.961   5.589 -31.352  1.00  0.00     0.077 A 
HETATM   26  N   UNL     1      -0.242   4.918 -30.381  1.00  0.00    -0.232 NA
HETATM   27  C   UNL     1       0.051   5.822 -29.470  1.00  0.00     0.134 A 
HETATM   28  N   UNL     1      -0.444   7.074 -29.818  1.00  0.00    -0.316 N 
HETATM   29  C   UNL     1       0.755   5.725 -28.235  1.00  0.00     0.051 A 
HETATM   30  C   UNL     1      -1.077   6.927 -31.024  1.00  0.00     0.127 A 
HETATM   31  C   UNL     1      -0.288   8.211 -29.030  1.00  0.00     0.098 A 
HETATM   32  C   UNL     1       0.374   8.113 -27.864  1.00  0.00     0.018 A 
HETATM   33  C   UNL     1       0.909   6.820 -27.465  1.00  0.00     0.005 A 
ENDBRANCH  24  25
ENDBRANCH  23  24
ENDBRANCH   3  23
TORSDOF 4
ENDMDL
MODEL 3
REMARK VINA RESULT:      -9.7      1.730     10.582
REMARK  4 active torsions:
REMARK  status: ('A' for Active; 'I' for Inactive)
REMARK       I    between atoms: N_10  and  C_11 
REMARK    1  A    between atoms: C_11  and  C_12 
REMARK    2  A    between atoms: C_14  and  O_15 
REMARK    3  A    between atoms: O_15  and  C_16 
REMARK    4  A    between atoms: C_16  and  C_17 
ROOT
HETATM    1  C   UNL     1      -1.094   5.460 -32.014  1.00  0.00     0.034 A 
HETATM    2  C   UNL     1      -2.148   4.537 -32.044  1.00  0.00     0.053 A 
HETATM    3  C   UNL     1      -3.078   4.589 -33.081  1.00  0.00     0.070 A 
HETATM    4  C   UNL     1      -2.953   5.573 -34.068  1.00  0.00     0.037 A 
HETATM    5  C   UNL     1      -1.922   6.512 -34.019  1.00  0.00     0.004 A 
HETATM    6  C   UNL     1      -0.993   6.464 -32.984  1.00  0.00     0.017 A 
ENDROOT
BRANCH   1   7
HETATM    7  C   UNL     1      -0.136   5.404 -30.888  1.00  0.00     0.254 C 
HETATM    8  N   UNL     1      -0.412   6.116 -29.725  1.00  0.00    -0.343 N 
HETATM    9  C   UNL     1      -1.552   7.048 -29.574  1.00  0.00     0.167 C 
HETATM   10  C   UNL     1       0.417   5.853 -28.532  1.00  0.00     0.132 C 
HETATM   11  C   UNL     1      -1.236   8.117 -28.579  1.00  0.00    -0.005 A 
HETATM   12  C   UNL     1      -2.012   9.246 -28.184  1.00  0.00     0.000 A 
HETATM   13  C   UNL     1      -0.076   8.148 -27.833  1.00  0.00     0.020 A 
HETATM   14  C   UNL     1      -3.271   9.755 -28.561  1.00  0.00     0.014 A 
HETATM   15  C   UNL     1      -1.281   9.926 -27.204  1.00  0.00     0.043 A 
HETATM   16  C   UNL     1      -3.755  10.916 -27.948  1.00  0.00     0.001 A 
HETATM   17  C   UNL     1      -3.006  11.571 -26.972  1.00  0.00     0.002 A 
HETATM   18  C   UNL     1      -1.753  11.089 -26.582  1.00  0.00     0.030 A 
HETATM   19  N   UNL     1      -0.099   9.240 -27.018  1.00  0.00    -0.358 N 
HETATM   20  H   UNL     1       0.627   9.511 -26.369  1.00  0.00     0.166 HD
HETATM   21  C   UNL     1       1.011   7.139 -27.926  1.00  0.00     0.077 C 
HETATM   22  O   UNL     1       0.870   4.716 -31.046  1.00  0.00    -0.267 OA
ENDBRANCH   1   7
BRANCH   3  23
HETATM   23  O   UNL     1      -4.147   3.754 -33.251  1.00  0.00    -0.345 OA
BRANCH  23  24
HETATM   24  C   UNL     1      -4.406   2.797 -32.216  1.00  0.00     0.236 C 
BRANCH  24  25
HETATM   25  C   UNL     1      -4.704   1.450 -32.794  1.00  0.00     0.077 A 
HETATM   26  N   UNL     1      -5.915   1.201 -33.412  1.00  0.00    -0.232 NA
HETATM   27  C   UNL     1      -5.869  -0.062 -33.782  1.00  0.00     0.134 A 
HETATM   28  N   UNL     1      -4.658  -0.651 -33.436  1.00  0.00    -0.316 N 
HETATM   29  C   UNL     1      -6.825  -0.887 -34.442  1.00  0.00     0.051 A 
HETATM   30  C   UNL     1      -3.911   0.318 -32.819  1.00  0.00     0.127 A 
HETATM   31  C   UNL     1      -4.345  -1.982 -33.698  1.00  0.00     0.098 A 
HETATM   32  C   UNL     1      -5.252  -2.757 -34.318  1.00  0.00     0.018 A 
HETATM   33  C   UNL     1      -6.532  -2.177 -34.698  1.00  0.00     0.005 A 
ENDBRANCH  24  25
ENDBRANCH  23  24
ENDBRANCH   3  23
TORSDOF 4
ENDMDL
MODEL 4
REMARK VINA RESULT:      -9.4      2.098     10.198
REMARK  4 active torsions:
REMARK  status: ('A' for Active; 'I' for Inactive)
REMARK       I    between atoms: N_10  and  C_11 
REMARK    1  A    between atoms: C_11  and  C_12 
REMARK    2  A    between atoms: C_14  and  O_15 
REMARK    3  A    between atoms: O_15  and  C_16 
REMARK    4  A    between atoms: C_16  and  C_17 
ROOT
HETATM    1  C   UNL     1      -3.255   6.580 -32.149  1.00  0.00     0.034 A 
HETATM    2  C   UNL     1      -3.327   5.257 -31.693  1.00  0.00     0.053 A 
HETATM    3  C   UNL     1      -2.647   4.254 -32.383  1.00  0.00     0.070 A 
HETATM    4  C   UNL     1      -1.915   4.584 -33.529  1.00  0.00     0.037 A 
HETATM    5  C   UNL     1      -1.871   5.897 -34.000  1.00  0.00     0.004 A 
HETATM    6  C   UNL     1      -2.551   6.899 -33.315  1.00  0.00     0.017 A 
ENDROOT
BRANCH   1   7
HETATM    7  C   UNL     1      -4.009   7.622 -31.418  1.00  0.00     0.254 C 
HETATM    8  N   UNL     1      -3.332   8.455 -30.533  1.00  0.00    -0.343 N 
HETATM    9  C   UNL     1      -1.908   8.290 -30.163  1.00  0.00     0.167 C 
HETATM   10  C   UNL     1      -4.042   9.639 -30.007  1.00  0.00     0.132 C 
HETATM   11  C   UNL     1      -1.652   8.821 -28.789  1.00  0.00    -0.005 A 
HETATM   12  C   UNL     1      -0.452   8.802 -28.020  1.00  0.00     0.000 A 
HETATM   13  C   UNL     1      -2.603   9.472 -28.032  1.00  0.00     0.020 A 
HETATM   14  C   UNL     1       0.848   8.301 -28.237  1.00  0.00     0.014 A 
HETATM   15  C   UNL     1      -0.728   9.447 -26.811  1.00  0.00     0.043 A 
HETATM   16  C   UNL     1       1.822   8.465 -27.246  1.00  0.00     0.001 A 
HETATM   17  C   UNL     1       1.520   9.115 -26.051  1.00  0.00     0.002 A 
HETATM   18  C   UNL     1       0.238   9.618 -25.810  1.00  0.00     0.030 A 
HETATM   19  N   UNL     1      -2.051   9.836 -26.840  1.00  0.00    -0.358 N 
HETATM   20  H   UNL     1      -2.523  10.322 -26.090  1.00  0.00     0.166 HD
HETATM   21  C   UNL     1      -4.001   9.720 -28.468  1.00  0.00     0.077 C 
HETATM   22  O   UNL     1      -5.216   7.696 -31.639  1.00  0.00    -0.267 OA
ENDBRANCH   1   7
BRANCH   3  23
HETATM   23  O   UNL     1      -2.614   2.928 -32.055  1.00  0.00    -0.345 OA
BRANCH  23  24
HETATM   24  C   UNL     1      -3.795   2.363 -31.471  1.00  0.00     0.236 C 
BRANCH  24  25
HETATM   25  C   UNL     1      -4.305   1.223 -32.294  1.00  0.00     0.077 A 
HETATM   26  N   UNL     1      -5.538   1.299 -32.915  1.00  0.00    -0.232 NA
HETATM   27  C   UNL     1      -5.697   0.144 -33.526  1.00  0.00     0.134 A 
HETATM   28  N   UNL     1      -4.600  -0.688 -33.336  1.00  0.00    -0.316 N 
HETATM   29  C   UNL     1      -6.772  -0.369 -34.309  1.00  0.00     0.051 A 
HETATM   30  C   UNL     1      -3.708   0.005 -32.563  1.00  0.00     0.127 A 
HETATM   31  C   UNL     1      -4.508  -1.974 -33.863  1.00  0.00     0.098 A 
HETATM   32  C   UNL     1      -5.526  -2.455 -34.597  1.00  0.00     0.018 A 
HETATM   33  C   UNL     1      -6.692  -1.613 -34.820  1.00  0.00     0.005 A 
ENDBRANCH  24  25
ENDBRANCH  23  24
ENDBRANCH   3  23
TORSDOF 4
ENDMDL
MODEL 5
REMARK VINA RESULT:      -9.4      5.099      9.237
REMARK  4 active torsions:
REMARK  status: ('A' for Active; 'I' for Inactive)
REMARK       I    between atoms: N_10  and  C_11 
REMARK    1  A    between atoms: C_11  and  C_12 
REMARK    2  A    between atoms: C_14  and  O_15 
REMARK    3  A    between atoms: O_15  and  C_16 
REMARK    4  A    between atoms: C_16  and  C_17 
ROOT
HETATM    1  C   UNL     1      -6.623   2.554 -31.488  1.00  0.00     0.034 A 
HETATM    2  C   UNL     1      -7.131   2.914 -32.744  1.00  0.00     0.053 A 
HETATM    3  C   UNL     1      -8.475   3.264 -32.867  1.00  0.00     0.070 A 
HETATM    4  C   UNL     1      -9.298   3.236 -31.736  1.00  0.00     0.037 A 
HETATM    5  C   UNL     1      -8.798   2.847 -30.492  1.00  0.00     0.004 A 
HETATM    6  C   UNL     1      -7.457   2.495 -30.368  1.00  0.00     0.017 A 
ENDROOT
BRANCH   1   7
HETATM    7  C   UNL     1      -5.201   2.159 -31.388  1.00  0.00     0.254 C 
HETATM    8  N   UNL     1      -4.728   1.116 -32.180  1.00  0.00    -0.343 N 
HETATM    9  C   UNL     1      -5.588   0.271 -33.038  1.00  0.00     0.167 C 
HETATM   10  C   UNL     1      -3.269   0.902 -32.252  1.00  0.00     0.132 C 
HETATM   11  C   UNL     1      -4.996  -1.091 -33.205  1.00  0.00    -0.005 A 
HETATM   12  C   UNL     1      -5.520  -2.230 -33.885  1.00  0.00     0.000 A 
HETATM   13  C   UNL     1      -3.762  -1.454 -32.709  1.00  0.00     0.020 A 
HETATM   14  C   UNL     1      -6.710  -2.491 -34.594  1.00  0.00     0.014 A 
HETATM   15  C   UNL     1      -4.571  -3.250 -33.770  1.00  0.00     0.043 A 
HETATM   16  C   UNL     1      -6.907  -3.754 -35.163  1.00  0.00     0.001 A 
HETATM   17  C   UNL     1      -5.943  -4.751 -35.036  1.00  0.00     0.002 A 
HETATM   18  C   UNL     1      -4.755  -4.519 -34.335  1.00  0.00     0.030 A 
HETATM   19  N   UNL     1      -3.513  -2.753 -33.037  1.00  0.00    -0.358 N 
HETATM   20  H   UNL     1      -2.684  -3.279 -32.796  1.00  0.00     0.166 HD
HETATM   21  C   UNL     1      -2.867  -0.553 -31.938  1.00  0.00     0.077 C 
HETATM   22  O   UNL     1      -4.501   2.787 -30.596  1.00  0.00    -0.267 OA
ENDBRANCH   1   7
BRANCH   3  23
HETATM   23  O   UNL     1      -9.109   3.646 -34.016  1.00  0.00    -0.345 OA
BRANCH  23  24
HETATM   24  C   UNL     1     -10.260   4.489 -33.885  1.00  0.00     0.236 C 
BRANCH  24  25
HETATM   25  C   UNL     1     -11.506   3.674 -33.738  1.00  0.00     0.077 A 
HETATM   26  N   UNL     1     -11.696   2.534 -34.496  1.00  0.00    -0.232 NA
HETATM   27  C   UNL     1     -12.879   2.072 -34.151  1.00  0.00     0.134 A 
HETATM   28  N   UNL     1     -13.472   2.869 -33.178  1.00  0.00    -0.316 N 
HETATM   29  C   UNL     1     -13.620   0.943 -34.602  1.00  0.00     0.051 A 
HETATM   30  C   UNL     1     -12.590   3.881 -32.905  1.00  0.00     0.127 A 
HETATM   31  C   UNL     1     -14.732   2.619 -32.638  1.00  0.00     0.098 A 
HETATM   32  C   UNL     1     -15.428   1.554 -33.071  1.00  0.00     0.018 A 
HETATM   33  C   UNL     1     -14.841   0.694 -34.088  1.00  0.00     0.005 A 
ENDBRANCH  24  25
ENDBRANCH  23  24
ENDBRANCH   3  23
TORSDOF 4
ENDMDL
MODEL 6
REMARK VINA RESULT:      -9.4      2.214      2.723
REMARK  4 active torsions:
REMARK  status: ('A' for Active; 'I' for Inactive)
REMARK       I    between atoms: N_10  and  C_11 
REMARK    1  A    between atoms: C_11  and  C_12 
REMARK    2  A    between atoms: C_14  and  O_15 
REMARK    3  A    between atoms: O_15  and  C_16 
REMARK    4  A    between atoms: C_16  and  C_17 
ROOT
HETATM    1  C   UNL     1      -4.660   3.188 -32.959  1.00  0.00     0.034 A 
HETATM    2  C   UNL     1      -3.883   4.168 -33.590  1.00  0.00     0.053 A 
HETATM    3  C   UNL     1      -2.687   4.581 -33.003  1.00  0.00     0.070 A 
HETATM    4  C   UNL     1      -2.291   4.020 -31.784  1.00  0.00     0.037 A 
HETATM    5  C   UNL     1      -3.082   3.067 -31.140  1.00  0.00     0.004 A 
HETATM    6  C   UNL     1      -4.277   2.655 -31.723  1.00  0.00     0.017 A 
ENDROOT
BRANCH   1   7
HETATM    7  C   UNL     1      -5.939   2.787 -33.586  1.00  0.00     0.254 C 
HETATM    8  N   UNL     1      -6.293   1.441 -33.606  1.00  0.00    -0.343 N 
HETATM    9  C   UNL     1      -5.408   0.344 -33.153  1.00  0.00     0.167 C 
HETATM   10  C   UNL     1      -7.670   1.088 -34.005  1.00  0.00     0.132 C 
HETATM   11  C   UNL     1      -5.721  -0.924 -33.879  1.00  0.00    -0.005 A 
HETATM   12  C   UNL     1      -5.075  -2.193 -33.806  1.00  0.00     0.000 A 
HETATM   13  C   UNL     1      -6.768  -1.058 -34.767  1.00  0.00     0.020 A 
HETATM   14  C   UNL     1      -3.972  -2.695 -33.086  1.00  0.00     0.014 A 
HETATM   15  C   UNL     1      -5.764  -3.056 -34.665  1.00  0.00     0.043 A 
HETATM   16  C   UNL     1      -3.600  -4.035 -33.246  1.00  0.00     0.001 A 
HETATM   17  C   UNL     1      -4.306  -4.873 -34.107  1.00  0.00     0.002 A 
HETATM   18  C   UNL     1      -5.402  -4.399 -34.834  1.00  0.00     0.030 A 
HETATM   19  N   UNL     1      -6.785  -2.334 -35.247  1.00  0.00    -0.358 N 
HETATM   20  H   UNL     1      -7.442  -2.707 -35.918  1.00  0.00     0.166 HD
HETATM   21  C   UNL     1      -7.710   0.032 -35.127  1.00  0.00     0.077 C 
HETATM   22  O   UNL     1      -6.632   3.683 -34.063  1.00  0.00    -0.267 OA
ENDBRANCH   1   7
BRANCH   3  23
HETATM   23  O   UNL     1      -1.822   5.513 -33.503  1.00  0.00    -0.345 OA
BRANCH  23  24
HETATM   24  C   UNL     1      -2.363   6.791 -33.859  1.00  0.00     0.236 C 
BRANCH  24  25
HETATM   25  C   UNL     1      -2.738   7.572 -32.639  1.00  0.00     0.077 A 
HETATM   26  N   UNL     1      -2.007   8.682 -32.261  1.00  0.00    -0.232 NA
HETATM   27  C   UNL     1      -2.571   9.118 -31.155  1.00  0.00     0.134 A 
HETATM   28  N   UNL     1      -3.662   8.334 -30.797  1.00  0.00    -0.316 N 
HETATM   29  C   UNL     1      -2.250  10.211 -30.298  1.00  0.00     0.051 A 
HETATM   30  C   UNL     1      -3.777   7.358 -31.752  1.00  0.00     0.127 A 
HETATM   31  C   UNL     1      -4.438   8.563 -29.663  1.00  0.00     0.098 A 
HETATM   32  C   UNL     1      -4.128   9.593 -28.857  1.00  0.00     0.018 A 
HETATM   33  C   UNL     1      -2.993  10.438 -29.197  1.00  0.00     0.005 A 
ENDBRANCH  24  25
ENDBRANCH  23  24
ENDBRANCH   3  23
TORSDOF 4
ENDMDL
MODEL 7
REMARK VINA RESULT:      -9.3      2.446     10.350
REMARK  4 active torsions:
REMARK  status: ('A' for Active; 'I' for Inactive)
REMARK       I    between atoms: N_10  and  C_11 
REMARK    1  A    between atoms: C_11  and  C_12 
REMARK    2  A    between atoms: C_14  and  O_15 
REMARK    3  A    between atoms: O_15  and  C_16 
REMARK    4  A    between atoms: C_16  and  C_17 
ROOT
HETATM    1  C   UNL     1      -3.995   5.285 -31.087  1.00  0.00     0.034 A 
HETATM    2  C   UNL     1      -3.885   3.895 -31.221  1.00  0.00     0.053 A 
HETATM    3  C   UNL     1      -3.253   3.359 -32.343  1.00  0.00     0.070 A 
HETATM    4  C   UNL     1      -2.752   4.221 -33.325  1.00  0.00     0.037 A 
HETATM    5  C   UNL     1      -2.891   5.605 -33.206  1.00  0.00     0.004 A 
HETATM    6  C   UNL     1      -3.524   6.141 -32.088  1.00  0.00     0.017 A 
ENDROOT
BRANCH   1   7
HETATM    7  C   UNL     1      -4.695   5.829 -29.903  1.00  0.00     0.254 C 
HETATM    8  N   UNL     1      -4.049   6.765 -29.102  1.00  0.00    -0.343 N 
HETATM    9  C   UNL     1      -2.635   7.169 -29.275  1.00  0.00     0.167 C 
HETATM   10  C   UNL     1      -4.843   7.477 -28.081  1.00  0.00     0.132 C 
HETATM   11  C   UNL     1      -2.044   7.603 -27.972  1.00  0.00    -0.005 A 
HETATM   12  C   UNL     1      -0.708   8.000 -27.672  1.00  0.00     0.000 A 
HETATM   13  C   UNL     1      -2.766   7.708 -26.803  1.00  0.00     0.020 A 
HETATM   14  C   UNL     1       0.477   8.116 -28.426  1.00  0.00     0.014 A 
HETATM   15  C   UNL     1      -0.674   8.333 -26.314  1.00  0.00     0.043 A 
HETATM   16  C   UNL     1       1.648   8.560 -27.801  1.00  0.00     0.001 A 
HETATM   17  C   UNL     1       1.653   8.888 -26.447  1.00  0.00     0.002 A 
HETATM   18  C   UNL     1       0.491   8.779 -25.676  1.00  0.00     0.030 A 
HETATM   19  N   UNL     1      -1.940   8.134 -25.806  1.00  0.00    -0.358 N 
HETATM   20  H   UNL     1      -2.204   8.291 -24.843  1.00  0.00     0.166 HD
HETATM   21  C   UNL     1      -4.213   7.396 -26.676  1.00  0.00     0.077 C 
HETATM   22  O   UNL     1      -5.833   5.416 -29.689  1.00  0.00    -0.267 OA
ENDBRANCH   1   7
BRANCH   3  23
HETATM   23  O   UNL     1      -3.061   2.032 -32.605  1.00  0.00    -0.345 OA
BRANCH  23  24
HETATM   24  C   UNL     1      -3.707   1.089 -31.741  1.00  0.00     0.236 C 
BRANCH  24  25
HETATM   25  C   UNL     1      -4.257  -0.063 -32.522  1.00  0.00     0.077 A 
HETATM   26  N   UNL     1      -5.572  -0.061 -32.947  1.00  0.00    -0.232 NA
HETATM   27  C   UNL     1      -5.743  -1.206 -33.572  1.00  0.00     0.134 A 
HETATM   28  N   UNL     1      -4.575  -1.960 -33.582  1.00  0.00    -0.316 N 
HETATM   29  C   UNL     1      -6.887  -1.776 -34.203  1.00  0.00     0.051 A 
HETATM   30  C   UNL     1      -3.625  -1.224 -32.924  1.00  0.00     0.127 A 
HETATM   31  C   UNL     1      -4.476  -3.221 -34.166  1.00  0.00     0.098 A 
HETATM   32  C   UNL     1      -5.559  -3.754 -34.757  1.00  0.00     0.018 A 
HETATM   33  C   UNL     1      -6.800  -2.996 -34.770  1.00  0.00     0.005 A 
ENDBRANCH  24  25
ENDBRANCH  23  24
ENDBRANCH   3  23
TORSDOF 4
ENDMDL
MODEL 8
REMARK VINA RESULT:      -9.2      5.783     10.351
REMARK  4 active torsions:
REMARK  status: ('A' for Active; 'I' for Inactive)
REMARK       I    between atoms: N_10  and  C_11 
REMARK    1  A    between atoms: C_11  and  C_12 
REMARK    2  A    between atoms: C_14  and  O_15 
REMARK    3  A    between atoms: O_15  and  C_16 
REMARK    4  A    between atoms: C_16  and  C_17 
ROOT
HETATM    1  C   UNL     1      -9.256   1.476 -32.825  1.00  0.00     0.034 A 
HETATM    2  C   UNL     1     -10.093   2.496 -33.298  1.00  0.00     0.053 A 
HETATM    3  C   UNL     1     -11.411   2.199 -33.646  1.00  0.00     0.070 A 
HETATM    4  C   UNL     1     -11.871   0.883 -33.530  1.00  0.00     0.037 A 
HETATM    5  C   UNL     1     -11.028  -0.138 -33.089  1.00  0.00     0.004 A 
HETATM    6  C   UNL     1      -9.712   0.156 -32.744  1.00  0.00     0.017 A 
ENDROOT
BRANCH   1   7
HETATM    7  C   UNL     1      -7.854   1.809 -32.491  1.00  0.00     0.254 C 
HETATM    8  N   UNL     1      -6.829   1.019 -33.000  1.00  0.00    -0.343 N 
HETATM    9  C   UNL     1      -7.045  -0.232 -33.761  1.00  0.00     0.167 C 
HETATM   10  C   UNL     1      -5.441   1.505 -32.866  1.00  0.00     0.132 C 
HETATM   11  C   UNL     1      -5.892  -1.167 -33.585  1.00  0.00    -0.005 A 
HETATM   12  C   UNL     1      -5.718  -2.494 -34.077  1.00  0.00     0.000 A 
HETATM   13  C   UNL     1      -4.745  -0.843 -32.893  1.00  0.00     0.020 A 
HETATM   14  C   UNL     1      -6.510  -3.369 -34.847  1.00  0.00     0.014 A 
HETATM   15  C   UNL     1      -4.457  -2.927 -33.656  1.00  0.00     0.043 A 
HETATM   16  C   UNL     1      -6.017  -4.638 -35.170  1.00  0.00     0.001 A 
HETATM   17  C   UNL     1      -4.755  -5.042 -34.739  1.00  0.00     0.002 A 
HETATM   18  C   UNL     1      -3.950  -4.194 -33.972  1.00  0.00     0.030 A 
HETATM   19  N   UNL     1      -3.890  -1.904 -32.925  1.00  0.00    -0.358 N 
HETATM   20  H   UNL     1      -2.977  -1.944 -32.493  1.00  0.00     0.166 HD
HETATM   21  C   UNL     1      -4.506   0.462 -32.224  1.00  0.00     0.077 C 
HETATM   22  O   UNL     1      -7.670   2.786 -31.768  1.00  0.00    -0.267 OA
ENDBRANCH   1   7
BRANCH   3  23
HETATM   23  O   UNL     1     -12.343   3.085 -34.108  1.00  0.00    -0.345 OA
BRANCH  23  24
HETATM   24  C   UNL     1     -12.580   4.262 -33.326  1.00  0.00     0.236 C 
BRANCH  24  25
HETATM   25  C   UNL     1     -13.976   4.276 -32.788  1.00  0.00     0.077 A 
HETATM   26  N   UNL     1     -14.711   3.108 -32.707  1.00  0.00    -0.232 NA
HETATM   27  C   UNL     1     -15.883   3.461 -32.224  1.00  0.00     0.134 A 
HETATM   28  N   UNL     1     -15.940   4.827 -31.974  1.00  0.00    -0.316 N 
HETATM   29  C   UNL     1     -17.055   2.701 -31.940  1.00  0.00     0.051 A 
HETATM   30  C   UNL     1     -14.719   5.343 -32.320  1.00  0.00     0.127 A 
HETATM   31  C   UNL     1     -17.067   5.472 -31.470  1.00  0.00     0.098 A 
HETATM   32  C   UNL     1     -18.170   4.752 -31.207  1.00  0.00     0.018 A 
HETATM   33  C   UNL     1     -18.150   3.318 -31.455  1.00  0.00     0.005 A 
ENDBRANCH  24  25
ENDBRANCH  23  24
ENDBRANCH   3  23
TORSDOF 4
ENDMDL
MODEL 9
REMARK VINA RESULT:      -9.2      5.624      8.808
REMARK  4 active torsions:
REMARK  status: ('A' for Active; 'I' for Inactive)
REMARK       I    between atoms: N_10  and  C_11 
REMARK    1  A    between atoms: C_11  and  C_12 
REMARK    2  A    between atoms: C_14  and  O_15 
REMARK    3  A    between atoms: O_15  and  C_16 
REMARK    4  A    between atoms: C_16  and  C_17 
ROOT
HETATM    1  C   UNL     1      -8.842   1.695 -33.086  1.00  0.00     0.034 A 
HETATM    2  C   UNL     1      -9.427   2.572 -34.008  1.00  0.00     0.053 A 
HETATM    3  C   UNL     1     -10.726   2.334 -34.455  1.00  0.00     0.070 A 
HETATM    4  C   UNL     1     -11.418   1.211 -33.986  1.00  0.00     0.037 A 
HETATM    5  C   UNL     1     -10.822   0.321 -33.092  1.00  0.00     0.004 A 
HETATM    6  C   UNL     1      -9.525   0.556 -32.646  1.00  0.00     0.017 A 
ENDROOT
BRANCH   1   7
HETATM    7  C   UNL     1      -7.452   1.952 -32.648  1.00  0.00     0.254 C 
HETATM    8  N   UNL     1      -6.438   1.097 -33.068  1.00  0.00    -0.343 N 
HETATM    9  C   UNL     1      -6.668  -0.151 -33.829  1.00  0.00     0.167 C 
HETATM   10  C   UNL     1      -5.038   1.506 -32.833  1.00  0.00     0.132 C 
HETATM   11  C   UNL     1      -5.588  -1.147 -33.554  1.00  0.00    -0.005 A 
HETATM   12  C   UNL     1      -5.455  -2.490 -34.017  1.00  0.00     0.000 A 
HETATM   13  C   UNL     1      -4.480  -0.878 -32.780  1.00  0.00     0.020 A 
HETATM   14  C   UNL     1      -6.235  -3.330 -34.835  1.00  0.00     0.014 A 
HETATM   15  C   UNL     1      -4.256  -2.987 -33.494  1.00  0.00     0.043 A 
HETATM   16  C   UNL     1      -5.793  -4.631 -35.105  1.00  0.00     0.001 A 
HETATM   17  C   UNL     1      -4.593  -5.099 -34.574  1.00  0.00     0.002 A 
HETATM   18  C   UNL     1      -3.802  -4.286 -33.757  1.00  0.00     0.030 A 
HETATM   19  N   UNL     1      -3.688  -1.987 -32.734  1.00  0.00    -0.358 N 
HETATM   20  H   UNL     1      -2.815  -2.073 -32.232  1.00  0.00     0.166 HD
HETATM   21  C   UNL     1      -4.217   0.421 -32.109  1.00  0.00     0.077 C 
HETATM   22  O   UNL     1      -7.267   2.928 -31.924  1.00  0.00    -0.267 OA
ENDBRANCH   1   7
BRANCH   3  23
HETATM   23  O   UNL     1     -11.430   3.102 -35.340  1.00  0.00    -0.345 OA
BRANCH  23  24
HETATM   24  C   UNL     1     -12.794   3.398 -35.014  1.00  0.00     0.236 C 
BRANCH  24  25
HETATM   25  C   UNL     1     -12.878   4.282 -33.810  1.00  0.00     0.077 A 
HETATM   26  N   UNL     1     -13.539   3.860 -32.672  1.00  0.00    -0.232 NA
HETATM   27  C   UNL     1     -13.452   4.862 -31.822  1.00  0.00     0.134 A 
HETATM   28  N   UNL     1     -12.743   5.928 -32.362  1.00  0.00    -0.316 N 
HETATM   29  C   UNL     1     -13.956   5.023 -30.499  1.00  0.00     0.051 A 
HETATM   30  C   UNL     1     -12.365   5.552 -33.624  1.00  0.00     0.127 A 
HETATM   31  C   UNL     1     -12.510   7.122 -31.684  1.00  0.00     0.098 A 
HETATM   32  C   UNL     1     -12.991   7.270 -30.438  1.00  0.00     0.018 A 
HETATM   33  C   UNL     1     -13.737   6.176 -29.836  1.00  0.00     0.005 A 
ENDBRANCH  24  25
ENDBRANCH  23  24
ENDBRANCH   3  23
TORSDOF 4
ENDMDL
MODEL 10
REMARK VINA RESULT:      -9.2      3.239      9.475
REMARK  4 active torsions:
REMARK  status: ('A' for Active; 'I' for Inactive)
REMARK       I    between atoms: N_10  and  C_11 
REMARK    1  A    between atoms: C_11  and  C_12 
REMARK    2  A    between atoms: C_14  and  O_15 
REMARK    3  A    between atoms: O_15  and  C_16 
REMARK    4  A    between atoms: C_16  and  C_17 
ROOT
HETATM    1  C   UNL     1      -8.570   4.184 -31.514  1.00  0.00     0.034 A 
HETATM    2  C   UNL     1      -7.686   3.100 -31.447  1.00  0.00     0.053 A 
HETATM    3  C   UNL     1      -8.052   1.877 -32.009  1.00  0.00     0.070 A 
HETATM    4  C   UNL     1      -9.305   1.750 -32.619  1.00  0.00     0.037 A 
HETATM    5  C   UNL     1     -10.198   2.822 -32.657  1.00  0.00     0.004 A 
HETATM    6  C   UNL     1      -9.835   4.042 -32.094  1.00  0.00     0.017 A 
ENDROOT
BRANCH   1   7
HETATM    7  C   UNL     1      -8.172   5.462 -30.884  1.00  0.00     0.254 C 
HETATM    8  N   UNL     1      -7.111   6.183 -31.424  1.00  0.00    -0.343 N 
HETATM    9  C   UNL     1      -6.251   5.694 -32.525  1.00  0.00     0.167 C 
HETATM   10  C   UNL     1      -6.889   7.563 -30.945  1.00  0.00     0.132 C 
HETATM   11  C   UNL     1      -4.883   6.291 -32.435  1.00  0.00    -0.005 A 
HETATM   12  C   UNL     1      -3.733   6.044 -33.240  1.00  0.00     0.000 A 
HETATM   13  C   UNL     1      -4.527   7.248 -31.509  1.00  0.00     0.020 A 
HETATM   14  C   UNL     1      -3.461   5.201 -34.336  1.00  0.00     0.014 A 
HETATM   15  C   UNL     1      -2.711   6.871 -32.761  1.00  0.00     0.043 A 
HETATM   16  C   UNL     1      -2.187   5.215 -34.915  1.00  0.00     0.001 A 
HETATM   17  C   UNL     1      -1.189   6.051 -34.419  1.00  0.00     0.002 A 
HETATM   18  C   UNL     1      -1.432   6.895 -33.332  1.00  0.00     0.030 A 
HETATM   19  N   UNL     1      -3.220   7.586 -31.697  1.00  0.00    -0.358 N 
HETATM   20  H   UNL     1      -2.697   8.260 -31.156  1.00  0.00     0.166 HD
HETATM   21  C   UNL     1      -5.441   7.802 -30.477  1.00  0.00     0.077 C 
HETATM   22  O   UNL     1      -8.814   5.824 -29.900  1.00  0.00    -0.267 OA
ENDBRANCH   1   7
BRANCH   3  23
HETATM   23  O   UNL     1      -7.295   0.739 -32.032  1.00  0.00    -0.345 OA
BRANCH  23  24
HETATM   24  C   UNL     1      -6.155   0.724 -32.900  1.00  0.00     0.236 C 
BRANCH  24  25
HETATM   25  C   UNL     1      -5.869  -0.663 -33.384  1.00  0.00     0.077 A 
HETATM   26  N   UNL     1      -6.854  -1.410 -34.001  1.00  0.00    -0.232 NA
HETATM   27  C   UNL     1      -6.297  -2.570 -34.278  1.00  0.00     0.134 A 
HETATM   28  N   UNL     1      -4.968  -2.606 -33.872  1.00  0.00    -0.316 N 
HETATM   29  C   UNL     1      -6.819  -3.745 -34.892  1.00  0.00     0.051 A 
HETATM   30  C   UNL     1      -4.692  -1.385 -33.315  1.00  0.00     0.127 A 
HETATM   31  C   UNL     1      -4.142  -3.716 -34.033  1.00  0.00     0.098 A 
HETATM   32  C   UNL     1      -4.641  -4.823 -34.609  1.00  0.00     0.018 A 
HETATM   33  C   UNL     1      -6.028  -4.825 -35.049  1.00  0.00     0.005 A 
ENDBRANCH  24  25
ENDBRANCH  23  24
ENDBRANCH   3  23
TORSDOF 4
ENDMDL
