MODEL 1
REMARK VINA RESULT:      -8.8      0.000      0.000
REMARK  3 active torsions:
REMARK  status: ('A' for Active; 'I' for Inactive)
REMARK    1  A    between atoms: C_2  and  C_3 
REMARK    2  A    between atoms: C_10  and  C_12 
REMARK    3  A    between atoms: C_10  and  O_11 
ROOT
HETATM    1  C   UNL     1      -6.632  -1.600 -34.009  1.00  0.00    -0.058 A 
HETATM    2  C   UNL     1      -7.761  -0.936 -33.505  1.00  0.00     0.020 A 
HETATM    3  C   UNL     1      -7.576   0.228 -32.775  1.00  0.00     0.018 A 
HETATM    4  C   UNL     1      -6.288   0.712 -32.532  1.00  0.00     0.045 A 
HETATM    5  N   UNL     1      -6.342   1.889 -31.802  1.00  0.00    -0.323 N 
HETATM    6  C   UNL     1      -7.660   2.265 -31.531  1.00  0.00     0.266 A 
HETATM    7  O   UNL     1      -7.972   3.260 -30.896  1.00  0.00    -0.269 OA
HETATM    8  C   UNL     1      -8.589   1.146 -32.125  1.00  0.00     0.198 A 
HETATM    9  C   UNL     1      -5.159   0.078 -33.002  1.00  0.00     0.031 A 
HETATM   10  C   UNL     1      -5.340  -1.087 -33.753  1.00  0.00     0.009 A 
HETATM   11  H   UNL     1      -5.552   2.446 -31.513  1.00  0.00     0.169 HD
ENDROOT
BRANCH   8  12
HETATM   12  C   UNL     1      -9.512   1.649 -33.206  1.00  0.00     0.018 A 
HETATM   13  C   UNL     1     -10.826   1.176 -33.576  1.00  0.00     0.002 A 
HETATM   14  C   UNL     1     -11.283   1.979 -34.624  1.00  0.00     0.043 A 
HETATM   15  C   UNL     1     -11.680   0.151 -33.115  1.00  0.00     0.014 A 
HETATM   16  C   UNL     1     -12.539   1.814 -35.222  1.00  0.00     0.030 A 
HETATM   17  N   UNL     1     -10.292   2.886 -34.905  1.00  0.00    -0.365 N 
HETATM   18  C   UNL     1     -13.363   0.796 -34.737  1.00  0.00     0.002 A 
HETATM   19  C   UNL     1     -12.941  -0.027 -33.699  1.00  0.00     0.001 A 
HETATM   20  H   UNL     1     -10.345   3.586 -35.632  1.00  0.00     0.165 HD
HETATM   21  C   UNL     1      -9.234   2.704 -34.064  1.00  0.00     0.100 A 
ENDBRANCH   8  12
BRANCH   8  22
HETATM   22  O   UNL     1      -9.277   0.425 -31.104  1.00  0.00    -0.371 OA
HETATM   23  H   UNL     1      -9.028  -0.507 -31.211  1.00  0.00     0.212 HD
ENDBRANCH   8  22
BRANCH   1  24
HETATM   24  C   UNL     1      -6.803  -2.833 -34.863  1.00  0.00     0.034 C 
HETATM   25  C   UNL     1      -5.534  -3.672 -34.897  1.00  0.00     0.010 C 
ENDBRANCH   1  24
TORSDOF 3
ENDMDL
MODEL 2
REMARK VINA RESULT:      -8.4      1.303      1.682
REMARK  3 active torsions:
REMARK  status: ('A' for Active; 'I' for Inactive)
REMARK    1  A    between atoms: C_2  and  C_3 
REMARK    2  A    between atoms: C_10  and  C_12 
REMARK    3  A    between atoms: C_10  and  O_11 
ROOT
HETATM    1  C   UNL     1      -6.102  -2.201 -34.161  1.00  0.00    -0.058 A 
HETATM    2  C   UNL     1      -6.899  -1.281 -33.462  1.00  0.00     0.020 A 
HETATM    3  C   UNL     1      -6.276  -0.249 -32.776  1.00  0.00     0.018 A 
HETATM    4  C   UNL     1      -4.883  -0.148 -32.767  1.00  0.00     0.045 A 
HETATM    5  N   UNL     1      -4.482   0.961 -32.038  1.00  0.00    -0.323 N 
HETATM    6  C   UNL     1      -5.577   1.667 -31.536  1.00  0.00     0.266 A 
HETATM    7  O   UNL     1      -5.488   2.677 -30.854  1.00  0.00    -0.269 OA
HETATM    8  C   UNL     1      -6.868   0.876 -31.955  1.00  0.00     0.198 A 
HETATM    9  C   UNL     1      -4.071  -1.041 -33.432  1.00  0.00     0.031 A 
HETATM   10  C   UNL     1      -4.694  -2.073 -34.139  1.00  0.00     0.009 A 
HETATM   11  H   UNL     1      -3.531   1.265 -31.894  1.00  0.00     0.169 HD
ENDROOT
BRANCH   8  12
HETATM   12  C   UNL     1      -7.786   1.666 -32.853  1.00  0.00     0.018 A 
HETATM   13  C   UNL     1      -9.153   1.388 -33.230  1.00  0.00     0.002 A 
HETATM   14  C   UNL     1      -9.579   2.425 -34.063  1.00  0.00     0.043 A 
HETATM   15  C   UNL     1     -10.077   0.362 -32.935  1.00  0.00     0.014 A 
HETATM   16  C   UNL     1     -10.869   2.490 -34.605  1.00  0.00     0.030 A 
HETATM   17  N   UNL     1      -8.521   3.287 -34.215  1.00  0.00    -0.365 N 
HETATM   18  C   UNL     1     -11.761   1.464 -34.287  1.00  0.00     0.002 A 
HETATM   19  C   UNL     1     -11.373   0.412 -33.465  1.00  0.00     0.001 A 
HETATM   20  H   UNL     1      -8.540   4.124 -34.781  1.00  0.00     0.165 HD
HETATM   21  C   UNL     1      -7.449   2.849 -33.495  1.00  0.00     0.100 A 
ENDBRANCH   8  12
BRANCH   8  22
HETATM   22  O   UNL     1      -7.542   0.319 -30.828  1.00  0.00    -0.371 OA
HETATM   23  H   UNL     1      -6.936   0.406 -30.074  1.00  0.00     0.212 HD
ENDBRANCH   8  22
BRANCH   1  24
HETATM   24  C   UNL     1      -6.752  -3.296 -34.971  1.00  0.00     0.034 C 
HETATM   25  C   UNL     1      -5.895  -4.553 -35.005  1.00  0.00     0.010 C 
ENDBRANCH   1  24
TORSDOF 3
ENDMDL
MODEL 3
REMARK VINA RESULT:      -8.0      3.419      6.240
REMARK  3 active torsions:
REMARK  status: ('A' for Active; 'I' for Inactive)
REMARK    1  A    between atoms: C_2  and  C_3 
REMARK    2  A    between atoms: C_10  and  C_12 
REMARK    3  A    between atoms: C_10  and  O_11 
ROOT
HETATM    1  C   UNL     1      -3.476   4.143 -33.470  1.00  0.00    -0.058 A 
HETATM    2  C   UNL     1      -3.708   3.102 -32.557  1.00  0.00     0.020 A 
HETATM    3  C   UNL     1      -5.011   2.668 -32.362  1.00  0.00     0.018 A 
HETATM    4  C   UNL     1      -6.066   3.274 -33.047  1.00  0.00     0.045 A 
HETATM    5  N   UNL     1      -7.270   2.672 -32.712  1.00  0.00    -0.323 N 
HETATM    6  C   UNL     1      -7.086   1.628 -31.804  1.00  0.00     0.266 A 
HETATM    7  O   UNL     1      -7.993   0.947 -31.348  1.00  0.00    -0.269 OA
HETATM    8  C   UNL     1      -5.553   1.579 -31.462  1.00  0.00     0.198 A 
HETATM    9  C   UNL     1      -5.875   4.305 -33.940  1.00  0.00     0.031 A 
HETATM   10  C   UNL     1      -4.562   4.735 -34.154  1.00  0.00     0.009 A 
HETATM   11  H   UNL     1      -8.177   2.913 -33.082  1.00  0.00     0.169 HD
ENDROOT
BRANCH   8  12
HETATM   12  C   UNL     1      -4.895   0.283 -31.861  1.00  0.00     0.018 A 
HETATM   13  C   UNL     1      -5.245  -0.627 -32.927  1.00  0.00     0.002 A 
HETATM   14  C   UNL     1      -4.323  -1.676 -32.905  1.00  0.00     0.043 A 
HETATM   15  C   UNL     1      -6.249  -0.658 -33.919  1.00  0.00     0.014 A 
HETATM   16  C   UNL     1      -4.350  -2.738 -33.819  1.00  0.00     0.030 A 
HETATM   17  N   UNL     1      -3.461  -1.441 -31.862  1.00  0.00    -0.365 N 
HETATM   18  C   UNL     1      -5.351  -2.733 -34.793  1.00  0.00     0.002 A 
HETATM   19  C   UNL     1      -6.290  -1.709 -34.843  1.00  0.00     0.001 A 
HETATM   20  H   UNL     1      -2.697  -2.048 -31.602  1.00  0.00     0.165 HD
HETATM   21  C   UNL     1      -3.788  -0.274 -31.235  1.00  0.00     0.100 A 
ENDBRANCH   8  12
BRANCH   8  22
HETATM   22  O   UNL     1      -5.298   1.932 -30.103  1.00  0.00    -0.371 OA
HETATM   23  H   UNL     1      -4.679   1.269 -29.758  1.00  0.00     0.212 HD
ENDBRANCH   8  22
BRANCH   1  24
HETATM   24  C   UNL     1      -2.064   4.593 -33.754  1.00  0.00     0.034 C 
HETATM   25  C   UNL     1      -1.332   4.983 -32.477  1.00  0.00     0.010 C 
ENDBRANCH   1  24
TORSDOF 3
ENDMDL
MODEL 4
REMARK VINA RESULT:      -8.0      3.313      5.713
REMARK  3 active torsions:
REMARK  status: ('A' for Active; 'I' for Inactive)
REMARK    1  A    between atoms: C_2  and  C_3 
REMARK    2  A    between atoms: C_10  and  C_12 
REMARK    3  A    between atoms: C_10  and  O_11 
ROOT
HETATM    1  C   UNL     1      -3.099   3.946 -32.635  1.00  0.00    -0.058 A 
HETATM    2  C   UNL     1      -3.177   2.557 -32.447  1.00  0.00     0.020 A 
HETATM    3  C   UNL     1      -4.050   2.065 -31.488  1.00  0.00     0.018 A 
HETATM    4  C   UNL     1      -4.816   2.941 -30.716  1.00  0.00     0.045 A 
HETATM    5  N   UNL     1      -5.625   2.234 -29.839  1.00  0.00    -0.323 N 
HETATM    6  C   UNL     1      -5.458   0.855 -29.987  1.00  0.00     0.266 A 
HETATM    7  O   UNL     1      -6.051   0.018 -29.324  1.00  0.00    -0.269 OA
HETATM    8  C   UNL     1      -4.347   0.640 -31.076  1.00  0.00     0.198 A 
HETATM    9  C   UNL     1      -4.754   4.309 -30.866  1.00  0.00     0.031 A 
HETATM   10  C   UNL     1      -3.889   4.810 -31.843  1.00  0.00     0.009 A 
HETATM   11  H   UNL     1      -6.284   2.632 -29.186  1.00  0.00     0.169 HD
ENDROOT
BRANCH   8  12
HETATM   12  C   UNL     1      -4.842  -0.097 -32.295  1.00  0.00     0.018 A 
HETATM   13  C   UNL     1      -5.962   0.212 -33.154  1.00  0.00     0.002 A 
HETATM   14  C   UNL     1      -6.001  -0.757 -34.159  1.00  0.00     0.043 A 
HETATM   15  C   UNL     1      -6.942   1.228 -33.184  1.00  0.00     0.014 A 
HETATM   16  C   UNL     1      -6.955  -0.757 -35.185  1.00  0.00     0.030 A 
HETATM   17  N   UNL     1      -4.974  -1.635 -33.920  1.00  0.00    -0.365 N 
HETATM   18  C   UNL     1      -7.906   0.267 -35.191  1.00  0.00     0.002 A 
HETATM   19  C   UNL     1      -7.902   1.246 -34.204  1.00  0.00     0.001 A 
HETATM   20  H   UNL     1      -4.771  -2.448 -34.485  1.00  0.00     0.165 HD
HETATM   21  C   UNL     1      -4.272  -1.250 -32.815  1.00  0.00     0.100 A 
ENDBRANCH   8  12
BRANCH   8  22
HETATM   22  O   UNL     1      -3.164   0.062 -30.525  1.00  0.00    -0.371 OA
HETATM   23  H   UNL     1      -2.947  -0.703 -31.082  1.00  0.00     0.212 HD
ENDBRANCH   8  22
BRANCH   1  24
HETATM   24  C   UNL     1      -2.208   4.509 -33.716  1.00  0.00     0.034 C 
HETATM   25  C   UNL     1      -3.002   5.313 -34.735  1.00  0.00     0.010 C 
ENDBRANCH   1  24
TORSDOF 3
ENDMDL
MODEL 5
REMARK VINA RESULT:      -7.9      3.034      4.729
REMARK  3 active torsions:
REMARK  status: ('A' for Active; 'I' for Inactive)
REMARK    1  A    between atoms: C_2  and  C_3 
REMARK    2  A    between atoms: C_10  and  C_12 
REMARK    3  A    between atoms: C_10  and  O_11 
ROOT
HETATM    1  C   UNL     1      -5.286  -2.056 -33.949  1.00  0.00    -0.058 A 
HETATM    2  C   UNL     1      -6.098  -1.023 -33.455  1.00  0.00     0.020 A 
HETATM    3  C   UNL     1      -5.707  -0.368 -32.297  1.00  0.00     0.018 A 
HETATM    4  C   UNL     1      -4.541  -0.749 -31.629  1.00  0.00     0.045 A 
HETATM    5  N   UNL     1      -4.339   0.047 -30.512  1.00  0.00    -0.323 N 
HETATM    6  C   UNL     1      -5.343   1.009 -30.380  1.00  0.00     0.266 A 
HETATM    7  O   UNL     1      -5.395   1.825 -29.473  1.00  0.00    -0.269 OA
HETATM    8  C   UNL     1      -6.368   0.769 -31.547  1.00  0.00     0.198 A 
HETATM    9  C   UNL     1      -3.729  -1.767 -32.080  1.00  0.00     0.031 A 
HETATM   10  C   UNL     1      -4.108  -2.419 -33.257  1.00  0.00     0.009 A 
HETATM   11  H   UNL     1      -3.561  -0.013 -29.873  1.00  0.00     0.169 HD
ENDROOT
BRANCH   8  12
HETATM   12  C   UNL     1      -6.479   1.938 -32.492  1.00  0.00     0.018 A 
HETATM   13  C   UNL     1      -5.467   2.888 -32.890  1.00  0.00     0.002 A 
HETATM   14  C   UNL     1      -6.052   3.773 -33.799  1.00  0.00     0.043 A 
HETATM   15  C   UNL     1      -4.103   3.078 -32.578  1.00  0.00     0.014 A 
HETATM   16  C   UNL     1      -5.350   4.820 -34.408  1.00  0.00     0.030 A 
HETATM   17  N   UNL     1      -7.368   3.405 -33.936  1.00  0.00    -0.365 N 
HETATM   18  C   UNL     1      -4.001   4.975 -34.084  1.00  0.00     0.002 A 
HETATM   19  C   UNL     1      -3.383   4.118 -33.180  1.00  0.00     0.001 A 
HETATM   20  H   UNL     1      -8.038   3.881 -34.523  1.00  0.00     0.165 HD
HETATM   21  C   UNL     1      -7.634   2.310 -33.167  1.00  0.00     0.100 A 
ENDBRANCH   8  12
BRANCH   8  22
HETATM   22  O   UNL     1      -7.635   0.328 -31.062  1.00  0.00    -0.371 OA
HETATM   23  H   UNL     1      -7.493  -0.557 -30.688  1.00  0.00     0.212 HD
ENDBRANCH   8  22
BRANCH   1  24
HETATM   24  C   UNL     1      -5.648  -2.742 -35.244  1.00  0.00     0.034 C 
HETATM   25  C   UNL     1      -6.567  -3.933 -35.009  1.00  0.00     0.010 C 
ENDBRANCH   1  24
TORSDOF 3
ENDMDL
MODEL 6
REMARK VINA RESULT:      -7.9      3.765      6.198
REMARK  3 active torsions:
REMARK  status: ('A' for Active; 'I' for Inactive)
REMARK    1  A    between atoms: C_2  and  C_3 
REMARK    2  A    between atoms: C_10  and  C_12 
REMARK    3  A    between atoms: C_10  and  O_11 
ROOT
HETATM    1  C   UNL     1      -3.075   4.076 -32.756  1.00  0.00    -0.058 A 
HETATM    2  C   UNL     1      -3.320   2.701 -32.613  1.00  0.00     0.020 A 
HETATM    3  C   UNL     1      -4.148   2.278 -31.584  1.00  0.00     0.018 A 
HETATM    4  C   UNL     1      -4.704   3.205 -30.699  1.00  0.00     0.045 A 
HETATM    5  N   UNL     1      -5.505   2.565 -29.766  1.00  0.00    -0.323 N 
HETATM    6  C   UNL     1      -5.542   1.186 -29.983  1.00  0.00     0.266 A 
HETATM    7  O   UNL     1      -6.171   0.399 -29.291  1.00  0.00    -0.269 OA
HETATM    8  C   UNL     1      -4.590   0.884 -31.195  1.00  0.00     0.198 A 
HETATM    9  C   UNL     1      -4.474   4.559 -30.804  1.00  0.00     0.031 A 
HETATM   10  C   UNL     1      -3.655   4.994 -31.850  1.00  0.00     0.009 A 
HETATM   11  H   UNL     1      -6.033   3.010 -29.031  1.00  0.00     0.169 HD
ENDROOT
BRANCH   8  12
HETATM   12  C   UNL     1      -5.304   0.282 -32.379  1.00  0.00     0.018 A 
HETATM   13  C   UNL     1      -5.027  -0.950 -33.081  1.00  0.00     0.002 A 
HETATM   14  C   UNL     1      -5.979  -1.080 -34.095  1.00  0.00     0.043 A 
HETATM   15  C   UNL     1      -4.067  -1.977 -32.947  1.00  0.00     0.014 A 
HETATM   16  C   UNL     1      -6.023  -2.176 -34.967  1.00  0.00     0.030 A 
HETATM   17  N   UNL     1      -6.788   0.028 -34.040  1.00  0.00    -0.365 N 
HETATM   18  C   UNL     1      -5.064  -3.178 -34.803  1.00  0.00     0.002 A 
HETATM   19  C   UNL     1      -4.097  -3.081 -33.808  1.00  0.00     0.001 A 
HETATM   20  H   UNL     1      -7.558   0.207 -34.668  1.00  0.00     0.165 HD
HETATM   21  C   UNL     1      -6.399   0.845 -33.019  1.00  0.00     0.100 A 
ENDBRANCH   8  12
BRANCH   8  22
HETATM   22  O   UNL     1      -3.445   0.130 -30.800  1.00  0.00    -0.371 OA
HETATM   23  H   UNL     1      -3.664  -0.273 -29.944  1.00  0.00     0.212 HD
ENDBRANCH   8  22
BRANCH   1  24
HETATM   24  C   UNL     1      -2.233   4.574 -33.906  1.00  0.00     0.034 C 
HETATM   25  C   UNL     1      -3.057   5.388 -34.893  1.00  0.00     0.010 C 
ENDBRANCH   1  24
TORSDOF 3
ENDMDL
MODEL 7
REMARK VINA RESULT:      -7.8      1.009      1.224
REMARK  3 active torsions:
REMARK  status: ('A' for Active; 'I' for Inactive)
REMARK    1  A    between atoms: C_2  and  C_3 
REMARK    2  A    between atoms: C_10  and  C_12 
REMARK    3  A    between atoms: C_10  and  O_11 
ROOT
HETATM    1  C   UNL     1      -5.935  -0.787 -33.395  1.00  0.00    -0.058 A 
HETATM    2  C   UNL     1      -7.180  -0.219 -33.079  1.00  0.00     0.020 A 
HETATM    3  C   UNL     1      -7.230   0.775 -32.114  1.00  0.00     0.018 A 
HETATM    4  C   UNL     1      -6.066   1.181 -31.458  1.00  0.00     0.045 A 
HETATM    5  N   UNL     1      -6.348   2.191 -30.550  1.00  0.00    -0.323 N 
HETATM    6  C   UNL     1      -7.703   2.525 -30.561  1.00  0.00     0.266 A 
HETATM    7  O   UNL     1      -8.204   3.380 -29.846  1.00  0.00    -0.269 OA
HETATM    8  C   UNL     1      -8.409   1.561 -31.581  1.00  0.00     0.198 A 
HETATM    9  C   UNL     1      -4.831   0.636 -31.734  1.00  0.00     0.031 A 
HETATM   10  C   UNL     1      -4.772  -0.354 -32.719  1.00  0.00     0.009 A 
HETATM   11  H   UNL     1      -5.678   2.667 -29.964  1.00  0.00     0.169 HD
ENDROOT
BRANCH   8  12
HETATM   12  C   UNL     1      -9.042   2.283 -32.743  1.00  0.00     0.018 A 
HETATM   13  C   UNL     1     -10.250   1.960 -33.467  1.00  0.00     0.002 A 
HETATM   14  C   UNL     1     -10.429   2.941 -34.446  1.00  0.00     0.043 A 
HETATM   15  C   UNL     1     -11.219   0.936 -33.380  1.00  0.00     0.014 A 
HETATM   16  C   UNL     1     -11.518   2.953 -35.327  1.00  0.00     0.030 A 
HETATM   17  N   UNL     1      -9.372   3.811 -34.349  1.00  0.00    -0.365 N 
HETATM   18  C   UNL     1     -12.462   1.931 -35.209  1.00  0.00     0.002 A 
HETATM   19  C   UNL     1     -12.316   0.934 -34.251  1.00  0.00     0.001 A 
HETATM   20  H   UNL     1      -9.234   4.615 -34.946  1.00  0.00     0.165 HD
HETATM   21  C   UNL     1      -8.541   3.434 -33.335  1.00  0.00     0.100 A 
ENDBRANCH   8  12
BRANCH   8  22
HETATM   22  O   UNL     1      -9.308   0.663 -30.932  1.00  0.00    -0.371 OA
HETATM   23  H   UNL     1     -10.119   1.166 -30.756  1.00  0.00     0.212 HD
ENDBRANCH   8  22
BRANCH   1  24
HETATM   24  C   UNL     1      -5.837  -1.824 -34.488  1.00  0.00     0.034 C 
HETATM   25  C   UNL     1      -7.070  -2.715 -34.527  1.00  0.00     0.010 C 
ENDBRANCH   1  24
TORSDOF 3
ENDMDL
MODEL 8
REMARK VINA RESULT:      -7.7      4.734      7.180
REMARK  3 active torsions:
REMARK  status: ('A' for Active; 'I' for Inactive)
REMARK    1  A    between atoms: C_2  and  C_3 
REMARK    2  A    between atoms: C_10  and  C_12 
REMARK    3  A    between atoms: C_10  and  O_11 
ROOT
HETATM    1  C   UNL     1      -1.377   5.274 -32.292  1.00  0.00    -0.058 A 
HETATM    2  C   UNL     1      -2.675   5.282 -31.758  1.00  0.00     0.020 A 
HETATM    3  C   UNL     1      -3.751   5.170 -32.626  1.00  0.00     0.018 A 
HETATM    4  C   UNL     1      -3.539   5.075 -34.003  1.00  0.00     0.045 A 
HETATM    5  N   UNL     1      -4.748   4.958 -34.672  1.00  0.00    -0.323 N 
HETATM    6  C   UNL     1      -5.827   4.951 -33.785  1.00  0.00     0.266 A 
HETATM    7  O   UNL     1      -6.996   4.865 -34.128  1.00  0.00    -0.269 OA
HETATM    8  C   UNL     1      -5.237   5.144 -32.341  1.00  0.00     0.198 A 
HETATM    9  C   UNL     1      -2.280   5.077 -34.561  1.00  0.00     0.031 A 
HETATM   10  C   UNL     1      -1.191   5.171 -33.689  1.00  0.00     0.009 A 
HETATM   11  H   UNL     1      -4.868   4.856 -35.669  1.00  0.00     0.169 HD
ENDROOT
BRANCH   8  12
HETATM   12  C   UNL     1      -5.509   3.977 -31.426  1.00  0.00     0.018 A 
HETATM   13  C   UNL     1      -5.512   2.564 -31.727  1.00  0.00     0.002 A 
HETATM   14  C   UNL     1      -5.800   1.881 -30.543  1.00  0.00     0.043 A 
HETATM   15  C   UNL     1      -5.287   1.794 -32.889  1.00  0.00     0.014 A 
HETATM   16  C   UNL     1      -5.866   0.484 -30.462  1.00  0.00     0.030 A 
HETATM   17  N   UNL     1      -5.991   2.825 -29.564  1.00  0.00    -0.365 N 
HETATM   18  C   UNL     1      -5.630  -0.248 -31.627  1.00  0.00     0.002 A 
HETATM   19  C   UNL     1      -5.345   0.396 -32.826  1.00  0.00     0.001 A 
HETATM   20  H   UNL     1      -6.228   2.616 -28.605  1.00  0.00     0.165 HD
HETATM   21  C   UNL     1      -5.815   4.077 -30.076  1.00  0.00     0.100 A 
ENDBRANCH   8  12
BRANCH   8  22
HETATM   22  O   UNL     1      -5.621   6.394 -31.771  1.00  0.00    -0.371 OA
HETATM   23  H   UNL     1      -4.801   6.890 -31.618  1.00  0.00     0.212 HD
ENDBRANCH   8  22
BRANCH   1  24
HETATM   24  C   UNL     1      -0.184   5.326 -31.369  1.00  0.00     0.034 C 
HETATM   25  C   UNL     1       0.400   6.729 -31.287  1.00  0.00     0.010 C 
ENDBRANCH   1  24
TORSDOF 3
ENDMDL
MODEL 9
REMARK VINA RESULT:      -7.6      1.101      2.223
REMARK  3 active torsions:
REMARK  status: ('A' for Active; 'I' for Inactive)
REMARK    1  A    between atoms: C_2  and  C_3 
REMARK    2  A    between atoms: C_10  and  C_12 
REMARK    3  A    between atoms: C_10  and  O_11 
ROOT
HETATM    1  C   UNL     1      -6.618  -1.297 -34.042  1.00  0.00    -0.058 A 
HETATM    2  C   UNL     1      -7.795  -0.795 -33.465  1.00  0.00     0.020 A 
HETATM    3  C   UNL     1      -7.712   0.335 -32.665  1.00  0.00     0.018 A 
HETATM    4  C   UNL     1      -6.477   0.941 -32.426  1.00  0.00     0.045 A 
HETATM    5  N   UNL     1      -6.633   2.057 -31.618  1.00  0.00    -0.323 N 
HETATM    6  C   UNL     1      -7.973   2.267 -31.287  1.00  0.00     0.266 A 
HETATM    7  O   UNL     1      -8.370   3.181 -30.579  1.00  0.00    -0.269 OA
HETATM    8  C   UNL     1      -8.796   1.092 -31.929  1.00  0.00     0.198 A 
HETATM    9  C   UNL     1      -5.302   0.467 -32.967  1.00  0.00     0.031 A 
HETATM   10  C   UNL     1      -5.382  -0.662 -33.788  1.00  0.00     0.009 A 
HETATM   11  H   UNL     1      -5.898   2.678 -31.314  1.00  0.00     0.169 HD
ENDROOT
BRANCH   8  12
HETATM   12  C   UNL     1      -9.804   1.558 -32.948  1.00  0.00     0.018 A 
HETATM   13  C   UNL     1      -9.852   2.802 -33.681  1.00  0.00     0.002 A 
HETATM   14  C   UNL     1     -10.967   2.754 -34.521  1.00  0.00     0.043 A 
HETATM   15  C   UNL     1      -9.048   3.962 -33.724  1.00  0.00     0.014 A 
HETATM   16  C   UNL     1     -11.311   3.793 -35.395  1.00  0.00     0.030 A 
HETATM   17  N   UNL     1     -11.593   1.553 -34.299  1.00  0.00    -0.365 N 
HETATM   18  C   UNL     1     -10.491   4.923 -35.419  1.00  0.00     0.002 A 
HETATM   19  C   UNL     1      -9.375   5.010 -34.595  1.00  0.00     0.001 A 
HETATM   20  H   UNL     1     -12.440   1.253 -34.762  1.00  0.00     0.165 HD
HETATM   21  C   UNL     1     -10.908   0.828 -33.369  1.00  0.00     0.100 A 
ENDBRANCH   8  12
BRANCH   8  22
HETATM   22  O   UNL     1      -9.366   0.238 -30.939  1.00  0.00    -0.371 OA
HETATM   23  H   UNL     1     -10.328   0.275 -31.064  1.00  0.00     0.212 HD
ENDBRANCH   8  22
BRANCH   1  24
HETATM   24  C   UNL     1      -6.684  -2.485 -34.971  1.00  0.00     0.034 C 
HETATM   25  C   UNL     1      -5.398  -3.297 -34.935  1.00  0.00     0.010 C 
ENDBRANCH   1  24
TORSDOF 3
ENDMDL
MODEL 10
REMARK VINA RESULT:      -7.6      2.472      3.315
REMARK  3 active torsions:
REMARK  status: ('A' for Active; 'I' for Inactive)
REMARK    1  A    between atoms: C_2  and  C_3 
REMARK    2  A    between atoms: C_10  and  C_12 
REMARK    3  A    between atoms: C_10  and  O_11 
ROOT
HETATM    1  C   UNL     1      -6.046  -2.014 -34.038  1.00  0.00    -0.058 A 
HETATM    2  C   UNL     1      -6.766  -1.332 -33.045  1.00  0.00     0.020 A 
HETATM    3  C   UNL     1      -6.109  -0.374 -32.287  1.00  0.00     0.018 A 
HETATM    4  C   UNL     1      -4.753  -0.116 -32.499  1.00  0.00     0.045 A 
HETATM    5  N   UNL     1      -4.310   0.884 -31.646  1.00  0.00    -0.323 N 
HETATM    6  C   UNL     1      -5.342   1.357 -30.833  1.00  0.00     0.266 A 
HETATM    7  O   UNL     1      -5.205   2.232 -29.991  1.00  0.00    -0.269 OA
HETATM    8  C   UNL     1      -6.621   0.509 -31.171  1.00  0.00     0.198 A 
HETATM    9  C   UNL     1      -4.014  -0.775 -33.457  1.00  0.00     0.031 A 
HETATM   10  C   UNL     1      -4.676  -1.729 -34.236  1.00  0.00     0.009 A 
HETATM   11  H   UNL     1      -3.377   1.266 -31.612  1.00  0.00     0.169 HD
ENDROOT
BRANCH   8  12
HETATM   12  C   UNL     1      -7.755   1.335 -31.722  1.00  0.00     0.018 A 
HETATM   13  C   UNL     1      -7.703   2.546 -32.509  1.00  0.00     0.002 A 
HETATM   14  C   UNL     1      -9.018   2.921 -32.793  1.00  0.00     0.043 A 
HETATM   15  C   UNL     1      -6.665   3.356 -33.019  1.00  0.00     0.014 A 
HETATM   16  C   UNL     1      -9.343   4.048 -33.560  1.00  0.00     0.030 A 
HETATM   17  N   UNL     1      -9.843   2.003 -32.192  1.00  0.00    -0.365 N 
HETATM   18  C   UNL     1      -8.293   4.823 -34.056  1.00  0.00     0.002 A 
HETATM   19  C   UNL     1      -6.971   4.485 -33.790  1.00  0.00     0.001 A 
HETATM   20  H   UNL     1     -10.852   2.035 -32.220  1.00  0.00     0.165 HD
HETATM   21  C   UNL     1      -9.103   1.051 -31.555  1.00  0.00     0.100 A 
ENDBRANCH   8  12
BRANCH   8  22
HETATM   22  O   UNL     1      -7.020  -0.314 -30.076  1.00  0.00    -0.371 OA
HETATM   23  H   UNL     1      -6.591  -1.175 -30.209  1.00  0.00     0.212 HD
ENDBRANCH   8  22
BRANCH   1  24
HETATM   24  C   UNL     1      -6.749  -3.014 -34.924  1.00  0.00     0.034 C 
HETATM   25  C   UNL     1      -6.043  -4.362 -34.917  1.00  0.00     0.010 C 
ENDBRANCH   1  24
TORSDOF 3
ENDMDL
