MODEL 1
REMARK VINA RESULT:      -8.0      0.000      0.000
REMARK  10 active torsions:
REMARK  status: ('A' for Active; 'I' for Inactive)
REMARK    1  A    between atoms: C_7  and  N_8 
REMARK    2  A    between atoms: C_9  and  S_10 
REMARK    3  A    between atoms: S_10  and  C_11 
REMARK    4  A    between atoms: C_11  and  C_12 
REMARK       I    between atoms: C_12  and  N_13 
REMARK    5  A    between atoms: N_13  and  C_14 
REMARK    6  A    between atoms: C_14  and  C_15 
REMARK    7  A    between atoms: C_15  and  C_16 
REMARK    8  A    between atoms: C_18  and  O_19 
REMARK    9  A    between atoms: C_21  and  O_22 
REMARK   10  A    between atoms: C_30  and  N_31 
ROOT
HETATM    1  N   UNL     1      -9.167   1.388 -33.358  1.00  0.00    -0.276 N 
HETATM    2  C   UNL     1      -9.160   2.623 -34.065  1.00  0.00     0.177 A 
HETATM    3  N   UNL     1     -10.182   3.153 -34.693  1.00  0.00    -0.204 NA
HETATM    4  C   UNL     1     -11.319   2.430 -34.599  1.00  0.00     0.162 A 
HETATM    5  C   UNL     1     -11.540   1.241 -33.964  1.00  0.00     0.081 A 
HETATM    6  C   UNL     1     -10.415   0.631 -33.319  1.00  0.00     0.124 A 
HETATM    7  N   UNL     1     -12.527   2.789 -35.123  1.00  0.00    -0.260 N 
HETATM    8  H   UNL     1     -12.751   3.620 -35.658  1.00  0.00     0.191 HD
HETATM    9  N   UNL     1     -13.505   1.897 -34.853  1.00  0.00    -0.177 NA
HETATM   10  C   UNL     1     -12.901   0.943 -34.124  1.00  0.00     0.068 A 
HETATM   11  C   UNL     1     -13.699  -0.199 -33.618  1.00  0.00     0.073 C 
ENDROOT
BRANCH   2  12
HETATM   12  S   UNL     1      -7.693   3.625 -34.095  1.00  0.00    -0.082 SA
BRANCH  12  13
HETATM   13  C   UNL     1      -8.390   5.219 -33.579  1.00  0.00     0.185 C 
BRANCH  13  14
HETATM   14  C   UNL     1      -7.725   5.758 -32.320  1.00  0.00     0.227 C 
HETATM   15  N   UNL     1      -7.406   4.762 -31.410  1.00  0.00    -0.360 N 
HETATM   16  H   UNL     1      -7.806   3.843 -31.542  1.00  0.00     0.162 HD
HETATM   17  O   UNL     1      -7.530   6.948 -32.096  1.00  0.00    -0.273 OA
BRANCH  15  18
HETATM   18  C   UNL     1      -6.859   5.088 -30.101  1.00  0.00     0.127 C 
BRANCH  18  19
HETATM   19  C   UNL     1      -5.644   4.219 -29.777  1.00  0.00     0.058 C 
BRANCH  19  20
HETATM   20  C   UNL     1      -4.529   4.369 -30.780  1.00  0.00    -0.054 A 
HETATM   21  C   UNL     1      -3.742   5.530 -30.795  1.00  0.00     0.046 A 
HETATM   22  C   UNL     1      -2.713   5.687 -31.733  1.00  0.00     0.102 A 
HETATM   23  C   UNL     1      -2.463   4.664 -32.669  1.00  0.00     0.101 A 
HETATM   24  C   UNL     1      -3.235   3.499 -32.639  1.00  0.00     0.040 A 
HETATM   25  C   UNL     1      -4.260   3.353 -31.701  1.00  0.00     0.010 A 
BRANCH  22  26
HETATM   26  O   UNL     1      -1.907   6.795 -31.822  1.00  0.00    -0.353 OA
HETATM   27  C   UNL     1      -2.533   8.056 -32.007  1.00  0.00     0.210 C 
ENDBRANCH  22  26
BRANCH  23  28
HETATM   28  O   UNL     1      -1.441   4.893 -33.557  1.00  0.00    -0.353 OA
HETATM   29  C   UNL     1      -1.786   5.086 -34.921  1.00  0.00     0.210 C 
ENDBRANCH  23  28
ENDBRANCH  19  20
ENDBRANCH  18  19
ENDBRANCH  15  18
ENDBRANCH  13  14
ENDBRANCH  12  13
ENDBRANCH   2  12
BRANCH   1  30
HETATM   30  C   UNL     1      -8.005   0.883 -32.700  1.00  0.00     0.043 A 
HETATM   31  C   UNL     1      -7.740   1.183 -31.358  1.00  0.00     0.032 A 
HETATM   32  C   UNL     1      -6.554   0.752 -30.759  1.00  0.00     0.026 A 
HETATM   33  C   UNL     1      -5.611   0.033 -31.496  1.00  0.00     0.040 A 
HETATM   34  C   UNL     1      -5.846  -0.275 -32.844  1.00  0.00    -0.038 A 
HETATM   35 CL   UNL     1      -4.153  -0.441 -30.702  1.00  0.00    -0.084 Cl
HETATM   36  C   UNL     1      -4.847  -1.039 -33.668  1.00  0.00     0.050 C 
HETATM   37  C   UNL     1      -7.050   0.151 -33.431  1.00  0.00     0.038 A 
ENDBRANCH   1  30
BRANCH   6  38
HETATM   38  N   UNL     1     -10.515  -0.566 -32.771  1.00  0.00    -0.384 N 
HETATM   39  H   UNL     1     -11.204  -1.236 -33.077  1.00  0.00     0.157 HD
HETATM   40  H   UNL     1      -9.865  -0.849 -32.048  1.00  0.00     0.157 HD
ENDBRANCH   6  38
TORSDOF 10
ENDMDL
MODEL 2
REMARK VINA RESULT:      -7.9      2.936      5.344
REMARK  10 active torsions:
REMARK  status: ('A' for Active; 'I' for Inactive)
REMARK    1  A    between atoms: C_7  and  N_8 
REMARK    2  A    between atoms: C_9  and  S_10 
REMARK    3  A    between atoms: S_10  and  C_11 
REMARK    4  A    between atoms: C_11  and  C_12 
REMARK       I    between atoms: C_12  and  N_13 
REMARK    5  A    between atoms: N_13  and  C_14 
REMARK    6  A    between atoms: C_14  and  C_15 
REMARK    7  A    between atoms: C_15  and  C_16 
REMARK    8  A    between atoms: C_18  and  O_19 
REMARK    9  A    between atoms: C_21  and  O_22 
REMARK   10  A    between atoms: C_30  and  N_31 
ROOT
HETATM    1  N   UNL     1      -7.414   0.396 -32.609  1.00  0.00    -0.276 N 
HETATM    2  C   UNL     1      -6.722   1.002 -31.523  1.00  0.00     0.177 A 
HETATM    3  N   UNL     1      -5.532   0.662 -31.086  1.00  0.00    -0.204 NA
HETATM    4  C   UNL     1      -4.954  -0.336 -31.788  1.00  0.00     0.162 A 
HETATM    5  C   UNL     1      -5.436  -1.035 -32.859  1.00  0.00     0.081 A 
HETATM    6  C   UNL     1      -6.755  -0.703 -33.309  1.00  0.00     0.124 A 
HETATM    7  N   UNL     1      -3.705  -0.836 -31.564  1.00  0.00    -0.260 N 
HETATM    8  H   UNL     1      -3.041  -0.557 -30.851  1.00  0.00     0.191 HD
HETATM    9  N   UNL     1      -3.363  -1.811 -32.435  1.00  0.00    -0.177 NA
HETATM   10  C   UNL     1      -4.427  -1.928 -33.247  1.00  0.00     0.068 A 
HETATM   11  C   UNL     1      -4.385  -2.902 -34.364  1.00  0.00     0.073 C 
ENDROOT
BRANCH   2  12
HETATM   12  S   UNL     1      -7.438   2.387 -30.671  1.00  0.00    -0.082 SA
BRANCH  12  13
HETATM   13  C   UNL     1      -5.931   3.301 -30.234  1.00  0.00     0.185 C 
BRANCH  13  14
HETATM   14  C   UNL     1      -5.720   4.519 -31.122  1.00  0.00     0.227 C 
HETATM   15  N   UNL     1      -5.959   4.259 -32.463  1.00  0.00    -0.360 N 
HETATM   16  H   UNL     1      -6.037   3.294 -32.759  1.00  0.00     0.162 HD
HETATM   17  O   UNL     1      -5.331   5.610 -30.718  1.00  0.00    -0.273 OA
BRANCH  15  18
HETATM   18  C   UNL     1      -5.710   5.268 -33.481  1.00  0.00     0.127 C 
BRANCH  18  19
HETATM   19  C   UNL     1      -4.424   4.973 -34.252  1.00  0.00     0.058 C 
BRANCH  19  20
HETATM   20  C   UNL     1      -3.191   5.502 -33.563  1.00  0.00    -0.054 A 
HETATM   21  C   UNL     1      -3.086   6.866 -33.250  1.00  0.00     0.046 A 
HETATM   22  C   UNL     1      -1.938   7.371 -32.624  1.00  0.00     0.102 A 
HETATM   23  C   UNL     1      -0.881   6.498 -32.301  1.00  0.00     0.101 A 
HETATM   24  C   UNL     1      -0.997   5.136 -32.595  1.00  0.00     0.040 A 
HETATM   25  C   UNL     1      -2.144   4.643 -33.221  1.00  0.00     0.010 A 
BRANCH  22  26
HETATM   26  O   UNL     1      -1.752   8.691 -32.296  1.00  0.00    -0.353 OA
HETATM   27  C   UNL     1      -2.519   9.222 -31.226  1.00  0.00     0.210 C 
ENDBRANCH  22  26
BRANCH  23  28
HETATM   28  O   UNL     1       0.210   7.069 -31.692  1.00  0.00    -0.353 OA
HETATM   29  C   UNL     1       0.401   6.807 -30.309  1.00  0.00     0.210 C 
ENDBRANCH  23  28
ENDBRANCH  19  20
ENDBRANCH  18  19
ENDBRANCH  15  18
ENDBRANCH  13  14
ENDBRANCH  12  13
ENDBRANCH   2  12
BRANCH   1  30
HETATM   30  C   UNL     1      -8.710   0.829 -33.019  1.00  0.00     0.043 A 
HETATM   31  C   UNL     1      -9.846   0.043 -32.791  1.00  0.00     0.032 A 
HETATM   32  C   UNL     1     -11.092   0.443 -33.278  1.00  0.00     0.026 A 
HETATM   33  C   UNL     1     -11.217   1.623 -34.013  1.00  0.00     0.040 A 
HETATM   34  C   UNL     1     -10.095   2.427 -34.264  1.00  0.00    -0.038 A 
HETATM   35 CL   UNL     1     -12.780   2.043 -34.613  1.00  0.00    -0.084 Cl
HETATM   36  C   UNL     1     -10.193   3.699 -35.061  1.00  0.00     0.050 C 
HETATM   37  C   UNL     1      -8.850   2.021 -33.755  1.00  0.00     0.038 A 
ENDBRANCH   1  30
BRANCH   6  38
HETATM   38  N   UNL     1      -7.337  -1.396 -34.270  1.00  0.00    -0.384 N 
HETATM   39  H   UNL     1      -7.925  -2.191 -34.072  1.00  0.00     0.157 HD
HETATM   40  H   UNL     1      -7.232  -1.112 -35.236  1.00  0.00     0.157 HD
ENDBRANCH   6  38
TORSDOF 10
ENDMDL
MODEL 3
REMARK VINA RESULT:      -7.9      3.872      7.469
REMARK  10 active torsions:
REMARK  status: ('A' for Active; 'I' for Inactive)
REMARK    1  A    between atoms: C_7  and  N_8 
REMARK    2  A    between atoms: C_9  and  S_10 
REMARK    3  A    between atoms: S_10  and  C_11 
REMARK    4  A    between atoms: C_11  and  C_12 
REMARK       I    between atoms: C_12  and  N_13 
REMARK    5  A    between atoms: N_13  and  C_14 
REMARK    6  A    between atoms: C_14  and  C_15 
REMARK    7  A    between atoms: C_15  and  C_16 
REMARK    8  A    between atoms: C_18  and  O_19 
REMARK    9  A    between atoms: C_21  and  O_22 
REMARK   10  A    between atoms: C_30  and  N_31 
ROOT
HETATM    1  N   UNL     1      -6.293   4.894 -32.889  1.00  0.00    -0.276 N 
HETATM    2  C   UNL     1      -6.214   5.268 -31.519  1.00  0.00     0.177 A 
HETATM    3  N   UNL     1      -5.119   5.589 -30.872  1.00  0.00    -0.204 NA
HETATM    4  C   UNL     1      -4.006   5.572 -31.636  1.00  0.00     0.162 A 
HETATM    5  C   UNL     1      -3.867   5.258 -32.959  1.00  0.00     0.081 A 
HETATM    6  C   UNL     1      -5.051   4.858 -33.659  1.00  0.00     0.124 A 
HETATM    7  N   UNL     1      -2.754   5.911 -31.213  1.00  0.00    -0.260 N 
HETATM    8  H   UNL     1      -2.469   6.208 -30.287  1.00  0.00     0.191 HD
HETATM    9  N   UNL     1      -1.827   5.835 -32.194  1.00  0.00    -0.177 NA
HETATM   10  C   UNL     1      -2.514   5.444 -33.280  1.00  0.00     0.068 A 
HETATM   11  C   UNL     1      -1.805   5.288 -34.572  1.00  0.00     0.073 C 
ENDROOT
BRANCH   2  12
HETATM   12  S   UNL     1      -7.694   5.396 -30.544  1.00  0.00    -0.082 SA
BRANCH  12  13
HETATM   13  C   UNL     1      -7.369   4.108 -29.307  1.00  0.00     0.185 C 
BRANCH  13  14
HETATM   14  C   UNL     1      -7.106   2.752 -29.944  1.00  0.00     0.227 C 
HETATM   15  N   UNL     1      -5.779   2.360 -29.852  1.00  0.00    -0.360 N 
HETATM   16  H   UNL     1      -5.091   3.050 -29.582  1.00  0.00     0.162 HD
HETATM   17  O   UNL     1      -7.955   2.084 -30.526  1.00  0.00    -0.273 OA
BRANCH  15  18
HETATM   18  C   UNL     1      -5.310   1.140 -30.492  1.00  0.00     0.127 C 
BRANCH  18  19
HETATM   19  C   UNL     1      -5.023   1.369 -31.976  1.00  0.00     0.058 C 
BRANCH  19  20
HETATM   20  C   UNL     1      -5.165   0.115 -32.802  1.00  0.00    -0.054 A 
HETATM   21  C   UNL     1      -4.343  -0.994 -32.551  1.00  0.00     0.046 A 
HETATM   22  C   UNL     1      -4.455  -2.159 -33.322  1.00  0.00     0.102 A 
HETATM   23  C   UNL     1      -5.408  -2.218 -34.358  1.00  0.00     0.101 A 
HETATM   24  C   UNL     1      -6.240  -1.119 -34.593  1.00  0.00     0.040 A 
HETATM   25  C   UNL     1      -6.119   0.038 -33.820  1.00  0.00     0.010 A 
BRANCH  22  26
HETATM   26  O   UNL     1      -3.682  -3.281 -33.149  1.00  0.00    -0.353 OA
HETATM   27  C   UNL     1      -2.987  -3.422 -31.919  1.00  0.00     0.210 C 
ENDBRANCH  22  26
BRANCH  23  28
HETATM   28  O   UNL     1      -5.455  -3.392 -35.070  1.00  0.00    -0.353 OA
HETATM   29  C   UNL     1      -6.636  -4.173 -34.969  1.00  0.00     0.210 C 
ENDBRANCH  23  28
ENDBRANCH  19  20
ENDBRANCH  18  19
ENDBRANCH  15  18
ENDBRANCH  13  14
ENDBRANCH  12  13
ENDBRANCH   2  12
BRANCH   1  30
HETATM   30  C   UNL     1      -7.531   4.558 -33.515  1.00  0.00     0.043 A 
HETATM   31  C   UNL     1      -8.409   5.551 -33.970  1.00  0.00     0.032 A 
HETATM   32  C   UNL     1      -9.654   5.203 -34.499  1.00  0.00     0.026 A 
HETATM   33  C   UNL     1     -10.045   3.865 -34.565  1.00  0.00     0.040 A 
HETATM   34  C   UNL     1      -9.189   2.851 -34.110  1.00  0.00    -0.038 A 
HETATM   35 CL   UNL     1     -11.609   3.508 -35.202  1.00  0.00    -0.084 Cl
HETATM   36  C   UNL     1      -9.584   1.400 -34.158  1.00  0.00     0.050 C 
HETATM   37  C   UNL     1      -7.933   3.212 -33.593  1.00  0.00     0.038 A 
ENDBRANCH   1  30
BRANCH   6  38
HETATM   38  N   UNL     1      -4.991   4.440 -34.909  1.00  0.00    -0.384 N 
HETATM   39  H   UNL     1      -5.796   4.460 -35.517  1.00  0.00     0.157 HD
HETATM   40  H   UNL     1      -4.111   4.123 -35.297  1.00  0.00     0.157 HD
ENDBRANCH   6  38
TORSDOF 10
ENDMDL
MODEL 4
REMARK VINA RESULT:      -7.8      4.076      7.033
REMARK  10 active torsions:
REMARK  status: ('A' for Active; 'I' for Inactive)
REMARK    1  A    between atoms: C_7  and  N_8 
REMARK    2  A    between atoms: C_9  and  S_10 
REMARK    3  A    between atoms: S_10  and  C_11 
REMARK    4  A    between atoms: C_11  and  C_12 
REMARK       I    between atoms: C_12  and  N_13 
REMARK    5  A    between atoms: N_13  and  C_14 
REMARK    6  A    between atoms: C_14  and  C_15 
REMARK    7  A    between atoms: C_15  and  C_16 
REMARK    8  A    between atoms: C_18  and  O_19 
REMARK    9  A    between atoms: C_21  and  O_22 
REMARK   10  A    between atoms: C_30  and  N_31 
ROOT
HETATM    1  N   UNL     1      -4.728   4.230 -31.665  1.00  0.00    -0.276 N 
HETATM    2  C   UNL     1      -4.485   5.308 -32.561  1.00  0.00     0.177 A 
HETATM    3  N   UNL     1      -4.484   6.581 -32.247  1.00  0.00    -0.204 NA
HETATM    4  C   UNL     1      -4.711   6.824 -30.939  1.00  0.00     0.162 A 
HETATM    5  C   UNL     1      -4.950   5.943 -29.922  1.00  0.00     0.081 A 
HETATM    6  C   UNL     1      -5.003   4.554 -30.267  1.00  0.00     0.124 A 
HETATM    7  N   UNL     1      -4.712   8.057 -30.354  1.00  0.00    -0.260 N 
HETATM    8  H   UNL     1      -4.561   8.956 -30.797  1.00  0.00     0.191 HD
HETATM    9  N   UNL     1      -4.935   8.010 -29.023  1.00  0.00    -0.177 NA
HETATM   10  C   UNL     1      -5.070   6.701 -28.748  1.00  0.00     0.068 A 
HETATM   11  C   UNL     1      -5.297   6.272 -27.348  1.00  0.00     0.073 C 
ENDROOT
BRANCH   2  12
HETATM   12  S   UNL     1      -4.078   4.980 -34.260  1.00  0.00    -0.082 SA
BRANCH  12  13
HETATM   13  C   UNL     1      -2.273   4.842 -34.131  1.00  0.00     0.185 C 
BRANCH  13  14
HETATM   14  C   UNL     1      -1.628   6.140 -33.668  1.00  0.00     0.227 C 
HETATM   15  N   UNL     1      -1.097   6.054 -32.390  1.00  0.00    -0.360 N 
HETATM   16  H   UNL     1      -1.351   5.261 -31.816  1.00  0.00     0.162 HD
HETATM   17  O   UNL     1      -1.614   7.177 -34.323  1.00  0.00    -0.273 OA
BRANCH  15  18
HETATM   18  C   UNL     1      -0.530   7.221 -31.732  1.00  0.00     0.127 C 
BRANCH  18  19
HETATM   19  C   UNL     1       0.434   6.815 -30.617  1.00  0.00     0.058 C 
BRANCH  19  20
HETATM   20  C   UNL     1      -0.012   7.285 -29.255  1.00  0.00    -0.054 A 
HETATM   21  C   UNL     1       0.857   8.030 -28.444  1.00  0.00     0.046 A 
HETATM   22  C   UNL     1       0.459   8.458 -27.170  1.00  0.00     0.102 A 
HETATM   23  C   UNL     1      -0.831   8.141 -26.702  1.00  0.00     0.101 A 
HETATM   24  C   UNL     1      -1.703   7.416 -27.520  1.00  0.00     0.040 A 
HETATM   25  C   UNL     1      -1.296   6.992 -28.787  1.00  0.00     0.010 A 
BRANCH  22  26
HETATM   26  O   UNL     1       1.252   9.179 -26.312  1.00  0.00    -0.353 OA
HETATM   27  C   UNL     1       2.312   8.497 -25.659  1.00  0.00     0.210 C 
ENDBRANCH  22  26
BRANCH  23  28
HETATM   28  O   UNL     1      -1.146   8.593 -25.443  1.00  0.00    -0.353 OA
HETATM   29  C   UNL     1      -2.433   8.276 -24.935  1.00  0.00     0.210 C 
ENDBRANCH  23  28
ENDBRANCH  19  20
ENDBRANCH  18  19
ENDBRANCH  15  18
ENDBRANCH  13  14
ENDBRANCH  12  13
ENDBRANCH   2  12
BRANCH   1  30
HETATM   30  C   UNL     1      -4.711   2.868 -32.092  1.00  0.00     0.043 A 
HETATM   31  C   UNL     1      -3.567   2.073 -31.943  1.00  0.00     0.032 A 
HETATM   32  C   UNL     1      -3.542   0.771 -32.448  1.00  0.00     0.026 A 
HETATM   33  C   UNL     1      -4.649   0.252 -33.122  1.00  0.00     0.040 A 
HETATM   34  C   UNL     1      -5.805   1.029 -33.292  1.00  0.00    -0.038 A 
HETATM   35 CL   UNL     1      -4.539  -1.353 -33.747  1.00  0.00    -0.084 Cl
HETATM   36  C   UNL     1      -7.012   0.504 -34.021  1.00  0.00     0.050 C 
HETATM   37  C   UNL     1      -5.824   2.332 -32.767  1.00  0.00     0.038 A 
ENDBRANCH   1  30
BRANCH   6  38
HETATM   38  N   UNL     1      -5.330   3.644 -29.369  1.00  0.00    -0.384 N 
HETATM   39  H   UNL     1      -6.139   3.051 -29.480  1.00  0.00     0.157 HD
HETATM   40  H   UNL     1      -4.743   3.498 -28.557  1.00  0.00     0.157 HD
ENDBRANCH   6  38
TORSDOF 10
ENDMDL
MODEL 5
REMARK VINA RESULT:      -7.8      3.330      8.051
REMARK  10 active torsions:
REMARK  status: ('A' for Active; 'I' for Inactive)
REMARK    1  A    between atoms: C_7  and  N_8 
REMARK    2  A    between atoms: C_9  and  S_10 
REMARK    3  A    between atoms: S_10  and  C_11 
REMARK    4  A    between atoms: C_11  and  C_12 
REMARK       I    between atoms: C_12  and  N_13 
REMARK    5  A    between atoms: N_13  and  C_14 
REMARK    6  A    between atoms: C_14  and  C_15 
REMARK    7  A    between atoms: C_15  and  C_16 
REMARK    8  A    between atoms: C_18  and  O_19 
REMARK    9  A    between atoms: C_21  and  O_22 
REMARK   10  A    between atoms: C_30  and  N_31 
ROOT
HETATM    1  N   UNL     1      -4.243   3.521 -31.765  1.00  0.00    -0.276 N 
HETATM    2  C   UNL     1      -5.030   4.081 -30.720  1.00  0.00     0.177 A 
HETATM    3  N   UNL     1      -5.012   5.334 -30.333  1.00  0.00    -0.204 NA
HETATM    4  C   UNL     1      -4.175   6.117 -31.047  1.00  0.00     0.162 A 
HETATM    5  C   UNL     1      -3.351   5.785 -32.086  1.00  0.00     0.081 A 
HETATM    6  C   UNL     1      -3.328   4.408 -32.480  1.00  0.00     0.124 A 
HETATM    7  N   UNL     1      -4.011   7.461 -30.874  1.00  0.00    -0.260 N 
HETATM    8  H   UNL     1      -4.467   8.061 -30.196  1.00  0.00     0.191 HD
HETATM    9  N   UNL     1      -3.133   8.002 -31.746  1.00  0.00    -0.177 NA
HETATM   10  C   UNL     1      -2.732   6.971 -32.508  1.00  0.00     0.068 A 
HETATM   11  C   UNL     1      -1.774   7.212 -33.612  1.00  0.00     0.073 C 
ENDROOT
BRANCH   2  12
HETATM   12  S   UNL     1      -6.210   3.073 -29.855  1.00  0.00    -0.082 SA
BRANCH  12  13
HETATM   13  C   UNL     1      -7.747   3.916 -30.323  1.00  0.00     0.185 C 
BRANCH  13  14
HETATM   14  C   UNL     1      -8.878   2.937 -30.605  1.00  0.00     0.227 C 
HETATM   15  N   UNL     1      -8.428   1.718 -31.089  1.00  0.00    -0.360 N 
HETATM   16  H   UNL     1      -7.469   1.649 -31.403  1.00  0.00     0.162 HD
HETATM   17  O   UNL     1     -10.069   3.199 -30.473  1.00  0.00    -0.273 OA
BRANCH  15  18
HETATM   18  C   UNL     1      -9.363   0.688 -31.516  1.00  0.00     0.127 C 
BRANCH  18  19
HETATM   19  C   UNL     1      -9.311   0.484 -33.030  1.00  0.00     0.058 C 
BRANCH  19  20
HETATM   20  C   UNL     1     -10.198   1.443 -33.782  1.00  0.00    -0.054 A 
HETATM   21  C   UNL     1     -11.536   1.112 -34.045  1.00  0.00     0.046 A 
HETATM   22  C   UNL     1     -12.366   1.989 -34.757  1.00  0.00     0.102 A 
HETATM   23  C   UNL     1     -11.851   3.219 -35.210  1.00  0.00     0.101 A 
HETATM   24  C   UNL     1     -10.523   3.557 -34.929  1.00  0.00     0.040 A 
HETATM   25  C   UNL     1      -9.704   2.675 -34.220  1.00  0.00     0.010 A 
BRANCH  22  26
HETATM   26  O   UNL     1     -13.679   1.735 -35.065  1.00  0.00    -0.353 OA
HETATM   27  C   UNL     1     -14.371   0.779 -34.276  1.00  0.00     0.210 C 
ENDBRANCH  22  26
BRANCH  23  28
HETATM   28  O   UNL     1     -12.724   4.022 -35.902  1.00  0.00    -0.353 OA
HETATM   29  C   UNL     1     -12.929   5.341 -35.417  1.00  0.00     0.210 C 
ENDBRANCH  23  28
ENDBRANCH  19  20
ENDBRANCH  18  19
ENDBRANCH  15  18
ENDBRANCH  13  14
ENDBRANCH  12  13
ENDBRANCH   2  12
BRANCH   1  30
HETATM   30  C   UNL     1      -4.325   2.142 -32.122  1.00  0.00     0.043 A 
HETATM   31  C   UNL     1      -3.405   1.207 -31.630  1.00  0.00     0.032 A 
HETATM   32  C   UNL     1      -3.449  -0.121 -32.061  1.00  0.00     0.026 A 
HETATM   33  C   UNL     1      -4.399  -0.528 -33.000  1.00  0.00     0.040 A 
HETATM   34  C   UNL     1      -5.328   0.388 -33.515  1.00  0.00    -0.038 A 
HETATM   35 CL   UNL     1      -4.377  -2.176 -33.511  1.00  0.00    -0.084 Cl
HETATM   36  C   UNL     1      -6.357  -0.016 -34.534  1.00  0.00     0.050 C 
HETATM   37  C   UNL     1      -5.283   1.718 -33.063  1.00  0.00     0.038 A 
ENDBRANCH   1  30
BRANCH   6  38
HETATM   38  N   UNL     1      -2.488   3.982 -33.404  1.00  0.00    -0.384 N 
HETATM   39  H   UNL     1      -2.273   4.530 -34.223  1.00  0.00     0.157 HD
HETATM   40  H   UNL     1      -2.007   3.098 -33.285  1.00  0.00     0.157 HD
ENDBRANCH   6  38
TORSDOF 10
ENDMDL
MODEL 6
REMARK VINA RESULT:      -7.8      2.461      3.759
REMARK  10 active torsions:
REMARK  status: ('A' for Active; 'I' for Inactive)
REMARK    1  A    between atoms: C_7  and  N_8 
REMARK    2  A    between atoms: C_9  and  S_10 
REMARK    3  A    between atoms: S_10  and  C_11 
REMARK    4  A    between atoms: C_11  and  C_12 
REMARK       I    between atoms: C_12  and  N_13 
REMARK    5  A    between atoms: N_13  and  C_14 
REMARK    6  A    between atoms: C_14  and  C_15 
REMARK    7  A    between atoms: C_15  and  C_16 
REMARK    8  A    between atoms: C_18  and  O_19 
REMARK    9  A    between atoms: C_21  and  O_22 
REMARK   10  A    between atoms: C_30  and  N_31 
ROOT
HETATM    1  N   UNL     1      -7.447   1.294 -33.164  1.00  0.00    -0.276 N 
HETATM    2  C   UNL     1      -7.133   2.668 -33.361  1.00  0.00     0.177 A 
HETATM    3  N   UNL     1      -7.986   3.612 -33.680  1.00  0.00    -0.204 NA
HETATM    4  C   UNL     1      -9.263   3.184 -33.788  1.00  0.00     0.162 A 
HETATM    5  C   UNL     1      -9.772   1.926 -33.627  1.00  0.00     0.081 A 
HETATM    6  C   UNL     1      -8.838   0.882 -33.329  1.00  0.00     0.124 A 
HETATM    7  N   UNL     1     -10.339   3.977 -34.061  1.00  0.00    -0.260 N 
HETATM    8  H   UNL     1     -10.349   4.975 -34.233  1.00  0.00     0.191 HD
HETATM    9  N   UNL     1     -11.505   3.295 -34.079  1.00  0.00    -0.177 NA
HETATM   10  C   UNL     1     -11.161   2.027 -33.798  1.00  0.00     0.068 A 
HETATM   11  C   UNL     1     -12.216   0.991 -33.702  1.00  0.00     0.073 C 
ENDROOT
BRANCH   2  12
HETATM   12  S   UNL     1      -5.472   3.248 -33.112  1.00  0.00    -0.082 SA
BRANCH  12  13
HETATM   13  C   UNL     1      -5.560   4.838 -33.982  1.00  0.00     0.185 C 
BRANCH  13  14
HETATM   14  C   UNL     1      -4.226   5.228 -34.604  1.00  0.00     0.227 C 
HETATM   15  N   UNL     1      -3.287   5.624 -33.664  1.00  0.00    -0.360 N 
HETATM   16  H   UNL     1      -3.602   5.821 -32.723  1.00  0.00     0.162 HD
HETATM   17  O   UNL     1      -4.004   5.244 -35.810  1.00  0.00    -0.273 OA
BRANCH  15  18
HETATM   18  C   UNL     1      -1.986   6.133 -34.071  1.00  0.00     0.127 C 
BRANCH  18  19
HETATM   19  C   UNL     1      -1.740   7.535 -33.513  1.00  0.00     0.058 C 
BRANCH  19  20
HETATM   20  C   UNL     1      -1.221   7.522 -32.097  1.00  0.00    -0.054 A 
HETATM   21  C   UNL     1      -1.898   8.226 -31.089  1.00  0.00     0.046 A 
HETATM   22  C   UNL     1      -1.416   8.233 -29.773  1.00  0.00     0.102 A 
HETATM   23  C   UNL     1      -0.242   7.521 -29.459  1.00  0.00     0.101 A 
HETATM   24  C   UNL     1       0.419   6.803 -30.460  1.00  0.00     0.040 A 
HETATM   25  C   UNL     1      -0.068   6.804 -31.770  1.00  0.00     0.010 A 
BRANCH  22  26
HETATM   26  O   UNL     1      -2.010   8.905 -28.734  1.00  0.00    -0.353 OA
HETATM   27  C   UNL     1      -2.571  10.181 -29.006  1.00  0.00     0.210 C 
ENDBRANCH  22  26
BRANCH  23  28
HETATM   28  O   UNL     1       0.168   7.579 -28.149  1.00  0.00    -0.353 OA
HETATM   29  C   UNL     1       1.334   8.336 -27.858  1.00  0.00     0.210 C 
ENDBRANCH  23  28
ENDBRANCH  19  20
ENDBRANCH  18  19
ENDBRANCH  15  18
ENDBRANCH  13  14
ENDBRANCH  12  13
ENDBRANCH   2  12
BRANCH   1  30
HETATM   30  C   UNL     1      -6.453   0.330 -32.818  1.00  0.00     0.043 A 
HETATM   31  C   UNL     1      -5.827   0.348 -31.565  1.00  0.00     0.032 A 
HETATM   32  C   UNL     1      -4.794  -0.549 -31.279  1.00  0.00     0.026 A 
HETATM   33  C   UNL     1      -4.363  -1.460 -32.244  1.00  0.00     0.040 A 
HETATM   34  C   UNL     1      -4.966  -1.495 -33.510  1.00  0.00    -0.038 A 
HETATM   35 CL   UNL     1      -3.062  -2.518 -31.834  1.00  0.00    -0.084 Cl
HETATM   36  C   UNL     1      -4.518  -2.458 -34.575  1.00  0.00     0.050 C 
HETATM   37  C   UNL     1      -6.014  -0.599 -33.781  1.00  0.00     0.038 A 
ENDBRANCH   1  30
BRANCH   6  38
HETATM   38  N   UNL     1      -9.229  -0.377 -33.259  1.00  0.00    -0.384 N 
HETATM   39  H   UNL     1      -9.575  -0.873 -34.067  1.00  0.00     0.157 HD
HETATM   40  H   UNL     1      -9.150  -0.886 -32.387  1.00  0.00     0.157 HD
ENDBRANCH   6  38
TORSDOF 10
ENDMDL
MODEL 7
REMARK VINA RESULT:      -7.6      3.860      7.779
REMARK  10 active torsions:
REMARK  status: ('A' for Active; 'I' for Inactive)
REMARK    1  A    between atoms: C_7  and  N_8 
REMARK    2  A    between atoms: C_9  and  S_10 
REMARK    3  A    between atoms: S_10  and  C_11 
REMARK    4  A    between atoms: C_11  and  C_12 
REMARK       I    between atoms: C_12  and  N_13 
REMARK    5  A    between atoms: N_13  and  C_14 
REMARK    6  A    between atoms: C_14  and  C_15 
REMARK    7  A    between atoms: C_15  and  C_16 
REMARK    8  A    between atoms: C_18  and  O_19 
REMARK    9  A    between atoms: C_21  and  O_22 
REMARK   10  A    between atoms: C_30  and  N_31 
ROOT
HETATM    1  N   UNL     1      -6.980   4.625 -32.214  1.00  0.00    -0.276 N 
HETATM    2  C   UNL     1      -7.226   3.692 -31.169  1.00  0.00     0.177 A 
HETATM    3  N   UNL     1      -6.349   2.859 -30.662  1.00  0.00    -0.204 NA
HETATM    4  C   UNL     1      -5.115   2.965 -31.201  1.00  0.00     0.162 A 
HETATM    5  C   UNL     1      -4.670   3.796 -32.191  1.00  0.00     0.081 A 
HETATM    6  C   UNL     1      -5.635   4.672 -32.784  1.00  0.00     0.124 A 
HETATM    7  N   UNL     1      -4.021   2.247 -30.814  1.00  0.00    -0.260 N 
HETATM    8  H   UNL     1      -3.966   1.535 -30.095  1.00  0.00     0.191 HD
HETATM    9  N   UNL     1      -2.904   2.577 -31.500  1.00  0.00    -0.177 NA
HETATM   10  C   UNL     1      -3.299   3.545 -32.344  1.00  0.00     0.068 A 
HETATM   11  C   UNL     1      -2.303   4.175 -33.244  1.00  0.00     0.073 C 
ENDROOT
BRANCH   2  12
HETATM   12  S   UNL     1      -8.820   3.629 -30.387  1.00  0.00    -0.082 SA
BRANCH  12  13
HETATM   13  C   UNL     1      -9.781   2.816 -31.695  1.00  0.00     0.185 C 
BRANCH  13  14
HETATM   14  C   UNL     1      -9.079   1.581 -32.242  1.00  0.00     0.227 C 
HETATM   15  N   UNL     1      -9.028   1.558 -33.627  1.00  0.00    -0.360 N 
HETATM   16  H   UNL     1      -9.610   2.207 -34.141  1.00  0.00     0.162 HD
HETATM   17  O   UNL     1      -8.643   0.669 -31.548  1.00  0.00    -0.273 OA
BRANCH  15  18
HETATM   18  C   UNL     1      -8.490   0.410 -34.340  1.00  0.00     0.127 C 
BRANCH  18  19
HETATM   19  C   UNL     1      -7.053   0.665 -34.797  1.00  0.00     0.058 C 
BRANCH  19  20
HETATM   20  C   UNL     1      -6.092  -0.402 -34.339  1.00  0.00    -0.054 A 
HETATM   21  C   UNL     1      -6.169  -1.699 -34.869  1.00  0.00     0.046 A 
HETATM   22  C   UNL     1      -5.291  -2.703 -34.439  1.00  0.00     0.102 A 
HETATM   23  C   UNL     1      -4.317  -2.405 -33.466  1.00  0.00     0.101 A 
HETATM   24  C   UNL     1      -4.229  -1.106 -32.954  1.00  0.00     0.040 A 
HETATM   25  C   UNL     1      -5.110  -0.113 -33.388  1.00  0.00     0.010 A 
BRANCH  22  26
HETATM   26  O   UNL     1      -5.308  -3.997 -34.898  1.00  0.00    -0.353 OA
HETATM   27  C   UNL     1      -6.558  -4.542 -35.294  1.00  0.00     0.210 C 
ENDBRANCH  22  26
BRANCH  23  28
HETATM   28  O   UNL     1      -3.496  -3.441 -33.095  1.00  0.00    -0.353 OA
HETATM   29  C   UNL     1      -2.995  -3.438 -31.766  1.00  0.00     0.210 C 
ENDBRANCH  23  28
ENDBRANCH  19  20
ENDBRANCH  18  19
ENDBRANCH  15  18
ENDBRANCH  13  14
ENDBRANCH  12  13
ENDBRANCH   2  12
BRANCH   1  30
HETATM   30  C   UNL     1      -7.995   5.498 -32.708  1.00  0.00     0.043 A 
HETATM   31  C   UNL     1      -8.351   6.665 -32.019  1.00  0.00     0.032 A 
HETATM   32  C   UNL     1      -9.407   7.458 -32.472  1.00  0.00     0.026 A 
HETATM   33  C   UNL     1     -10.133   7.088 -33.606  1.00  0.00     0.040 A 
HETATM   34  C   UNL     1      -9.804   5.920 -34.311  1.00  0.00    -0.038 A 
HETATM   35 CL   UNL     1     -11.446   8.097 -34.093  1.00  0.00    -0.084 Cl
HETATM   36  C   UNL     1     -10.572   5.489 -35.531  1.00  0.00     0.050 C 
HETATM   37  C   UNL     1      -8.730   5.139 -33.854  1.00  0.00     0.038 A 
ENDBRANCH   1  30
BRANCH   6  38
HETATM   38  N   UNL     1      -5.317   5.433 -33.814  1.00  0.00    -0.384 N 
HETATM   39  H   UNL     1      -4.449   5.947 -33.849  1.00  0.00     0.157 HD
HETATM   40  H   UNL     1      -5.931   5.484 -34.618  1.00  0.00     0.157 HD
ENDBRANCH   6  38
TORSDOF 10
ENDMDL
MODEL 8
REMARK VINA RESULT:      -7.6      4.685      9.659
REMARK  10 active torsions:
REMARK  status: ('A' for Active; 'I' for Inactive)
REMARK    1  A    between atoms: C_7  and  N_8 
REMARK    2  A    between atoms: C_9  and  S_10 
REMARK    3  A    between atoms: S_10  and  C_11 
REMARK    4  A    between atoms: C_11  and  C_12 
REMARK       I    between atoms: C_12  and  N_13 
REMARK    5  A    between atoms: N_13  and  C_14 
REMARK    6  A    between atoms: C_14  and  C_15 
REMARK    7  A    between atoms: C_15  and  C_16 
REMARK    8  A    between atoms: C_18  and  O_19 
REMARK    9  A    between atoms: C_21  and  O_22 
REMARK   10  A    between atoms: C_30  and  N_31 
ROOT
HETATM    1  N   UNL     1      -1.711   7.064 -29.486  1.00  0.00    -0.276 N 
HETATM    2  C   UNL     1      -2.936   7.334 -28.813  1.00  0.00     0.177 A 
HETATM    3  N   UNL     1      -3.054   7.800 -27.593  1.00  0.00    -0.204 NA
HETATM    4  C   UNL     1      -1.875   8.052 -26.985  1.00  0.00     0.162 A 
HETATM    5  C   UNL     1      -0.603   7.878 -27.453  1.00  0.00     0.081 A 
HETATM    6  C   UNL     1      -0.466   7.322 -28.766  1.00  0.00     0.124 A 
HETATM    7  N   UNL     1      -1.730   8.584 -25.737  1.00  0.00    -0.260 N 
HETATM    8  H   UNL     1      -2.458   8.852 -25.085  1.00  0.00     0.191 HD
HETATM    9  N   UNL     1      -0.437   8.761 -25.386  1.00  0.00    -0.177 NA
HETATM   10  C   UNL     1       0.264   8.338 -26.451  1.00  0.00     0.068 A 
HETATM   11  C   UNL     1       1.744   8.421 -26.427  1.00  0.00     0.073 C 
ENDROOT
BRANCH   2  12
HETATM   12  S   UNL     1      -4.484   7.106 -29.655  1.00  0.00    -0.082 SA
BRANCH  12  13
HETATM   13  C   UNL     1      -5.303   5.968 -28.502  1.00  0.00     0.185 C 
BRANCH  13  14
HETATM   14  C   UNL     1      -6.068   4.868 -29.224  1.00  0.00     0.227 C 
HETATM   15  N   UNL     1      -5.237   3.894 -29.757  1.00  0.00    -0.360 N 
HETATM   16  H   UNL     1      -4.245   4.086 -29.813  1.00  0.00     0.162 HD
HETATM   17  O   UNL     1      -7.285   4.854 -29.372  1.00  0.00    -0.273 OA
BRANCH  15  18
HETATM   18  C   UNL     1      -5.772   2.815 -30.574  1.00  0.00     0.127 C 
BRANCH  18  19
HETATM   19  C   UNL     1      -5.440   1.449 -29.973  1.00  0.00     0.058 C 
BRANCH  19  20
HETATM   20  C   UNL     1      -5.056   0.427 -31.012  1.00  0.00    -0.054 A 
HETATM   21  C   UNL     1      -6.005  -0.031 -31.938  1.00  0.00     0.046 A 
HETATM   22  C   UNL     1      -5.663  -0.992 -32.899  1.00  0.00     0.102 A 
HETATM   23  C   UNL     1      -4.350  -1.500 -32.938  1.00  0.00     0.101 A 
HETATM   24  C   UNL     1      -3.400  -1.027 -32.028  1.00  0.00     0.040 A 
HETATM   25  C   UNL     1      -3.751  -0.070 -31.073  1.00  0.00     0.010 A 
BRANCH  22  26
HETATM   26  O   UNL     1      -6.534  -1.501 -33.831  1.00  0.00    -0.353 OA
HETATM   27  C   UNL     1      -6.979  -0.635 -34.864  1.00  0.00     0.210 C 
ENDBRANCH  22  26
BRANCH  23  28
HETATM   28  O   UNL     1      -4.093  -2.441 -33.906  1.00  0.00    -0.353 OA
HETATM   29  C   UNL     1      -3.786  -3.759 -33.476  1.00  0.00     0.210 C 
ENDBRANCH  23  28
ENDBRANCH  19  20
ENDBRANCH  18  19
ENDBRANCH  15  18
ENDBRANCH  13  14
ENDBRANCH  12  13
ENDBRANCH   2  12
BRANCH   1  30
HETATM   30  C   UNL     1      -1.673   6.555 -30.819  1.00  0.00     0.043 A 
HETATM   31  C   UNL     1      -1.247   7.352 -31.890  1.00  0.00     0.032 A 
HETATM   32  C   UNL     1      -1.301   6.864 -33.197  1.00  0.00     0.026 A 
HETATM   33  C   UNL     1      -1.796   5.584 -33.454  1.00  0.00     0.040 A 
HETATM   34  C   UNL     1      -2.236   4.768 -32.402  1.00  0.00    -0.038 A 
HETATM   35 CL   UNL     1      -1.864   5.057 -35.096  1.00  0.00    -0.084 Cl
HETATM   36  C   UNL     1      -2.784   3.388 -32.646  1.00  0.00     0.050 C 
HETATM   37  C   UNL     1      -2.163   5.264 -31.089  1.00  0.00     0.038 A 
ENDBRANCH   1  30
BRANCH   6  38
HETATM   38  N   UNL     1       0.723   7.025 -29.255  1.00  0.00    -0.384 N 
HETATM   39  H   UNL     1       1.556   7.052 -28.686  1.00  0.00     0.157 HD
HETATM   40  H   UNL     1       0.815   6.722 -30.217  1.00  0.00     0.157 HD
ENDBRANCH   6  38
TORSDOF 10
ENDMDL
MODEL 9
REMARK VINA RESULT:      -7.6      3.406      5.756
REMARK  10 active torsions:
REMARK  status: ('A' for Active; 'I' for Inactive)
REMARK    1  A    between atoms: C_7  and  N_8 
REMARK    2  A    between atoms: C_9  and  S_10 
REMARK    3  A    between atoms: S_10  and  C_11 
REMARK    4  A    between atoms: C_11  and  C_12 
REMARK       I    between atoms: C_12  and  N_13 
REMARK    5  A    between atoms: N_13  and  C_14 
REMARK    6  A    between atoms: C_14  and  C_15 
REMARK    7  A    between atoms: C_15  and  C_16 
REMARK    8  A    between atoms: C_18  and  O_19 
REMARK    9  A    between atoms: C_21  and  O_22 
REMARK   10  A    between atoms: C_30  and  N_31 
ROOT
HETATM    1  N   UNL     1      -6.928   1.348 -32.664  1.00  0.00    -0.276 N 
HETATM    2  C   UNL     1      -5.577   1.687 -32.373  1.00  0.00     0.177 A 
HETATM    3  N   UNL     1      -4.532   0.922 -32.580  1.00  0.00    -0.204 NA
HETATM    4  C   UNL     1      -4.826  -0.267 -33.148  1.00  0.00     0.162 A 
HETATM    5  C   UNL     1      -6.040  -0.776 -33.515  1.00  0.00     0.081 A 
HETATM    6  C   UNL     1      -7.191   0.034 -33.245  1.00  0.00     0.124 A 
HETATM    7  N   UNL     1      -3.914  -1.216 -33.506  1.00  0.00    -0.260 N 
HETATM    8  H   UNL     1      -2.907  -1.186 -33.395  1.00  0.00     0.191 HD
HETATM    9  N   UNL     1      -4.479  -2.299 -34.084  1.00  0.00    -0.177 NA
HETATM   10  C   UNL     1      -5.794  -2.025 -34.104  1.00  0.00     0.068 A 
HETATM   11  C   UNL     1      -6.731  -3.000 -34.710  1.00  0.00     0.073 C 
ENDROOT
BRANCH   2  12
HETATM   12  S   UNL     1      -5.181   3.295 -31.728  1.00  0.00    -0.082 SA
BRANCH  12  13
HETATM   13  C   UNL     1      -4.506   4.076 -33.220  1.00  0.00     0.185 C 
BRANCH  13  14
HETATM   14  C   UNL     1      -3.030   4.419 -33.073  1.00  0.00     0.227 C 
HETATM   15  N   UNL     1      -2.622   5.428 -33.932  1.00  0.00    -0.360 N 
HETATM   16  H   UNL     1      -3.238   5.693 -34.690  1.00  0.00     0.162 HD
HETATM   17  O   UNL     1      -2.257   3.840 -32.317  1.00  0.00    -0.273 OA
BRANCH  15  18
HETATM   18  C   UNL     1      -1.225   5.826 -34.015  1.00  0.00     0.127 C 
BRANCH  18  19
HETATM   19  C   UNL     1      -0.995   7.186 -33.356  1.00  0.00     0.058 C 
BRANCH  19  20
HETATM   20  C   UNL     1      -0.785   7.088 -31.866  1.00  0.00    -0.054 A 
HETATM   21  C   UNL     1      -1.581   7.840 -30.988  1.00  0.00     0.046 A 
HETATM   22  C   UNL     1      -1.385   7.769 -29.603  1.00  0.00     0.102 A 
HETATM   23  C   UNL     1      -0.379   6.930 -29.085  1.00  0.00     0.101 A 
HETATM   24  C   UNL     1       0.399   6.165 -29.960  1.00  0.00     0.040 A 
HETATM   25  C   UNL     1       0.196   6.245 -31.340  1.00  0.00     0.010 A 
BRANCH  22  26
HETATM   26  O   UNL     1      -2.111   8.480 -28.679  1.00  0.00    -0.353 OA
HETATM   27  C   UNL     1      -1.885   9.879 -28.595  1.00  0.00     0.210 C 
ENDBRANCH  22  26
BRANCH  23  28
HETATM   28  O   UNL     1      -0.246   6.917 -27.718  1.00  0.00    -0.353 OA
HETATM   29  C   UNL     1       1.038   7.196 -27.180  1.00  0.00     0.210 C 
ENDBRANCH  23  28
ENDBRANCH  19  20
ENDBRANCH  18  19
ENDBRANCH  15  18
ENDBRANCH  13  14
ENDBRANCH  12  13
ENDBRANCH   2  12
BRANCH   1  30
HETATM   30  C   UNL     1      -8.008   2.243 -32.406  1.00  0.00     0.043 A 
HETATM   31  C   UNL     1      -8.650   2.270 -31.161  1.00  0.00     0.032 A 
HETATM   32  C   UNL     1      -9.762   3.090 -30.956  1.00  0.00     0.026 A 
HETATM   33  C   UNL     1     -10.257   3.880 -31.995  1.00  0.00     0.040 A 
HETATM   34  C   UNL     1      -9.640   3.868 -33.255  1.00  0.00    -0.038 A 
HETATM   35 CL   UNL     1     -11.653   4.846 -31.683  1.00  0.00    -0.084 Cl
HETATM   36  C   UNL     1     -10.155   4.699 -34.398  1.00  0.00     0.050 C 
HETATM   37  C   UNL     1      -8.513   3.050 -33.443  1.00  0.00     0.038 A 
ENDBRANCH   1  30
BRANCH   6  38
HETATM   38  N   UNL     1      -8.408  -0.423 -33.472  1.00  0.00    -0.384 N 
HETATM   39  H   UNL     1      -8.988  -0.049 -34.208  1.00  0.00     0.157 HD
HETATM   40  H   UNL     1      -8.771  -1.195 -32.926  1.00  0.00     0.157 HD
ENDBRANCH   6  38
TORSDOF 10
ENDMDL
MODEL 10
REMARK VINA RESULT:      -7.6      3.311      7.147
REMARK  10 active torsions:
REMARK  status: ('A' for Active; 'I' for Inactive)
REMARK    1  A    between atoms: C_7  and  N_8 
REMARK    2  A    between atoms: C_9  and  S_10 
REMARK    3  A    between atoms: S_10  and  C_11 
REMARK    4  A    between atoms: C_11  and  C_12 
REMARK       I    between atoms: C_12  and  N_13 
REMARK    5  A    between atoms: N_13  and  C_14 
REMARK    6  A    between atoms: C_14  and  C_15 
REMARK    7  A    between atoms: C_15  and  C_16 
REMARK    8  A    between atoms: C_18  and  O_19 
REMARK    9  A    between atoms: C_21  and  O_22 
REMARK   10  A    between atoms: C_30  and  N_31 
ROOT
HETATM    1  N   UNL     1      -5.637  -0.718 -33.251  1.00  0.00    -0.276 N 
HETATM    2  C   UNL     1      -6.708  -0.817 -34.184  1.00  0.00     0.177 A 
HETATM    3  N   UNL     1      -6.966  -1.851 -34.949  1.00  0.00    -0.204 NA
HETATM    4  C   UNL     1      -6.124  -2.891 -34.769  1.00  0.00     0.162 A 
HETATM    5  C   UNL     1      -5.054  -3.005 -33.926  1.00  0.00     0.081 A 
HETATM    6  C   UNL     1      -4.736  -1.860 -33.124  1.00  0.00     0.124 A 
HETATM    7  N   UNL     1      -6.209  -4.094 -35.406  1.00  0.00    -0.260 N 
HETATM    8  H   UNL     1      -6.887  -4.383 -36.102  1.00  0.00     0.191 HD
HETATM    9  N   UNL     1      -5.256  -4.968 -35.014  1.00  0.00    -0.177 NA
HETATM   10  C   UNL     1      -4.547  -4.302 -34.087  1.00  0.00     0.068 A 
HETATM   11  C   UNL     1      -3.420  -4.983 -33.406  1.00  0.00     0.073 C 
ENDROOT
BRANCH   2  12
HETATM   12  S   UNL     1      -7.879   0.510 -34.340  1.00  0.00    -0.082 SA
BRANCH  12  13
HETATM   13  C   UNL     1      -9.105  -0.004 -33.104  1.00  0.00     0.185 C 
BRANCH  13  14
HETATM   14  C   UNL     1     -10.172   1.057 -32.875  1.00  0.00     0.227 C 
HETATM   15  N   UNL     1     -11.355   0.786 -33.545  1.00  0.00    -0.360 N 
HETATM   16  H   UNL     1     -11.350   0.069 -34.260  1.00  0.00     0.162 HD
HETATM   17  O   UNL     1     -10.004   2.075 -32.213  1.00  0.00    -0.273 OA
BRANCH  15  18
HETATM   18  C   UNL     1     -12.459   1.734 -33.535  1.00  0.00     0.127 C 
BRANCH  18  19
HETATM   19  C   UNL     1     -12.696   2.323 -34.925  1.00  0.00     0.058 C 
BRANCH  19  20
HETATM   20  C   UNL     1     -12.142   3.717 -35.076  1.00  0.00    -0.054 A 
HETATM   21  C   UNL     1     -10.764   3.948 -34.947  1.00  0.00     0.046 A 
HETATM   22  C   UNL     1     -10.239   5.242 -35.070  1.00  0.00     0.102 A 
HETATM   23  C   UNL     1     -11.106   6.322 -35.329  1.00  0.00     0.101 A 
HETATM   24  C   UNL     1     -12.477   6.086 -35.478  1.00  0.00     0.040 A 
HETATM   25  C   UNL     1     -12.989   4.793 -35.352  1.00  0.00     0.010 A 
BRANCH  22  26
HETATM   26  O   UNL     1      -8.908   5.554 -34.946  1.00  0.00    -0.353 OA
HETATM   27  C   UNL     1      -8.238   5.137 -33.766  1.00  0.00     0.210 C 
ENDBRANCH  22  26
BRANCH  23  28
HETATM   28  O   UNL     1     -10.517   7.559 -35.433  1.00  0.00    -0.353 OA
HETATM   29  C   UNL     1     -10.851   8.352 -36.562  1.00  0.00     0.210 C 
ENDBRANCH  23  28
ENDBRANCH  19  20
ENDBRANCH  18  19
ENDBRANCH  15  18
ENDBRANCH  13  14
ENDBRANCH  12  13
ENDBRANCH   2  12
BRANCH   1  30
HETATM   30  C   UNL     1      -5.428   0.449 -32.456  1.00  0.00     0.043 A 
HETATM   31  C   UNL     1      -6.034   0.592 -31.201  1.00  0.00     0.032 A 
HETATM   32  C   UNL     1      -5.888   1.778 -30.478  1.00  0.00     0.026 A 
HETATM   33  C   UNL     1      -5.151   2.841 -31.005  1.00  0.00     0.040 A 
HETATM   34  C   UNL     1      -4.540   2.728 -32.263  1.00  0.00    -0.038 A 
HETATM   35 CL   UNL     1      -5.037   4.288 -30.072  1.00  0.00    -0.084 Cl
HETATM   36  C   UNL     1      -3.749   3.857 -32.863  1.00  0.00     0.050 C 
HETATM   37  C   UNL     1      -4.682   1.524 -32.974  1.00  0.00     0.038 A 
ENDBRANCH   1  30
BRANCH   6  38
HETATM   38  N   UNL     1      -3.660  -1.847 -32.359  1.00  0.00    -0.384 N 
HETATM   39  H   UNL     1      -2.732  -1.762 -32.746  1.00  0.00     0.157 HD
HETATM   40  H   UNL     1      -3.753  -1.883 -31.352  1.00  0.00     0.157 HD
ENDBRANCH   6  38
TORSDOF 10
ENDMDL
