MODEL 1
REMARK VINA RESULT:      -8.1      0.000      0.000
REMARK  6 active torsions:
REMARK  status: ('A' for Active; 'I' for Inactive)
REMARK    1  A    between atoms: C_8  and  N_9 
REMARK       I    between atoms: N_9  and  C_10 
REMARK    2  A    between atoms: C_10  and  C_11 
REMARK    3  A    between atoms: C_11  and  N_12 
REMARK    4  A    between atoms: N_12  and  C_15 
REMARK    5  A    between atoms: C_15  and  C_16 
REMARK    6  A    between atoms: C_16  and  C_17 
ROOT
HETATM    1  N   UNL     1      -8.597   0.653 -32.512  1.00  0.00    -0.062 N 
HETATM    2  H   UNL     1      -8.106   0.470 -31.623  1.00  0.00     0.278 HD
HETATM    3  H   UNL     1      -9.561   0.328 -32.319  1.00  0.00     0.278 HD
ENDROOT
BRANCH   1   4
HETATM    4  C   UNL     1      -8.739   2.151 -32.722  1.00  0.00     0.335 C 
BRANCH   4   5
HETATM    5  C   UNL     1      -9.966   2.636 -31.967  1.00  0.00     0.248 C 
HETATM    6  N   UNL     1     -11.179   2.784 -32.550  1.00  0.00    -0.322 N 
HETATM    7  H   UNL     1     -11.837   3.288 -31.961  1.00  0.00     0.169 HD
HETATM    8  O   UNL     1      -9.803   2.973 -30.785  1.00  0.00    -0.271 OA
BRANCH   6   9
HETATM    9  C   UNL     1     -11.649   2.463 -33.810  1.00  0.00     0.085 A 
HETATM   10  C   UNL     1     -11.410   3.305 -34.883  1.00  0.00     0.052 A 
HETATM   11  C   UNL     1     -10.701   4.604 -35.008  1.00  0.00     0.072 C 
HETATM   12  N   UNL     1     -11.956   2.696 -35.977  1.00  0.00    -0.280 N 
HETATM   13  H   UNL     1     -11.960   3.014 -36.943  1.00  0.00     0.189 HD
HETATM   14  N   UNL     1     -12.561   1.541 -35.690  1.00  0.00    -0.177 NA
HETATM   15  C   UNL     1     -12.447   1.417 -34.364  1.00  0.00     0.079 A 
HETATM   16  C   UNL     1     -13.214   0.315 -33.735  1.00  0.00     0.075 C 
ENDBRANCH   6   9
ENDBRANCH   4   5
ENDBRANCH   1   4
BRANCH   1  17
HETATM   17  C   UNL     1      -7.976  -0.154 -33.627  1.00  0.00     0.194 C 
HETATM   18  C   UNL     1      -8.184   0.623 -34.931  1.00  0.00     0.041 C 
BRANCH  17  19
HETATM   19  C   UNL     1      -6.480  -0.524 -33.274  1.00  0.00     0.007 C 
HETATM   20  C   UNL     1      -5.547   0.607 -33.799  1.00  0.00     0.022 C 
HETATM   21  C   UNL     1      -6.270  -0.499 -31.735  1.00  0.00     0.022 C 
BRANCH  19  22
HETATM   22  C   UNL     1      -6.100  -1.900 -33.866  1.00  0.00    -0.048 A 
HETATM   23  C   UNL     1      -7.072  -2.793 -34.359  1.00  0.00     0.008 A 
HETATM   24  C   UNL     1      -6.720  -4.053 -34.854  1.00  0.00     0.001 A 
HETATM   25  C   UNL     1      -5.390  -4.452 -34.873  1.00  0.00     0.000 A 
HETATM   26  C   UNL     1      -4.409  -3.589 -34.401  1.00  0.00     0.001 A 
HETATM   27  C   UNL     1      -4.760  -2.331 -33.903  1.00  0.00     0.008 A 
ENDBRANCH  19  22
ENDBRANCH  17  19
ENDBRANCH   1  17
TORSDOF 6
ENDMDL
MODEL 2
REMARK VINA RESULT:      -8.0      4.215      6.496
REMARK  6 active torsions:
REMARK  status: ('A' for Active; 'I' for Inactive)
REMARK    1  A    between atoms: C_8  and  N_9 
REMARK       I    between atoms: N_9  and  C_10 
REMARK    2  A    between atoms: C_10  and  C_11 
REMARK    3  A    between atoms: C_11  and  N_12 
REMARK    4  A    between atoms: N_12  and  C_15 
REMARK    5  A    between atoms: C_15  and  C_16 
REMARK    6  A    between atoms: C_16  and  C_17 
ROOT
HETATM    1  N   UNL     1      -5.459   1.546 -32.803  1.00  0.00    -0.062 N 
HETATM    2  H   UNL     1      -6.109   2.301 -32.534  1.00  0.00     0.278 HD
HETATM    3  H   UNL     1      -5.375   1.664 -33.828  1.00  0.00     0.278 HD
ENDROOT
BRANCH   1   4
HETATM    4  C   UNL     1      -4.069   1.852 -32.273  1.00  0.00     0.335 C 
BRANCH   4   5
HETATM    5  C   UNL     1      -4.150   3.060 -31.356  1.00  0.00     0.248 C 
HETATM    6  N   UNL     1      -3.549   4.241 -31.637  1.00  0.00    -0.322 N 
HETATM    7  H   UNL     1      -3.545   4.877 -30.843  1.00  0.00     0.169 HD
HETATM    8  O   UNL     1      -4.739   2.909 -30.275  1.00  0.00    -0.271 OA
BRANCH   6   9
HETATM    9  C   UNL     1      -2.871   4.695 -32.754  1.00  0.00     0.085 A 
HETATM   10  C   UNL     1      -1.552   5.104 -32.656  1.00  0.00     0.052 A 
HETATM   11  C   UNL     1      -0.602   5.182 -31.518  1.00  0.00     0.072 C 
HETATM   12  N   UNL     1      -1.163   5.448 -33.920  1.00  0.00    -0.280 N 
HETATM   13  H   UNL     1      -0.254   5.779 -34.234  1.00  0.00     0.189 HD
HETATM   14  N   UNL     1      -2.138   5.326 -34.822  1.00  0.00    -0.177 NA
HETATM   15  C   UNL     1      -3.207   4.937 -34.120  1.00  0.00     0.079 A 
HETATM   16  C   UNL     1      -4.503   4.921 -34.842  1.00  0.00     0.075 C 
ENDBRANCH   6   9
ENDBRANCH   4   5
ENDBRANCH   1   4
BRANCH   1  17
HETATM   17  C   UNL     1      -6.055   0.200 -32.468  1.00  0.00     0.194 C 
HETATM   18  C   UNL     1      -6.886   0.367 -31.192  1.00  0.00     0.041 C 
BRANCH  17  19
HETATM   19  C   UNL     1      -6.819  -0.393 -33.719  1.00  0.00     0.007 C 
HETATM   20  C   UNL     1      -8.345  -0.418 -33.407  1.00  0.00     0.022 C 
HETATM   21  C   UNL     1      -6.700   0.573 -34.929  1.00  0.00     0.022 C 
BRANCH  19  22
HETATM   22  C   UNL     1      -6.285  -1.799 -34.072  1.00  0.00    -0.048 A 
HETATM   23  C   UNL     1      -4.911  -2.110 -34.021  1.00  0.00     0.008 A 
HETATM   24  C   UNL     1      -4.435  -3.373 -34.385  1.00  0.00     0.001 A 
HETATM   25  C   UNL     1      -5.318  -4.361 -34.805  1.00  0.00     0.000 A 
HETATM   26  C   UNL     1      -6.678  -4.086 -34.858  1.00  0.00     0.001 A 
HETATM   27  C   UNL     1      -7.154  -2.822 -34.498  1.00  0.00     0.008 A 
ENDBRANCH  19  22
ENDBRANCH  17  19
ENDBRANCH   1  17
TORSDOF 6
ENDMDL
MODEL 3
REMARK VINA RESULT:      -8.0      4.015      6.115
REMARK  6 active torsions:
REMARK  status: ('A' for Active; 'I' for Inactive)
REMARK    1  A    between atoms: C_8  and  N_9 
REMARK       I    between atoms: N_9  and  C_10 
REMARK    2  A    between atoms: C_10  and  C_11 
REMARK    3  A    between atoms: C_11  and  N_12 
REMARK    4  A    between atoms: N_12  and  C_15 
REMARK    5  A    between atoms: C_15  and  C_16 
REMARK    6  A    between atoms: C_16  and  C_17 
ROOT
HETATM    1  N   UNL     1      -5.349   1.483 -32.775  1.00  0.00    -0.062 N 
HETATM    2  H   UNL     1      -6.128   2.128 -32.567  1.00  0.00     0.278 HD
HETATM    3  H   UNL     1      -5.184   1.632 -33.785  1.00  0.00     0.278 HD
ENDROOT
BRANCH   1   4
HETATM    4  C   UNL     1      -4.078   1.982 -32.108  1.00  0.00     0.335 C 
BRANCH   4   5
HETATM    5  C   UNL     1      -4.402   3.236 -31.314  1.00  0.00     0.248 C 
HETATM    6  N   UNL     1      -4.034   4.477 -31.713  1.00  0.00    -0.322 N 
HETATM    7  H   UNL     1      -4.162   5.176 -30.987  1.00  0.00     0.169 HD
HETATM    8  O   UNL     1      -4.966   3.081 -30.221  1.00  0.00    -0.271 OA
BRANCH   6   9
HETATM    9  C   UNL     1      -3.440   4.940 -32.873  1.00  0.00     0.085 A 
HETATM   10  C   UNL     1      -4.167   5.027 -34.048  1.00  0.00     0.052 A 
HETATM   11  C   UNL     1      -5.575   4.701 -34.389  1.00  0.00     0.072 C 
HETATM   12  N   UNL     1      -3.323   5.552 -34.984  1.00  0.00    -0.280 N 
HETATM   13  H   UNL     1      -3.516   5.773 -35.958  1.00  0.00     0.189 HD
HETATM   14  N   UNL     1      -2.094   5.781 -34.516  1.00  0.00    -0.177 NA
HETATM   15  C   UNL     1      -2.125   5.348 -33.251  1.00  0.00     0.079 A 
HETATM   16  C   UNL     1      -0.824   5.289 -32.541  1.00  0.00     0.075 C 
ENDBRANCH   6   9
ENDBRANCH   4   5
ENDBRANCH   1   4
BRANCH   1  17
HETATM   17  C   UNL     1      -5.767   0.057 -32.506  1.00  0.00     0.194 C 
HETATM   18  C   UNL     1      -6.409   0.018 -31.116  1.00  0.00     0.041 C 
BRANCH  17  19
HETATM   19  C   UNL     1      -6.653  -0.493 -33.694  1.00  0.00     0.007 C 
HETATM   20  C   UNL     1      -8.147  -0.473 -33.253  1.00  0.00     0.022 C 
HETATM   21  C   UNL     1      -6.605   0.488 -34.898  1.00  0.00     0.022 C 
BRANCH  19  22
HETATM   22  C   UNL     1      -6.198  -1.909 -34.109  1.00  0.00    -0.048 A 
HETATM   23  C   UNL     1      -7.112  -2.892 -34.535  1.00  0.00     0.008 A 
HETATM   24  C   UNL     1      -6.693  -4.185 -34.867  1.00  0.00     0.001 A 
HETATM   25  C   UNL     1      -5.349  -4.527 -34.785  1.00  0.00     0.000 A 
HETATM   26  C   UNL     1      -4.423  -3.577 -34.376  1.00  0.00     0.001 A 
HETATM   27  C   UNL     1      -4.842  -2.286 -34.041  1.00  0.00     0.008 A 
ENDBRANCH  19  22
ENDBRANCH  17  19
ENDBRANCH   1  17
TORSDOF 6
ENDMDL
MODEL 4
REMARK VINA RESULT:      -7.9      4.966      6.914
REMARK  6 active torsions:
REMARK  status: ('A' for Active; 'I' for Inactive)
REMARK    1  A    between atoms: C_8  and  N_9 
REMARK       I    between atoms: N_9  and  C_10 
REMARK    2  A    between atoms: C_10  and  C_11 
REMARK    3  A    between atoms: C_11  and  N_12 
REMARK    4  A    between atoms: N_12  and  C_15 
REMARK    5  A    between atoms: C_15  and  C_16 
REMARK    6  A    between atoms: C_16  and  C_17 
ROOT
HETATM    1  N   UNL     1      -3.444   2.332 -32.719  1.00  0.00    -0.062 N 
HETATM    2  H   UNL     1      -4.258   2.754 -33.194  1.00  0.00     0.278 HD
HETATM    3  H   UNL     1      -2.693   2.413 -33.426  1.00  0.00     0.278 HD
ENDROOT
BRANCH   1   4
HETATM    4  C   UNL     1      -2.990   3.232 -31.583  1.00  0.00     0.335 C 
BRANCH   4   5
HETATM    5  C   UNL     1      -4.071   4.265 -31.315  1.00  0.00     0.248 C 
HETATM    6  N   UNL     1      -4.012   5.534 -31.786  1.00  0.00    -0.322 N 
HETATM    7  H   UNL     1      -4.712   6.140 -31.366  1.00  0.00     0.169 HD
HETATM    8  O   UNL     1      -5.002   3.926 -30.569  1.00  0.00    -0.271 OA
BRANCH   6   9
HETATM    9  C   UNL     1      -3.132   6.164 -32.646  1.00  0.00     0.085 A 
HETATM   10  C   UNL     1      -3.218   5.960 -34.013  1.00  0.00     0.052 A 
HETATM   11  C   UNL     1      -4.124   5.136 -34.854  1.00  0.00     0.072 C 
HETATM   12  N   UNL     1      -2.254   6.743 -34.580  1.00  0.00    -0.280 N 
HETATM   13  H   UNL     1      -2.034   6.862 -35.565  1.00  0.00     0.189 HD
HETATM   14  N   UNL     1      -1.525   7.412 -33.684  1.00  0.00    -0.177 NA
HETATM   15  C   UNL     1      -1.998   7.019 -32.497  1.00  0.00     0.079 A 
HETATM   16  C   UNL     1      -1.230   7.451 -31.304  1.00  0.00     0.075 C 
ENDBRANCH   6   9
ENDBRANCH   4   5
ENDBRANCH   1   4
BRANCH   1  17
HETATM   17  C   UNL     1      -3.720   0.883 -32.396  1.00  0.00     0.194 C 
HETATM   18  C   UNL     1      -3.166   0.608 -30.995  1.00  0.00     0.041 C 
BRANCH  17  19
HETATM   19  C   UNL     1      -5.250   0.551 -32.613  1.00  0.00     0.007 C 
HETATM   20  C   UNL     1      -5.944   0.461 -31.222  1.00  0.00     0.022 C 
HETATM   21  C   UNL     1      -5.964   1.739 -33.313  1.00  0.00     0.022 C 
BRANCH  19  22
HETATM   22  C   UNL     1      -5.419  -0.755 -33.421  1.00  0.00    -0.048 A 
HETATM   23  C   UNL     1      -6.678  -1.196 -33.875  1.00  0.00     0.008 A 
HETATM   24  C   UNL     1      -6.823  -2.402 -34.568  1.00  0.00     0.001 A 
HETATM   25  C   UNL     1      -5.715  -3.197 -34.830  1.00  0.00     0.000 A 
HETATM   26  C   UNL     1      -4.459  -2.785 -34.402  1.00  0.00     0.001 A 
HETATM   27  C   UNL     1      -4.314  -1.581 -33.706  1.00  0.00     0.008 A 
ENDBRANCH  19  22
ENDBRANCH  17  19
ENDBRANCH   1  17
TORSDOF 6
ENDMDL
MODEL 5
REMARK VINA RESULT:      -7.9      3.916      6.147
REMARK  6 active torsions:
REMARK  status: ('A' for Active; 'I' for Inactive)
REMARK    1  A    between atoms: C_8  and  N_9 
REMARK       I    between atoms: N_9  and  C_10 
REMARK    2  A    between atoms: C_10  and  C_11 
REMARK    3  A    between atoms: C_11  and  N_12 
REMARK    4  A    between atoms: N_12  and  C_15 
REMARK    5  A    between atoms: C_15  and  C_16 
REMARK    6  A    between atoms: C_16  and  C_17 
ROOT
HETATM    1  N   UNL     1      -5.992   2.027 -33.832  1.00  0.00    -0.062 N 
HETATM    2  H   UNL     1      -6.635   2.064 -34.639  1.00  0.00     0.278 HD
HETATM    3  H   UNL     1      -5.088   2.323 -34.238  1.00  0.00     0.278 HD
ENDROOT
BRANCH   1   4
HETATM    4  C   UNL     1      -6.341   3.130 -32.847  1.00  0.00     0.335 C 
BRANCH   4   5
HETATM    5  C   UNL     1      -6.163   4.474 -33.534  1.00  0.00     0.248 C 
HETATM    6  N   UNL     1      -5.046   5.228 -33.400  1.00  0.00    -0.322 N 
HETATM    7  H   UNL     1      -5.162   6.168 -33.768  1.00  0.00     0.169 HD
HETATM    8  O   UNL     1      -7.128   4.908 -34.181  1.00  0.00    -0.271 OA
BRANCH   6   9
HETATM    9  C   UNL     1      -3.832   4.986 -32.784  1.00  0.00     0.085 A 
HETATM   10  C   UNL     1      -3.731   5.000 -31.403  1.00  0.00     0.052 A 
HETATM   11  C   UNL     1      -4.720   5.240 -30.322  1.00  0.00     0.072 C 
HETATM   12  N   UNL     1      -2.434   4.689 -31.110  1.00  0.00    -0.280 N 
HETATM   13  H   UNL     1      -1.997   4.590 -30.197  1.00  0.00     0.189 HD
HETATM   14  N   UNL     1      -1.677   4.509 -32.195  1.00  0.00    -0.177 NA
HETATM   15  C   UNL     1      -2.494   4.757 -33.224  1.00  0.00     0.079 A 
HETATM   16  C   UNL     1      -1.863   4.834 -34.564  1.00  0.00     0.075 C 
ENDBRANCH   6   9
ENDBRANCH   4   5
ENDBRANCH   1   4
BRANCH   1  17
HETATM   17  C   UNL     1      -5.903   0.617 -33.300  1.00  0.00     0.194 C 
HETATM   18  C   UNL     1      -6.125   0.679 -31.785  1.00  0.00     0.041 C 
BRANCH  17  19
HETATM   19  C   UNL     1      -6.874  -0.339 -34.103  1.00  0.00     0.007 C 
HETATM   20  C   UNL     1      -8.233  -0.420 -33.348  1.00  0.00     0.022 C 
HETATM   21  C   UNL     1      -7.241   0.297 -35.471  1.00  0.00     0.022 C 
BRANCH  19  22
HETATM   22  C   UNL     1      -6.238  -1.735 -34.288  1.00  0.00    -0.048 A 
HETATM   23  C   UNL     1      -6.997  -2.853 -34.687  1.00  0.00     0.008 A 
HETATM   24  C   UNL     1      -6.420  -4.121 -34.810  1.00  0.00     0.001 A 
HETATM   25  C   UNL     1      -5.069  -4.304 -34.542  1.00  0.00     0.000 A 
HETATM   26  C   UNL     1      -4.294  -3.219 -34.155  1.00  0.00     0.001 A 
HETATM   27  C   UNL     1      -4.871  -1.952 -34.028  1.00  0.00     0.008 A 
ENDBRANCH  19  22
ENDBRANCH  17  19
ENDBRANCH   1  17
TORSDOF 6
ENDMDL
MODEL 6
REMARK VINA RESULT:      -7.8      0.997      1.700
REMARK  6 active torsions:
REMARK  status: ('A' for Active; 'I' for Inactive)
REMARK    1  A    between atoms: C_8  and  N_9 
REMARK       I    between atoms: N_9  and  C_10 
REMARK    2  A    between atoms: C_10  and  C_11 
REMARK    3  A    between atoms: C_11  and  N_12 
REMARK    4  A    between atoms: N_12  and  C_15 
REMARK    5  A    between atoms: C_15  and  C_16 
REMARK    6  A    between atoms: C_16  and  C_17 
ROOT
HETATM    1  N   UNL     1      -7.372   1.746 -32.204  1.00  0.00    -0.062 N 
HETATM    2  H   UNL     1      -7.241   2.605 -31.647  1.00  0.00     0.278 HD
HETATM    3  H   UNL     1      -7.622   1.040 -31.490  1.00  0.00     0.278 HD
ENDROOT
BRANCH   1   4
HETATM    4  C   UNL     1      -8.621   1.876 -33.059  1.00  0.00     0.335 C 
BRANCH   4   5
HETATM    5  C   UNL     1      -9.768   2.346 -32.181  1.00  0.00     0.248 C 
HETATM    6  N   UNL     1     -11.017   2.569 -32.655  1.00  0.00    -0.322 N 
HETATM    7  H   UNL     1     -11.610   3.053 -31.985  1.00  0.00     0.169 HD
HETATM    8  O   UNL     1      -9.504   2.598 -30.995  1.00  0.00    -0.271 OA
BRANCH   6   9
HETATM    9  C   UNL     1     -11.592   2.348 -33.893  1.00  0.00     0.085 A 
HETATM   10  C   UNL     1     -11.380   3.236 -34.934  1.00  0.00     0.052 A 
HETATM   11  C   UNL     1     -10.605   4.499 -35.041  1.00  0.00     0.072 C 
HETATM   12  N   UNL     1     -12.037   2.723 -36.016  1.00  0.00    -0.280 N 
HETATM   13  H   UNL     1     -12.090   3.096 -36.961  1.00  0.00     0.189 HD
HETATM   14  N   UNL     1     -12.688   1.589 -35.748  1.00  0.00    -0.177 NA
HETATM   15  C   UNL     1     -12.488   1.382 -34.442  1.00  0.00     0.079 A 
HETATM   16  C   UNL     1     -13.274   0.290 -33.818  1.00  0.00     0.075 C 
ENDBRANCH   6   9
ENDBRANCH   4   5
ENDBRANCH   1   4
BRANCH   1  17
HETATM   17  C   UNL     1      -6.085   1.372 -32.899  1.00  0.00     0.194 C 
HETATM   18  C   UNL     1      -5.196   2.619 -32.927  1.00  0.00     0.041 C 
BRANCH  17  19
HETATM   19  C   UNL     1      -5.452   0.085 -32.233  1.00  0.00     0.007 C 
HETATM   20  C   UNL     1      -3.985   0.406 -31.822  1.00  0.00     0.022 C 
HETATM   21  C   UNL     1      -6.160  -0.226 -30.887  1.00  0.00     0.022 C 
BRANCH  19  22
HETATM   22  C   UNL     1      -5.525  -1.122 -33.195  1.00  0.00    -0.048 A 
HETATM   23  C   UNL     1      -4.376  -1.845 -33.574  1.00  0.00     0.008 A 
HETATM   24  C   UNL     1      -4.449  -2.908 -34.479  1.00  0.00     0.001 A 
HETATM   25  C   UNL     1      -5.671  -3.281 -35.025  1.00  0.00     0.000 A 
HETATM   26  C   UNL     1      -6.821  -2.592 -34.664  1.00  0.00     0.001 A 
HETATM   27  C   UNL     1      -6.749  -1.526 -33.763  1.00  0.00     0.008 A 
ENDBRANCH  19  22
ENDBRANCH  17  19
ENDBRANCH   1  17
TORSDOF 6
ENDMDL
MODEL 7
REMARK VINA RESULT:      -7.8      4.365      6.373
REMARK  6 active torsions:
REMARK  status: ('A' for Active; 'I' for Inactive)
REMARK    1  A    between atoms: C_8  and  N_9 
REMARK       I    between atoms: N_9  and  C_10 
REMARK    2  A    between atoms: C_10  and  C_11 
REMARK    3  A    between atoms: C_11  and  N_12 
REMARK    4  A    between atoms: N_12  and  C_15 
REMARK    5  A    between atoms: C_15  and  C_16 
REMARK    6  A    between atoms: C_16  and  C_17 
ROOT
HETATM    1  N   UNL     1      -5.173   1.348 -32.843  1.00  0.00    -0.062 N 
HETATM    2  H   UNL     1      -5.698   1.775 -33.622  1.00  0.00     0.278 HD
HETATM    3  H   UNL     1      -4.222   1.234 -33.236  1.00  0.00     0.278 HD
ENDROOT
BRANCH   1   4
HETATM    4  C   UNL     1      -4.999   2.362 -31.725  1.00  0.00     0.335 C 
BRANCH   4   5
HETATM    5  C   UNL     1      -3.529   2.424 -31.346  1.00  0.00     0.248 C 
HETATM    6  N   UNL     1      -2.812   3.573 -31.361  1.00  0.00    -0.322 N 
HETATM    7  H   UNL     1      -1.813   3.412 -31.263  1.00  0.00     0.169 HD
HETATM    8  O   UNL     1      -2.968   1.349 -31.085  1.00  0.00    -0.271 OA
BRANCH   6   9
HETATM    9  C   UNL     1      -3.174   4.890 -31.574  1.00  0.00     0.085 A 
HETATM   10  C   UNL     1      -2.525   5.650 -32.533  1.00  0.00     0.052 A 
HETATM   11  C   UNL     1      -1.418   5.352 -33.477  1.00  0.00     0.072 C 
HETATM   12  N   UNL     1      -3.134   6.873 -32.530  1.00  0.00    -0.280 N 
HETATM   13  H   UNL     1      -2.934   7.681 -33.114  1.00  0.00     0.189 HD
HETATM   14  N   UNL     1      -4.103   6.976 -31.618  1.00  0.00    -0.177 NA
HETATM   15  C   UNL     1      -4.096   5.803 -30.977  1.00  0.00     0.079 A 
HETATM   16  C   UNL     1      -4.942   5.707 -29.763  1.00  0.00     0.075 C 
ENDBRANCH   6   9
ENDBRANCH   4   5
ENDBRANCH   1   4
BRANCH   1  17
HETATM   17  C   UNL     1      -5.767   0.007 -32.486  1.00  0.00     0.194 C 
HETATM   18  C   UNL     1      -6.484   0.163 -31.141  1.00  0.00     0.041 C 
BRANCH  17  19
HETATM   19  C   UNL     1      -6.647  -0.544 -33.679  1.00  0.00     0.007 C 
HETATM   20  C   UNL     1      -8.142  -0.534 -33.243  1.00  0.00     0.022 C 
HETATM   21  C   UNL     1      -6.599   0.441 -34.879  1.00  0.00     0.022 C 
BRANCH  19  22
HETATM   22  C   UNL     1      -6.182  -1.956 -34.097  1.00  0.00    -0.048 A 
HETATM   23  C   UNL     1      -7.085  -2.932 -34.563  1.00  0.00     0.008 A 
HETATM   24  C   UNL     1      -6.658  -4.221 -34.897  1.00  0.00     0.001 A 
HETATM   25  C   UNL     1      -5.318  -4.568 -34.779  1.00  0.00     0.000 A 
HETATM   26  C   UNL     1      -4.403  -3.625 -34.329  1.00  0.00     0.001 A 
HETATM   27  C   UNL     1      -4.830  -2.337 -33.991  1.00  0.00     0.008 A 
ENDBRANCH  19  22
ENDBRANCH  17  19
ENDBRANCH   1  17
TORSDOF 6
ENDMDL
MODEL 8
REMARK VINA RESULT:      -7.8      5.010      7.016
REMARK  6 active torsions:
REMARK  status: ('A' for Active; 'I' for Inactive)
REMARK    1  A    between atoms: C_8  and  N_9 
REMARK       I    between atoms: N_9  and  C_10 
REMARK    2  A    between atoms: C_10  and  C_11 
REMARK    3  A    between atoms: C_11  and  N_12 
REMARK    4  A    between atoms: N_12  and  C_15 
REMARK    5  A    between atoms: C_15  and  C_16 
REMARK    6  A    between atoms: C_16  and  C_17 
ROOT
HETATM    1  N   UNL     1      -5.383   2.578 -31.462  1.00  0.00    -0.062 N 
HETATM    2  H   UNL     1      -4.777   1.793 -31.176  1.00  0.00     0.278 HD
HETATM    3  H   UNL     1      -5.715   2.959 -30.560  1.00  0.00     0.278 HD
ENDROOT
BRANCH   1   4
HETATM    4  C   UNL     1      -4.536   3.692 -32.053  1.00  0.00     0.335 C 
BRANCH   4   5
HETATM    5  C   UNL     1      -3.071   3.378 -31.801  1.00  0.00     0.248 C 
HETATM    6  N   UNL     1      -2.061   4.155 -32.260  1.00  0.00    -0.322 N 
HETATM    7  H   UNL     1      -1.152   3.711 -32.166  1.00  0.00     0.169 HD
HETATM    8  O   UNL     1      -2.815   2.319 -31.209  1.00  0.00    -0.271 OA
BRANCH   6   9
HETATM    9  C   UNL     1      -2.051   5.379 -32.904  1.00  0.00     0.085 A 
HETATM   10  C   UNL     1      -1.471   6.484 -32.304  1.00  0.00     0.052 A 
HETATM   11  C   UNL     1      -0.794   6.682 -30.997  1.00  0.00     0.072 C 
HETATM   12  N   UNL     1      -1.584   7.510 -33.198  1.00  0.00    -0.280 N 
HETATM   13  H   UNL     1      -1.256   8.468 -33.107  1.00  0.00     0.189 HD
HETATM   14  N   UNL     1      -2.223   7.164 -34.317  1.00  0.00    -0.177 NA
HETATM   15  C   UNL     1      -2.579   5.889 -34.128  1.00  0.00     0.079 A 
HETATM   16  C   UNL     1      -3.492   5.301 -35.138  1.00  0.00     0.075 C 
ENDBRANCH   6   9
ENDBRANCH   4   5
ENDBRANCH   1   4
BRANCH   1  17
HETATM   17  C   UNL     1      -6.542   2.068 -32.286  1.00  0.00     0.194 C 
HETATM   18  C   UNL     1      -6.166   2.229 -33.762  1.00  0.00     0.041 C 
BRANCH  17  19
HETATM   19  C   UNL     1      -6.945   0.609 -31.829  1.00  0.00     0.007 C 
HETATM   20  C   UNL     1      -6.398   0.367 -30.391  1.00  0.00     0.022 C 
HETATM   21  C   UNL     1      -8.486   0.504 -31.667  1.00  0.00     0.022 C 
BRANCH  19  22
HETATM   22  C   UNL     1      -6.415  -0.444 -32.827  1.00  0.00    -0.048 A 
HETATM   23  C   UNL     1      -7.255  -1.065 -33.773  1.00  0.00     0.008 A 
HETATM   24  C   UNL     1      -6.774  -2.048 -34.643  1.00  0.00     0.001 A 
HETATM   25  C   UNL     1      -5.440  -2.435 -34.594  1.00  0.00     0.000 A 
HETATM   26  C   UNL     1      -4.586  -1.835 -33.677  1.00  0.00     0.001 A 
HETATM   27  C   UNL     1      -5.068  -0.855 -32.805  1.00  0.00     0.008 A 
ENDBRANCH  19  22
ENDBRANCH  17  19
ENDBRANCH   1  17
TORSDOF 6
ENDMDL
MODEL 9
REMARK VINA RESULT:      -7.6      2.596      3.681
REMARK  6 active torsions:
REMARK  status: ('A' for Active; 'I' for Inactive)
REMARK    1  A    between atoms: C_8  and  N_9 
REMARK       I    between atoms: N_9  and  C_10 
REMARK    2  A    between atoms: C_10  and  C_11 
REMARK    3  A    between atoms: C_11  and  N_12 
REMARK    4  A    between atoms: N_12  and  C_15 
REMARK    5  A    between atoms: C_15  and  C_16 
REMARK    6  A    between atoms: C_16  and  C_17 
ROOT
HETATM    1  N   UNL     1      -5.748   2.251 -32.725  1.00  0.00    -0.062 N 
HETATM    2  H   UNL     1      -5.779   2.906 -31.928  1.00  0.00     0.278 HD
HETATM    3  H   UNL     1      -6.579   1.653 -32.569  1.00  0.00     0.278 HD
ENDROOT
BRANCH   1   4
HETATM    4  C   UNL     1      -6.056   2.994 -34.014  1.00  0.00     0.335 C 
BRANCH   4   5
HETATM    5  C   UNL     1      -7.127   4.035 -33.734  1.00  0.00     0.248 C 
HETATM    6  N   UNL     1      -8.320   3.732 -33.169  1.00  0.00    -0.322 N 
HETATM    7  H   UNL     1      -8.985   4.499 -33.223  1.00  0.00     0.169 HD
HETATM    8  O   UNL     1      -6.901   5.193 -34.117  1.00  0.00    -0.271 OA
BRANCH   6   9
HETATM    9  C   UNL     1      -8.820   2.562 -32.627  1.00  0.00     0.085 A 
HETATM   10  C   UNL     1      -8.916   2.410 -31.254  1.00  0.00     0.052 A 
HETATM   11  C   UNL     1      -8.571   3.297 -30.114  1.00  0.00     0.072 C 
HETATM   12  N   UNL     1      -9.478   1.183 -31.043  1.00  0.00    -0.280 N 
HETATM   13  H   UNL     1      -9.716   0.739 -30.159  1.00  0.00     0.189 HD
HETATM   14  N   UNL     1      -9.721   0.513 -32.172  1.00  0.00    -0.177 NA
HETATM   15  C   UNL     1      -9.261   1.307 -33.145  1.00  0.00     0.079 A 
HETATM   16  C   UNL     1      -9.212   0.722 -34.507  1.00  0.00     0.075 C 
ENDBRANCH   6   9
ENDBRANCH   4   5
ENDBRANCH   1   4
BRANCH   1  17
HETATM   17  C   UNL     1      -4.483   1.429 -32.677  1.00  0.00     0.194 C 
HETATM   18  C   UNL     1      -3.383   2.309 -32.075  1.00  0.00     0.041 C 
BRANCH  17  19
HETATM   19  C   UNL     1      -4.745   0.052 -31.945  1.00  0.00     0.007 C 
HETATM   20  C   UNL     1      -3.477  -0.328 -31.126  1.00  0.00     0.022 C 
HETATM   21  C   UNL     1      -5.852   0.219 -30.868  1.00  0.00     0.022 C 
BRANCH  19  22
HETATM   22  C   UNL     1      -5.119  -1.048 -32.964  1.00  0.00    -0.048 A 
HETATM   23  C   UNL     1      -4.152  -1.905 -33.525  1.00  0.00     0.008 A 
HETATM   24  C   UNL     1      -4.495  -2.869 -34.478  1.00  0.00     0.001 A 
HETATM   25  C   UNL     1      -5.815  -3.004 -34.894  1.00  0.00     0.000 A 
HETATM   26  C   UNL     1      -6.791  -2.178 -34.352  1.00  0.00     0.001 A 
HETATM   27  C   UNL     1      -6.447  -1.212 -33.402  1.00  0.00     0.008 A 
ENDBRANCH  19  22
ENDBRANCH  17  19
ENDBRANCH   1  17
TORSDOF 6
ENDMDL
MODEL 10
REMARK VINA RESULT:      -7.5      4.642      6.740
REMARK  6 active torsions:
REMARK  status: ('A' for Active; 'I' for Inactive)
REMARK    1  A    between atoms: C_8  and  N_9 
REMARK       I    between atoms: N_9  and  C_10 
REMARK    2  A    between atoms: C_10  and  C_11 
REMARK    3  A    between atoms: C_11  and  N_12 
REMARK    4  A    between atoms: N_12  and  C_15 
REMARK    5  A    between atoms: C_15  and  C_16 
REMARK    6  A    between atoms: C_16  and  C_17 
ROOT
HETATM    1  N   UNL     1      -6.018   2.411 -33.488  1.00  0.00    -0.062 N 
HETATM    2  H   UNL     1      -6.966   2.706 -33.205  1.00  0.00     0.278 HD
HETATM    3  H   UNL     1      -6.029   2.538 -34.515  1.00  0.00     0.278 HD
ENDROOT
BRANCH   1   4
HETATM    4  C   UNL     1      -4.997   3.423 -32.995  1.00  0.00     0.335 C 
BRANCH   4   5
HETATM    5  C   UNL     1      -5.274   4.760 -33.660  1.00  0.00     0.248 C 
HETATM    6  N   UNL     1      -4.470   5.840 -33.508  1.00  0.00    -0.322 N 
HETATM    7  H   UNL     1      -4.892   6.694 -33.862  1.00  0.00     0.169 HD
HETATM    8  O   UNL     1      -6.328   4.861 -34.306  1.00  0.00    -0.271 OA
BRANCH   6   9
HETATM    9  C   UNL     1      -3.245   6.005 -32.888  1.00  0.00     0.085 A 
HETATM   10  C   UNL     1      -2.074   5.666 -33.546  1.00  0.00     0.052 A 
HETATM   11  C   UNL     1      -1.800   5.108 -34.894  1.00  0.00     0.072 C 
HETATM   12  N   UNL     1      -1.052   5.982 -32.696  1.00  0.00    -0.280 N 
HETATM   13  H   UNL     1      -0.052   5.886 -32.847  1.00  0.00     0.189 HD
HETATM   14  N   UNL     1      -1.472   6.466 -31.525  1.00  0.00    -0.177 NA
HETATM   15  C   UNL     1      -2.806   6.421 -31.595  1.00  0.00     0.079 A 
HETATM   16  C   UNL     1      -3.544   6.710 -30.341  1.00  0.00     0.075 C 
ENDBRANCH   6   9
ENDBRANCH   4   5
ENDBRANCH   1   4
BRANCH   1  17
HETATM   17  C   UNL     1      -5.795   0.961 -33.130  1.00  0.00     0.194 C 
HETATM   18  C   UNL     1      -5.765   0.861 -31.602  1.00  0.00     0.041 C 
BRANCH  17  19
HETATM   19  C   UNL     1      -6.851   0.042 -33.864  1.00  0.00     0.007 C 
HETATM   20  C   UNL     1      -8.149  -0.010 -33.006  1.00  0.00     0.022 C 
HETATM   21  C   UNL     1      -7.306   0.703 -35.194  1.00  0.00     0.022 C 
BRANCH  19  22
HETATM   22  C   UNL     1      -6.273  -1.369 -34.112  1.00  0.00    -0.048 A 
HETATM   23  C   UNL     1      -4.906  -1.657 -33.932  1.00  0.00     0.008 A 
HETATM   24  C   UNL     1      -4.386  -2.927 -34.201  1.00  0.00     0.001 A 
HETATM   25  C   UNL     1      -5.218  -3.944 -34.652  1.00  0.00     0.000 A 
HETATM   26  C   UNL     1      -6.572  -3.692 -34.831  1.00  0.00     0.001 A 
HETATM   27  C   UNL     1      -7.092  -2.421 -34.566  1.00  0.00     0.008 A 
ENDBRANCH  19  22
ENDBRANCH  17  19
ENDBRANCH   1  17
TORSDOF 6
ENDMDL
