MODEL 1
REMARK VINA RESULT:      -9.2      0.000      0.000
REMARK  5 active torsions:
REMARK  status: ('A' for Active; 'I' for Inactive)
REMARK    1  A    between atoms: C_2  and  C_3 
REMARK    2  A    between atoms: C_4  and  N_5 
REMARK    3  A    between atoms: N_5  and  C_6 
REMARK    4  A    between atoms: C_7  and  C_8 
REMARK    5  A    between atoms: C_11  and  C_12 
ROOT
HETATM    1  C   UNL     1      -2.205   4.086 -31.688  1.00  0.00     0.113 C 
HETATM    2  C   UNL     1      -3.194   3.730 -32.530  1.00  0.00     0.082 C 
HETATM    3  C   UNL     1      -3.530   4.608 -33.725  1.00  0.00     0.024 C 
HETATM    4  N   UNL     1      -3.808   5.337 -34.716  1.00  0.00    -0.096 N 
ENDROOT
BRANCH   2   5
HETATM    5  C   UNL     1      -3.984   2.580 -32.270  1.00  0.00     0.119 A 
HETATM    6  S   UNL     1      -4.844   2.442 -30.773  1.00  0.00    -0.078 SA
HETATM    7  C   UNL     1      -5.453   0.918 -31.261  1.00  0.00     0.084 A 
HETATM    8  C   UNL     1      -4.978   0.596 -32.516  1.00  0.00     0.075 A 
HETATM    9  N   UNL     1      -4.150   1.554 -33.081  1.00  0.00    -0.239 NA
BRANCH   8  10
HETATM   10  C   UNL     1      -5.309  -0.626 -33.244  1.00  0.00    -0.005 A 
HETATM   11  C   UNL     1      -4.426  -1.715 -33.190  1.00  0.00     0.039 A 
HETATM   12  C   UNL     1      -4.708  -2.903 -33.872  1.00  0.00     0.056 A 
HETATM   13 CL   UNL     1      -3.560  -4.191 -33.757  1.00  0.00    -0.083 Cl
HETATM   14  C   UNL     1      -5.887  -3.017 -34.615  1.00  0.00     0.055 A 
HETATM   15 CL   UNL     1      -6.305  -4.450 -35.483  1.00  0.00    -0.083 Cl
HETATM   16  C   UNL     1      -6.776  -1.941 -34.669  1.00  0.00     0.026 A 
HETATM   17  C   UNL     1      -6.490  -0.753 -33.987  1.00  0.00     0.015 A 
ENDBRANCH   8  10
ENDBRANCH   2   5
BRANCH   1  18
HETATM   18  N   UNL     1      -1.348   5.158 -31.777  1.00  0.00    -0.364 N 
HETATM   19  H   UNL     1      -1.188   5.560 -32.710  1.00  0.00     0.165 HD
BRANCH  18  20
HETATM   20  C   UNL     1      -0.975   6.050 -30.741  1.00  0.00     0.048 A 
HETATM   21  C   UNL     1      -1.447   7.395 -30.756  1.00  0.00     0.039 A 
HETATM   22  C   UNL     1      -1.055   8.319 -29.773  1.00  0.00     0.057 A 
HETATM   23  C   UNL     1      -0.189   7.880 -28.797  1.00  0.00     0.106 A 
HETATM   24  C   UNL     1       0.288   6.592 -28.777  1.00  0.00     0.107 A 
HETATM   25  O   UNL     1       0.287   8.626 -27.765  1.00  0.00    -0.323 OA
HETATM   26  C   UNL     1      -0.075   5.665 -29.732  1.00  0.00     0.070 A 
HETATM   27  O   UNL     1       1.122   6.365 -27.728  1.00  0.00    -0.323 OA
HETATM   28  C   UNL     1       1.123   7.660 -27.093  1.00  0.00     0.352 A 
BRANCH  21  29
HETATM   29  C   UNL     1      -2.369   7.835 -31.836  1.00  0.00     0.158 C 
HETATM   30  C   UNL     1      -3.851   7.796 -31.572  1.00  0.00     0.097 C 
HETATM   31  O   UNL     1      -1.905   8.215 -32.911  1.00  0.00    -0.293 OA
ENDBRANCH  21  29
ENDBRANCH  18  20
ENDBRANCH   1  18
TORSDOF 5
ENDMDL
MODEL 2
REMARK VINA RESULT:      -9.2      5.454      9.826
REMARK  5 active torsions:
REMARK  status: ('A' for Active; 'I' for Inactive)
REMARK    1  A    between atoms: C_2  and  C_3 
REMARK    2  A    between atoms: C_4  and  N_5 
REMARK    3  A    between atoms: N_5  and  C_6 
REMARK    4  A    between atoms: C_7  and  C_8 
REMARK    5  A    between atoms: C_11  and  C_12 
ROOT
HETATM    1  C   UNL     1      -4.811   2.067 -32.654  1.00  0.00     0.113 C 
HETATM    2  C   UNL     1      -5.133   3.323 -33.022  1.00  0.00     0.082 C 
HETATM    3  C   UNL     1      -6.540   3.638 -33.504  1.00  0.00     0.024 C 
HETATM    4  N   UNL     1      -7.707   3.899 -33.904  1.00  0.00    -0.096 N 
ENDROOT
BRANCH   2   5
HETATM    5  C   UNL     1      -4.148   4.344 -33.040  1.00  0.00     0.119 A 
HETATM    6  S   UNL     1      -3.845   5.228 -34.498  1.00  0.00    -0.078 SA
HETATM    7  C   UNL     1      -2.643   6.145 -33.694  1.00  0.00     0.084 A 
HETATM    8  C   UNL     1      -2.533   5.738 -32.380  1.00  0.00     0.075 A 
HETATM    9  N   UNL     1      -3.400   4.718 -32.020  1.00  0.00    -0.239 NA
BRANCH   8  10
HETATM   10  C   UNL     1      -1.614   6.315 -31.403  1.00  0.00    -0.005 A 
HETATM   11  C   UNL     1      -2.103   6.693 -30.143  1.00  0.00     0.039 A 
HETATM   12  C   UNL     1      -1.254   7.248 -29.180  1.00  0.00     0.056 A 
HETATM   13 CL   UNL     1      -1.945   7.692 -27.658  1.00  0.00    -0.083 Cl
HETATM   14  C   UNL     1       0.102   7.426 -29.466  1.00  0.00     0.055 A 
HETATM   15 CL   UNL     1       1.211   8.103 -28.329  1.00  0.00    -0.083 Cl
HETATM   16  C   UNL     1       0.600   7.046 -30.714  1.00  0.00     0.026 A 
HETATM   17  C   UNL     1      -0.252   6.493 -31.677  1.00  0.00     0.015 A 
ENDBRANCH   8  10
ENDBRANCH   2   5
BRANCH   1  18
HETATM   18  N   UNL     1      -5.626   0.961 -32.580  1.00  0.00    -0.364 N 
HETATM   19  H   UNL     1      -6.617   1.116 -32.355  1.00  0.00     0.165 HD
BRANCH  18  20
HETATM   20  C   UNL     1      -5.404  -0.310 -33.166  1.00  0.00     0.048 A 
HETATM   21  C   UNL     1      -6.226  -0.749 -34.244  1.00  0.00     0.039 A 
HETATM   22  C   UNL     1      -6.068  -2.024 -34.813  1.00  0.00     0.057 A 
HETATM   23  C   UNL     1      -5.095  -2.840 -34.284  1.00  0.00     0.106 A 
HETATM   24  C   UNL     1      -4.305  -2.439 -33.233  1.00  0.00     0.107 A 
HETATM   25  O   UNL     1      -4.793  -4.095 -34.710  1.00  0.00    -0.323 OA
HETATM   26  C   UNL     1      -4.441  -1.197 -32.651  1.00  0.00     0.070 A 
HETATM   27  O   UNL     1      -3.405  -3.391 -32.869  1.00  0.00    -0.323 OA
HETATM   28  C   UNL     1      -3.723  -4.441 -33.805  1.00  0.00     0.352 A 
BRANCH  21  29
HETATM   29  C   UNL     1      -7.277   0.156 -34.779  1.00  0.00     0.158 C 
HETATM   30  C   UNL     1      -8.634   0.145 -34.126  1.00  0.00     0.097 C 
HETATM   31  O   UNL     1      -7.017   0.886 -35.736  1.00  0.00    -0.293 OA
ENDBRANCH  21  29
ENDBRANCH  18  20
ENDBRANCH   1  18
TORSDOF 5
ENDMDL
MODEL 3
REMARK VINA RESULT:      -9.0      1.962      2.649
REMARK  5 active torsions:
REMARK  status: ('A' for Active; 'I' for Inactive)
REMARK    1  A    between atoms: C_2  and  C_3 
REMARK    2  A    between atoms: C_4  and  N_5 
REMARK    3  A    between atoms: N_5  and  C_6 
REMARK    4  A    between atoms: C_7  and  C_8 
REMARK    5  A    between atoms: C_11  and  C_12 
ROOT
HETATM    1  C   UNL     1      -4.393   5.322 -32.591  1.00  0.00     0.113 C 
HETATM    2  C   UNL     1      -5.142   4.393 -31.964  1.00  0.00     0.082 C 
HETATM    3  C   UNL     1      -5.503   4.569 -30.498  1.00  0.00     0.024 C 
HETATM    4  N   UNL     1      -5.802   4.715 -29.281  1.00  0.00    -0.096 N 
ENDROOT
BRANCH   2   5
HETATM    5  C   UNL     1      -5.533   3.207 -32.638  1.00  0.00     0.119 A 
HETATM    6  S   UNL     1      -6.887   3.232 -33.717  1.00  0.00    -0.078 SA
HETATM    7  C   UNL     1      -6.663   1.565 -34.040  1.00  0.00     0.084 A 
HETATM    8  C   UNL     1      -5.589   1.082 -33.320  1.00  0.00     0.075 A 
HETATM    9  N   UNL     1      -4.951   2.029 -32.533  1.00  0.00    -0.239 NA
BRANCH   8  10
HETATM   10  C   UNL     1      -5.107  -0.296 -33.366  1.00  0.00    -0.005 A 
HETATM   11  C   UNL     1      -5.794  -1.236 -34.149  1.00  0.00     0.039 A 
HETATM   12  C   UNL     1      -5.363  -2.565 -34.220  1.00  0.00     0.056 A 
HETATM   13 CL   UNL     1      -6.274  -3.656 -35.203  1.00  0.00    -0.083 Cl
HETATM   14  C   UNL     1      -4.229  -2.968 -33.508  1.00  0.00     0.055 A 
HETATM   15 CL   UNL     1      -3.635  -4.589 -33.547  1.00  0.00    -0.083 Cl
HETATM   16  C   UNL     1      -3.534  -2.038 -32.732  1.00  0.00     0.026 A 
HETATM   17  C   UNL     1      -3.970  -0.710 -32.661  1.00  0.00     0.015 A 
ENDBRANCH   8  10
ENDBRANCH   2   5
BRANCH   1  18
HETATM   18  N   UNL     1      -3.923   6.517 -32.099  1.00  0.00    -0.364 N 
HETATM   19  H   UNL     1      -4.608   7.267 -31.940  1.00  0.00     0.165 HD
BRANCH  18  20
HETATM   20  C   UNL     1      -2.714   6.741 -31.394  1.00  0.00     0.048 A 
HETATM   21  C   UNL     1      -1.495   6.917 -32.111  1.00  0.00     0.039 A 
HETATM   22  C   UNL     1      -0.272   7.089 -31.443  1.00  0.00     0.057 A 
HETATM   23  C   UNL     1      -0.291   7.071 -30.067  1.00  0.00     0.106 A 
HETATM   24  C   UNL     1      -1.454   6.885 -29.361  1.00  0.00     0.107 A 
HETATM   25  O   UNL     1       0.789   7.231 -29.256  1.00  0.00    -0.323 OA
HETATM   26  C   UNL     1      -2.669   6.709 -29.989  1.00  0.00     0.070 A 
HETATM   27  O   UNL     1      -1.253   6.909 -28.016  1.00  0.00    -0.323 OA
HETATM   28  C   UNL     1       0.172   7.122 -27.955  1.00  0.00     0.352 A 
BRANCH  21  29
HETATM   29  C   UNL     1      -1.513   6.916 -33.598  1.00  0.00     0.158 C 
HETATM   30  C   UNL     1      -1.152   5.643 -34.318  1.00  0.00     0.097 C 
HETATM   31  O   UNL     1      -1.818   7.946 -34.200  1.00  0.00    -0.293 OA
ENDBRANCH  21  29
ENDBRANCH  18  20
ENDBRANCH   1  18
TORSDOF 5
ENDMDL
MODEL 4
REMARK VINA RESULT:      -8.9      1.583      2.488
REMARK  5 active torsions:
REMARK  status: ('A' for Active; 'I' for Inactive)
REMARK    1  A    between atoms: C_2  and  C_3 
REMARK    2  A    between atoms: C_4  and  N_5 
REMARK    3  A    between atoms: N_5  and  C_6 
REMARK    4  A    between atoms: C_7  and  C_8 
REMARK    5  A    between atoms: C_11  and  C_12 
ROOT
HETATM    1  C   UNL     1      -3.354   5.347 -30.940  1.00  0.00     0.113 C 
HETATM    2  C   UNL     1      -3.235   4.410 -31.901  1.00  0.00     0.082 C 
HETATM    3  C   UNL     1      -2.384   4.685 -33.131  1.00  0.00     0.024 C 
HETATM    4  N   UNL     1      -1.679   4.913 -34.151  1.00  0.00    -0.096 N 
ENDROOT
BRANCH   2   5
HETATM    5  C   UNL     1      -3.962   3.194 -31.817  1.00  0.00     0.119 A 
HETATM    6  S   UNL     1      -5.561   3.187 -31.155  1.00  0.00    -0.078 SA
HETATM    7  C   UNL     1      -5.662   1.496 -31.412  1.00  0.00     0.084 A 
HETATM    8  C   UNL     1      -4.493   1.031 -31.978  1.00  0.00     0.075 A 
HETATM    9  N   UNL     1      -3.537   2.009 -32.210  1.00  0.00    -0.239 NA
BRANCH   8  10
HETATM   10  C   UNL     1      -4.240  -0.359 -32.344  1.00  0.00    -0.005 A 
HETATM   11  C   UNL     1      -4.892  -0.903 -33.461  1.00  0.00     0.039 A 
HETATM   12  C   UNL     1      -4.674  -2.231 -33.844  1.00  0.00     0.056 A 
HETATM   13 CL   UNL     1      -5.527  -2.820 -35.228  1.00  0.00    -0.083 Cl
HETATM   14  C   UNL     1      -3.793  -3.032 -33.113  1.00  0.00     0.055 A 
HETATM   15 CL   UNL     1      -3.471  -4.678 -33.525  1.00  0.00    -0.083 Cl
HETATM   16  C   UNL     1      -3.132  -2.498 -32.004  1.00  0.00     0.026 A 
HETATM   17  C   UNL     1      -3.354  -1.169 -31.622  1.00  0.00     0.015 A 
ENDBRANCH   8  10
ENDBRANCH   2   5
BRANCH   1  18
HETATM   18  N   UNL     1      -2.735   6.573 -30.858  1.00  0.00    -0.364 N 
HETATM   19  H   UNL     1      -3.086   7.322 -31.468  1.00  0.00     0.165 HD
BRANCH  18  20
HETATM   20  C   UNL     1      -1.968   7.078 -29.779  1.00  0.00     0.048 A 
HETATM   21  C   UNL     1      -0.545   7.012 -29.826  1.00  0.00     0.039 A 
HETATM   22  C   UNL     1       0.244   7.455 -28.751  1.00  0.00     0.057 A 
HETATM   23  C   UNL     1      -0.409   7.948 -27.645  1.00  0.00     0.106 A 
HETATM   24  C   UNL     1      -1.779   8.003 -27.576  1.00  0.00     0.107 A 
HETATM   25  O   UNL     1       0.187   8.429 -26.521  1.00  0.00    -0.323 OA
HETATM   26  C   UNL     1      -2.580   7.570 -28.612  1.00  0.00     0.070 A 
HETATM   27  O   UNL     1      -2.219   8.529 -26.401  1.00  0.00    -0.323 OA
HETATM   28  C   UNL     1      -0.968   8.792 -25.734  1.00  0.00     0.352 A 
BRANCH  21  29
HETATM   29  C   UNL     1       0.122   6.459 -31.033  1.00  0.00     0.158 C 
HETATM   30  C   UNL     1       0.880   5.164 -30.905  1.00  0.00     0.097 C 
HETATM   31  O   UNL     1       0.043   7.068 -32.101  1.00  0.00    -0.293 OA
ENDBRANCH  21  29
ENDBRANCH  18  20
ENDBRANCH   1  18
TORSDOF 5
ENDMDL
MODEL 5
REMARK VINA RESULT:      -8.7      2.295      3.143
REMARK  5 active torsions:
REMARK  status: ('A' for Active; 'I' for Inactive)
REMARK    1  A    between atoms: C_2  and  C_3 
REMARK    2  A    between atoms: C_4  and  N_5 
REMARK    3  A    between atoms: N_5  and  C_6 
REMARK    4  A    between atoms: C_7  and  C_8 
REMARK    5  A    between atoms: C_11  and  C_12 
ROOT
HETATM    1  C   UNL     1      -4.026   4.689 -32.792  1.00  0.00     0.113 C 
HETATM    2  C   UNL     1      -5.149   3.953 -32.901  1.00  0.00     0.082 C 
HETATM    3  C   UNL     1      -6.453   4.611 -33.319  1.00  0.00     0.024 C 
HETATM    4  N   UNL     1      -7.536   5.158 -33.665  1.00  0.00    -0.096 N 
ENDROOT
BRANCH   2   5
HETATM    5  C   UNL     1      -5.146   2.577 -32.552  1.00  0.00     0.119 A 
HETATM    6  S   UNL     1      -4.783   2.098 -30.928  1.00  0.00    -0.078 SA
HETATM    7  C   UNL     1      -4.983   0.454 -31.367  1.00  0.00     0.084 A 
HETATM    8  C   UNL     1      -5.309   0.355 -32.704  1.00  0.00     0.075 A 
HETATM    9  N   UNL     1      -5.406   1.571 -33.364  1.00  0.00    -0.239 NA
BRANCH   8  10
HETATM   10  C   UNL     1      -5.565  -0.897 -33.409  1.00  0.00    -0.005 A 
HETATM   11  C   UNL     1      -4.573  -1.890 -33.424  1.00  0.00     0.039 A 
HETATM   12  C   UNL     1      -4.782  -3.104 -34.087  1.00  0.00     0.056 A 
HETATM   13 CL   UNL     1      -3.502  -4.266 -34.062  1.00  0.00    -0.083 Cl
HETATM   14  C   UNL     1      -5.994  -3.341 -34.741  1.00  0.00     0.055 A 
HETATM   15 CL   UNL     1      -6.325  -4.814 -35.579  1.00  0.00    -0.083 Cl
HETATM   16  C   UNL     1      -6.990  -2.363 -34.725  1.00  0.00     0.026 A 
HETATM   17  C   UNL     1      -6.778  -1.149 -34.063  1.00  0.00     0.015 A 
ENDBRANCH   8  10
ENDBRANCH   2   5
BRANCH   1  18
HETATM   18  N   UNL     1      -3.844   6.022 -33.079  1.00  0.00    -0.364 N 
HETATM   19  H   UNL     1      -4.016   6.326 -34.046  1.00  0.00     0.165 HD
BRANCH  18  20
HETATM   20  C   UNL     1      -3.857   7.107 -32.168  1.00  0.00     0.048 A 
HETATM   21  C   UNL     1      -2.672   7.869 -31.952  1.00  0.00     0.039 A 
HETATM   22  C   UNL     1      -2.636   8.917 -31.018  1.00  0.00     0.057 A 
HETATM   23  C   UNL     1      -3.787   9.177 -30.309  1.00  0.00     0.106 A 
HETATM   24  C   UNL     1      -4.933   8.442 -30.492  1.00  0.00     0.107 A 
HETATM   25  O   UNL     1      -3.941  10.154 -29.377  1.00  0.00    -0.323 OA
HETATM   26  C   UNL     1      -4.996   7.403 -31.398  1.00  0.00     0.070 A 
HETATM   27  O   UNL     1      -5.953   8.866 -29.700  1.00  0.00    -0.323 OA
HETATM   28  C   UNL     1      -5.317   9.948 -28.990  1.00  0.00     0.352 A 
BRANCH  21  29
HETATM   29  C   UNL     1      -1.445   7.548 -32.727  1.00  0.00     0.158 C 
HETATM   30  C   UNL     1      -0.248   7.015 -31.986  1.00  0.00     0.097 C 
HETATM   31  O   UNL     1      -1.435   7.727 -33.946  1.00  0.00    -0.293 OA
ENDBRANCH  21  29
ENDBRANCH  18  20
ENDBRANCH   1  18
TORSDOF 5
ENDMDL
MODEL 6
REMARK VINA RESULT:      -8.5      6.115      9.222
REMARK  5 active torsions:
REMARK  status: ('A' for Active; 'I' for Inactive)
REMARK    1  A    between atoms: C_2  and  C_3 
REMARK    2  A    between atoms: C_4  and  N_5 
REMARK    3  A    between atoms: N_5  and  C_6 
REMARK    4  A    between atoms: C_7  and  C_8 
REMARK    5  A    between atoms: C_11  and  C_12 
ROOT
HETATM    1  C   UNL     1      -8.818   2.803 -33.966  1.00  0.00     0.113 C 
HETATM    2  C   UNL     1      -7.722   3.278 -33.343  1.00  0.00     0.082 C 
HETATM    3  C   UNL     1      -7.633   4.751 -32.978  1.00  0.00     0.024 C 
HETATM    4  N   UNL     1      -7.558   5.974 -32.675  1.00  0.00    -0.096 N 
ENDROOT
BRANCH   2   5
HETATM    5  C   UNL     1      -6.610   2.432 -33.093  1.00  0.00     0.119 A 
HETATM    6  S   UNL     1      -5.223   3.050 -32.261  1.00  0.00    -0.078 SA
HETATM    7  C   UNL     1      -4.463   1.520 -32.389  1.00  0.00     0.084 A 
HETATM    8  C   UNL     1      -5.289   0.633 -33.049  1.00  0.00     0.075 A 
HETATM    9  N   UNL     1      -6.510   1.163 -33.436  1.00  0.00    -0.239 NA
BRANCH   8  10
HETATM   10  C   UNL     1      -4.963  -0.764 -33.320  1.00  0.00    -0.005 A 
HETATM   11  C   UNL     1      -4.080  -1.440 -32.464  1.00  0.00     0.039 A 
HETATM   12  C   UNL     1      -3.745  -2.780 -32.690  1.00  0.00     0.056 A 
HETATM   13 CL   UNL     1      -2.643  -3.531 -31.589  1.00  0.00    -0.083 Cl
HETATM   14  C   UNL     1      -4.297  -3.462 -33.777  1.00  0.00     0.055 A 
HETATM   15 CL   UNL     1      -3.933  -5.115 -34.120  1.00  0.00    -0.083 Cl
HETATM   16  C   UNL     1      -5.183  -2.801 -34.631  1.00  0.00     0.026 A 
HETATM   17  C   UNL     1      -5.515  -1.460 -34.403  1.00  0.00     0.015 A 
ENDBRANCH   8  10
ENDBRANCH   2   5
BRANCH   1  18
HETATM   18  N   UNL     1      -9.976   3.470 -34.291  1.00  0.00    -0.364 N 
HETATM   19  H   UNL     1      -9.940   4.122 -35.085  1.00  0.00     0.165 HD
BRANCH  18  20
HETATM   20  C   UNL     1     -11.303   3.097 -33.966  1.00  0.00     0.048 A 
HETATM   21  C   UNL     1     -11.931   3.639 -32.807  1.00  0.00     0.039 A 
HETATM   22  C   UNL     1     -13.227   3.251 -32.427  1.00  0.00     0.057 A 
HETATM   23  C   UNL     1     -13.866   2.317 -33.211  1.00  0.00     0.106 A 
HETATM   24  C   UNL     1     -13.269   1.772 -34.321  1.00  0.00     0.107 A 
HETATM   25  O   UNL     1     -15.119   1.832 -33.005  1.00  0.00    -0.323 OA
HETATM   26  C   UNL     1     -11.997   2.129 -34.715  1.00  0.00     0.070 A 
HETATM   27  O   UNL     1     -14.073   0.877 -34.955  1.00  0.00    -0.323 OA
HETATM   28  C   UNL     1     -15.243   0.915 -34.113  1.00  0.00     0.352 A 
BRANCH  21  29
HETATM   29  C   UNL     1     -11.202   4.634 -31.978  1.00  0.00     0.158 C 
HETATM   30  C   UNL     1     -10.659   4.196 -30.643  1.00  0.00     0.097 C 
HETATM   31  O   UNL     1     -11.063   5.784 -32.396  1.00  0.00    -0.293 OA
ENDBRANCH  21  29
ENDBRANCH  18  20
ENDBRANCH   1  18
TORSDOF 5
ENDMDL
MODEL 7
REMARK VINA RESULT:      -8.5      1.792      2.103
REMARK  5 active torsions:
REMARK  status: ('A' for Active; 'I' for Inactive)
REMARK    1  A    between atoms: C_2  and  C_3 
REMARK    2  A    between atoms: C_4  and  N_5 
REMARK    3  A    between atoms: N_5  and  C_6 
REMARK    4  A    between atoms: C_7  and  C_8 
REMARK    5  A    between atoms: C_11  and  C_12 
ROOT
HETATM    1  C   UNL     1      -4.645   5.402 -31.355  1.00  0.00     0.113 C 
HETATM    2  C   UNL     1      -4.311   4.315 -32.077  1.00  0.00     0.082 C 
HETATM    3  C   UNL     1      -3.109   4.357 -33.005  1.00  0.00     0.024 C 
HETATM    4  N   UNL     1      -2.110   4.393 -33.776  1.00  0.00    -0.096 N 
ENDROOT
BRANCH   2   5
HETATM    5  C   UNL     1      -5.120   3.149 -32.041  1.00  0.00     0.119 A 
HETATM    6  S   UNL     1      -6.461   3.059 -30.949  1.00  0.00    -0.078 SA
HETATM    7  C   UNL     1      -6.823   1.486 -31.520  1.00  0.00     0.084 A 
HETATM    8  C   UNL     1      -5.919   1.114 -32.495  1.00  0.00     0.075 A 
HETATM    9  N   UNL     1      -4.961   2.073 -32.787  1.00  0.00    -0.239 NA
BRANCH   8  10
HETATM   10  C   UNL     1      -5.940  -0.160 -33.208  1.00  0.00    -0.005 A 
HETATM   11  C   UNL     1      -4.928  -1.100 -32.960  1.00  0.00     0.039 A 
HETATM   12  C   UNL     1      -4.915  -2.332 -33.623  1.00  0.00     0.056 A 
HETATM   13 CL   UNL     1      -3.625  -3.426 -33.263  1.00  0.00    -0.083 Cl
HETATM   14  C   UNL     1      -5.922  -2.641 -34.541  1.00  0.00     0.055 A 
HETATM   15 CL   UNL     1      -5.974  -4.140 -35.396  1.00  0.00    -0.083 Cl
HETATM   16  C   UNL     1      -6.939  -1.715 -34.788  1.00  0.00     0.026 A 
HETATM   17  C   UNL     1      -6.948  -0.482 -34.125  1.00  0.00     0.015 A 
ENDBRANCH   8  10
ENDBRANCH   2   5
BRANCH   1  18
HETATM   18  N   UNL     1      -3.989   6.608 -31.270  1.00  0.00    -0.364 N 
HETATM   19  H   UNL     1      -4.258   7.342 -31.938  1.00  0.00     0.165 HD
BRANCH  18  20
HETATM   20  C   UNL     1      -3.297   7.133 -30.151  1.00  0.00     0.048 A 
HETATM   21  C   UNL     1      -2.016   7.733 -30.324  1.00  0.00     0.039 A 
HETATM   22  C   UNL     1      -1.280   8.216 -29.230  1.00  0.00     0.057 A 
HETATM   23  C   UNL     1      -1.838   8.081 -27.979  1.00  0.00     0.106 A 
HETATM   24  C   UNL     1      -3.064   7.490 -27.792  1.00  0.00     0.107 A 
HETATM   25  O   UNL     1      -1.279   8.497 -26.811  1.00  0.00    -0.323 OA
HETATM   26  C   UNL     1      -3.806   7.001 -28.846  1.00  0.00     0.070 A 
HETATM   27  O   UNL     1      -3.432   7.463 -26.483  1.00  0.00    -0.323 OA
HETATM   28  C   UNL     1      -2.294   8.097 -25.865  1.00  0.00     0.352 A 
BRANCH  21  29
HETATM   29  C   UNL     1      -1.441   7.848 -31.690  1.00  0.00     0.158 C 
HETATM   30  C   UNL     1      -0.328   6.911 -32.081  1.00  0.00     0.097 C 
HETATM   31  O   UNL     1      -1.881   8.700 -32.462  1.00  0.00    -0.293 OA
ENDBRANCH  21  29
ENDBRANCH  18  20
ENDBRANCH   1  18
TORSDOF 5
ENDMDL
MODEL 8
REMARK VINA RESULT:      -8.4      6.640      9.915
REMARK  5 active torsions:
REMARK  status: ('A' for Active; 'I' for Inactive)
REMARK    1  A    between atoms: C_2  and  C_3 
REMARK    2  A    between atoms: C_4  and  N_5 
REMARK    3  A    between atoms: N_5  and  C_6 
REMARK    4  A    between atoms: C_7  and  C_8 
REMARK    5  A    between atoms: C_11  and  C_12 
ROOT
HETATM    1  C   UNL     1      -7.001   1.441 -33.422  1.00  0.00     0.113 C 
HETATM    2  C   UNL     1      -7.646   2.216 -32.528  1.00  0.00     0.082 C 
HETATM    3  C   UNL     1      -7.128   2.326 -31.103  1.00  0.00     0.024 C 
HETATM    4  N   UNL     1      -6.699   2.418 -29.921  1.00  0.00    -0.096 N 
ENDROOT
BRANCH   2   5
HETATM    5  C   UNL     1      -8.855   2.870 -32.881  1.00  0.00     0.119 A 
HETATM    6  S   UNL     1      -8.811   4.303 -33.852  1.00  0.00    -0.078 SA
HETATM    7  C   UNL     1     -10.520   4.401 -33.788  1.00  0.00     0.084 A 
HETATM    8  C   UNL     1     -11.028   3.357 -33.042  1.00  0.00     0.075 A 
HETATM    9  N   UNL     1     -10.070   2.489 -32.539  1.00  0.00    -0.239 NA
BRANCH   8  10
HETATM   10  C   UNL     1     -12.448   3.124 -32.793  1.00  0.00    -0.005 A 
HETATM   11  C   UNL     1     -13.127   2.159 -33.553  1.00  0.00     0.039 A 
HETATM   12  C   UNL     1     -14.487   1.907 -33.343  1.00  0.00     0.056 A 
HETATM   13 CL   UNL     1     -15.245   0.707 -34.330  1.00  0.00    -0.083 Cl
HETATM   14  C   UNL     1     -15.184   2.616 -32.361  1.00  0.00     0.055 A 
HETATM   15 CL   UNL     1     -16.862   2.360 -32.043  1.00  0.00    -0.083 Cl
HETATM   16  C   UNL     1     -14.515   3.573 -31.594  1.00  0.00     0.026 A 
HETATM   17  C   UNL     1     -13.155   3.825 -31.808  1.00  0.00     0.015 A 
ENDBRANCH   8  10
ENDBRANCH   2   5
BRANCH   1  18
HETATM   18  N   UNL     1      -5.832   0.735 -33.258  1.00  0.00    -0.364 N 
HETATM   19  H   UNL     1      -5.155   1.092 -32.572  1.00  0.00     0.165 HD
BRANCH  18  20
HETATM   20  C   UNL     1      -5.596  -0.624 -33.583  1.00  0.00     0.048 A 
HETATM   21  C   UNL     1      -4.322  -1.208 -33.317  1.00  0.00     0.039 A 
HETATM   22  C   UNL     1      -4.038  -2.536 -33.674  1.00  0.00     0.057 A 
HETATM   23  C   UNL     1      -5.031  -3.253 -34.300  1.00  0.00     0.106 A 
HETATM   24  C   UNL     1      -6.258  -2.701 -34.579  1.00  0.00     0.107 A 
HETATM   25  O   UNL     1      -4.941  -4.547 -34.706  1.00  0.00    -0.323 OA
HETATM   26  C   UNL     1      -6.565  -1.398 -34.246  1.00  0.00     0.070 A 
HETATM   27  O   UNL     1      -7.094  -3.579 -35.193  1.00  0.00    -0.323 OA
HETATM   28  C   UNL     1      -6.252  -4.747 -35.277  1.00  0.00     0.352 A 
BRANCH  21  29
HETATM   29  C   UNL     1      -3.270  -0.396 -32.652  1.00  0.00     0.158 C 
HETATM   30  C   UNL     1      -2.379  -1.067 -31.640  1.00  0.00     0.097 C 
HETATM   31  O   UNL     1      -3.154   0.796 -32.939  1.00  0.00    -0.293 OA
ENDBRANCH  21  29
ENDBRANCH  18  20
ENDBRANCH   1  18
TORSDOF 5
ENDMDL
MODEL 9
REMARK VINA RESULT:      -8.3      2.224      2.969
REMARK  5 active torsions:
REMARK  status: ('A' for Active; 'I' for Inactive)
REMARK    1  A    between atoms: C_2  and  C_3 
REMARK    2  A    between atoms: C_4  and  N_5 
REMARK    3  A    between atoms: N_5  and  C_6 
REMARK    4  A    between atoms: C_7  and  C_8 
REMARK    5  A    between atoms: C_11  and  C_12 
ROOT
HETATM    1  C   UNL     1      -3.753   4.344 -32.077  1.00  0.00     0.113 C 
HETATM    2  C   UNL     1      -5.031   4.156 -32.460  1.00  0.00     0.082 C 
HETATM    3  C   UNL     1      -5.953   5.349 -32.646  1.00  0.00     0.024 C 
HETATM    4  N   UNL     1      -6.719   6.340 -32.800  1.00  0.00    -0.096 N 
ENDROOT
BRANCH   2   5
HETATM    5  C   UNL     1      -5.551   2.845 -32.615  1.00  0.00     0.119 A 
HETATM    6  S   UNL     1      -7.264   2.590 -32.634  1.00  0.00    -0.078 SA
HETATM    7  C   UNL     1      -7.014   0.908 -32.837  1.00  0.00     0.084 A 
HETATM    8  C   UNL     1      -5.662   0.630 -32.878  1.00  0.00     0.075 A 
HETATM    9  N   UNL     1      -4.842   1.742 -32.758  1.00  0.00    -0.239 NA
BRANCH   8  10
HETATM   10  C   UNL     1      -5.091  -0.702 -33.055  1.00  0.00    -0.005 A 
HETATM   11  C   UNL     1      -5.634  -1.557 -34.026  1.00  0.00     0.039 A 
HETATM   12  C   UNL     1      -5.113  -2.839 -34.226  1.00  0.00     0.056 A 
HETATM   13 CL   UNL     1      -5.850  -3.828 -35.439  1.00  0.00    -0.083 Cl
HETATM   14  C   UNL     1      -4.033  -3.281 -33.457  1.00  0.00     0.055 A 
HETATM   15 CL   UNL     1      -3.335  -4.849 -33.647  1.00  0.00    -0.083 Cl
HETATM   16  C   UNL     1      -3.480  -2.435 -32.493  1.00  0.00     0.026 A 
HETATM   17  C   UNL     1      -4.005  -1.153 -32.293  1.00  0.00     0.015 A 
ENDBRANCH   8  10
ENDBRANCH   2   5
BRANCH   1  18
HETATM   18  N   UNL     1      -3.085   5.530 -31.874  1.00  0.00    -0.364 N 
HETATM   19  H   UNL     1      -2.976   6.157 -32.682  1.00  0.00     0.165 HD
BRANCH  18  20
HETATM   20  C   UNL     1      -2.886   6.205 -30.644  1.00  0.00     0.048 A 
HETATM   21  C   UNL     1      -1.569   6.349 -30.117  1.00  0.00     0.039 A 
HETATM   22  C   UNL     1      -1.342   6.966 -28.877  1.00  0.00     0.057 A 
HETATM   23  C   UNL     1      -2.439   7.419 -28.181  1.00  0.00     0.106 A 
HETATM   24  C   UNL     1      -3.716   7.273 -28.666  1.00  0.00     0.107 A 
HETATM   25  O   UNL     1      -2.411   8.048 -26.976  1.00  0.00    -0.323 OA
HETATM   26  C   UNL     1      -3.971   6.667 -29.878  1.00  0.00     0.070 A 
HETATM   27  O   UNL     1      -4.652   7.794 -27.828  1.00  0.00    -0.323 OA
HETATM   28  C   UNL     1      -3.819   8.279 -26.755  1.00  0.00     0.352 A 
BRANCH  21  29
HETATM   29  C   UNL     1      -0.411   5.834 -30.893  1.00  0.00     0.158 C 
HETATM   30  C   UNL     1       0.658   6.807 -31.318  1.00  0.00     0.097 C 
HETATM   31  O   UNL     1      -0.352   4.635 -31.169  1.00  0.00    -0.293 OA
ENDBRANCH  21  29
ENDBRANCH  18  20
ENDBRANCH   1  18
TORSDOF 5
ENDMDL
MODEL 10
REMARK VINA RESULT:      -8.1      6.020      9.090
REMARK  5 active torsions:
REMARK  status: ('A' for Active; 'I' for Inactive)
REMARK    1  A    between atoms: C_2  and  C_3 
REMARK    2  A    between atoms: C_4  and  N_5 
REMARK    3  A    between atoms: N_5  and  C_6 
REMARK    4  A    between atoms: C_7  and  C_8 
REMARK    5  A    between atoms: C_11  and  C_12 
ROOT
HETATM    1  C   UNL     1      -9.310   2.113 -32.158  1.00  0.00     0.113 C 
HETATM    2  C   UNL     1      -8.236   2.634 -31.533  1.00  0.00     0.082 C 
HETATM    3  C   UNL     1      -8.383   3.887 -30.685  1.00  0.00     0.024 C 
HETATM    4  N   UNL     1      -8.506   4.927 -29.981  1.00  0.00    -0.096 N 
ENDROOT
BRANCH   2   5
HETATM    5  C   UNL     1      -6.948   2.071 -31.722  1.00  0.00     0.119 A 
HETATM    6  S   UNL     1      -5.536   3.049 -31.504  1.00  0.00    -0.078 SA
HETATM    7  C   UNL     1      -4.544   1.709 -31.894  1.00  0.00     0.084 A 
HETATM    8  C   UNL     1      -5.325   0.604 -32.169  1.00  0.00     0.075 A 
HETATM    9  N   UNL     1      -6.690   0.822 -32.059  1.00  0.00    -0.239 NA
BRANCH   8  10
HETATM   10  C   UNL     1      -4.807  -0.714 -32.524  1.00  0.00    -0.005 A 
HETATM   11  C   UNL     1      -5.353  -1.390 -33.627  1.00  0.00     0.039 A 
HETATM   12  C   UNL     1      -4.883  -2.653 -34.000  1.00  0.00     0.056 A 
HETATM   13 CL   UNL     1      -5.619  -3.416 -35.366  1.00  0.00    -0.083 Cl
HETATM   14  C   UNL     1      -3.852  -3.255 -33.273  1.00  0.00     0.055 A 
HETATM   15 CL   UNL     1      -3.218  -4.811 -33.673  1.00  0.00    -0.083 Cl
HETATM   16  C   UNL     1      -3.296  -2.588 -32.180  1.00  0.00     0.026 A 
HETATM   17  C   UNL     1      -3.770  -1.325 -31.807  1.00  0.00     0.015 A 
ENDBRANCH   8  10
ENDBRANCH   2   5
BRANCH   1  18
HETATM   18  N   UNL     1     -10.621   2.524 -32.096  1.00  0.00    -0.364 N 
HETATM   19  H   UNL     1     -11.077   2.517 -31.174  1.00  0.00     0.165 HD
BRANCH  18  20
HETATM   20  C   UNL     1     -11.310   3.342 -33.026  1.00  0.00     0.048 A 
HETATM   21  C   UNL     1     -12.372   2.795 -33.803  1.00  0.00     0.039 A 
HETATM   22  C   UNL     1     -13.041   3.563 -34.770  1.00  0.00     0.057 A 
HETATM   23  C   UNL     1     -12.627   4.863 -34.949  1.00  0.00     0.106 A 
HETATM   24  C   UNL     1     -11.593   5.400 -34.221  1.00  0.00     0.107 A 
HETATM   25  O   UNL     1     -13.160   5.753 -35.827  1.00  0.00    -0.323 OA
HETATM   26  C   UNL     1     -10.914   4.670 -33.268  1.00  0.00     0.070 A 
HETATM   27  O   UNL     1     -11.349   6.697 -34.547  1.00  0.00    -0.323 OA
HETATM   28  C   UNL     1     -12.342   6.914 -35.571  1.00  0.00     0.352 A 
BRANCH  21  29
HETATM   29  C   UNL     1     -12.782   1.382 -33.591  1.00  0.00     0.158 C 
HETATM   30  C   UNL     1     -14.234   1.089 -33.320  1.00  0.00     0.097 C 
HETATM   31  O   UNL     1     -11.932   0.492 -33.639  1.00  0.00    -0.293 OA
ENDBRANCH  21  29
ENDBRANCH  18  20
ENDBRANCH   1  18
TORSDOF 5
ENDMDL
