MODEL 1
REMARK VINA RESULT:      -8.7      0.000      0.000
REMARK  5 active torsions:
REMARK  status: ('A' for Active; 'I' for Inactive)
REMARK    1  A    between atoms: C_6  and  S_7 
REMARK    2  A    between atoms: S_7  and  C_8 
REMARK    3  A    between atoms: C_8  and  C_9 
REMARK       I    between atoms: C_9  and  N_10 
REMARK    4  A    between atoms: N_10  and  C_11 
REMARK    5  A    between atoms: C_14  and  C_15 
ROOT
HETATM    1  C   UNL     1      -2.212   4.165 -31.987  1.00  0.00     0.233 C 
HETATM    2  N   UNL     1      -3.098   3.425 -31.233  1.00  0.00    -0.305 N 
HETATM    3  O   UNL     1      -2.162   4.206 -33.214  1.00  0.00    -0.272 OA
HETATM    4  H   UNL     1      -2.998   3.386 -30.229  1.00  0.00     0.171 HD
ENDROOT
BRANCH   2   5
HETATM    5  C   UNL     1      -4.085   2.669 -31.797  1.00  0.00     0.173 A 
HETATM    6  S   UNL     1      -5.594   3.454 -31.916  1.00  0.00    -0.061 SA
HETATM    7  C   UNL     1      -6.239   2.050 -32.672  1.00  0.00     0.085 A 
HETATM    8  C   UNL     1      -5.257   1.081 -32.788  1.00  0.00     0.076 A 
HETATM    9  N   UNL     1      -4.027   1.455 -32.271  1.00  0.00    -0.223 NA
BRANCH   8  10
HETATM   10  C   UNL     1      -5.436  -0.243 -33.387  1.00  0.00    -0.007 A 
HETATM   11  C   UNL     1      -4.394  -1.177 -33.487  1.00  0.00     0.015 A 
HETATM   12  C   UNL     1      -4.614  -2.436 -34.060  1.00  0.00     0.020 A 
HETATM   13  C   UNL     1      -5.879  -2.771 -34.536  1.00  0.00     0.011 A 
HETATM   14 BR   UNL     1      -6.174  -4.472 -35.304  1.00  0.00    -0.051 Br
HETATM   15  C   UNL     1      -6.927  -1.861 -34.445  1.00  0.00     0.020 A 
HETATM   16  C   UNL     1      -6.704  -0.606 -33.872  1.00  0.00     0.015 A 
ENDBRANCH   8  10
ENDBRANCH   2   5
BRANCH   1  17
HETATM   17  C   UNL     1      -1.306   5.066 -31.164  1.00  0.00     0.184 C 
BRANCH  17  18
HETATM   18  S   UNL     1      -2.124   6.619 -30.694  1.00  0.00    -0.094 SA
BRANCH  18  19
HETATM   19  C   UNL     1      -1.036   7.156 -29.429  1.00  0.00     0.136 A 
HETATM   20  S   UNL     1       0.131   6.120 -28.728  1.00  0.00    -0.061 SA
HETATM   21  C   UNL     1       0.645   7.403 -27.700  1.00  0.00     0.036 A 
HETATM   22  C   UNL     1      -0.124   8.537 -27.973  1.00  0.00     0.075 A 
HETATM   23  C   UNL     1       1.653   7.410 -26.721  1.00  0.00     0.021 A 
HETATM   24  C   UNL     1       0.128   9.719 -27.248  1.00  0.00     0.033 A 
HETATM   25  N   UNL     1      -1.085   8.378 -28.957  1.00  0.00    -0.233 NA
HETATM   26  C   UNL     1       1.130   9.736 -26.272  1.00  0.00     0.002 A 
HETATM   27  C   UNL     1       1.881   8.593 -26.013  1.00  0.00     0.002 A 
ENDBRANCH  18  19
ENDBRANCH  17  18
ENDBRANCH   1  17
TORSDOF 5
ENDMDL
MODEL 2
REMARK VINA RESULT:      -8.7      5.491      8.118
REMARK  5 active torsions:
REMARK  status: ('A' for Active; 'I' for Inactive)
REMARK    1  A    between atoms: C_6  and  S_7 
REMARK    2  A    between atoms: S_7  and  C_8 
REMARK    3  A    between atoms: C_8  and  C_9 
REMARK       I    between atoms: C_9  and  N_10 
REMARK    4  A    between atoms: N_10  and  C_11 
REMARK    5  A    between atoms: C_14  and  C_15 
ROOT
HETATM    1  C   UNL     1      -6.279   4.932 -32.991  1.00  0.00     0.233 C 
HETATM    2  N   UNL     1      -5.705   4.158 -32.005  1.00  0.00    -0.305 N 
HETATM    3  O   UNL     1      -6.313   4.669 -34.191  1.00  0.00    -0.272 OA
HETATM    4  H   UNL     1      -5.647   4.505 -31.059  1.00  0.00     0.171 HD
ENDROOT
BRANCH   2   5
HETATM    5  C   UNL     1      -5.137   2.944 -32.265  1.00  0.00     0.173 A 
HETATM    6  S   UNL     1      -3.528   2.788 -31.724  1.00  0.00    -0.061 SA
HETATM    7  C   UNL     1      -3.513   1.170 -32.308  1.00  0.00     0.085 A 
HETATM    8  C   UNL     1      -4.738   0.857 -32.869  1.00  0.00     0.076 A 
HETATM    9  N   UNL     1      -5.656   1.895 -32.841  1.00  0.00    -0.223 NA
BRANCH   8  10
HETATM   10  C   UNL     1      -5.098  -0.433 -33.461  1.00  0.00    -0.007 A 
HETATM   11  C   UNL     1      -4.203  -1.511 -33.532  1.00  0.00     0.015 A 
HETATM   12  C   UNL     1      -4.595  -2.729 -34.100  1.00  0.00     0.020 A 
HETATM   13  C   UNL     1      -5.886  -2.880 -34.599  1.00  0.00     0.011 A 
HETATM   14 BR   UNL     1      -6.414  -4.528 -35.359  1.00  0.00    -0.051 Br
HETATM   15  C   UNL     1      -6.791  -1.825 -34.537  1.00  0.00     0.020 A 
HETATM   16  C   UNL     1      -6.396  -0.610 -33.970  1.00  0.00     0.015 A 
ENDBRANCH   8  10
ENDBRANCH   2   5
BRANCH   1  17
HETATM   17  C   UNL     1      -7.003   6.160 -32.467  1.00  0.00     0.184 C 
BRANCH  17  18
HETATM   18  S   UNL     1      -8.130   5.761 -31.098  1.00  0.00    -0.094 SA
BRANCH  18  19
HETATM   19  C   UNL     1      -8.896   4.327 -31.754  1.00  0.00     0.136 A 
HETATM   20  S   UNL     1     -10.162   4.412 -32.900  1.00  0.00    -0.061 SA
HETATM   21  C   UNL     1     -10.250   2.692 -32.925  1.00  0.00     0.036 A 
HETATM   22  C   UNL     1      -9.294   2.178 -32.045  1.00  0.00     0.075 A 
HETATM   23  C   UNL     1     -11.100   1.854 -33.666  1.00  0.00     0.021 A 
HETATM   24  C   UNL     1      -9.181   0.780 -31.906  1.00  0.00     0.033 A 
HETATM   25  N   UNL     1      -8.534   3.124 -31.378  1.00  0.00    -0.233 NA
HETATM   26  C   UNL     1     -10.023  -0.062 -32.640  1.00  0.00     0.002 A 
HETATM   27  C   UNL     1     -10.970   0.471 -33.508  1.00  0.00     0.002 A 
ENDBRANCH  18  19
ENDBRANCH  17  18
ENDBRANCH   1  17
TORSDOF 5
ENDMDL
MODEL 3
REMARK VINA RESULT:      -8.6      4.256     10.750
REMARK  5 active torsions:
REMARK  status: ('A' for Active; 'I' for Inactive)
REMARK    1  A    between atoms: C_6  and  S_7 
REMARK    2  A    between atoms: S_7  and  C_8 
REMARK    3  A    between atoms: C_8  and  C_9 
REMARK       I    between atoms: C_9  and  N_10 
REMARK    4  A    between atoms: N_10  and  C_11 
REMARK    5  A    between atoms: C_14  and  C_15 
ROOT
HETATM    1  C   UNL     1      -5.867   2.759 -32.036  1.00  0.00     0.233 C 
HETATM    2  N   UNL     1      -4.840   3.001 -32.922  1.00  0.00    -0.305 N 
HETATM    3  O   UNL     1      -6.150   3.436 -31.050  1.00  0.00    -0.272 OA
HETATM    4  H   UNL     1      -4.630   2.333 -33.649  1.00  0.00     0.171 HD
ENDROOT
BRANCH   2   5
HETATM    5  C   UNL     1      -4.027   4.094 -32.820  1.00  0.00     0.173 A 
HETATM    6  S   UNL     1      -4.101   5.155 -34.152  1.00  0.00    -0.061 SA
HETATM    7  C   UNL     1      -2.969   6.184 -33.365  1.00  0.00     0.085 A 
HETATM    8  C   UNL     1      -2.618   5.652 -32.138  1.00  0.00     0.076 A 
HETATM    9  N   UNL     1      -3.233   4.444 -31.846  1.00  0.00    -0.223 NA
BRANCH   8  10
HETATM   10  C   UNL     1      -1.683   6.254 -31.185  1.00  0.00    -0.007 A 
HETATM   11  C   UNL     1      -0.316   6.409 -31.459  1.00  0.00     0.015 A 
HETATM   12  C   UNL     1       0.539   7.000 -30.520  1.00  0.00     0.020 A 
HETATM   13  C   UNL     1       0.032   7.444 -29.301  1.00  0.00     0.011 A 
HETATM   14 BR   UNL     1       1.187   8.246 -28.039  1.00  0.00    -0.051 Br
HETATM   15  C   UNL     1      -1.321   7.303 -29.010  1.00  0.00     0.020 A 
HETATM   16  C   UNL     1      -2.171   6.712 -29.949  1.00  0.00     0.015 A 
ENDBRANCH   8  10
ENDBRANCH   2   5
BRANCH   1  17
HETATM   17  C   UNL     1      -6.753   1.587 -32.426  1.00  0.00     0.184 C 
BRANCH  17  18
HETATM   18  S   UNL     1      -6.721   1.268 -34.215  1.00  0.00    -0.094 SA
BRANCH  18  19
HETATM   19  C   UNL     1      -6.111  -0.375 -34.212  1.00  0.00     0.136 A 
HETATM   20  S   UNL     1      -4.601  -0.787 -33.522  1.00  0.00    -0.061 SA
HETATM   21  C   UNL     1      -4.852  -2.433 -33.965  1.00  0.00     0.036 A 
HETATM   22  C   UNL     1      -6.085  -2.543 -34.614  1.00  0.00     0.075 A 
HETATM   23  C   UNL     1      -4.023  -3.548 -33.756  1.00  0.00     0.021 A 
HETATM   24  C   UNL     1      -6.505  -3.811 -35.063  1.00  0.00     0.033 A 
HETATM   25  N   UNL     1      -6.788  -1.359 -34.754  1.00  0.00    -0.233 NA
HETATM   26  C   UNL     1      -5.686  -4.927 -34.860  1.00  0.00     0.002 A 
HETATM   27  C   UNL     1      -4.460  -4.794 -34.215  1.00  0.00     0.002 A 
ENDBRANCH  18  19
ENDBRANCH  17  18
ENDBRANCH   1  17
TORSDOF 5
ENDMDL
MODEL 4
REMARK VINA RESULT:      -8.6      4.122     11.276
REMARK  5 active torsions:
REMARK  status: ('A' for Active; 'I' for Inactive)
REMARK    1  A    between atoms: C_6  and  S_7 
REMARK    2  A    between atoms: S_7  and  C_8 
REMARK    3  A    between atoms: C_8  and  C_9 
REMARK       I    between atoms: C_9  and  N_10 
REMARK    4  A    between atoms: N_10  and  C_11 
REMARK    5  A    between atoms: C_14  and  C_15 
ROOT
HETATM    1  C   UNL     1      -4.242   3.307 -32.340  1.00  0.00     0.233 C 
HETATM    2  N   UNL     1      -2.871   3.360 -32.201  1.00  0.00    -0.305 N 
HETATM    3  O   UNL     1      -5.014   4.261 -32.277  1.00  0.00    -0.272 OA
HETATM    4  H   UNL     1      -2.332   2.507 -32.175  1.00  0.00     0.171 HD
ENDROOT
BRANCH   2   5
HETATM    5  C   UNL     1      -2.198   4.534 -32.021  1.00  0.00     0.173 A 
HETATM    6  S   UNL     1      -1.682   5.279 -33.466  1.00  0.00    -0.061 SA
HETATM    7  C   UNL     1      -1.025   6.571 -32.538  1.00  0.00     0.085 A 
HETATM    8  C   UNL     1      -1.251   6.348 -31.191  1.00  0.00     0.076 A 
HETATM    9  N   UNL     1      -1.921   5.166 -30.915  1.00  0.00    -0.223 NA
BRANCH   8  10
HETATM   10  C   UNL     1      -0.841   7.237 -30.102  1.00  0.00    -0.007 A 
HETATM   11  C   UNL     1      -1.686   8.222 -29.568  1.00  0.00     0.015 A 
HETATM   12  C   UNL     1      -1.253   9.044 -28.520  1.00  0.00     0.020 A 
HETATM   13  C   UNL     1       0.027   8.885 -27.996  1.00  0.00     0.011 A 
HETATM   14 BR   UNL     1       0.606   9.993 -26.577  1.00  0.00    -0.051 Br
HETATM   15  C   UNL     1       0.880   7.914 -28.508  1.00  0.00     0.020 A 
HETATM   16  C   UNL     1       0.445   7.096 -29.554  1.00  0.00     0.015 A 
ENDBRANCH   8  10
ENDBRANCH   2   5
BRANCH   1  17
HETATM   17  C   UNL     1      -4.772   1.930 -32.699  1.00  0.00     0.184 C 
BRANCH  17  18
HETATM   18  S   UNL     1      -3.598   0.609 -32.272  1.00  0.00    -0.094 SA
BRANCH  18  19
HETATM   19  C   UNL     1      -4.394  -0.753 -33.036  1.00  0.00     0.136 A 
HETATM   20  S   UNL     1      -6.016  -0.679 -33.572  1.00  0.00    -0.061 SA
HETATM   21  C   UNL     1      -5.909  -2.312 -34.110  1.00  0.00     0.036 A 
HETATM   22  C   UNL     1      -4.626  -2.795 -33.835  1.00  0.00     0.075 A 
HETATM   23  C   UNL     1      -6.884  -3.112 -34.730  1.00  0.00     0.021 A 
HETATM   24  C   UNL     1      -4.307  -4.119 -34.198  1.00  0.00     0.033 A 
HETATM   25  N   UNL     1      -3.776  -1.896 -33.215  1.00  0.00    -0.233 NA
HETATM   26  C   UNL     1      -5.271  -4.922 -34.815  1.00  0.00     0.002 A 
HETATM   27  C   UNL     1      -6.543  -4.423 -35.076  1.00  0.00     0.002 A 
ENDBRANCH  18  19
ENDBRANCH  17  18
ENDBRANCH   1  17
TORSDOF 5
ENDMDL
MODEL 5
REMARK VINA RESULT:      -8.5      4.051     10.514
REMARK  5 active torsions:
REMARK  status: ('A' for Active; 'I' for Inactive)
REMARK    1  A    between atoms: C_6  and  S_7 
REMARK    2  A    between atoms: S_7  and  C_8 
REMARK    3  A    between atoms: C_8  and  C_9 
REMARK       I    between atoms: C_9  and  N_10 
REMARK    4  A    between atoms: N_10  and  C_11 
REMARK    5  A    between atoms: C_14  and  C_15 
ROOT
HETATM    1  C   UNL     1      -5.286   4.232 -33.538  1.00  0.00     0.233 C 
HETATM    2  N   UNL     1      -4.131   3.635 -33.082  1.00  0.00    -0.305 N 
HETATM    3  O   UNL     1      -5.475   5.439 -33.670  1.00  0.00    -0.272 OA
HETATM    4  H   UNL     1      -4.106   2.639 -32.920  1.00  0.00     0.171 HD
ENDROOT
BRANCH   2   5
HETATM    5  C   UNL     1      -3.013   4.352 -32.764  1.00  0.00     0.173 A 
HETATM    6  S   UNL     1      -2.112   4.887 -34.109  1.00  0.00    -0.061 SA
HETATM    7  C   UNL     1      -1.010   5.657 -33.035  1.00  0.00     0.085 A 
HETATM    8  C   UNL     1      -1.408   5.458 -31.725  1.00  0.00     0.076 A 
HETATM    9  N   UNL     1      -2.560   4.698 -31.591  1.00  0.00    -0.223 NA
BRANCH   8  10
HETATM   10  C   UNL     1      -0.719   5.973 -30.540  1.00  0.00    -0.007 A 
HETATM   11  C   UNL     1       0.129   5.180 -29.752  1.00  0.00     0.015 A 
HETATM   12  C   UNL     1       0.774   5.719 -28.632  1.00  0.00     0.020 A 
HETATM   13  C   UNL     1       0.578   7.055 -28.292  1.00  0.00     0.011 A 
HETATM   14 BR   UNL     1       1.455   7.780 -26.783  1.00  0.00    -0.051 Br
HETATM   15  C   UNL     1      -0.256   7.860 -29.061  1.00  0.00     0.020 A 
HETATM   16  C   UNL     1      -0.898   7.319 -30.178  1.00  0.00     0.015 A 
ENDBRANCH   8  10
ENDBRANCH   2   5
BRANCH   1  17
HETATM   17  C   UNL     1      -6.349   3.247 -33.995  1.00  0.00     0.184 C 
BRANCH  17  18
HETATM   18  S   UNL     1      -7.009   2.261 -32.617  1.00  0.00    -0.094 SA
BRANCH  18  19
HETATM   19  C   UNL     1      -6.650   0.650 -33.207  1.00  0.00     0.136 A 
HETATM   20  S   UNL     1      -7.864  -0.393 -33.810  1.00  0.00    -0.061 SA
HETATM   21  C   UNL     1      -6.673  -1.602 -34.104  1.00  0.00     0.036 A 
HETATM   22  C   UNL     1      -5.424  -1.111 -33.713  1.00  0.00     0.075 A 
HETATM   23  C   UNL     1      -6.826  -2.893 -34.639  1.00  0.00     0.021 A 
HETATM   24  C   UNL     1      -4.291  -1.935 -33.869  1.00  0.00     0.033 A 
HETATM   25  N   UNL     1      -5.429   0.173 -33.196  1.00  0.00    -0.233 NA
HETATM   26  C   UNL     1      -4.434  -3.221 -34.401  1.00  0.00     0.002 A 
HETATM   27  C   UNL     1      -5.688  -3.691 -34.780  1.00  0.00     0.002 A 
ENDBRANCH  18  19
ENDBRANCH  17  18
ENDBRANCH   1  17
TORSDOF 5
ENDMDL
MODEL 6
REMARK VINA RESULT:      -8.5      4.028     10.973
REMARK  5 active torsions:
REMARK  status: ('A' for Active; 'I' for Inactive)
REMARK    1  A    between atoms: C_6  and  S_7 
REMARK    2  A    between atoms: S_7  and  C_8 
REMARK    3  A    between atoms: C_8  and  C_9 
REMARK       I    between atoms: C_9  and  N_10 
REMARK    4  A    between atoms: N_10  and  C_11 
REMARK    5  A    between atoms: C_14  and  C_15 
ROOT
HETATM    1  C   UNL     1      -3.438   3.564 -31.620  1.00  0.00     0.233 C 
HETATM    2  N   UNL     1      -3.245   4.927 -31.681  1.00  0.00    -0.305 N 
HETATM    3  O   UNL     1      -2.610   2.729 -31.263  1.00  0.00    -0.272 OA
HETATM    4  H   UNL     1      -3.958   5.522 -32.077  1.00  0.00     0.171 HD
ENDROOT
BRANCH   2   5
HETATM    5  C   UNL     1      -2.079   5.519 -31.286  1.00  0.00     0.173 A 
HETATM    6  S   UNL     1      -0.978   5.820 -32.552  1.00  0.00    -0.061 SA
HETATM    7  C   UNL     1       0.100   6.530 -31.414  1.00  0.00     0.085 A 
HETATM    8  C   UNL     1      -0.457   6.495 -30.148  1.00  0.00     0.076 A 
HETATM    9  N   UNL     1      -1.710   5.902 -30.096  1.00  0.00    -0.223 NA
BRANCH   8  10
HETATM   10  C   UNL     1       0.166   7.015 -28.929  1.00  0.00    -0.007 A 
HETATM   11  C   UNL     1       1.032   8.119 -28.932  1.00  0.00     0.015 A 
HETATM   12  C   UNL     1       1.598   8.586 -27.739  1.00  0.00     0.020 A 
HETATM   13  C   UNL     1       1.300   7.955 -26.534  1.00  0.00     0.011 A 
HETATM   14 BR   UNL     1       2.061   8.592 -24.926  1.00  0.00    -0.051 Br
HETATM   15  C   UNL     1       0.442   6.861 -26.508  1.00  0.00     0.020 A 
HETATM   16  C   UNL     1      -0.121   6.396 -27.701  1.00  0.00     0.015 A 
ENDBRANCH   8  10
ENDBRANCH   2   5
BRANCH   1  17
HETATM   17  C   UNL     1      -4.858   3.128 -31.942  1.00  0.00     0.184 C 
BRANCH  17  18
HETATM   18  S   UNL     1      -5.459   1.848 -30.800  1.00  0.00    -0.094 SA
BRANCH  18  19
HETATM   19  C   UNL     1      -5.446   0.462 -31.873  1.00  0.00     0.136 A 
HETATM   20  S   UNL     1      -4.011  -0.393 -32.242  1.00  0.00    -0.061 SA
HETATM   21  C   UNL     1      -4.910  -1.453 -33.260  1.00  0.00     0.036 A 
HETATM   22  C   UNL     1      -6.253  -1.067 -33.241  1.00  0.00     0.075 A 
HETATM   23  C   UNL     1      -4.464  -2.546 -34.023  1.00  0.00     0.021 A 
HETATM   24  C   UNL     1      -7.182  -1.802 -34.005  1.00  0.00     0.033 A 
HETATM   25  N   UNL     1      -6.542   0.033 -32.451  1.00  0.00    -0.233 NA
HETATM   26  C   UNL     1      -6.748  -2.892 -34.767  1.00  0.00     0.002 A 
HETATM   27  C   UNL     1      -5.405  -3.256 -34.774  1.00  0.00     0.002 A 
ENDBRANCH  18  19
ENDBRANCH  17  18
ENDBRANCH   1  17
TORSDOF 5
ENDMDL
MODEL 7
REMARK VINA RESULT:      -8.3      2.501      3.365
REMARK  5 active torsions:
REMARK  status: ('A' for Active; 'I' for Inactive)
REMARK    1  A    between atoms: C_6  and  S_7 
REMARK    2  A    between atoms: S_7  and  C_8 
REMARK    3  A    between atoms: C_8  and  C_9 
REMARK       I    between atoms: C_9  and  N_10 
REMARK    4  A    between atoms: N_10  and  C_11 
REMARK    5  A    between atoms: C_14  and  C_15 
ROOT
HETATM    1  C   UNL     1      -6.030   4.407 -30.563  1.00  0.00     0.233 C 
HETATM    2  N   UNL     1      -5.632   4.078 -31.841  1.00  0.00    -0.305 N 
HETATM    3  O   UNL     1      -5.987   3.672 -29.579  1.00  0.00    -0.272 OA
HETATM    4  H   UNL     1      -5.794   4.721 -32.602  1.00  0.00     0.171 HD
ENDROOT
BRANCH   2   5
HETATM    5  C   UNL     1      -5.080   2.867 -32.147  1.00  0.00     0.173 A 
HETATM    6  S   UNL     1      -3.458   2.687 -31.654  1.00  0.00    -0.061 SA
HETATM    7  C   UNL     1      -3.471   1.083 -32.279  1.00  0.00     0.085 A 
HETATM    8  C   UNL     1      -4.714   0.794 -32.815  1.00  0.00     0.076 A 
HETATM    9  N   UNL     1      -5.623   1.837 -32.736  1.00  0.00    -0.223 NA
BRANCH   8  10
HETATM   10  C   UNL     1      -5.099  -0.478 -33.430  1.00  0.00    -0.007 A 
HETATM   11  C   UNL     1      -4.243  -1.589 -33.475  1.00  0.00     0.015 A 
HETATM   12  C   UNL     1      -4.660  -2.788 -34.066  1.00  0.00     0.020 A 
HETATM   13  C   UNL     1      -5.936  -2.886 -34.615  1.00  0.00     0.011 A 
HETATM   14 BR   UNL     1      -6.496  -4.509 -35.407  1.00  0.00    -0.051 Br
HETATM   15  C   UNL     1      -6.801  -1.798 -34.579  1.00  0.00     0.020 A 
HETATM   16  C   UNL     1      -6.382  -0.603 -33.989  1.00  0.00     0.015 A 
ENDBRANCH   8  10
ENDBRANCH   2   5
BRANCH   1  17
HETATM   17  C   UNL     1      -6.457   5.856 -30.404  1.00  0.00     0.184 C 
BRANCH  17  18
HETATM   18  S   UNL     1      -5.793   6.916 -31.723  1.00  0.00    -0.094 SA
BRANCH  18  19
HETATM   19  C   UNL     1      -4.113   6.988 -31.227  1.00  0.00     0.136 A 
HETATM   20  S   UNL     1      -3.596   7.913 -29.885  1.00  0.00    -0.061 SA
HETATM   21  C   UNL     1      -1.973   7.412 -30.170  1.00  0.00     0.036 A 
HETATM   22  C   UNL     1      -1.950   6.567 -31.283  1.00  0.00     0.075 A 
HETATM   23  C   UNL     1      -0.802   7.741 -29.465  1.00  0.00     0.021 A 
HETATM   24  C   UNL     1      -0.716   6.027 -31.700  1.00  0.00     0.033 A 
HETATM   25  N   UNL     1      -3.178   6.340 -31.880  1.00  0.00    -0.233 NA
HETATM   26  C   UNL     1       0.454   6.348 -31.004  1.00  0.00     0.002 A 
HETATM   27  C   UNL     1       0.408   7.195 -29.901  1.00  0.00     0.002 A 
ENDBRANCH  18  19
ENDBRANCH  17  18
ENDBRANCH   1  17
TORSDOF 5
ENDMDL
MODEL 8
REMARK VINA RESULT:      -8.2      4.152      5.028
REMARK  5 active torsions:
REMARK  status: ('A' for Active; 'I' for Inactive)
REMARK    1  A    between atoms: C_6  and  S_7 
REMARK    2  A    between atoms: S_7  and  C_8 
REMARK    3  A    between atoms: C_8  and  C_9 
REMARK       I    between atoms: C_9  and  N_10 
REMARK    4  A    between atoms: N_10  and  C_11 
REMARK    5  A    between atoms: C_14  and  C_15 
ROOT
HETATM    1  C   UNL     1      -7.517   4.004 -30.991  1.00  0.00     0.233 C 
HETATM    2  N   UNL     1      -7.096   3.814 -32.290  1.00  0.00    -0.305 N 
HETATM    3  O   UNL     1      -8.064   3.167 -30.277  1.00  0.00    -0.272 OA
HETATM    4  H   UNL     1      -6.742   4.593 -32.826  1.00  0.00     0.171 HD
ENDROOT
BRANCH   2   5
HETATM    5  C   UNL     1      -7.203   2.610 -32.926  1.00  0.00     0.173 A 
HETATM    6  S   UNL     1      -8.547   2.480 -33.968  1.00  0.00    -0.061 SA
HETATM    7  C   UNL     1      -8.040   0.888 -34.382  1.00  0.00     0.085 A 
HETATM    8  C   UNL     1      -6.878   0.569 -33.703  1.00  0.00     0.076 A 
HETATM    9  N   UNL     1      -6.417   1.572 -32.864  1.00  0.00    -0.223 NA
BRANCH   8  10
HETATM   10  C   UNL     1      -6.151  -0.698 -33.810  1.00  0.00    -0.007 A 
HETATM   11  C   UNL     1      -6.628  -1.785 -34.558  1.00  0.00     0.015 A 
HETATM   12  C   UNL     1      -5.893  -2.974 -34.639  1.00  0.00     0.020 A 
HETATM   13  C   UNL     1      -4.674  -3.085 -33.975  1.00  0.00     0.011 A 
HETATM   14 BR   UNL     1      -3.682  -4.690 -34.092  1.00  0.00    -0.051 Br
HETATM   15  C   UNL     1      -4.181  -2.019 -33.230  1.00  0.00     0.020 A 
HETATM   16  C   UNL     1      -4.918  -0.833 -33.151  1.00  0.00     0.015 A 
ENDBRANCH   8  10
ENDBRANCH   2   5
BRANCH   1  17
HETATM   17  C   UNL     1      -7.153   5.363 -30.418  1.00  0.00     0.184 C 
BRANCH  17  18
HETATM   18  S   UNL     1      -5.614   5.312 -29.453  1.00  0.00    -0.094 SA
BRANCH  18  19
HETATM   19  C   UNL     1      -4.455   5.644 -30.726  1.00  0.00     0.136 A 
HETATM   20  S   UNL     1      -3.801   7.204 -30.981  1.00  0.00    -0.061 SA
HETATM   21  C   UNL     1      -2.878   6.597 -32.302  1.00  0.00     0.036 A 
HETATM   22  C   UNL     1      -3.144   5.232 -32.450  1.00  0.00     0.075 A 
HETATM   23  C   UNL     1      -1.984   7.273 -33.150  1.00  0.00     0.021 A 
HETATM   24  C   UNL     1      -2.489   4.520 -33.475  1.00  0.00     0.033 A 
HETATM   25  N   UNL     1      -4.052   4.705 -31.548  1.00  0.00    -0.233 NA
HETATM   26  C   UNL     1      -1.597   5.185 -34.323  1.00  0.00     0.002 A 
HETATM   27  C   UNL     1      -1.350   6.545 -34.160  1.00  0.00     0.002 A 
ENDBRANCH  18  19
ENDBRANCH  17  18
ENDBRANCH   1  17
TORSDOF 5
ENDMDL
MODEL 9
REMARK VINA RESULT:      -7.9      6.318     10.058
REMARK  5 active torsions:
REMARK  status: ('A' for Active; 'I' for Inactive)
REMARK    1  A    between atoms: C_6  and  S_7 
REMARK    2  A    between atoms: S_7  and  C_8 
REMARK    3  A    between atoms: C_8  and  C_9 
REMARK       I    between atoms: C_9  and  N_10 
REMARK    4  A    between atoms: N_10  and  C_11 
REMARK    5  A    between atoms: C_14  and  C_15 
ROOT
HETATM    1  C   UNL     1      -8.916   3.871 -31.261  1.00  0.00     0.233 C 
HETATM    2  N   UNL     1      -8.083   3.893 -32.360  1.00  0.00    -0.305 N 
HETATM    3  O   UNL     1      -8.962   2.991 -30.404  1.00  0.00    -0.272 OA
HETATM    4  H   UNL     1      -8.186   4.615 -33.058  1.00  0.00     0.171 HD
ENDROOT
BRANCH   2   5
HETATM    5  C   UNL     1      -7.149   2.924 -32.590  1.00  0.00     0.173 A 
HETATM    6  S   UNL     1      -5.556   3.367 -32.174  1.00  0.00    -0.061 SA
HETATM    7  C   UNL     1      -5.021   1.804 -32.657  1.00  0.00     0.085 A 
HETATM    8  C   UNL     1      -6.095   1.050 -33.095  1.00  0.00     0.076 A 
HETATM    9  N   UNL     1      -7.310   1.716 -33.056  1.00  0.00    -0.223 NA
BRANCH   8  10
HETATM   10  C   UNL     1      -6.025  -0.332 -33.576  1.00  0.00    -0.007 A 
HETATM   11  C   UNL     1      -7.152  -1.037 -34.024  1.00  0.00     0.015 A 
HETATM   12  C   UNL     1      -7.034  -2.355 -34.483  1.00  0.00     0.020 A 
HETATM   13  C   UNL     1      -5.788  -2.976 -34.500  1.00  0.00     0.011 A 
HETATM   14 BR   UNL     1      -5.633  -4.753 -35.127  1.00  0.00    -0.051 Br
HETATM   15  C   UNL     1      -4.658  -2.295 -34.063  1.00  0.00     0.020 A 
HETATM   16  C   UNL     1      -4.779  -0.980 -33.605  1.00  0.00     0.015 A 
ENDBRANCH   8  10
ENDBRANCH   2   5
BRANCH   1  17
HETATM   17  C   UNL     1      -9.759   5.125 -31.102  1.00  0.00     0.184 C 
BRANCH  17  18
HETATM   18  S   UNL     1     -10.391   5.733 -32.694  1.00  0.00    -0.094 SA
BRANCH  18  19
HETATM   19  C   UNL     1     -11.499   4.433 -33.090  1.00  0.00     0.136 A 
HETATM   20  S   UNL     1     -11.272   3.423 -34.451  1.00  0.00    -0.061 SA
HETATM   21  C   UNL     1     -12.708   2.562 -34.047  1.00  0.00     0.036 A 
HETATM   22  C   UNL     1     -13.257   3.119 -32.888  1.00  0.00     0.075 A 
HETATM   23  C   UNL     1     -13.308   1.474 -34.702  1.00  0.00     0.021 A 
HETATM   24  C   UNL     1     -14.443   2.565 -32.366  1.00  0.00     0.033 A 
HETATM   25  N   UNL     1     -12.560   4.191 -32.359  1.00  0.00    -0.233 NA
HETATM   26  C   UNL     1     -15.048   1.482 -33.011  1.00  0.00     0.002 A 
HETATM   27  C   UNL     1     -14.486   0.945 -34.165  1.00  0.00     0.002 A 
ENDBRANCH  18  19
ENDBRANCH  17  18
ENDBRANCH   1  17
TORSDOF 5
ENDMDL
MODEL 10
REMARK VINA RESULT:      -7.9      1.815      2.538
REMARK  5 active torsions:
REMARK  status: ('A' for Active; 'I' for Inactive)
REMARK    1  A    between atoms: C_6  and  S_7 
REMARK    2  A    between atoms: S_7  and  C_8 
REMARK    3  A    between atoms: C_8  and  C_9 
REMARK       I    between atoms: C_9  and  N_10 
REMARK    4  A    between atoms: N_10  and  C_11 
REMARK    5  A    between atoms: C_14  and  C_15 
ROOT
HETATM    1  C   UNL     1      -2.228   4.225 -32.114  1.00  0.00     0.233 C 
HETATM    2  N   UNL     1      -3.016   3.441 -31.297  1.00  0.00    -0.305 N 
HETATM    3  O   UNL     1      -2.318   4.317 -33.336  1.00  0.00    -0.272 OA
HETATM    4  H   UNL     1      -2.803   3.362 -30.314  1.00  0.00     0.171 HD
ENDROOT
BRANCH   2   5
HETATM    5  C   UNL     1      -4.053   2.695 -31.778  1.00  0.00     0.173 A 
HETATM    6  S   UNL     1      -5.568   3.475 -31.723  1.00  0.00    -0.061 SA
HETATM    7  C   UNL     1      -6.283   2.087 -32.448  1.00  0.00     0.085 A 
HETATM    8  C   UNL     1      -5.315   1.127 -32.688  1.00  0.00     0.076 A 
HETATM    9  N   UNL     1      -4.040   1.495 -32.289  1.00  0.00    -0.223 NA
BRANCH   8  10
HETATM   10  C   UNL     1      -5.550  -0.181 -33.302  1.00  0.00    -0.007 A 
HETATM   11  C   UNL     1      -6.784  -0.546 -33.862  1.00  0.00     0.015 A 
HETATM   12  C   UNL     1      -6.958  -1.806 -34.447  1.00  0.00     0.020 A 
HETATM   13  C   UNL     1      -5.900  -2.711 -34.479  1.00  0.00     0.011 A 
HETATM   14 BR   UNL     1      -6.138  -4.409 -35.274  1.00  0.00    -0.051 Br
HETATM   15  C   UNL     1      -4.668  -2.369 -33.933  1.00  0.00     0.020 A 
HETATM   16  C   UNL     1      -4.497  -1.110 -33.349  1.00  0.00     0.015 A 
ENDBRANCH   8  10
ENDBRANCH   2   5
BRANCH   1  17
HETATM   17  C   UNL     1      -1.243   5.103 -31.360  1.00  0.00     0.184 C 
BRANCH  17  18
HETATM   18  S   UNL     1      -1.625   6.872 -31.539  1.00  0.00    -0.094 SA
BRANCH  18  19
HETATM   19  C   UNL     1      -2.192   7.217 -29.917  1.00  0.00     0.136 A 
HETATM   20  S   UNL     1      -3.648   8.065 -29.620  1.00  0.00    -0.061 SA
HETATM   21  C   UNL     1      -3.374   7.933 -27.924  1.00  0.00     0.036 A 
HETATM   22  C   UNL     1      -2.176   7.244 -27.712  1.00  0.00     0.075 A 
HETATM   23  C   UNL     1      -4.157   8.403 -26.856  1.00  0.00     0.021 A 
HETATM   24  C   UNL     1      -1.752   7.012 -26.388  1.00  0.00     0.033 A 
HETATM   25  N   UNL     1      -1.510   6.849 -28.860  1.00  0.00    -0.233 NA
HETATM   26  C   UNL     1      -2.524   7.476 -25.319  1.00  0.00     0.002 A 
HETATM   27  C   UNL     1      -3.712   8.163 -25.553  1.00  0.00     0.002 A 
ENDBRANCH  18  19
ENDBRANCH  17  18
ENDBRANCH   1  17
TORSDOF 5
ENDMDL
