MODEL 1
REMARK VINA RESULT:      -8.5      0.000      0.000
REMARK  9 active torsions:
REMARK  status: ('A' for Active; 'I' for Inactive)
REMARK    1  A    between atoms: C_2  and  N_3 
REMARK    2  A    between atoms: C_2  and  C_23 
REMARK       I    between atoms: N_3  and  C_4 
REMARK       I    between atoms: C_4  and  N_5 
REMARK    3  A    between atoms: N_5  and  C_6 
REMARK    4  A    between atoms: C_6  and  C_7 
REMARK    5  A    between atoms: C_7  and  N_8 
REMARK    6  A    between atoms: C_7  and  C_14 
REMARK    7  A    between atoms: C_16  and  O_17 
REMARK    8  A    between atoms: C_23  and  C_24 
REMARK    9  A    between atoms: C_27  and  O_28 
ROOT
HETATM    1  N   UNL     1      -8.462   0.787 -34.706  1.00  0.00    -0.339 N 
HETATM    2  C   UNL     1      -9.499   1.385 -34.058  1.00  0.00     0.316 C 
HETATM    3  N   UNL     1      -9.810   2.604 -34.583  1.00  0.00    -0.341 N 
HETATM    4  O   UNL     1     -10.128   0.920 -33.116  1.00  0.00    -0.248 OA
HETATM    5  H   UNL     1      -7.911   1.401 -35.291  1.00  0.00     0.164 HD
HETATM    6  H   UNL     1      -9.419   2.844 -35.486  1.00  0.00     0.164 HD
ENDROOT
BRANCH   3   7
HETATM    7  C   UNL     1     -10.715   3.548 -33.940  1.00  0.00     0.162 C 
BRANCH   7   8
HETATM    8  C   UNL     1     -12.110   3.754 -34.611  1.00  0.00     0.238 C 
BRANCH   8   9
HETATM    9  N   UNL     1     -12.633   5.171 -34.403  1.00  0.00    -0.061 N 
HETATM   10  H   UNL     1     -13.425   5.089 -33.735  1.00  0.00     0.280 HD
HETATM   11  C   UNL     1     -13.118   5.903 -35.640  1.00  0.00     0.236 C 
HETATM   12  C   UNL     1     -12.182   7.086 -35.787  1.00  0.00     0.029 C 
HETATM   13  C   UNL     1     -11.870   7.451 -34.354  1.00  0.00     0.029 C 
HETATM   14  C   UNL     1     -11.646   6.100 -33.706  1.00  0.00     0.236 C 
ENDBRANCH   8   9
BRANCH   8  15
HETATM   15  C   UNL     1     -13.054   2.631 -34.208  1.00  0.00    -0.023 A 
HETATM   16  C   UNL     1     -13.963   2.854 -33.152  1.00  0.00     0.046 A 
HETATM   17  C   UNL     1     -14.856   1.859 -32.753  1.00  0.00     0.068 A 
HETATM   18  C   UNL     1     -14.833   0.624 -33.400  1.00  0.00     0.037 A 
HETATM   19  C   UNL     1     -13.951   0.390 -34.454  1.00  0.00     0.003 A 
HETATM   20  C   UNL     1     -13.072   1.391 -34.865  1.00  0.00     0.009 A 
BRANCH  17  21
HETATM   21  O   UNL     1     -15.775   1.966 -31.748  1.00  0.00    -0.356 OA
HETATM   22  C   UNL     1     -16.984   2.659 -32.038  1.00  0.00     0.210 C 
ENDBRANCH  17  21
ENDBRANCH   8  15
ENDBRANCH   7   8
ENDBRANCH   3   7
BRANCH   1  23
HETATM   23  C   UNL     1      -7.677  -0.322 -34.147  1.00  0.00     0.086 C 
HETATM   24  C   UNL     1      -7.216  -0.081 -32.711  1.00  0.00     0.032 C 
BRANCH  23  25
HETATM   25  C   UNL     1      -6.486  -0.694 -35.060  1.00  0.00     0.063 C 
BRANCH  25  26
HETATM   26  C   UNL     1      -5.976  -2.096 -34.799  1.00  0.00    -0.056 A 
HETATM   27  C   UNL     1      -4.667  -2.310 -34.342  1.00  0.00     0.010 A 
HETATM   28  C   UNL     1      -4.191  -3.607 -34.133  1.00  0.00     0.037 A 
HETATM   29  C   UNL     1      -5.024  -4.691 -34.386  1.00  0.00     0.065 A 
HETATM   30  C   UNL     1      -6.323  -4.500 -34.837  1.00  0.00     0.037 A 
HETATM   31  C   UNL     1      -6.802  -3.205 -35.040  1.00  0.00     0.010 A 
BRANCH  29  32
HETATM   32  O   UNL     1      -4.601  -5.974 -34.203  1.00  0.00    -0.361 OA
HETATM   33  H   UNL     1      -3.834  -5.977 -33.607  1.00  0.00     0.217 HD
ENDBRANCH  29  32
ENDBRANCH  25  26
ENDBRANCH  23  25
ENDBRANCH   1  23
TORSDOF 9
ENDMDL
MODEL 2
REMARK VINA RESULT:      -8.3      5.509      8.993
REMARK  9 active torsions:
REMARK  status: ('A' for Active; 'I' for Inactive)
REMARK    1  A    between atoms: C_2  and  N_3 
REMARK    2  A    between atoms: C_2  and  C_23 
REMARK       I    between atoms: N_3  and  C_4 
REMARK       I    between atoms: C_4  and  N_5 
REMARK    3  A    between atoms: N_5  and  C_6 
REMARK    4  A    between atoms: C_6  and  C_7 
REMARK    5  A    between atoms: C_7  and  N_8 
REMARK    6  A    between atoms: C_7  and  C_14 
REMARK    7  A    between atoms: C_16  and  O_17 
REMARK    8  A    between atoms: C_23  and  C_24 
REMARK    9  A    between atoms: C_27  and  O_28 
ROOT
HETATM    1  N   UNL     1      -6.710   1.519 -34.916  1.00  0.00    -0.339 N 
HETATM    2  C   UNL     1      -6.518   2.448 -33.940  1.00  0.00     0.316 C 
HETATM    3  N   UNL     1      -5.514   3.319 -34.238  1.00  0.00    -0.341 N 
HETATM    4  O   UNL     1      -7.157   2.545 -32.899  1.00  0.00    -0.248 OA
HETATM    5  H   UNL     1      -5.952   1.433 -35.581  1.00  0.00     0.164 HD
HETATM    6  H   UNL     1      -5.171   3.339 -35.191  1.00  0.00     0.164 HD
ENDROOT
BRANCH   3   7
HETATM    7  C   UNL     1      -4.952   4.258 -33.274  1.00  0.00     0.162 C 
BRANCH   7   8
HETATM    8  C   UNL     1      -3.563   3.890 -32.663  1.00  0.00     0.238 C 
BRANCH   8   9
HETATM    9  N   UNL     1      -3.705   3.229 -31.296  1.00  0.00    -0.061 N 
HETATM   10  H   UNL     1      -2.987   3.672 -30.688  1.00  0.00     0.280 HD
HETATM   11  C   UNL     1      -3.518   1.724 -31.247  1.00  0.00     0.236 C 
HETATM   12  C   UNL     1      -4.861   1.178 -30.805  1.00  0.00     0.029 C 
HETATM   13  C   UNL     1      -5.369   2.247 -29.865  1.00  0.00     0.029 C 
HETATM   14  C   UNL     1      -5.026   3.527 -30.598  1.00  0.00     0.236 C 
ENDBRANCH   8   9
BRANCH   8  15
HETATM   15  C   UNL     1      -2.629   5.089 -32.727  1.00  0.00    -0.023 A 
HETATM   16  C   UNL     1      -1.539   5.150 -31.832  1.00  0.00     0.046 A 
HETATM   17  C   UNL     1      -0.649   6.225 -31.859  1.00  0.00     0.068 A 
HETATM   18  C   UNL     1      -0.855   7.257 -32.774  1.00  0.00     0.037 A 
HETATM   19  C   UNL     1      -1.918   7.207 -33.674  1.00  0.00     0.003 A 
HETATM   20  C   UNL     1      -2.797   6.125 -33.660  1.00  0.00     0.009 A 
BRANCH  17  21
HETATM   21  O   UNL     1       0.435   6.386 -31.044  1.00  0.00    -0.356 OA
HETATM   22  C   UNL     1       0.733   5.332 -30.135  1.00  0.00     0.210 C 
ENDBRANCH  17  21
ENDBRANCH   8  15
ENDBRANCH   7   8
ENDBRANCH   3   7
BRANCH   1  23
HETATM   23  C   UNL     1      -7.437   0.258 -34.715  1.00  0.00     0.086 C 
HETATM   24  C   UNL     1      -8.947   0.439 -34.570  1.00  0.00     0.032 C 
BRANCH  23  25
HETATM   25  C   UNL     1      -6.857  -0.552 -33.533  1.00  0.00     0.063 C 
BRANCH  25  26
HETATM   26  C   UNL     1      -6.339  -1.909 -33.962  1.00  0.00    -0.056 A 
HETATM   27  C   UNL     1      -7.218  -2.898 -34.429  1.00  0.00     0.010 A 
HETATM   28  C   UNL     1      -6.740  -4.158 -34.794  1.00  0.00     0.037 A 
HETATM   29  C   UNL     1      -5.381  -4.432 -34.688  1.00  0.00     0.065 A 
HETATM   30  C   UNL     1      -4.494  -3.466 -34.230  1.00  0.00     0.037 A 
HETATM   31  C   UNL     1      -4.971  -2.204 -33.871  1.00  0.00     0.010 A 
BRANCH  29  32
HETATM   32  O   UNL     1      -4.869  -5.650 -35.026  1.00  0.00    -0.361 OA
HETATM   33  H   UNL     1      -4.126  -5.859 -34.436  1.00  0.00     0.217 HD
ENDBRANCH  29  32
ENDBRANCH  25  26
ENDBRANCH  23  25
ENDBRANCH   1  23
TORSDOF 9
ENDMDL
MODEL 3
REMARK VINA RESULT:      -8.3      6.301      9.637
REMARK  9 active torsions:
REMARK  status: ('A' for Active; 'I' for Inactive)
REMARK    1  A    between atoms: C_2  and  N_3 
REMARK    2  A    between atoms: C_2  and  C_23 
REMARK       I    between atoms: N_3  and  C_4 
REMARK       I    between atoms: C_4  and  N_5 
REMARK    3  A    between atoms: N_5  and  C_6 
REMARK    4  A    between atoms: C_6  and  C_7 
REMARK    5  A    between atoms: C_7  and  N_8 
REMARK    6  A    between atoms: C_7  and  C_14 
REMARK    7  A    between atoms: C_16  and  O_17 
REMARK    8  A    between atoms: C_23  and  C_24 
REMARK    9  A    between atoms: C_27  and  O_28 
ROOT
HETATM    1  N   UNL     1      -2.451   3.942 -33.025  1.00  0.00    -0.339 N 
HETATM    2  C   UNL     1      -3.447   3.356 -32.305  1.00  0.00     0.316 C 
HETATM    3  N   UNL     1      -3.421   1.996 -32.390  1.00  0.00    -0.341 N 
HETATM    4  O   UNL     1      -4.288   3.935 -31.629  1.00  0.00    -0.248 OA
HETATM    5  H   UNL     1      -2.004   3.343 -33.706  1.00  0.00     0.164 HD
HETATM    6  H   UNL     1      -2.588   1.561 -32.770  1.00  0.00     0.164 HD
ENDROOT
BRANCH   3   7
HETATM    7  C   UNL     1      -4.500   1.141 -31.912  1.00  0.00     0.162 C 
BRANCH   7   8
HETATM    8  C   UNL     1      -5.730   0.965 -32.858  1.00  0.00     0.238 C 
BRANCH   8   9
HETATM    9  N   UNL     1      -7.030   1.377 -32.177  1.00  0.00    -0.061 N 
HETATM   10  H   UNL     1      -7.635   0.531 -32.178  1.00  0.00     0.280 HD
HETATM   11  C   UNL     1      -7.797   2.520 -32.815  1.00  0.00     0.236 C 
HETATM   12  C   UNL     1      -7.792   3.623 -31.775  1.00  0.00     0.029 C 
HETATM   13  C   UNL     1      -7.851   2.860 -30.471  1.00  0.00     0.029 C 
HETATM   14  C   UNL     1      -6.872   1.727 -30.702  1.00  0.00     0.236 C 
ENDBRANCH   8   9
BRANCH   8  15
HETATM   15  C   UNL     1      -5.716  -0.424 -33.480  1.00  0.00    -0.023 A 
HETATM   16  C   UNL     1      -4.661  -1.303 -33.156  1.00  0.00     0.046 A 
HETATM   17  C   UNL     1      -4.610  -2.590 -33.692  1.00  0.00     0.068 A 
HETATM   18  C   UNL     1      -5.610  -3.001 -34.573  1.00  0.00     0.037 A 
HETATM   19  C   UNL     1      -6.667  -2.151 -34.894  1.00  0.00     0.003 A 
HETATM   20  C   UNL     1      -6.728  -0.871 -34.344  1.00  0.00     0.009 A 
BRANCH  17  21
HETATM   21  O   UNL     1      -3.640  -3.520 -33.448  1.00  0.00    -0.356 OA
HETATM   22  C   UNL     1      -3.895  -4.856 -33.867  1.00  0.00     0.210 C 
ENDBRANCH  17  21
ENDBRANCH   8  15
ENDBRANCH   7   8
ENDBRANCH   3   7
BRANCH   1  23
HETATM   23  C   UNL     1      -2.453   5.356 -33.424  1.00  0.00     0.086 C 
HETATM   24  C   UNL     1      -2.982   5.591 -34.838  1.00  0.00     0.032 C 
BRANCH  23  25
HETATM   25  C   UNL     1      -1.061   6.003 -33.236  1.00  0.00     0.063 C 
BRANCH  25  26
HETATM   26  C   UNL     1      -0.649   6.073 -31.780  1.00  0.00    -0.056 A 
HETATM   27  C   UNL     1      -1.152   7.078 -30.940  1.00  0.00     0.010 A 
HETATM   28  C   UNL     1      -0.745   7.158 -29.606  1.00  0.00     0.037 A 
HETATM   29  C   UNL     1       0.170   6.233 -29.113  1.00  0.00     0.065 A 
HETATM   30  C   UNL     1       0.677   5.230 -29.928  1.00  0.00     0.037 A 
HETATM   31  C   UNL     1       0.266   5.146 -31.259  1.00  0.00     0.010 A 
BRANCH  29  32
HETATM   32  O   UNL     1       0.601   6.275 -27.821  1.00  0.00    -0.361 OA
HETATM   33  H   UNL     1       0.870   5.383 -27.544  1.00  0.00     0.217 HD
ENDBRANCH  29  32
ENDBRANCH  25  26
ENDBRANCH  23  25
ENDBRANCH   1  23
TORSDOF 9
ENDMDL
MODEL 4
REMARK VINA RESULT:      -8.3      4.991      8.627
REMARK  9 active torsions:
REMARK  status: ('A' for Active; 'I' for Inactive)
REMARK    1  A    between atoms: C_2  and  N_3 
REMARK    2  A    between atoms: C_2  and  C_23 
REMARK       I    between atoms: N_3  and  C_4 
REMARK       I    between atoms: C_4  and  N_5 
REMARK    3  A    between atoms: N_5  and  C_6 
REMARK    4  A    between atoms: C_6  and  C_7 
REMARK    5  A    between atoms: C_7  and  N_8 
REMARK    6  A    between atoms: C_7  and  C_14 
REMARK    7  A    between atoms: C_16  and  O_17 
REMARK    8  A    between atoms: C_23  and  C_24 
REMARK    9  A    between atoms: C_27  and  O_28 
ROOT
HETATM    1  N   UNL     1      -5.973   4.494 -31.175  1.00  0.00    -0.339 N 
HETATM    2  C   UNL     1      -5.781   3.199 -31.546  1.00  0.00     0.316 C 
HETATM    3  N   UNL     1      -6.944   2.491 -31.592  1.00  0.00    -0.341 N 
HETATM    4  O   UNL     1      -4.709   2.679 -31.832  1.00  0.00    -0.248 OA
HETATM    5  H   UNL     1      -6.868   4.690 -30.747  1.00  0.00     0.164 HD
HETATM    6  H   UNL     1      -7.815   3.009 -31.567  1.00  0.00     0.164 HD
ENDROOT
BRANCH   3   7
HETATM    7  C   UNL     1      -6.999   1.041 -31.731  1.00  0.00     0.162 C 
BRANCH   7   8
HETATM    8  C   UNL     1      -6.975   0.473 -33.186  1.00  0.00     0.238 C 
BRANCH   8   9
HETATM    9  N   UNL     1      -8.378   0.161 -33.693  1.00  0.00    -0.061 N 
HETATM   10  H   UNL     1      -8.311  -0.759 -34.174  1.00  0.00     0.280 HD
HETATM   11  C   UNL     1      -8.992   1.163 -34.651  1.00  0.00     0.236 C 
HETATM   12  C   UNL     1     -10.202   1.712 -33.921  1.00  0.00     0.029 C 
HETATM   13  C   UNL     1     -10.688   0.522 -33.127  1.00  0.00     0.029 C 
HETATM   14  C   UNL     1      -9.401  -0.067 -32.585  1.00  0.00     0.236 C 
ENDBRANCH   8   9
BRANCH   8  15
HETATM   15  C   UNL     1      -5.964  -0.659 -33.288  1.00  0.00    -0.023 A 
HETATM   16  C   UNL     1      -6.176  -1.675 -34.244  1.00  0.00     0.046 A 
HETATM   17  C   UNL     1      -5.273  -2.729 -34.384  1.00  0.00     0.068 A 
HETATM   18  C   UNL     1      -4.155  -2.782 -33.552  1.00  0.00     0.037 A 
HETATM   19  C   UNL     1      -3.921  -1.780 -32.611  1.00  0.00     0.003 A 
HETATM   20  C   UNL     1      -4.815  -0.717 -32.484  1.00  0.00     0.009 A 
BRANCH  17  21
HETATM   21  O   UNL     1      -5.378  -3.761 -35.272  1.00  0.00    -0.356 OA
HETATM   22  C   UNL     1      -6.625  -4.445 -35.336  1.00  0.00     0.210 C 
ENDBRANCH  17  21
ENDBRANCH   8  15
ENDBRANCH   7   8
ENDBRANCH   3   7
BRANCH   1  23
HETATM   23  C   UNL     1      -4.902   5.371 -30.681  1.00  0.00     0.086 C 
HETATM   24  C   UNL     1      -5.160   5.922 -29.280  1.00  0.00     0.032 C 
BRANCH  23  25
HETATM   25  C   UNL     1      -4.594   6.511 -31.679  1.00  0.00     0.063 C 
BRANCH  25  26
HETATM   26  C   UNL     1      -3.566   6.109 -32.716  1.00  0.00    -0.056 A 
HETATM   27  C   UNL     1      -2.194   6.222 -32.448  1.00  0.00     0.010 A 
HETATM   28  C   UNL     1      -1.250   5.879 -33.419  1.00  0.00     0.037 A 
HETATM   29  C   UNL     1      -1.679   5.426 -34.661  1.00  0.00     0.065 A 
HETATM   30  C   UNL     1      -3.033   5.304 -34.945  1.00  0.00     0.037 A 
HETATM   31  C   UNL     1      -3.977   5.641 -33.973  1.00  0.00     0.010 A 
BRANCH  29  32
HETATM   32  O   UNL     1      -0.796   5.086 -35.642  1.00  0.00    -0.361 OA
HETATM   33  H   UNL     1      -0.220   5.845 -35.831  1.00  0.00     0.217 HD
ENDBRANCH  29  32
ENDBRANCH  25  26
ENDBRANCH  23  25
ENDBRANCH   1  23
TORSDOF 9
ENDMDL
MODEL 5
REMARK VINA RESULT:      -8.3      7.772     10.814
REMARK  9 active torsions:
REMARK  status: ('A' for Active; 'I' for Inactive)
REMARK    1  A    between atoms: C_2  and  N_3 
REMARK    2  A    between atoms: C_2  and  C_23 
REMARK       I    between atoms: N_3  and  C_4 
REMARK       I    between atoms: C_4  and  N_5 
REMARK    3  A    between atoms: N_5  and  C_6 
REMARK    4  A    between atoms: C_6  and  C_7 
REMARK    5  A    between atoms: C_7  and  N_8 
REMARK    6  A    between atoms: C_7  and  C_14 
REMARK    7  A    between atoms: C_16  and  O_17 
REMARK    8  A    between atoms: C_23  and  C_24 
REMARK    9  A    between atoms: C_27  and  O_28 
ROOT
HETATM    1  N   UNL     1      -2.013   5.020 -30.669  1.00  0.00    -0.339 N 
HETATM    2  C   UNL     1      -2.383   4.158 -31.655  1.00  0.00     0.316 C 
HETATM    3  N   UNL     1      -3.242   3.197 -31.214  1.00  0.00    -0.341 N 
HETATM    4  O   UNL     1      -2.027   4.203 -32.826  1.00  0.00    -0.248 OA
HETATM    5  H   UNL     1      -2.202   4.701 -29.727  1.00  0.00     0.164 HD
HETATM    6  H   UNL     1      -3.678   3.331 -30.308  1.00  0.00     0.164 HD
ENDROOT
BRANCH   3   7
HETATM    7  C   UNL     1      -3.607   2.024 -31.998  1.00  0.00     0.162 C 
BRANCH   7   8
HETATM    8  C   UNL     1      -5.057   1.989 -32.578  1.00  0.00     0.238 C 
BRANCH   8   9
HETATM    9  N   UNL     1      -6.090   2.423 -31.544  1.00  0.00    -0.061 N 
HETATM   10  H   UNL     1      -5.562   2.938 -30.811  1.00  0.00     0.280 HD
HETATM   11  C   UNL     1      -6.889   1.318 -30.878  1.00  0.00     0.236 C 
HETATM   12  C   UNL     1      -8.323   1.567 -31.298  1.00  0.00     0.029 C 
HETATM   13  C   UNL     1      -8.398   3.074 -31.376  1.00  0.00     0.029 C 
HETATM   14  C   UNL     1      -7.099   3.438 -32.066  1.00  0.00     0.236 C 
ENDBRANCH   8   9
BRANCH   8  15
HETATM   15  C   UNL     1      -5.316   0.651 -33.256  1.00  0.00    -0.023 A 
HETATM   16  C   UNL     1      -4.488  -0.445 -32.934  1.00  0.00     0.046 A 
HETATM   17  C   UNL     1      -4.691  -1.694 -33.521  1.00  0.00     0.068 A 
HETATM   18  C   UNL     1      -5.719  -1.850 -34.450  1.00  0.00     0.037 A 
HETATM   19  C   UNL     1      -6.557  -0.782 -34.770  1.00  0.00     0.003 A 
HETATM   20  C   UNL     1      -6.364   0.461 -34.170  1.00  0.00     0.009 A 
BRANCH  17  21
HETATM   21  O   UNL     1      -3.954  -2.820 -33.284  1.00  0.00    -0.356 OA
HETATM   22  C   UNL     1      -4.158  -3.930 -34.150  1.00  0.00     0.210 C 
ENDBRANCH  17  21
ENDBRANCH   8  15
ENDBRANCH   7   8
ENDBRANCH   3   7
BRANCH   1  23
HETATM   23  C   UNL     1      -0.839   5.899 -30.747  1.00  0.00     0.086 C 
HETATM   24  C   UNL     1       0.456   5.233 -30.283  1.00  0.00     0.032 C 
BRANCH  23  25
HETATM   25  C   UNL     1      -1.075   7.234 -30.004  1.00  0.00     0.063 C 
BRANCH  25  26
HETATM   26  C   UNL     1      -0.221   7.361 -28.760  1.00  0.00    -0.056 A 
HETATM   27  C   UNL     1      -0.539   6.648 -27.595  1.00  0.00     0.010 A 
HETATM   28  C   UNL     1       0.233   6.792 -26.440  1.00  0.00     0.037 A 
HETATM   29  C   UNL     1       1.323   7.654 -26.449  1.00  0.00     0.065 A 
HETATM   30  C   UNL     1       1.657   8.368 -27.593  1.00  0.00     0.037 A 
HETATM   31  C   UNL     1       0.889   8.219 -28.749  1.00  0.00     0.010 A 
BRANCH  29  32
HETATM   32  O   UNL     1       2.102   7.833 -25.345  1.00  0.00    -0.361 OA
HETATM   33  H   UNL     1       2.994   7.489 -25.522  1.00  0.00     0.217 HD
ENDBRANCH  29  32
ENDBRANCH  25  26
ENDBRANCH  23  25
ENDBRANCH   1  23
TORSDOF 9
ENDMDL
MODEL 6
REMARK VINA RESULT:      -8.1      7.211      9.885
REMARK  9 active torsions:
REMARK  status: ('A' for Active; 'I' for Inactive)
REMARK    1  A    between atoms: C_2  and  N_3 
REMARK    2  A    between atoms: C_2  and  C_23 
REMARK       I    between atoms: N_3  and  C_4 
REMARK       I    between atoms: C_4  and  N_5 
REMARK    3  A    between atoms: N_5  and  C_6 
REMARK    4  A    between atoms: C_6  and  C_7 
REMARK    5  A    between atoms: C_7  and  N_8 
REMARK    6  A    between atoms: C_7  and  C_14 
REMARK    7  A    between atoms: C_16  and  O_17 
REMARK    8  A    between atoms: C_23  and  C_24 
REMARK    9  A    between atoms: C_27  and  O_28 
ROOT
HETATM    1  N   UNL     1      -5.271   1.948 -31.456  1.00  0.00    -0.339 N 
HETATM    2  C   UNL     1      -3.968   2.291 -31.265  1.00  0.00     0.316 C 
HETATM    3  N   UNL     1      -3.794   3.638 -31.154  1.00  0.00    -0.341 N 
HETATM    4  O   UNL     1      -3.021   1.519 -31.178  1.00  0.00    -0.248 OA
HETATM    5  H   UNL     1      -5.877   2.706 -31.742  1.00  0.00     0.164 HD
HETATM    6  H   UNL     1      -4.617   4.212 -31.009  1.00  0.00     0.164 HD
ENDROOT
BRANCH   3   7
HETATM    7  C   UNL     1      -2.487   4.285 -31.177  1.00  0.00     0.162 C 
BRANCH   7   8
HETATM    8  C   UNL     1      -2.470   5.827 -31.418  1.00  0.00     0.238 C 
BRANCH   8   9
HETATM    9  N   UNL     1      -2.188   6.167 -32.878  1.00  0.00    -0.061 N 
HETATM   10  H   UNL     1      -1.666   7.067 -32.866  1.00  0.00     0.280 HD
HETATM   11  C   UNL     1      -3.395   6.322 -33.784  1.00  0.00     0.236 C 
HETATM   12  C   UNL     1      -3.259   5.213 -34.808  1.00  0.00     0.029 C 
HETATM   13  C   UNL     1      -1.763   5.102 -34.991  1.00  0.00     0.029 C 
HETATM   14  C   UNL     1      -1.245   5.192 -33.570  1.00  0.00     0.236 C 
ENDBRANCH   8   9
BRANCH   8  15
HETATM   15  C   UNL     1      -1.575   6.506 -30.393  1.00  0.00    -0.023 A 
HETATM   16  C   UNL     1      -2.170   7.097 -29.257  1.00  0.00     0.046 A 
HETATM   17  C   UNL     1      -1.391   7.724 -28.284  1.00  0.00     0.068 A 
HETATM   18  C   UNL     1      -0.007   7.776 -28.449  1.00  0.00     0.037 A 
HETATM   19  C   UNL     1       0.599   7.186 -29.557  1.00  0.00     0.003 A 
HETATM   20  C   UNL     1      -0.177   6.544 -30.521  1.00  0.00     0.009 A 
BRANCH  17  21
HETATM   21  O   UNL     1      -1.859   8.325 -27.150  1.00  0.00    -0.356 OA
HETATM   22  C   UNL     1      -1.052   8.235 -25.981  1.00  0.00     0.210 C 
ENDBRANCH  17  21
ENDBRANCH   8  15
ENDBRANCH   7   8
ENDBRANCH   3   7
BRANCH   1  23
HETATM   23  C   UNL     1      -5.706   0.645 -31.976  1.00  0.00     0.086 C 
HETATM   24  C   UNL     1      -5.563  -0.495 -30.969  1.00  0.00     0.032 C 
BRANCH  23  25
HETATM   25  C   UNL     1      -5.003   0.300 -33.310  1.00  0.00     0.063 C 
BRANCH  25  26
HETATM   26  C   UNL     1      -5.315  -1.106 -33.779  1.00  0.00    -0.056 A 
HETATM   27  C   UNL     1      -4.309  -2.082 -33.837  1.00  0.00     0.010 A 
HETATM   28  C   UNL     1      -4.594  -3.369 -34.301  1.00  0.00     0.037 A 
HETATM   29  C   UNL     1      -5.886  -3.678 -34.710  1.00  0.00     0.065 A 
HETATM   30  C   UNL     1      -6.896  -2.727 -34.659  1.00  0.00     0.037 A 
HETATM   31  C   UNL     1      -6.613  -1.443 -34.190  1.00  0.00     0.010 A 
BRANCH  29  32
HETATM   32  O   UNL     1      -6.210  -4.918 -35.176  1.00  0.00    -0.361 OA
HETATM   33  H   UNL     1      -5.929  -5.586 -34.529  1.00  0.00     0.217 HD
ENDBRANCH  29  32
ENDBRANCH  25  26
ENDBRANCH  23  25
ENDBRANCH   1  23
TORSDOF 9
ENDMDL
MODEL 7
REMARK VINA RESULT:      -8.0      6.667     10.185
REMARK  9 active torsions:
REMARK  status: ('A' for Active; 'I' for Inactive)
REMARK    1  A    between atoms: C_2  and  N_3 
REMARK    2  A    between atoms: C_2  and  C_23 
REMARK       I    between atoms: N_3  and  C_4 
REMARK       I    between atoms: C_4  and  N_5 
REMARK    3  A    between atoms: N_5  and  C_6 
REMARK    4  A    between atoms: C_6  and  C_7 
REMARK    5  A    between atoms: C_7  and  N_8 
REMARK    6  A    between atoms: C_7  and  C_14 
REMARK    7  A    between atoms: C_16  and  O_17 
REMARK    8  A    between atoms: C_23  and  C_24 
REMARK    9  A    between atoms: C_27  and  O_28 
ROOT
HETATM    1  N   UNL     1      -1.973   4.571 -32.496  1.00  0.00    -0.339 N 
HETATM    2  C   UNL     1      -3.039   4.038 -31.838  1.00  0.00     0.316 C 
HETATM    3  N   UNL     1      -3.159   2.696 -32.039  1.00  0.00    -0.341 N 
HETATM    4  O   UNL     1      -3.824   4.647 -31.122  1.00  0.00    -0.248 OA
HETATM    5  H   UNL     1      -1.581   3.986 -33.222  1.00  0.00     0.164 HD
HETATM    6  H   UNL     1      -2.372   2.206 -32.447  1.00  0.00     0.164 HD
ENDROOT
BRANCH   3   7
HETATM    7  C   UNL     1      -4.333   1.926 -31.646  1.00  0.00     0.162 C 
BRANCH   7   8
HETATM    8  C   UNL     1      -5.102   1.186 -32.785  1.00  0.00     0.238 C 
BRANCH   8   9
HETATM    9  N   UNL     1      -6.607   1.408 -32.687  1.00  0.00    -0.061 N 
HETATM   10  H   UNL     1      -6.732   2.289 -32.148  1.00  0.00     0.280 HD
HETATM   11  C   UNL     1      -7.413   0.312 -32.015  1.00  0.00     0.236 C 
HETATM   12  C   UNL     1      -8.330  -0.219 -33.099  1.00  0.00     0.029 C 
HETATM   13  C   UNL     1      -8.634   1.013 -33.920  1.00  0.00     0.029 C 
HETATM   14  C   UNL     1      -7.281   1.687 -34.025  1.00  0.00     0.236 C 
ENDBRANCH   8   9
BRANCH   8  15
HETATM   15  C   UNL     1      -4.648  -0.264 -32.866  1.00  0.00    -0.023 A 
HETATM   16  C   UNL     1      -5.049  -1.041 -33.974  1.00  0.00     0.046 A 
HETATM   17  C   UNL     1      -4.651  -2.372 -34.098  1.00  0.00     0.068 A 
HETATM   18  C   UNL     1      -3.859  -2.942 -33.102  1.00  0.00     0.037 A 
HETATM   19  C   UNL     1      -3.441  -2.186 -32.007  1.00  0.00     0.003 A 
HETATM   20  C   UNL     1      -3.824  -0.850 -31.892  1.00  0.00     0.009 A 
BRANCH  17  21
HETATM   21  O   UNL     1      -4.978  -3.213 -35.124  1.00  0.00    -0.356 OA
HETATM   22  C   UNL     1      -6.217  -3.905 -35.032  1.00  0.00     0.210 C 
ENDBRANCH  17  21
ENDBRANCH   8  15
ENDBRANCH   7   8
ENDBRANCH   3   7
BRANCH   1  23
HETATM   23  C   UNL     1      -1.815   6.005 -32.773  1.00  0.00     0.086 C 
HETATM   24  C   UNL     1      -2.062   6.377 -34.233  1.00  0.00     0.032 C 
BRANCH  23  25
HETATM   25  C   UNL     1      -0.443   6.531 -32.289  1.00  0.00     0.063 C 
BRANCH  25  26
HETATM   26  C   UNL     1      -0.310   6.493 -30.781  1.00  0.00    -0.056 A 
HETATM   27  C   UNL     1       0.551   5.577 -30.159  1.00  0.00     0.010 A 
HETATM   28  C   UNL     1       0.646   5.525 -28.766  1.00  0.00     0.037 A 
HETATM   29  C   UNL     1      -0.124   6.387 -27.994  1.00  0.00     0.065 A 
HETATM   30  C   UNL     1      -0.981   7.302 -28.591  1.00  0.00     0.037 A 
HETATM   31  C   UNL     1      -1.073   7.359 -29.982  1.00  0.00     0.010 A 
BRANCH  29  32
HETATM   32  O   UNL     1      -0.070   6.368 -26.632  1.00  0.00    -0.361 OA
HETATM   33  H   UNL     1      -0.608   7.097 -26.280  1.00  0.00     0.217 HD
ENDBRANCH  29  32
ENDBRANCH  25  26
ENDBRANCH  23  25
ENDBRANCH   1  23
TORSDOF 9
ENDMDL
MODEL 8
REMARK VINA RESULT:      -7.9      6.411      9.015
REMARK  9 active torsions:
REMARK  status: ('A' for Active; 'I' for Inactive)
REMARK    1  A    between atoms: C_2  and  N_3 
REMARK    2  A    between atoms: C_2  and  C_23 
REMARK       I    between atoms: N_3  and  C_4 
REMARK       I    between atoms: C_4  and  N_5 
REMARK    3  A    between atoms: N_5  and  C_6 
REMARK    4  A    between atoms: C_6  and  C_7 
REMARK    5  A    between atoms: C_7  and  N_8 
REMARK    6  A    between atoms: C_7  and  C_14 
REMARK    7  A    between atoms: C_16  and  O_17 
REMARK    8  A    between atoms: C_23  and  C_24 
REMARK    9  A    between atoms: C_27  and  O_28 
ROOT
HETATM    1  N   UNL     1      -4.715   1.018 -31.251  1.00  0.00    -0.339 N 
HETATM    2  C   UNL     1      -4.172   2.242 -31.496  1.00  0.00     0.316 C 
HETATM    3  N   UNL     1      -5.008   3.261 -31.153  1.00  0.00    -0.341 N 
HETATM    4  O   UNL     1      -3.058   2.460 -31.955  1.00  0.00    -0.248 OA
HETATM    5  H   UNL     1      -5.715   1.014 -31.102  1.00  0.00     0.164 HD
HETATM    6  H   UNL     1      -5.813   3.041 -30.578  1.00  0.00     0.164 HD
ENDROOT
BRANCH   3   7
HETATM    7  C   UNL     1      -4.773   4.652 -31.522  1.00  0.00     0.162 C 
BRANCH   7   8
HETATM    8  C   UNL     1      -4.108   5.563 -30.443  1.00  0.00     0.238 C 
BRANCH   8   9
HETATM    9  N   UNL     1      -5.088   6.591 -29.889  1.00  0.00    -0.061 N 
HETATM   10  H   UNL     1      -4.700   7.522 -30.141  1.00  0.00     0.280 HD
HETATM   11  C   UNL     1      -5.332   6.558 -28.392  1.00  0.00     0.236 C 
HETATM   12  C   UNL     1      -6.798   6.203 -28.243  1.00  0.00     0.029 C 
HETATM   13  C   UNL     1      -7.434   6.875 -29.438  1.00  0.00     0.029 C 
HETATM   14  C   UNL     1      -6.459   6.561 -30.555  1.00  0.00     0.236 C 
ENDBRANCH   8   9
BRANCH   8  15
HETATM   15  C   UNL     1      -2.790   6.117 -30.967  1.00  0.00    -0.023 A 
HETATM   16  C   UNL     1      -2.555   6.107 -32.358  1.00  0.00     0.046 A 
HETATM   17  C   UNL     1      -1.367   6.612 -32.888  1.00  0.00     0.068 A 
HETATM   18  C   UNL     1      -0.397   7.117 -32.023  1.00  0.00     0.037 A 
HETATM   19  C   UNL     1      -0.618   7.148 -30.647  1.00  0.00     0.003 A 
HETATM   20  C   UNL     1      -1.812   6.660 -30.119  1.00  0.00     0.009 A 
BRANCH  17  21
HETATM   21  O   UNL     1      -1.035   6.653 -34.212  1.00  0.00    -0.356 OA
HETATM   22  C   UNL     1      -1.159   5.447 -34.956  1.00  0.00     0.210 C 
ENDBRANCH  17  21
ENDBRANCH   8  15
ENDBRANCH   7   8
ENDBRANCH   3   7
BRANCH   1  23
HETATM   23  C   UNL     1      -4.224  -0.230 -31.850  1.00  0.00     0.086 C 
HETATM   24  C   UNL     1      -2.774  -0.552 -31.494  1.00  0.00     0.032 C 
BRANCH  23  25
HETATM   25  C   UNL     1      -4.438  -0.249 -33.382  1.00  0.00     0.063 C 
BRANCH  25  26
HETATM   26  C   UNL     1      -5.064  -1.543 -33.860  1.00  0.00    -0.056 A 
HETATM   27  C   UNL     1      -4.278  -2.684 -34.077  1.00  0.00     0.010 A 
HETATM   28  C   UNL     1      -4.854  -3.865 -34.549  1.00  0.00     0.037 A 
HETATM   29  C   UNL     1      -6.220  -3.904 -34.808  1.00  0.00     0.065 A 
HETATM   30  C   UNL     1      -7.016  -2.786 -34.599  1.00  0.00     0.037 A 
HETATM   31  C   UNL     1      -6.441  -1.607 -34.121  1.00  0.00     0.010 A 
BRANCH  29  32
HETATM   32  O   UNL     1      -6.826  -5.032 -35.276  1.00  0.00    -0.361 OA
HETATM   33  H   UNL     1      -6.710  -5.749 -34.631  1.00  0.00     0.217 HD
ENDBRANCH  29  32
ENDBRANCH  25  26
ENDBRANCH  23  25
ENDBRANCH   1  23
TORSDOF 9
ENDMDL
MODEL 9
REMARK VINA RESULT:      -7.9      5.850      8.813
REMARK  9 active torsions:
REMARK  status: ('A' for Active; 'I' for Inactive)
REMARK    1  A    between atoms: C_2  and  N_3 
REMARK    2  A    between atoms: C_2  and  C_23 
REMARK       I    between atoms: N_3  and  C_4 
REMARK       I    between atoms: C_4  and  N_5 
REMARK    3  A    between atoms: N_5  and  C_6 
REMARK    4  A    between atoms: C_6  and  C_7 
REMARK    5  A    between atoms: C_7  and  N_8 
REMARK    6  A    between atoms: C_7  and  C_14 
REMARK    7  A    between atoms: C_16  and  O_17 
REMARK    8  A    between atoms: C_23  and  C_24 
REMARK    9  A    between atoms: C_27  and  O_28 
ROOT
HETATM    1  N   UNL     1      -5.681   1.236 -33.505  1.00  0.00    -0.339 N 
HETATM    2  C   UNL     1      -5.951   2.543 -33.242  1.00  0.00     0.316 C 
HETATM    3  N   UNL     1      -4.830   3.318 -33.241  1.00  0.00    -0.341 N 
HETATM    4  O   UNL     1      -7.058   3.027 -33.038  1.00  0.00    -0.248 OA
HETATM    5  H   UNL     1      -4.710   0.970 -33.410  1.00  0.00     0.164 HD
HETATM    6  H   UNL     1      -3.981   2.923 -33.630  1.00  0.00     0.164 HD
ENDROOT
BRANCH   3   7
HETATM    7  C   UNL     1      -4.805   4.695 -32.763  1.00  0.00     0.162 C 
BRANCH   7   8
HETATM    8  C   UNL     1      -4.177   4.939 -31.354  1.00  0.00     0.238 C 
BRANCH   8   9
HETATM    9  N   UNL     1      -5.164   5.611 -30.406  1.00  0.00    -0.061 N 
HETATM   10  H   UNL     1      -4.642   6.388 -29.953  1.00  0.00     0.280 HD
HETATM   11  C   UNL     1      -5.765   4.736 -29.322  1.00  0.00     0.236 C 
HETATM   12  C   UNL     1      -7.250   4.704 -29.624  1.00  0.00     0.029 C 
HETATM   13  C   UNL     1      -7.512   6.082 -30.186  1.00  0.00     0.029 C 
HETATM   14  C   UNL     1      -6.329   6.298 -31.108  1.00  0.00     0.236 C 
ENDBRANCH   8   9
BRANCH   8  15
HETATM   15  C   UNL     1      -2.823   5.619 -31.496  1.00  0.00    -0.023 A 
HETATM   16  C   UNL     1      -1.659   4.888 -31.177  1.00  0.00     0.046 A 
HETATM   17  C   UNL     1      -0.394   5.464 -31.300  1.00  0.00     0.068 A 
HETATM   18  C   UNL     1      -0.287   6.786 -31.729  1.00  0.00     0.037 A 
HETATM   19  C   UNL     1      -1.426   7.520 -32.062  1.00  0.00     0.003 A 
HETATM   20  C   UNL     1      -2.688   6.939 -31.957  1.00  0.00     0.009 A 
BRANCH  17  21
HETATM   21  O   UNL     1       0.794   4.852 -31.021  1.00  0.00    -0.356 OA
HETATM   22  C   UNL     1       1.102   4.614 -29.653  1.00  0.00     0.210 C 
ENDBRANCH  17  21
ENDBRANCH   8  15
ENDBRANCH   7   8
ENDBRANCH   3   7
BRANCH   1  23
HETATM   23  C   UNL     1      -6.604   0.133 -33.205  1.00  0.00     0.086 C 
HETATM   24  C   UNL     1      -6.109  -0.796 -32.098  1.00  0.00     0.032 C 
BRANCH  23  25
HETATM   25  C   UNL     1      -6.972  -0.665 -34.478  1.00  0.00     0.063 C 
BRANCH  25  26
HETATM   26  C   UNL     1      -6.313  -2.028 -34.515  1.00  0.00    -0.056 A 
HETATM   27  C   UNL     1      -7.082  -3.193 -34.658  1.00  0.00     0.010 A 
HETATM   28  C   UNL     1      -6.473  -4.450 -34.659  1.00  0.00     0.037 A 
HETATM   29  C   UNL     1      -5.093  -4.542 -34.513  1.00  0.00     0.065 A 
HETATM   30  C   UNL     1      -4.314  -3.401 -34.372  1.00  0.00     0.037 A 
HETATM   31  C   UNL     1      -4.922  -2.145 -34.376  1.00  0.00     0.010 A 
BRANCH  29  32
HETATM   32  O   UNL     1      -4.455  -5.747 -34.502  1.00  0.00    -0.361 OA
HETATM   33  H   UNL     1      -3.954  -5.836 -33.674  1.00  0.00     0.217 HD
ENDBRANCH  29  32
ENDBRANCH  25  26
ENDBRANCH  23  25
ENDBRANCH   1  23
TORSDOF 9
ENDMDL
MODEL 10
REMARK VINA RESULT:      -7.8      5.280      7.907
REMARK  9 active torsions:
REMARK  status: ('A' for Active; 'I' for Inactive)
REMARK    1  A    between atoms: C_2  and  N_3 
REMARK    2  A    between atoms: C_2  and  C_23 
REMARK       I    between atoms: N_3  and  C_4 
REMARK       I    between atoms: C_4  and  N_5 
REMARK    3  A    between atoms: N_5  and  C_6 
REMARK    4  A    between atoms: C_6  and  C_7 
REMARK    5  A    between atoms: C_7  and  N_8 
REMARK    6  A    between atoms: C_7  and  C_14 
REMARK    7  A    between atoms: C_16  and  O_17 
REMARK    8  A    between atoms: C_23  and  C_24 
REMARK    9  A    between atoms: C_27  and  O_28 
ROOT
HETATM    1  N   UNL     1      -7.342   1.455 -33.010  1.00  0.00    -0.339 N 
HETATM    2  C   UNL     1      -6.426   2.455 -33.124  1.00  0.00     0.316 C 
HETATM    3  N   UNL     1      -6.996   3.652 -33.438  1.00  0.00    -0.341 N 
HETATM    4  O   UNL     1      -5.217   2.351 -32.959  1.00  0.00    -0.248 OA
HETATM    5  H   UNL     1      -8.249   1.656 -33.410  1.00  0.00     0.164 HD
HETATM    6  H   UNL     1      -8.002   3.737 -33.345  1.00  0.00     0.164 HD
ENDROOT
BRANCH   3   7
HETATM    7  C   UNL     1      -6.232   4.825 -33.844  1.00  0.00     0.162 C 
BRANCH   7   8
HETATM    8  C   UNL     1      -5.314   5.476 -32.762  1.00  0.00     0.238 C 
BRANCH   8   9
HETATM    9  N   UNL     1      -5.878   6.804 -32.268  1.00  0.00    -0.061 N 
HETATM   10  H   UNL     1      -5.466   7.536 -32.881  1.00  0.00     0.280 HD
HETATM   11  C   UNL     1      -5.593   7.167 -30.823  1.00  0.00     0.236 C 
HETATM   12  C   UNL     1      -6.952   7.211 -30.155  1.00  0.00     0.029 C 
HETATM   13  C   UNL     1      -7.853   7.728 -31.253  1.00  0.00     0.029 C 
HETATM   14  C   UNL     1      -7.382   6.949 -32.465  1.00  0.00     0.236 C 
ENDBRANCH   8   9
BRANCH   8  15
HETATM   15  C   UNL     1      -3.873   5.506 -33.247  1.00  0.00    -0.023 A 
HETATM   16  C   UNL     1      -2.852   5.822 -32.326  1.00  0.00     0.046 A 
HETATM   17  C   UNL     1      -1.514   5.852 -32.720  1.00  0.00     0.068 A 
HETATM   18  C   UNL     1      -1.190   5.581 -34.049  1.00  0.00     0.037 A 
HETATM   19  C   UNL     1      -2.183   5.253 -34.971  1.00  0.00     0.003 A 
HETATM   20  C   UNL     1      -3.518   5.205 -34.572  1.00  0.00     0.009 A 
BRANCH  17  21
HETATM   21  O   UNL     1      -0.449   6.144 -31.916  1.00  0.00    -0.356 OA
HETATM   22  C   UNL     1      -0.238   5.311 -30.782  1.00  0.00     0.210 C 
ENDBRANCH  17  21
ENDBRANCH   8  15
ENDBRANCH   7   8
ENDBRANCH   3   7
BRANCH   1  23
HETATM   23  C   UNL     1      -7.004   0.026 -33.056  1.00  0.00     0.086 C 
HETATM   24  C   UNL     1      -6.241  -0.462 -31.827  1.00  0.00     0.032 C 
BRANCH  23  25
HETATM   25  C   UNL     1      -6.255  -0.340 -34.358  1.00  0.00     0.063 C 
BRANCH  25  26
HETATM   26  C   UNL     1      -5.871  -1.805 -34.411  1.00  0.00    -0.056 A 
HETATM   27  C   UNL     1      -4.542  -2.206 -34.209  1.00  0.00     0.010 A 
HETATM   28  C   UNL     1      -4.187  -3.554 -34.289  1.00  0.00     0.037 A 
HETATM   29  C   UNL     1      -5.163  -4.503 -34.576  1.00  0.00     0.065 A 
HETATM   30  C   UNL     1      -6.484  -4.126 -34.777  1.00  0.00     0.037 A 
HETATM   31  C   UNL     1      -6.840  -2.780 -34.691  1.00  0.00     0.010 A 
BRANCH  29  32
HETATM   32  O   UNL     1      -4.863  -5.829 -34.671  1.00  0.00    -0.361 OA
HETATM   33  H   UNL     1      -4.593  -6.032 -35.582  1.00  0.00     0.217 HD
ENDBRANCH  29  32
ENDBRANCH  25  26
ENDBRANCH  23  25
ENDBRANCH   1  23
TORSDOF 9
ENDMDL
