MODEL 1
REMARK VINA RESULT:      -8.4      0.000      0.000
REMARK  6 active torsions:
REMARK  status: ('A' for Active; 'I' for Inactive)
REMARK    1  A    between atoms: C_7  and  C_8 
REMARK    2  A    between atoms: C_8  and  C_9 
REMARK       I    between atoms: C_9  and  N_10 
REMARK    3  A    between atoms: N_10  and  C_11 
REMARK    4  A    between atoms: C_11  and  C_12 
REMARK    5  A    between atoms: C_19  and  C_20 
REMARK    6  A    between atoms: C_23  and  O_24 
ROOT
HETATM    1  C   UNL     1      -4.610   3.395 -31.779  1.00  0.00     0.151 C 
HETATM    2  O   UNL     1      -5.478   3.290 -30.613  1.00  0.00    -0.343 OA
HETATM    3  C   UNL     1      -6.727   3.085 -31.126  1.00  0.00     0.075 A 
HETATM    4  C   UNL     1      -6.752   2.883 -32.489  1.00  0.00    -0.021 A 
HETATM    5  C   UNL     1      -5.375   2.914 -33.025  1.00  0.00     0.075 C 
HETATM    6  C   UNL     1      -7.879   3.040 -30.370  1.00  0.00     0.038 A 
HETATM    7  C   UNL     1      -9.090   2.787 -31.027  1.00  0.00     0.016 A 
HETATM    8  C   UNL     1      -9.152   2.577 -32.428  1.00  0.00    -0.005 A 
HETATM    9  C   UNL     1      -7.942   2.628 -33.152  1.00  0.00     0.024 A 
ENDROOT
BRANCH   1  10
HETATM   10  C   UNL     1      -3.341   2.574 -31.505  1.00  0.00     0.155 C 
BRANCH  10  11
HETATM   11  N   UNL     1      -3.315   1.259 -32.121  1.00  0.00    -0.359 N 
HETATM   12  C   UNL     1      -3.850   0.149 -31.504  1.00  0.00     0.219 C 
HETATM   13  O   UNL     1      -4.342   0.179 -30.383  1.00  0.00    -0.274 OA
HETATM   14  H   UNL     1      -3.031   1.193 -33.092  1.00  0.00     0.162 HD
BRANCH  12  15
HETATM   15  C   UNL     1      -3.771  -1.098 -32.359  1.00  0.00     0.128 C 
BRANCH  15  16
HETATM   16  C   UNL     1      -4.842  -1.130 -33.453  1.00  0.00     0.094 C 
HETATM   17  N   UNL     1      -4.975  -2.487 -33.980  1.00  0.00    -0.362 N 
HETATM   18  C   UNL     1      -6.092  -2.967 -34.582  1.00  0.00     0.168 C 
HETATM   19  H   UNL     1      -4.137  -3.023 -34.175  1.00  0.00     0.162 HD
HETATM   20  N   UNL     1      -7.221  -2.223 -34.497  1.00  0.00    -0.363 N 
HETATM   21  S   UNL     1      -6.083  -4.434 -35.356  1.00  0.00    -0.041 SA
HETATM   22  C   UNL     1      -7.267  -0.856 -34.011  1.00  0.00     0.081 C 
HETATM   23  H   UNL     1      -8.031  -2.598 -34.976  1.00  0.00     0.162 HD
HETATM   24  C   UNL     1      -7.140   0.130 -35.170  1.00  0.00     0.032 C 
HETATM   25  C   UNL     1      -6.202  -0.646 -32.936  1.00  0.00     0.050 C 
ENDBRANCH  15  16
ENDBRANCH  12  15
ENDBRANCH  10  11
ENDBRANCH   1  10
BRANCH   8  26
HETATM   26  C   UNL     1     -10.423   2.290 -33.122  1.00  0.00     0.089 A 
HETATM   27  N   UNL     1     -11.520   2.934 -32.650  1.00  0.00    -0.147 NA
HETATM   28  N   UNL     1     -12.753   2.739 -33.224  1.00  0.00    -0.124 NA
HETATM   29  C   UNL     1     -12.874   1.896 -34.267  1.00  0.00     0.185 A 
HETATM   30  C   UNL     1     -11.791   1.213 -34.780  1.00  0.00     0.062 A 
HETATM   31  C   UNL     1     -10.542   1.411 -34.195  1.00  0.00     0.038 A 
BRANCH  29  32
HETATM   32  O   UNL     1     -14.096   1.678 -34.866  1.00  0.00    -0.338 OA
HETATM   33  C   UNL     1     -14.850   0.651 -34.228  1.00  0.00     0.211 C 
ENDBRANCH  29  32
ENDBRANCH   8  26
TORSDOF 6
ENDMDL
MODEL 2
REMARK VINA RESULT:      -8.4      3.576      5.774
REMARK  6 active torsions:
REMARK  status: ('A' for Active; 'I' for Inactive)
REMARK    1  A    between atoms: C_7  and  C_8 
REMARK    2  A    between atoms: C_8  and  C_9 
REMARK       I    between atoms: C_9  and  N_10 
REMARK    3  A    between atoms: N_10  and  C_11 
REMARK    4  A    between atoms: C_11  and  C_12 
REMARK    5  A    between atoms: C_19  and  C_20 
REMARK    6  A    between atoms: C_23  and  O_24 
ROOT
HETATM    1  C   UNL     1      -5.209  -0.307 -31.863  1.00  0.00     0.151 C 
HETATM    2  O   UNL     1      -5.379   0.052 -33.265  1.00  0.00    -0.343 OA
HETATM    3  C   UNL     1      -6.723   0.244 -33.416  1.00  0.00     0.075 A 
HETATM    4  C   UNL     1      -7.434   0.208 -32.235  1.00  0.00    -0.021 A 
HETATM    5  C   UNL     1      -6.511  -0.000 -31.100  1.00  0.00     0.075 C 
HETATM    6  C   UNL     1      -7.342   0.490 -34.622  1.00  0.00     0.038 A 
HETATM    7  C   UNL     1      -8.726   0.702 -34.623  1.00  0.00     0.016 A 
HETATM    8  C   UNL     1      -9.489   0.670 -33.428  1.00  0.00    -0.005 A 
HETATM    9  C   UNL     1      -8.804   0.419 -32.220  1.00  0.00     0.024 A 
ENDROOT
BRANCH   1  10
HETATM   10  C   UNL     1      -4.002   0.468 -31.315  1.00  0.00     0.155 C 
BRANCH  10  11
HETATM   11  N   UNL     1      -3.457   1.473 -32.211  1.00  0.00    -0.359 N 
HETATM   12  C   UNL     1      -3.516   2.820 -31.925  1.00  0.00     0.219 C 
HETATM   13  O   UNL     1      -4.065   3.268 -30.927  1.00  0.00    -0.274 OA
HETATM   14  H   UNL     1      -2.888   1.159 -32.989  1.00  0.00     0.162 HD
BRANCH  12  15
HETATM   15  C   UNL     1      -2.825   3.675 -32.967  1.00  0.00     0.128 C 
BRANCH  15  16
HETATM   16  C   UNL     1      -2.283   4.985 -32.386  1.00  0.00     0.094 C 
HETATM   17  N   UNL     1      -1.352   4.700 -31.297  1.00  0.00    -0.362 N 
HETATM   18  C   UNL     1      -0.368   5.542 -30.893  1.00  0.00     0.168 C 
HETATM   19  H   UNL     1      -1.595   3.989 -30.617  1.00  0.00     0.162 HD
HETATM   20  N   UNL     1      -0.091   6.610 -31.679  1.00  0.00    -0.363 N 
HETATM   21  S   UNL     1       0.493   5.246 -29.506  1.00  0.00    -0.041 SA
HETATM   22  C   UNL     1      -0.915   7.041 -32.794  1.00  0.00     0.081 C 
HETATM   23  H   UNL     1       0.633   7.231 -31.338  1.00  0.00     0.162 HD
HETATM   24  C   UNL     1      -1.921   8.097 -32.339  1.00  0.00     0.032 C 
HETATM   25  C   UNL     1      -1.580   5.834 -33.453  1.00  0.00     0.050 C 
ENDBRANCH  15  16
ENDBRANCH  12  15
ENDBRANCH  10  11
ENDBRANCH   1  10
BRANCH   8  26
HETATM   26  C   UNL     1     -10.946   0.912 -33.421  1.00  0.00     0.089 A 
HETATM   27  N   UNL     1     -11.336   2.197 -33.226  1.00  0.00    -0.147 NA
HETATM   28  N   UNL     1     -12.668   2.533 -33.203  1.00  0.00    -0.124 NA
HETATM   29  C   UNL     1     -13.598   1.574 -33.373  1.00  0.00     0.185 A 
HETATM   30  C   UNL     1     -13.253   0.253 -33.569  1.00  0.00     0.062 A 
HETATM   31  C   UNL     1     -11.901  -0.085 -33.591  1.00  0.00     0.038 A 
BRANCH  29  32
HETATM   32  O   UNL     1     -14.943   1.877 -33.357  1.00  0.00    -0.338 OA
HETATM   33  C   UNL     1     -15.437   2.125 -32.043  1.00  0.00     0.211 C 
ENDBRANCH  29  32
ENDBRANCH   8  26
TORSDOF 6
ENDMDL
MODEL 3
REMARK VINA RESULT:      -8.2      5.291      8.150
REMARK  6 active torsions:
REMARK  status: ('A' for Active; 'I' for Inactive)
REMARK    1  A    between atoms: C_7  and  C_8 
REMARK    2  A    between atoms: C_8  and  C_9 
REMARK       I    between atoms: C_9  and  N_10 
REMARK    3  A    between atoms: N_10  and  C_11 
REMARK    4  A    between atoms: C_11  and  C_12 
REMARK    5  A    between atoms: C_19  and  C_20 
REMARK    6  A    between atoms: C_23  and  O_24 
ROOT
HETATM    1  C   UNL     1      -5.482   5.196 -31.718  1.00  0.00     0.151 C 
HETATM    2  O   UNL     1      -4.234   4.564 -31.308  1.00  0.00    -0.343 OA
HETATM    3  C   UNL     1      -4.340   3.272 -31.736  1.00  0.00     0.075 A 
HETATM    4  C   UNL     1      -5.447   3.026 -32.521  1.00  0.00    -0.021 A 
HETATM    5  C   UNL     1      -6.214   4.275 -32.711  1.00  0.00     0.075 C 
HETATM    6  C   UNL     1      -3.421   2.284 -31.458  1.00  0.00     0.038 A 
HETATM    7  C   UNL     1      -3.641   1.008 -31.993  1.00  0.00     0.016 A 
HETATM    8  C   UNL     1      -4.769   0.720 -32.801  1.00  0.00    -0.005 A 
HETATM    9  C   UNL     1      -5.676   1.769 -33.059  1.00  0.00     0.024 A 
ENDROOT
BRANCH   1  10
HETATM   10  C   UNL     1      -5.148   6.570 -32.315  1.00  0.00     0.155 C 
BRANCH  10  11
HETATM   11  N   UNL     1      -3.747   6.778 -32.636  1.00  0.00    -0.359 N 
HETATM   12  C   UNL     1      -2.982   7.731 -31.999  1.00  0.00     0.219 C 
HETATM   13  O   UNL     1      -3.434   8.497 -31.156  1.00  0.00    -0.274 OA
HETATM   14  H   UNL     1      -3.289   6.100 -33.234  1.00  0.00     0.162 HD
BRANCH  12  15
HETATM   15  C   UNL     1      -1.535   7.723 -32.444  1.00  0.00     0.128 C 
BRANCH  15  16
HETATM   16  C   UNL     1      -0.616   7.014 -31.445  1.00  0.00     0.094 C 
HETATM   17  N   UNL     1      -0.807   7.574 -30.108  1.00  0.00    -0.362 N 
HETATM   18  C   UNL     1      -0.537   6.912 -28.956  1.00  0.00     0.168 C 
HETATM   19  H   UNL     1      -0.874   8.581 -30.003  1.00  0.00     0.162 HD
HETATM   20  N   UNL     1      -0.282   5.584 -29.039  1.00  0.00    -0.363 N 
HETATM   21  S   UNL     1      -0.561   7.696 -27.494  1.00  0.00    -0.041 SA
HETATM   22  C   UNL     1      -0.055   4.870 -30.282  1.00  0.00     0.081 C 
HETATM   23  H   UNL     1      -0.061   5.124 -28.163  1.00  0.00     0.162 HD
HETATM   24  C   UNL     1       1.438   4.806 -30.598  1.00  0.00     0.032 C 
HETATM   25  C   UNL     1      -0.871   5.502 -31.407  1.00  0.00     0.050 C 
ENDBRANCH  15  16
ENDBRANCH  12  15
ENDBRANCH  10  11
ENDBRANCH   1  10
BRANCH   8  26
HETATM   26  C   UNL     1      -4.995  -0.619 -33.383  1.00  0.00     0.089 A 
HETATM   27  N   UNL     1      -3.976  -1.505 -33.255  1.00  0.00    -0.147 NA
HETATM   28  N   UNL     1      -4.082  -2.779 -33.760  1.00  0.00    -0.124 NA
HETATM   29  C   UNL     1      -5.211  -3.150 -34.393  1.00  0.00     0.185 A 
HETATM   30  C   UNL     1      -6.273  -2.285 -34.554  1.00  0.00     0.062 A 
HETATM   31  C   UNL     1      -6.162  -0.994 -34.042  1.00  0.00     0.038 A 
BRANCH  29  32
HETATM   32  O   UNL     1      -5.351  -4.420 -34.910  1.00  0.00    -0.338 OA
HETATM   33  C   UNL     1      -6.619  -4.631 -35.524  1.00  0.00     0.211 C 
ENDBRANCH  29  32
ENDBRANCH   8  26
TORSDOF 6
ENDMDL
MODEL 4
REMARK VINA RESULT:      -8.1      5.936     10.285
REMARK  6 active torsions:
REMARK  status: ('A' for Active; 'I' for Inactive)
REMARK    1  A    between atoms: C_7  and  C_8 
REMARK    2  A    between atoms: C_8  and  C_9 
REMARK       I    between atoms: C_9  and  N_10 
REMARK    3  A    between atoms: N_10  and  C_11 
REMARK    4  A    between atoms: C_11  and  C_12 
REMARK    5  A    between atoms: C_19  and  C_20 
REMARK    6  A    between atoms: C_23  and  O_24 
ROOT
HETATM    1  C   UNL     1      -1.588   6.426 -33.811  1.00  0.00     0.151 C 
HETATM    2  O   UNL     1      -1.053   5.226 -33.181  1.00  0.00    -0.343 OA
HETATM    3  C   UNL     1      -0.552   5.653 -31.984  1.00  0.00     0.075 A 
HETATM    4  C   UNL     1      -0.842   6.968 -31.689  1.00  0.00    -0.021 A 
HETATM    5  C   UNL     1      -1.666   7.555 -32.767  1.00  0.00     0.075 C 
HETATM    6  C   UNL     1       0.153   4.857 -31.109  1.00  0.00     0.038 A 
HETATM    7  C   UNL     1       0.577   5.420 -29.899  1.00  0.00     0.016 A 
HETATM    8  C   UNL     1       0.299   6.770 -29.564  1.00  0.00    -0.005 A 
HETATM    9  C   UNL     1      -0.432   7.539 -30.494  1.00  0.00     0.024 A 
ENDROOT
BRANCH   1  10
HETATM   10  C   UNL     1      -2.956   6.079 -34.415  1.00  0.00     0.155 C 
BRANCH  10  11
HETATM   11  N   UNL     1      -3.960   5.646 -33.458  1.00  0.00    -0.359 N 
HETATM   12  C   UNL     1      -5.042   4.876 -33.827  1.00  0.00     0.219 C 
HETATM   13  O   UNL     1      -5.260   4.541 -34.985  1.00  0.00    -0.274 OA
HETATM   14  H   UNL     1      -3.771   5.789 -32.473  1.00  0.00     0.162 HD
BRANCH  12  15
HETATM   15  C   UNL     1      -5.917   4.486 -32.655  1.00  0.00     0.128 C 
BRANCH  15  16
HETATM   16  C   UNL     1      -5.983   2.970 -32.448  1.00  0.00     0.094 C 
HETATM   17  N   UNL     1      -6.566   2.332 -33.627  1.00  0.00    -0.362 N 
HETATM   18  C   UNL     1      -6.350   1.041 -33.982  1.00  0.00     0.168 C 
HETATM   19  H   UNL     1      -7.383   2.749 -34.058  1.00  0.00     0.162 HD
HETATM   20  N   UNL     1      -5.370   0.366 -33.334  1.00  0.00    -0.363 N 
HETATM   21  S   UNL     1      -7.227   0.330 -35.197  1.00  0.00    -0.041 SA
HETATM   22  C   UNL     1      -4.694   0.847 -32.143  1.00  0.00     0.081 C 
HETATM   23  H   UNL     1      -5.249  -0.603 -33.607  1.00  0.00     0.162 HD
HETATM   24  C   UNL     1      -5.384   0.322 -30.886  1.00  0.00     0.032 C 
HETATM   25  C   UNL     1      -4.599   2.371 -32.173  1.00  0.00     0.050 C 
ENDBRANCH  15  16
ENDBRANCH  12  15
ENDBRANCH  10  11
ENDBRANCH   1  10
BRANCH   8  26
HETATM   26  C   UNL     1       0.727   7.363 -28.281  1.00  0.00     0.089 A 
HETATM   27  N   UNL     1       0.345   6.701 -27.160  1.00  0.00    -0.147 NA
HETATM   28  N   UNL     1       0.691   7.167 -25.915  1.00  0.00    -0.124 NA
HETATM   29  C   UNL     1       1.417   8.295 -25.805  1.00  0.00     0.185 A 
HETATM   30  C   UNL     1       1.826   9.008 -26.914  1.00  0.00     0.062 A 
HETATM   31  C   UNL     1       1.472   8.534 -28.176  1.00  0.00     0.038 A 
BRANCH  29  32
HETATM   32  O   UNL     1       1.782   8.789 -24.571  1.00  0.00    -0.338 OA
HETATM   33  C   UNL     1       1.227  10.074 -24.303  1.00  0.00     0.211 C 
ENDBRANCH  29  32
ENDBRANCH   8  26
TORSDOF 6
ENDMDL
MODEL 5
REMARK VINA RESULT:      -8.0      3.448      6.908
REMARK  6 active torsions:
REMARK  status: ('A' for Active; 'I' for Inactive)
REMARK    1  A    between atoms: C_7  and  C_8 
REMARK    2  A    between atoms: C_8  and  C_9 
REMARK       I    between atoms: C_9  and  N_10 
REMARK    3  A    between atoms: N_10  and  C_11 
REMARK    4  A    between atoms: C_11  and  C_12 
REMARK    5  A    between atoms: C_19  and  C_20 
REMARK    6  A    between atoms: C_23  and  O_24 
ROOT
HETATM    1  C   UNL     1      -7.795   4.951 -33.786  1.00  0.00     0.151 C 
HETATM    2  O   UNL     1      -8.943   4.055 -33.728  1.00  0.00    -0.343 OA
HETATM    3  C   UNL     1      -8.417   2.804 -33.887  1.00  0.00     0.075 A 
HETATM    4  C   UNL     1      -7.039   2.767 -33.883  1.00  0.00    -0.021 A 
HETATM    5  C   UNL     1      -6.501   4.126 -33.667  1.00  0.00     0.075 C 
HETATM    6  C   UNL     1      -9.169   1.656 -34.008  1.00  0.00     0.038 A 
HETATM    7  C   UNL     1      -8.493   0.435 -34.132  1.00  0.00     0.016 A 
HETATM    8  C   UNL     1      -7.077   0.360 -34.134  1.00  0.00    -0.005 A 
HETATM    9  C   UNL     1      -6.357   1.566 -34.002  1.00  0.00     0.024 A 
ENDROOT
BRANCH   1  10
HETATM   10  C   UNL     1      -7.944   5.990 -32.666  1.00  0.00     0.155 C 
BRANCH  10  11
HETATM   11  N   UNL     1      -6.694   6.483 -32.113  1.00  0.00    -0.359 N 
HETATM   12  C   UNL     1      -6.176   6.004 -30.929  1.00  0.00     0.219 C 
HETATM   13  O   UNL     1      -6.748   5.169 -30.238  1.00  0.00    -0.274 OA
HETATM   14  H   UNL     1      -6.119   7.082 -32.694  1.00  0.00     0.162 HD
BRANCH  12  15
HETATM   15  C   UNL     1      -4.833   6.611 -30.583  1.00  0.00     0.128 C 
BRANCH  15  16
HETATM   16  C   UNL     1      -3.659   5.728 -31.018  1.00  0.00     0.094 C 
HETATM   17  N   UNL     1      -4.032   4.318 -30.917  1.00  0.00    -0.362 N 
HETATM   18  C   UNL     1      -3.454   3.322 -31.632  1.00  0.00     0.168 C 
HETATM   19  H   UNL     1      -4.536   4.001 -30.096  1.00  0.00     0.162 HD
HETATM   20  N   UNL     1      -2.637   3.673 -32.654  1.00  0.00    -0.363 N 
HETATM   21  S   UNL     1      -3.772   1.729 -31.292  1.00  0.00    -0.041 SA
HETATM   22  C   UNL     1      -2.160   5.023 -32.894  1.00  0.00     0.081 C 
HETATM   23  H   UNL     1      -2.203   2.906 -33.154  1.00  0.00     0.162 HD
HETATM   24  C   UNL     1      -0.807   5.241 -32.219  1.00  0.00     0.032 C 
HETATM   25  C   UNL     1      -3.212   6.038 -32.452  1.00  0.00     0.050 C 
ENDBRANCH  15  16
ENDBRANCH  12  15
ENDBRANCH  10  11
ENDBRANCH   1  10
BRANCH   8  26
HETATM   26  C   UNL     1      -6.361  -0.927 -34.244  1.00  0.00     0.089 A 
HETATM   27  N   UNL     1      -5.070  -0.929 -33.828  1.00  0.00    -0.147 NA
HETATM   28  N   UNL     1      -4.313  -2.074 -33.886  1.00  0.00    -0.124 NA
HETATM   29  C   UNL     1      -4.859  -3.208 -34.364  1.00  0.00     0.185 A 
HETATM   30  C   UNL     1      -6.165  -3.257 -34.805  1.00  0.00     0.062 A 
HETATM   31  C   UNL     1      -6.930  -2.094 -34.746  1.00  0.00     0.038 A 
BRANCH  29  32
HETATM   32  O   UNL     1      -4.127  -4.374 -34.436  1.00  0.00    -0.338 OA
HETATM   33  C   UNL     1      -3.376  -4.628 -33.252  1.00  0.00     0.211 C 
ENDBRANCH  29  32
ENDBRANCH   8  26
TORSDOF 6
ENDMDL
MODEL 6
REMARK VINA RESULT:      -8.0      5.803      9.130
REMARK  6 active torsions:
REMARK  status: ('A' for Active; 'I' for Inactive)
REMARK    1  A    between atoms: C_7  and  C_8 
REMARK    2  A    between atoms: C_8  and  C_9 
REMARK       I    between atoms: C_9  and  N_10 
REMARK    3  A    between atoms: N_10  and  C_11 
REMARK    4  A    between atoms: C_11  and  C_12 
REMARK    5  A    between atoms: C_19  and  C_20 
REMARK    6  A    between atoms: C_23  and  O_24 
ROOT
HETATM    1  C   UNL     1      -3.667   5.303 -31.775  1.00  0.00     0.151 C 
HETATM    2  O   UNL     1      -5.115   5.152 -31.840  1.00  0.00    -0.343 OA
HETATM    3  C   UNL     1      -5.313   3.880 -32.294  1.00  0.00     0.075 A 
HETATM    4  C   UNL     1      -4.162   3.126 -32.381  1.00  0.00    -0.021 A 
HETATM    5  C   UNL     1      -3.006   3.920 -31.913  1.00  0.00     0.075 C 
HETATM    6  C   UNL     1      -6.545   3.351 -32.611  1.00  0.00     0.038 A 
HETATM    7  C   UNL     1      -6.603   2.017 -33.033  1.00  0.00     0.016 A 
HETATM    8  C   UNL     1      -5.439   1.214 -33.137  1.00  0.00    -0.005 A 
HETATM    9  C   UNL     1      -4.204   1.803 -32.794  1.00  0.00     0.024 A 
ENDROOT
BRANCH   1  10
HETATM   10  C   UNL     1      -3.318   6.000 -30.451  1.00  0.00     0.155 C 
BRANCH  10  11
HETATM   11  N   UNL     1      -1.900   6.058 -30.141  1.00  0.00    -0.359 N 
HETATM   12  C   UNL     1      -1.103   7.105 -30.548  1.00  0.00     0.219 C 
HETATM   13  O   UNL     1      -1.516   8.033 -31.234  1.00  0.00    -0.274 OA
HETATM   14  H   UNL     1      -1.530   5.385 -29.480  1.00  0.00     0.162 HD
BRANCH  12  15
HETATM   15  C   UNL     1       0.323   6.989 -30.054  1.00  0.00     0.128 C 
BRANCH  15  16
HETATM   16  C   UNL     1       0.554   7.745 -28.742  1.00  0.00     0.094 C 
HETATM   17  N   UNL     1      -0.558   8.659 -28.491  1.00  0.00    -0.362 N 
HETATM   18  C   UNL     1      -0.915   9.110 -27.263  1.00  0.00     0.168 C 
HETATM   19  H   UNL     1      -0.919   9.216 -29.258  1.00  0.00     0.162 HD
HETATM   20  N   UNL     1      -0.351   8.513 -26.185  1.00  0.00    -0.363 N 
HETATM   21  S   UNL     1      -2.037  10.320 -27.088  1.00  0.00    -0.041 SA
HETATM   22  C   UNL     1       0.767   7.590 -26.253  1.00  0.00     0.081 C 
HETATM   23  H   UNL     1      -0.622   8.888 -25.283  1.00  0.00     0.162 HD
HETATM   24  C   UNL     1       2.089   8.336 -26.075  1.00  0.00     0.032 C 
HETATM   25  C   UNL     1       0.710   6.790 -27.552  1.00  0.00     0.050 C 
ENDBRANCH  15  16
ENDBRANCH  12  15
ENDBRANCH  10  11
ENDBRANCH   1  10
BRANCH   8  26
HETATM   26  C   UNL     1      -5.497  -0.199 -33.562  1.00  0.00     0.089 A 
HETATM   27  N   UNL     1      -4.323  -0.879 -33.537  1.00  0.00    -0.147 NA
HETATM   28  N   UNL     1      -4.266  -2.199 -33.911  1.00  0.00    -0.124 NA
HETATM   29  C   UNL     1      -5.389  -2.826 -34.310  1.00  0.00     0.185 A 
HETATM   30  C   UNL     1      -6.605  -2.178 -34.359  1.00  0.00     0.062 A 
HETATM   31  C   UNL     1      -6.661  -0.838 -33.979  1.00  0.00     0.038 A 
BRANCH  29  32
HETATM   32  O   UNL     1      -5.366  -4.150 -34.692  1.00  0.00    -0.338 OA
HETATM   33  C   UNL     1      -6.519  -4.530 -35.439  1.00  0.00     0.211 C 
ENDBRANCH  29  32
ENDBRANCH   8  26
TORSDOF 6
ENDMDL
MODEL 7
REMARK VINA RESULT:      -7.9      5.732      9.902
REMARK  6 active torsions:
REMARK  status: ('A' for Active; 'I' for Inactive)
REMARK    1  A    between atoms: C_7  and  C_8 
REMARK    2  A    between atoms: C_8  and  C_9 
REMARK       I    between atoms: C_9  and  N_10 
REMARK    3  A    between atoms: N_10  and  C_11 
REMARK    4  A    between atoms: C_11  and  C_12 
REMARK    5  A    between atoms: C_19  and  C_20 
REMARK    6  A    between atoms: C_23  and  O_24 
ROOT
HETATM    1  C   UNL     1      -2.485   6.111 -34.022  1.00  0.00     0.151 C 
HETATM    2  O   UNL     1      -1.439   5.196 -33.582  1.00  0.00    -0.343 OA
HETATM    3  C   UNL     1      -0.996   5.715 -32.399  1.00  0.00     0.075 A 
HETATM    4  C   UNL     1      -1.743   6.777 -31.934  1.00  0.00    -0.021 A 
HETATM    5  C   UNL     1      -2.867   7.043 -32.858  1.00  0.00     0.075 C 
HETATM    6  C   UNL     1       0.076   5.223 -31.688  1.00  0.00     0.038 A 
HETATM    7  C   UNL     1       0.397   5.835 -30.470  1.00  0.00     0.016 A 
HETATM    8  C   UNL     1      -0.347   6.930 -29.963  1.00  0.00    -0.005 A 
HETATM    9  C   UNL     1      -1.439   7.391 -30.729  1.00  0.00     0.024 A 
ENDROOT
BRANCH   1  10
HETATM   10  C   UNL     1      -3.670   5.274 -34.527  1.00  0.00     0.155 C 
BRANCH  10  11
HETATM   11  N   UNL     1      -4.309   4.443 -33.522  1.00  0.00    -0.359 N 
HETATM   12  C   UNL     1      -5.677   4.277 -33.470  1.00  0.00     0.219 C 
HETATM   13  O   UNL     1      -6.449   4.846 -34.231  1.00  0.00    -0.274 OA
HETATM   14  H   UNL     1      -3.720   3.856 -32.944  1.00  0.00     0.162 HD
BRANCH  12  15
HETATM   15  C   UNL     1      -6.114   3.315 -32.385  1.00  0.00     0.128 C 
BRANCH  15  16
HETATM   16  C   UNL     1      -6.977   2.171 -32.926  1.00  0.00     0.094 C 
HETATM   17  N   UNL     1      -8.309   2.669 -33.263  1.00  0.00    -0.362 N 
HETATM   18  C   UNL     1      -9.137   2.086 -34.165  1.00  0.00     0.168 C 
HETATM   19  H   UNL     1      -8.775   3.301 -32.621  1.00  0.00     0.162 HD
HETATM   20  N   UNL     1      -8.622   1.116 -34.957  1.00  0.00    -0.363 N 
HETATM   21  S   UNL     1     -10.715   2.576 -34.319  1.00  0.00    -0.041 SA
HETATM   22  C   UNL     1      -7.322   0.502 -34.759  1.00  0.00     0.081 C 
HETATM   23  H   UNL     1      -9.272   0.685 -35.604  1.00  0.00     0.162 HD
HETATM   24  C   UNL     1      -7.450  -0.764 -33.913  1.00  0.00     0.032 C 
HETATM   25  C   UNL     1      -6.348   1.516 -34.161  1.00  0.00     0.050 C 
ENDBRANCH  15  16
ENDBRANCH  12  15
ENDBRANCH  10  11
ENDBRANCH   1  10
BRANCH   8  26
HETATM   26  C   UNL     1      -0.025   7.565 -28.670  1.00  0.00     0.089 A 
HETATM   27  N   UNL     1      -1.017   7.574 -27.745  1.00  0.00    -0.147 NA
HETATM   28  N   UNL     1      -0.822   8.138 -26.507  1.00  0.00    -0.124 NA
HETATM   29  C   UNL     1       0.368   8.693 -26.211  1.00  0.00     0.185 A 
HETATM   30  C   UNL     1       1.407   8.715 -27.118  1.00  0.00     0.062 A 
HETATM   31  C   UNL     1       1.206   8.143 -28.372  1.00  0.00     0.038 A 
BRANCH  29  32
HETATM   32  O   UNL     1       0.597   9.268 -24.978  1.00  0.00    -0.338 OA
HETATM   33  C   UNL     1       1.981   9.335 -24.648  1.00  0.00     0.211 C 
ENDBRANCH  29  32
ENDBRANCH   8  26
TORSDOF 6
ENDMDL
MODEL 8
REMARK VINA RESULT:      -7.8      3.020      6.597
REMARK  6 active torsions:
REMARK  status: ('A' for Active; 'I' for Inactive)
REMARK    1  A    between atoms: C_7  and  C_8 
REMARK    2  A    between atoms: C_8  and  C_9 
REMARK       I    between atoms: C_9  and  N_10 
REMARK    3  A    between atoms: N_10  and  C_11 
REMARK    4  A    between atoms: C_11  and  C_12 
REMARK    5  A    between atoms: C_19  and  C_20 
REMARK    6  A    between atoms: C_23  and  O_24 
ROOT
HETATM    1  C   UNL     1      -9.682   4.280 -33.474  1.00  0.00     0.151 C 
HETATM    2  O   UNL     1     -10.350   3.163 -32.817  1.00  0.00    -0.343 OA
HETATM    3  C   UNL     1      -9.541   2.088 -33.049  1.00  0.00     0.075 A 
HETATM    4  C   UNL     1      -8.338   2.404 -33.644  1.00  0.00    -0.021 A 
HETATM    5  C   UNL     1      -8.246   3.866 -33.841  1.00  0.00     0.075 C 
HETATM    6  C   UNL     1      -9.851   0.792 -32.697  1.00  0.00     0.038 A 
HETATM    7  C   UNL     1      -8.909  -0.209 -32.966  1.00  0.00     0.016 A 
HETATM    8  C   UNL     1      -7.664   0.081 -33.580  1.00  0.00    -0.005 A 
HETATM    9  C   UNL     1      -7.395   1.425 -33.913  1.00  0.00     0.024 A 
ENDROOT
BRANCH   1  10
HETATM   10  C   UNL     1      -9.729   5.488 -32.526  1.00  0.00     0.155 C 
BRANCH  10  11
HETATM   11  N   UNL     1      -8.469   5.815 -31.883  1.00  0.00    -0.359 N 
HETATM   12  C   UNL     1      -8.052   5.194 -30.726  1.00  0.00     0.219 C 
HETATM   13  O   UNL     1      -8.727   4.360 -30.134  1.00  0.00    -0.274 OA
HETATM   14  H   UNL     1      -7.817   6.406 -32.387  1.00  0.00     0.162 HD
BRANCH  12  15
HETATM   15  C   UNL     1      -6.679   5.644 -30.275  1.00  0.00     0.128 C 
BRANCH  15  16
HETATM   16  C   UNL     1      -5.597   4.593 -30.545  1.00  0.00     0.094 C 
HETATM   17  N   UNL     1      -6.082   3.269 -30.160  1.00  0.00    -0.362 N 
HETATM   18  C   UNL     1      -5.612   2.105 -30.673  1.00  0.00     0.168 C 
HETATM   19  H   UNL     1      -6.582   3.165 -29.285  1.00  0.00     0.162 HD
HETATM   20  N   UNL     1      -4.804   2.176 -31.758  1.00  0.00    -0.363 N 
HETATM   21  S   UNL     1      -6.049   0.644 -30.018  1.00  0.00    -0.041 SA
HETATM   22  C   UNL     1      -4.225   3.405 -32.269  1.00  0.00     0.081 C 
HETATM   23  H   UNL     1      -4.452   1.290 -32.103  1.00  0.00     0.162 HD
HETATM   24  C   UNL     1      -2.837   3.632 -31.673  1.00  0.00     0.032 C 
HETATM   25  C   UNL     1      -5.175   4.575 -32.019  1.00  0.00     0.050 C 
ENDBRANCH  15  16
ENDBRANCH  12  15
ENDBRANCH  10  11
ENDBRANCH   1  10
BRANCH   8  26
HETATM   26  C   UNL     1      -6.659  -0.968 -33.846  1.00  0.00     0.089 A 
HETATM   27  N   UNL     1      -5.396  -0.706 -33.426  1.00  0.00    -0.147 NA
HETATM   28  N   UNL     1      -4.385  -1.615 -33.623  1.00  0.00    -0.124 NA
HETATM   29  C   UNL     1      -4.651  -2.780 -34.243  1.00  0.00     0.185 A 
HETATM   30  C   UNL     1      -5.916  -3.092 -34.694  1.00  0.00     0.062 A 
HETATM   31  C   UNL     1      -6.940  -2.168 -34.494  1.00  0.00     0.038 A 
BRANCH  29  32
HETATM   32  O   UNL     1      -3.660  -3.714 -34.456  1.00  0.00    -0.338 OA
HETATM   33  C   UNL     1      -3.897  -4.939 -33.767  1.00  0.00     0.211 C 
ENDBRANCH  29  32
ENDBRANCH   8  26
TORSDOF 6
ENDMDL
MODEL 9
REMARK VINA RESULT:      -7.7      3.256      6.602
REMARK  6 active torsions:
REMARK  status: ('A' for Active; 'I' for Inactive)
REMARK    1  A    between atoms: C_7  and  C_8 
REMARK    2  A    between atoms: C_8  and  C_9 
REMARK       I    between atoms: C_9  and  N_10 
REMARK    3  A    between atoms: N_10  and  C_11 
REMARK    4  A    between atoms: C_11  and  C_12 
REMARK    5  A    between atoms: C_19  and  C_20 
REMARK    6  A    between atoms: C_23  and  O_24 
ROOT
HETATM    1  C   UNL     1      -5.996   4.343 -29.751  1.00  0.00     0.151 C 
HETATM    2  O   UNL     1      -4.715   4.348 -30.447  1.00  0.00    -0.343 OA
HETATM    3  C   UNL     1      -4.665   3.146 -31.093  1.00  0.00     0.075 A 
HETATM    4  C   UNL     1      -5.836   2.422 -31.030  1.00  0.00    -0.021 A 
HETATM    5  C   UNL     1      -6.859   3.187 -30.286  1.00  0.00     0.075 C 
HETATM    6  C   UNL     1      -3.569   2.684 -31.788  1.00  0.00     0.038 A 
HETATM    7  C   UNL     1      -3.670   1.445 -32.432  1.00  0.00     0.016 A 
HETATM    8  C   UNL     1      -4.858   0.672 -32.386  1.00  0.00    -0.005 A 
HETATM    9  C   UNL     1      -5.953   1.195 -31.665  1.00  0.00     0.024 A 
ENDROOT
BRANCH   1  10
HETATM   10  C   UNL     1      -6.652   5.717 -29.949  1.00  0.00     0.155 C 
BRANCH  10  11
HETATM   11  N   UNL     1      -7.662   5.772 -30.992  1.00  0.00    -0.359 N 
HETATM   12  C   UNL     1      -7.342   6.006 -32.312  1.00  0.00     0.219 C 
HETATM   13  O   UNL     1      -6.200   6.229 -32.693  1.00  0.00    -0.274 OA
HETATM   14  H   UNL     1      -8.604   5.479 -30.759  1.00  0.00     0.162 HD
BRANCH  12  15
HETATM   15  C   UNL     1      -8.544   5.951 -33.230  1.00  0.00     0.128 C 
BRANCH  15  16
HETATM   16  C   UNL     1      -9.182   4.559 -33.282  1.00  0.00     0.094 C 
HETATM   17  N   UNL     1     -10.319   4.566 -34.200  1.00  0.00    -0.362 N 
HETATM   18  C   UNL     1     -10.798   3.465 -34.831  1.00  0.00     0.168 C 
HETATM   19  H   UNL     1     -10.970   5.343 -34.170  1.00  0.00     0.162 HD
HETATM   20  N   UNL     1     -10.051   2.336 -34.781  1.00  0.00    -0.363 N 
HETATM   21  S   UNL     1     -12.228   3.516 -35.671  1.00  0.00    -0.041 SA
HETATM   22  C   UNL     1      -8.898   2.155 -33.919  1.00  0.00     0.081 C 
HETATM   23  H   UNL     1     -10.447   1.526 -35.243  1.00  0.00     0.162 HD
HETATM   24  C   UNL     1      -9.312   1.504 -32.601  1.00  0.00     0.032 C 
HETATM   25  C   UNL     1      -8.176   3.487 -33.720  1.00  0.00     0.050 C 
ENDBRANCH  15  16
ENDBRANCH  12  15
ENDBRANCH  10  11
ENDBRANCH   1  10
BRANCH   8  26
HETATM   26  C   UNL     1      -4.977  -0.626 -33.081  1.00  0.00     0.089 A 
HETATM   27  N   UNL     1      -4.014  -1.541 -32.806  1.00  0.00    -0.147 NA
HETATM   28  N   UNL     1      -4.031  -2.781 -33.397  1.00  0.00    -0.124 NA
HETATM   29  C   UNL     1      -5.014  -3.090 -34.263  1.00  0.00     0.185 A 
HETATM   30  C   UNL     1      -6.013  -2.194 -34.580  1.00  0.00     0.062 A 
HETATM   31  C   UNL     1      -5.993  -0.936 -33.980  1.00  0.00     0.038 A 
BRANCH  29  32
HETATM   32  O   UNL     1      -5.061  -4.326 -34.873  1.00  0.00    -0.338 OA
HETATM   33  C   UNL     1      -6.347  -4.630 -35.407  1.00  0.00     0.211 C 
ENDBRANCH  29  32
ENDBRANCH   8  26
TORSDOF 6
ENDMDL
MODEL 10
REMARK VINA RESULT:      -7.7      4.833      7.466
REMARK  6 active torsions:
REMARK  status: ('A' for Active; 'I' for Inactive)
REMARK    1  A    between atoms: C_7  and  C_8 
REMARK    2  A    between atoms: C_8  and  C_9 
REMARK       I    between atoms: C_9  and  N_10 
REMARK    3  A    between atoms: N_10  and  C_11 
REMARK    4  A    between atoms: C_11  and  C_12 
REMARK    5  A    between atoms: C_19  and  C_20 
REMARK    6  A    between atoms: C_23  and  O_24 
ROOT
HETATM    1  C   UNL     1      -5.809   4.161 -29.585  1.00  0.00     0.151 C 
HETATM    2  O   UNL     1      -4.523   4.107 -30.269  1.00  0.00    -0.343 OA
HETATM    3  C   UNL     1      -4.544   2.928 -30.958  1.00  0.00     0.075 A 
HETATM    4  C   UNL     1      -5.761   2.280 -30.931  1.00  0.00    -0.021 A 
HETATM    5  C   UNL     1      -6.740   3.084 -30.169  1.00  0.00     0.075 C 
HETATM    6  C   UNL     1      -3.473   2.419 -31.660  1.00  0.00     0.038 A 
HETATM    7  C   UNL     1      -3.648   1.213 -32.350  1.00  0.00     0.016 A 
HETATM    8  C   UNL     1      -4.885   0.519 -32.342  1.00  0.00    -0.005 A 
HETATM    9  C   UNL     1      -5.951   1.088 -31.612  1.00  0.00     0.024 A 
ENDROOT
BRANCH   1  10
HETATM   10  C   UNL     1      -6.372   5.582 -29.739  1.00  0.00     0.155 C 
BRANCH  10  11
HETATM   11  N   UNL     1      -5.687   6.413 -30.714  1.00  0.00    -0.359 N 
HETATM   12  C   UNL     1      -4.619   7.214 -30.372  1.00  0.00     0.219 C 
HETATM   13  O   UNL     1      -4.201   7.319 -29.226  1.00  0.00    -0.274 OA
HETATM   14  H   UNL     1      -5.908   6.279 -31.694  1.00  0.00     0.162 HD
BRANCH  12  15
HETATM   15  C   UNL     1      -4.019   7.937 -31.560  1.00  0.00     0.128 C 
BRANCH  15  16
HETATM   16  C   UNL     1      -2.809   7.204 -32.145  1.00  0.00     0.094 C 
HETATM   17  N   UNL     1      -1.915   6.781 -31.069  1.00  0.00    -0.362 N 
HETATM   18  C   UNL     1      -1.042   5.747 -31.163  1.00  0.00     0.168 C 
HETATM   19  H   UNL     1      -1.710   7.429 -30.317  1.00  0.00     0.162 HD
HETATM   20  N   UNL     1      -1.155   4.923 -32.232  1.00  0.00    -0.363 N 
HETATM   21  S   UNL     1       0.096   5.480 -29.985  1.00  0.00    -0.041 SA
HETATM   22  C   UNL     1      -1.987   5.194 -33.390  1.00  0.00     0.081 C 
HETATM   23  H   UNL     1      -0.474   4.174 -32.284  1.00  0.00     0.162 HD
HETATM   24  C   UNL     1      -1.177   5.897 -34.478  1.00  0.00     0.032 C 
HETATM   25  C   UNL     1      -3.227   5.983 -32.973  1.00  0.00     0.050 C 
ENDBRANCH  15  16
ENDBRANCH  12  15
ENDBRANCH  10  11
ENDBRANCH   1  10
BRANCH   8  26
HETATM   26  C   UNL     1      -5.081  -0.742 -33.084  1.00  0.00     0.089 A 
HETATM   27  N   UNL     1      -4.060  -1.634 -33.026  1.00  0.00    -0.147 NA
HETATM   28  N   UNL     1      -4.140  -2.839 -33.680  1.00  0.00    -0.124 NA
HETATM   29  C   UNL     1      -5.244  -3.138 -34.390  1.00  0.00     0.185 A 
HETATM   30  C   UNL     1      -6.307  -2.264 -34.485  1.00  0.00     0.062 A 
HETATM   31  C   UNL     1      -6.223  -1.042 -33.821  1.00  0.00     0.038 A 
BRANCH  29  32
HETATM   32  O   UNL     1      -5.356  -4.339 -35.057  1.00  0.00    -0.338 OA
HETATM   33  C   UNL     1      -6.685  -4.603 -35.501  1.00  0.00     0.211 C 
ENDBRANCH  29  32
ENDBRANCH   8  26
TORSDOF 6
ENDMDL
