MODEL 1
REMARK VINA RESULT:      -9.2      0.000      0.000
REMARK  8 active torsions:
REMARK  status: ('A' for Active; 'I' for Inactive)
REMARK    1  A    between atoms: C_8  and  C_9 
REMARK    2  A    between atoms: N_10  and  C_11 
REMARK    3  A    between atoms: C_11  and  C_12 
REMARK    4  A    between atoms: C_17  and  S_18 
REMARK    5  A    between atoms: S_18  and  C_19 
REMARK    6  A    between atoms: C_19  and  C_20 
REMARK       I    between atoms: C_20  and  N_21 
REMARK    7  A    between atoms: N_21  and  C_22 
REMARK    8  A    between atoms: C_30  and  O_31 
ROOT
HETATM    1  C   UNL     1      -5.490   2.229 -31.422  1.00  0.00     0.167 A 
HETATM    2  N   UNL     1      -5.511   3.529 -31.906  1.00  0.00    -0.301 N 
HETATM    3  C   UNL     1      -5.716   4.321 -30.803  1.00  0.00     0.192 A 
HETATM    4  N   UNL     1      -5.823   3.580 -29.730  1.00  0.00    -0.122 NA
HETATM    5  N   UNL     1      -5.672   2.284 -30.109  1.00  0.00    -0.128 NA
ENDROOT
BRANCH   1   6
HETATM    6  C   UNL     1      -5.227   0.959 -32.118  1.00  0.00     0.046 A 
HETATM    7  C   UNL     1      -6.213   0.238 -32.805  1.00  0.00     0.030 A 
HETATM    8  C   UNL     1      -5.928  -0.990 -33.439  1.00  0.00    -0.025 A 
HETATM    9  C   UNL     1      -6.918  -1.701 -34.139  1.00  0.00     0.012 A 
HETATM   10  C   UNL     1      -4.625  -1.527 -33.367  1.00  0.00    -0.023 A 
HETATM   11  C   UNL     1      -6.625  -2.923 -34.748  1.00  0.00     0.001 A 
HETATM   12  C   UNL     1      -5.341  -3.452 -34.668  1.00  0.00     0.001 A 
HETATM   13  C   UNL     1      -4.345  -2.758 -33.981  1.00  0.00     0.012 A 
HETATM   14  C   UNL     1      -3.637  -0.824 -32.669  1.00  0.00     0.049 A 
HETATM   15  C   UNL     1      -3.940   0.388 -32.051  1.00  0.00     0.080 A 
BRANCH  15  16
HETATM   16  O   UNL     1      -2.901   0.973 -31.369  1.00  0.00    -0.360 OA
HETATM   17  H   UNL     1      -2.072   0.788 -31.858  1.00  0.00     0.217 HD
ENDBRANCH  15  16
ENDBRANCH   1   6
BRANCH   2  18
HETATM   18  C   UNL     1      -5.404   3.989 -33.279  1.00  0.00     0.198 C 
BRANCH  18  19
HETATM   19  C   UNL     1      -4.049   4.470 -33.629  1.00  0.00     0.070 A 
HETATM   20  O   UNL     1      -4.008   5.572 -34.434  1.00  0.00    -0.325 OA
HETATM   21  C   UNL     1      -2.701   5.883 -34.619  1.00  0.00     0.142 A 
HETATM   22  C   UNL     1      -1.897   4.998 -33.941  1.00  0.00     0.027 A 
HETATM   23  C   UNL     1      -2.767   4.086 -33.297  1.00  0.00     0.036 A 
ENDBRANCH  18  19
ENDBRANCH   2  18
BRANCH   3  24
HETATM   24  S   UNL     1      -5.817   6.046 -30.802  1.00  0.00    -0.081 SA
BRANCH  24  25
HETATM   25  C   UNL     1      -5.026   6.428 -29.212  1.00  0.00     0.185 C 
BRANCH  25  26
HETATM   26  C   UNL     1      -3.594   6.919 -29.351  1.00  0.00     0.227 C 
HETATM   27  N   UNL     1      -2.756   6.111 -30.084  1.00  0.00    -0.356 N 
HETATM   28  H   UNL     1      -3.139   5.251 -30.476  1.00  0.00     0.162 HD
HETATM   29  O   UNL     1      -3.207   7.927 -28.764  1.00  0.00    -0.273 OA
BRANCH  27  30
HETATM   30  C   UNL     1      -1.324   6.295 -30.123  1.00  0.00     0.084 C 
HETATM   31  C   UNL     1      -0.587   5.001 -30.449  1.00  0.00     0.025 C 
HETATM   32  C   UNL     1       0.809   5.464 -30.845  1.00  0.00     0.002 C 
HETATM   33  C   UNL     1       0.639   6.882 -31.390  1.00  0.00     0.002 C 
HETATM   34  C   UNL     1      -0.839   7.230 -31.228  1.00  0.00     0.025 C 
ENDBRANCH  27  30
ENDBRANCH  25  26
ENDBRANCH  24  25
ENDBRANCH   3  24
TORSDOF 8
ENDMDL
MODEL 2
REMARK VINA RESULT:      -9.2      1.914      3.425
REMARK  8 active torsions:
REMARK  status: ('A' for Active; 'I' for Inactive)
REMARK    1  A    between atoms: C_8  and  C_9 
REMARK    2  A    between atoms: N_10  and  C_11 
REMARK    3  A    between atoms: C_11  and  C_12 
REMARK    4  A    between atoms: C_17  and  S_18 
REMARK    5  A    between atoms: S_18  and  C_19 
REMARK    6  A    between atoms: C_19  and  C_20 
REMARK       I    between atoms: C_20  and  N_21 
REMARK    7  A    between atoms: N_21  and  C_22 
REMARK    8  A    between atoms: C_30  and  O_31 
ROOT
HETATM    1  C   UNL     1      -4.448   1.309 -32.293  1.00  0.00     0.167 A 
HETATM    2  N   UNL     1      -5.542   1.956 -31.738  1.00  0.00    -0.301 N 
HETATM    3  C   UNL     1      -5.246   3.294 -31.814  1.00  0.00     0.192 A 
HETATM    4  N   UNL     1      -4.069   3.466 -32.359  1.00  0.00    -0.122 NA
HETATM    5  N   UNL     1      -3.577   2.237 -32.667  1.00  0.00    -0.128 NA
ENDROOT
BRANCH   1   6
HETATM    6  C   UNL     1      -4.221  -0.121 -32.560  1.00  0.00     0.046 A 
HETATM    7  C   UNL     1      -5.002  -0.872 -33.450  1.00  0.00     0.030 A 
HETATM    8  C   UNL     1      -4.771  -2.247 -33.662  1.00  0.00    -0.025 A 
HETATM    9  C   UNL     1      -5.548  -2.991 -34.565  1.00  0.00     0.012 A 
HETATM   10  C   UNL     1      -3.742  -2.900 -32.948  1.00  0.00    -0.023 A 
HETATM   11  C   UNL     1      -5.317  -4.356 -34.753  1.00  0.00     0.001 A 
HETATM   12  C   UNL     1      -4.308  -4.997 -34.042  1.00  0.00     0.001 A 
HETATM   13  C   UNL     1      -3.524  -4.273 -33.143  1.00  0.00     0.012 A 
HETATM   14  C   UNL     1      -2.968  -2.164 -32.045  1.00  0.00     0.049 A 
HETATM   15  C   UNL     1      -3.213  -0.805 -31.852  1.00  0.00     0.080 A 
BRANCH  15  16
HETATM   16  O   UNL     1      -2.412  -0.193 -30.919  1.00  0.00    -0.360 OA
HETATM   17  H   UNL     1      -2.619   0.765 -30.921  1.00  0.00     0.217 HD
ENDBRANCH  15  16
ENDBRANCH   1   6
BRANCH   2  18
HETATM   18  C   UNL     1      -6.731   1.377 -31.141  1.00  0.00     0.198 C 
BRANCH  18  19
HETATM   19  C   UNL     1      -7.786   1.062 -32.130  1.00  0.00     0.070 A 
HETATM   20  O   UNL     1      -8.862   0.378 -31.642  1.00  0.00    -0.325 OA
HETATM   21  C   UNL     1      -9.729   0.209 -32.672  1.00  0.00     0.142 A 
HETATM   22  C   UNL     1      -9.229   0.779 -33.818  1.00  0.00     0.027 A 
HETATM   23  C   UNL     1      -7.974   1.334 -33.469  1.00  0.00     0.036 A 
ENDBRANCH  18  19
ENDBRANCH   2  18
BRANCH   3  24
HETATM   24  S   UNL     1      -6.263   4.586 -31.282  1.00  0.00    -0.081 SA
BRANCH  24  25
HETATM   25  C   UNL     1      -5.284   5.236 -29.897  1.00  0.00     0.185 C 
BRANCH  25  26
HETATM   26  C   UNL     1      -4.202   6.214 -30.327  1.00  0.00     0.227 C 
HETATM   27  N   UNL     1      -2.934   5.691 -30.430  1.00  0.00    -0.356 N 
HETATM   28  H   UNL     1      -2.802   4.703 -30.212  1.00  0.00     0.162 HD
HETATM   29  O   UNL     1      -4.447   7.408 -30.480  1.00  0.00    -0.273 OA
BRANCH  27  30
HETATM   30  C   UNL     1      -1.757   6.512 -30.593  1.00  0.00     0.084 C 
HETATM   31  C   UNL     1      -1.031   6.745 -29.273  1.00  0.00     0.025 C 
HETATM   32  C   UNL     1       0.343   7.248 -29.694  1.00  0.00     0.002 C 
HETATM   33  C   UNL     1       0.598   6.654 -31.079  1.00  0.00     0.002 C 
HETATM   34  C   UNL     1      -0.664   5.882 -31.454  1.00  0.00     0.025 C 
ENDBRANCH  27  30
ENDBRANCH  25  26
ENDBRANCH  24  25
ENDBRANCH   3  24
TORSDOF 8
ENDMDL
MODEL 3
REMARK VINA RESULT:      -9.2      2.414      4.131
REMARK  8 active torsions:
REMARK  status: ('A' for Active; 'I' for Inactive)
REMARK    1  A    between atoms: C_8  and  C_9 
REMARK    2  A    between atoms: N_10  and  C_11 
REMARK    3  A    between atoms: C_11  and  C_12 
REMARK    4  A    between atoms: C_17  and  S_18 
REMARK    5  A    between atoms: S_18  and  C_19 
REMARK    6  A    between atoms: C_19  and  C_20 
REMARK       I    between atoms: C_20  and  N_21 
REMARK    7  A    between atoms: N_21  and  C_22 
REMARK    8  A    between atoms: C_30  and  O_31 
ROOT
HETATM    1  C   UNL     1      -4.644   0.591 -32.167  1.00  0.00     0.167 A 
HETATM    2  N   UNL     1      -5.690   1.269 -31.559  1.00  0.00    -0.301 N 
HETATM    3  C   UNL     1      -5.221   2.541 -31.346  1.00  0.00     0.192 A 
HETATM    4  N   UNL     1      -3.989   2.645 -31.775  1.00  0.00    -0.122 NA
HETATM    5  N   UNL     1      -3.633   1.441 -32.295  1.00  0.00    -0.128 NA
ENDROOT
BRANCH   1   6
HETATM    6  C   UNL     1      -4.580  -0.778 -32.703  1.00  0.00     0.046 A 
HETATM    7  C   UNL     1      -5.535  -1.308 -33.581  1.00  0.00     0.030 A 
HETATM    8  C   UNL     1      -5.453  -2.635 -34.055  1.00  0.00    -0.025 A 
HETATM    9  C   UNL     1      -6.407  -3.155 -34.946  1.00  0.00     0.012 A 
HETATM   10  C   UNL     1      -4.398  -3.466 -33.622  1.00  0.00    -0.023 A 
HETATM   11  C   UNL     1      -6.322  -4.475 -35.394  1.00  0.00     0.001 A 
HETATM   12  C   UNL     1      -5.285  -5.294 -34.959  1.00  0.00     0.001 A 
HETATM   13  C   UNL     1      -4.327  -4.793 -34.077  1.00  0.00     0.012 A 
HETATM   14  C   UNL     1      -3.448  -2.953 -32.733  1.00  0.00     0.049 A 
HETATM   15  C   UNL     1      -3.548  -1.639 -32.279  1.00  0.00     0.080 A 
BRANCH  15  16
HETATM   16  O   UNL     1      -2.578  -1.254 -31.384  1.00  0.00    -0.360 OA
HETATM   17  H   UNL     1      -2.792  -0.349 -31.073  1.00  0.00     0.217 HD
ENDBRANCH  15  16
ENDBRANCH   1   6
BRANCH   2  18
HETATM   18  C   UNL     1      -6.991   0.761 -31.161  1.00  0.00     0.198 C 
BRANCH  18  19
HETATM   19  C   UNL     1      -8.006   0.855 -32.233  1.00  0.00     0.070 A 
HETATM   20  O   UNL     1      -9.222   0.309 -31.939  1.00  0.00    -0.325 OA
HETATM   21  C   UNL     1     -10.024   0.515 -33.014  1.00  0.00     0.142 A 
HETATM   22  C   UNL     1      -9.342   1.193 -33.997  1.00  0.00     0.027 A 
HETATM   23  C   UNL     1      -8.038   1.416 -33.493  1.00  0.00     0.036 A 
ENDBRANCH  18  19
ENDBRANCH   2  18
BRANCH   3  24
HETATM   24  S   UNL     1      -6.107   3.838 -30.626  1.00  0.00    -0.081 SA
BRANCH  24  25
HETATM   25  C   UNL     1      -6.765   4.659 -32.107  1.00  0.00     0.185 C 
BRANCH  25  26
HETATM   26  C   UNL     1      -5.699   4.988 -33.140  1.00  0.00     0.227 C 
HETATM   27  N   UNL     1      -4.524   5.500 -32.640  1.00  0.00    -0.356 N 
HETATM   28  H   UNL     1      -4.445   5.627 -31.632  1.00  0.00     0.162 HD
HETATM   29  O   UNL     1      -5.924   4.882 -34.344  1.00  0.00    -0.273 OA
BRANCH  27  30
HETATM   30  C   UNL     1      -3.503   6.083 -33.479  1.00  0.00     0.084 C 
HETATM   31  C   UNL     1      -2.611   7.051 -32.709  1.00  0.00     0.025 C 
HETATM   32  C   UNL     1      -1.397   7.228 -33.612  1.00  0.00     0.002 C 
HETATM   33  C   UNL     1      -1.293   5.940 -34.428  1.00  0.00     0.002 C 
HETATM   34  C   UNL     1      -2.491   5.081 -34.029  1.00  0.00     0.025 C 
ENDBRANCH  27  30
ENDBRANCH  25  26
ENDBRANCH  24  25
ENDBRANCH   3  24
TORSDOF 8
ENDMDL
MODEL 4
REMARK VINA RESULT:      -8.7      2.257      3.737
REMARK  8 active torsions:
REMARK  status: ('A' for Active; 'I' for Inactive)
REMARK    1  A    between atoms: C_8  and  C_9 
REMARK    2  A    between atoms: N_10  and  C_11 
REMARK    3  A    between atoms: C_11  and  C_12 
REMARK    4  A    between atoms: C_17  and  S_18 
REMARK    5  A    between atoms: S_18  and  C_19 
REMARK    6  A    between atoms: C_19  and  C_20 
REMARK       I    between atoms: C_20  and  N_21 
REMARK    7  A    between atoms: N_21  and  C_22 
REMARK    8  A    between atoms: C_30  and  O_31 
ROOT
HETATM    1  C   UNL     1      -5.310   1.469 -32.678  1.00  0.00     0.167 A 
HETATM    2  N   UNL     1      -6.180   2.097 -31.798  1.00  0.00    -0.301 N 
HETATM    3  C   UNL     1      -5.748   3.399 -31.733  1.00  0.00     0.192 A 
HETATM    4  N   UNL     1      -4.699   3.565 -32.496  1.00  0.00    -0.122 NA
HETATM    5  N   UNL     1      -4.432   2.374 -33.092  1.00  0.00    -0.128 NA
ENDROOT
BRANCH   1   6
HETATM    6  C   UNL     1      -5.317   0.095 -33.205  1.00  0.00     0.046 A 
HETATM    7  C   UNL     1      -4.454  -0.911 -32.749  1.00  0.00     0.030 A 
HETATM    8  C   UNL     1      -4.473  -2.211 -33.296  1.00  0.00    -0.025 A 
HETATM    9  C   UNL     1      -3.614  -3.218 -32.824  1.00  0.00     0.012 A 
HETATM   10  C   UNL     1      -5.365  -2.512 -34.347  1.00  0.00    -0.023 A 
HETATM   11  C   UNL     1      -3.633  -4.496 -33.386  1.00  0.00     0.001 A 
HETATM   12  C   UNL     1      -4.509  -4.786 -34.428  1.00  0.00     0.001 A 
HETATM   13  C   UNL     1      -5.371  -3.800 -34.906  1.00  0.00     0.012 A 
HETATM   14  C   UNL     1      -6.219  -1.511 -34.822  1.00  0.00     0.049 A 
HETATM   15  C   UNL     1      -6.185  -0.234 -34.265  1.00  0.00     0.080 A 
BRANCH  15  16
HETATM   16  O   UNL     1      -7.045   0.675 -34.832  1.00  0.00    -0.360 OA
HETATM   17  H   UNL     1      -7.515   1.142 -34.110  1.00  0.00     0.217 HD
ENDBRANCH  15  16
ENDBRANCH   1   6
BRANCH   2  18
HETATM   18  C   UNL     1      -7.279   1.523 -31.044  1.00  0.00     0.198 C 
BRANCH  18  19
HETATM   19  C   UNL     1      -8.491   1.296 -31.861  1.00  0.00     0.070 A 
HETATM   20  O   UNL     1      -8.985   2.399 -32.496  1.00  0.00    -0.325 OA
HETATM   21  C   UNL     1     -10.064   1.997 -33.214  1.00  0.00     0.142 A 
HETATM   22  C   UNL     1     -10.270   0.647 -33.056  1.00  0.00     0.027 A 
HETATM   23  C   UNL     1      -9.252   0.191 -32.184  1.00  0.00     0.036 A 
ENDBRANCH  18  19
ENDBRANCH   2  18
BRANCH   3  24
HETATM   24  S   UNL     1      -6.471   4.656 -30.793  1.00  0.00    -0.081 SA
BRANCH  24  25
HETATM   25  C   UNL     1      -5.602   6.109 -31.452  1.00  0.00     0.185 C 
BRANCH  25  26
HETATM   26  C   UNL     1      -4.298   6.412 -30.732  1.00  0.00     0.227 C 
HETATM   27  N   UNL     1      -3.154   6.243 -31.476  1.00  0.00    -0.356 N 
HETATM   28  H   UNL     1      -3.250   5.927 -32.441  1.00  0.00     0.162 HD
HETATM   29  O   UNL     1      -4.281   6.701 -29.537  1.00  0.00    -0.273 OA
BRANCH  27  30
HETATM   30  C   UNL     1      -1.831   6.255 -30.897  1.00  0.00     0.084 C 
HETATM   31  C   UNL     1      -1.077   4.956 -31.157  1.00  0.00     0.025 C 
HETATM   32  C   UNL     1       0.374   5.306 -30.854  1.00  0.00     0.002 C 
HETATM   33  C   UNL     1       0.504   6.806 -31.116  1.00  0.00     0.002 C 
HETATM   34  C   UNL     1      -0.890   7.298 -31.496  1.00  0.00     0.025 C 
ENDBRANCH  27  30
ENDBRANCH  25  26
ENDBRANCH  24  25
ENDBRANCH   3  24
TORSDOF 8
ENDMDL
MODEL 5
REMARK VINA RESULT:      -8.6      3.878      6.870
REMARK  8 active torsions:
REMARK  status: ('A' for Active; 'I' for Inactive)
REMARK    1  A    between atoms: C_8  and  C_9 
REMARK    2  A    between atoms: N_10  and  C_11 
REMARK    3  A    between atoms: C_11  and  C_12 
REMARK    4  A    between atoms: C_17  and  S_18 
REMARK    5  A    between atoms: S_18  and  C_19 
REMARK    6  A    between atoms: C_19  and  C_20 
REMARK       I    between atoms: C_20  and  N_21 
REMARK    7  A    between atoms: N_21  and  C_22 
REMARK    8  A    between atoms: C_30  and  O_31 
ROOT
HETATM    1  C   UNL     1      -7.343   0.965 -32.602  1.00  0.00     0.167 A 
HETATM    2  N   UNL     1      -7.337   2.268 -33.078  1.00  0.00    -0.301 N 
HETATM    3  C   UNL     1      -8.190   2.957 -32.252  1.00  0.00     0.192 A 
HETATM    4  N   UNL     1      -8.690   2.154 -31.348  1.00  0.00    -0.122 NA
HETATM    5  N   UNL     1      -8.158   0.921 -31.556  1.00  0.00    -0.128 NA
ENDROOT
BRANCH   1   6
HETATM    6  C   UNL     1      -6.564  -0.209 -33.029  1.00  0.00     0.046 A 
HETATM    7  C   UNL     1      -7.117  -1.287 -33.733  1.00  0.00     0.030 A 
HETATM    8  C   UNL     1      -6.344  -2.407 -34.104  1.00  0.00    -0.025 A 
HETATM    9  C   UNL     1      -6.902  -3.479 -34.822  1.00  0.00     0.012 A 
HETATM   10  C   UNL     1      -4.980  -2.464 -33.743  1.00  0.00    -0.023 A 
HETATM   11  C   UNL     1      -6.127  -4.588 -35.169  1.00  0.00     0.001 A 
HETATM   12  C   UNL     1      -4.786  -4.643 -34.803  1.00  0.00     0.001 A 
HETATM   13  C   UNL     1      -4.214  -3.586 -34.094  1.00  0.00     0.012 A 
HETATM   14  C   UNL     1      -4.422  -1.401 -33.025  1.00  0.00     0.049 A 
HETATM   15  C   UNL     1      -5.205  -0.303 -32.670  1.00  0.00     0.080 A 
BRANCH  15  16
HETATM   16  O   UNL     1      -4.558   0.665 -31.941  1.00  0.00    -0.360 OA
HETATM   17  H   UNL     1      -4.140   0.235 -31.166  1.00  0.00     0.217 HD
ENDBRANCH  15  16
ENDBRANCH   1   6
BRANCH   2  18
HETATM   18  C   UNL     1      -6.642   2.809 -34.232  1.00  0.00     0.198 C 
BRANCH  18  19
HETATM   19  C   UNL     1      -5.526   3.711 -33.870  1.00  0.00     0.070 A 
HETATM   20  O   UNL     1      -4.700   3.255 -32.884  1.00  0.00    -0.325 OA
HETATM   21  C   UNL     1      -3.730   4.187 -32.712  1.00  0.00     0.142 A 
HETATM   22  C   UNL     1      -3.916   5.238 -33.578  1.00  0.00     0.027 A 
HETATM   23  C   UNL     1      -5.075   4.930 -34.331  1.00  0.00     0.036 A 
ENDBRANCH  18  19
ENDBRANCH   2  18
BRANCH   3  24
HETATM   24  S   UNL     1      -8.562   4.641 -32.363  1.00  0.00    -0.081 SA
BRANCH  24  25
HETATM   25  C   UNL     1      -9.995   4.596 -33.478  1.00  0.00     0.185 C 
BRANCH  25  26
HETATM   26  C   UNL     1     -11.141   3.744 -32.956  1.00  0.00     0.227 C 
HETATM   27  N   UNL     1     -11.340   2.549 -33.608  1.00  0.00    -0.356 N 
HETATM   28  H   UNL     1     -10.722   2.317 -34.385  1.00  0.00     0.162 HD
HETATM   29  O   UNL     1     -11.887   4.153 -32.068  1.00  0.00    -0.273 OA
BRANCH  27  30
HETATM   30  C   UNL     1     -12.513   1.730 -33.407  1.00  0.00     0.084 C 
HETATM   31  C   UNL     1     -13.548   1.930 -34.507  1.00  0.00     0.025 C 
HETATM   32  C   UNL     1     -14.476   0.731 -34.359  1.00  0.00     0.002 C 
HETATM   33  C   UNL     1     -13.628  -0.379 -33.739  1.00  0.00     0.002 C 
HETATM   34  C   UNL     1     -12.251   0.228 -33.479  1.00  0.00     0.025 C 
ENDBRANCH  27  30
ENDBRANCH  25  26
ENDBRANCH  24  25
ENDBRANCH   3  24
TORSDOF 8
ENDMDL
MODEL 6
REMARK VINA RESULT:      -8.4      4.831      7.689
REMARK  8 active torsions:
REMARK  status: ('A' for Active; 'I' for Inactive)
REMARK    1  A    between atoms: C_8  and  C_9 
REMARK    2  A    between atoms: N_10  and  C_11 
REMARK    3  A    between atoms: C_11  and  C_12 
REMARK    4  A    between atoms: C_17  and  S_18 
REMARK    5  A    between atoms: S_18  and  C_19 
REMARK    6  A    between atoms: C_19  and  C_20 
REMARK       I    between atoms: C_20  and  N_21 
REMARK    7  A    between atoms: N_21  and  C_22 
REMARK    8  A    between atoms: C_30  and  O_31 
ROOT
HETATM    1  C   UNL     1      -6.544   2.551 -33.619  1.00  0.00     0.167 A 
HETATM    2  N   UNL     1      -7.451   3.166 -32.769  1.00  0.00    -0.301 N 
HETATM    3  C   UNL     1      -7.396   4.500 -33.088  1.00  0.00     0.192 A 
HETATM    4  N   UNL     1      -6.526   4.700 -34.045  1.00  0.00    -0.122 NA
HETATM    5  N   UNL     1      -6.005   3.491 -34.384  1.00  0.00    -0.128 NA
ENDROOT
BRANCH   1   6
HETATM    6  C   UNL     1      -6.225   1.125 -33.801  1.00  0.00     0.046 A 
HETATM    7  C   UNL     1      -5.191   0.472 -33.115  1.00  0.00     0.030 A 
HETATM    8  C   UNL     1      -4.899  -0.890 -33.334  1.00  0.00    -0.025 A 
HETATM    9  C   UNL     1      -3.870  -1.542 -32.633  1.00  0.00     0.012 A 
HETATM   10  C   UNL     1      -5.647  -1.620 -34.283  1.00  0.00    -0.023 A 
HETATM   11  C   UNL     1      -3.583  -2.887 -32.872  1.00  0.00     0.001 A 
HETATM   12  C   UNL     1      -4.317  -3.601 -33.814  1.00  0.00     0.001 A 
HETATM   13  C   UNL     1      -5.345  -2.972 -34.516  1.00  0.00     0.012 A 
HETATM   14  C   UNL     1      -6.670  -0.975 -34.985  1.00  0.00     0.049 A 
HETATM   15  C   UNL     1      -6.942   0.372 -34.752  1.00  0.00     0.080 A 
BRANCH  15  16
HETATM   16  O   UNL     1      -7.947   0.908 -35.521  1.00  0.00    -0.360 OA
HETATM   17  H   UNL     1      -7.850   0.563 -36.433  1.00  0.00     0.217 HD
ENDBRANCH  15  16
ENDBRANCH   1   6
BRANCH   2  18
HETATM   18  C   UNL     1      -8.254   2.572 -31.716  1.00  0.00     0.198 C 
BRANCH  18  19
HETATM   19  C   UNL     1      -9.167   1.515 -32.206  1.00  0.00     0.070 A 
HETATM   20  O   UNL     1     -10.007   1.887 -33.215  1.00  0.00    -0.325 OA
HETATM   21  C   UNL     1     -10.737   0.794 -33.552  1.00  0.00     0.142 A 
HETATM   22  C   UNL     1     -10.375  -0.282 -32.775  1.00  0.00     0.027 A 
HETATM   23  C   UNL     1      -9.357   0.182 -31.907  1.00  0.00     0.036 A 
ENDBRANCH  18  19
ENDBRANCH   2  18
BRANCH   3  24
HETATM   24  S   UNL     1      -8.331   5.754 -32.354  1.00  0.00    -0.081 SA
BRANCH  24  25
HETATM   25  C   UNL     1      -9.937   5.490 -33.161  1.00  0.00     0.185 C 
BRANCH  25  26
HETATM   26  C   UNL     1     -10.992   4.908 -32.234  1.00  0.00     0.227 C 
HETATM   27  N   UNL     1     -12.023   4.239 -32.852  1.00  0.00    -0.356 N 
HETATM   28  H   UNL     1     -12.017   4.181 -33.870  1.00  0.00     0.162 HD
HETATM   29  O   UNL     1     -10.957   5.110 -31.022  1.00  0.00    -0.273 OA
BRANCH  27  30
HETATM   30  C   UNL     1     -13.222   3.830 -32.157  1.00  0.00     0.084 C 
HETATM   31  C   UNL     1     -14.375   4.802 -32.381  1.00  0.00     0.025 C 
HETATM   32  C   UNL     1     -15.605   4.018 -31.942  1.00  0.00     0.002 C 
HETATM   33  C   UNL     1     -15.260   2.544 -32.156  1.00  0.00     0.002 C 
HETATM   34  C   UNL     1     -13.814   2.510 -32.646  1.00  0.00     0.025 C 
ENDBRANCH  27  30
ENDBRANCH  25  26
ENDBRANCH  24  25
ENDBRANCH   3  24
TORSDOF 8
ENDMDL
MODEL 7
REMARK VINA RESULT:      -8.3      3.237      5.152
REMARK  8 active torsions:
REMARK  status: ('A' for Active; 'I' for Inactive)
REMARK    1  A    between atoms: C_8  and  C_9 
REMARK    2  A    between atoms: N_10  and  C_11 
REMARK    3  A    between atoms: C_11  and  C_12 
REMARK    4  A    between atoms: C_17  and  S_18 
REMARK    5  A    between atoms: S_18  and  C_19 
REMARK    6  A    between atoms: C_19  and  C_20 
REMARK       I    between atoms: C_20  and  N_21 
REMARK    7  A    between atoms: N_21  and  C_22 
REMARK    8  A    between atoms: C_30  and  O_31 
ROOT
HETATM    1  C   UNL     1      -6.665   1.864 -33.770  1.00  0.00     0.167 A 
HETATM    2  N   UNL     1      -7.586   2.516 -32.964  1.00  0.00    -0.301 N 
HETATM    3  C   UNL     1      -7.342   3.854 -33.148  1.00  0.00     0.192 A 
HETATM    4  N   UNL     1      -6.352   4.021 -33.986  1.00  0.00    -0.122 NA
HETATM    5  N   UNL     1      -5.938   2.789 -34.382  1.00  0.00    -0.128 NA
ENDROOT
BRANCH   1   6
HETATM    6  C   UNL     1      -6.493   0.429 -34.052  1.00  0.00     0.046 A 
HETATM    7  C   UNL     1      -5.396  -0.319 -33.604  1.00  0.00     0.030 A 
HETATM    8  C   UNL     1      -5.253  -1.688 -33.915  1.00  0.00    -0.025 A 
HETATM    9  C   UNL     1      -4.157  -2.435 -33.451  1.00  0.00     0.012 A 
HETATM   10  C   UNL     1      -6.224  -2.325 -34.716  1.00  0.00    -0.023 A 
HETATM   11  C   UNL     1      -4.022  -3.785 -33.780  1.00  0.00     0.001 A 
HETATM   12  C   UNL     1      -4.977  -4.408 -34.577  1.00  0.00     0.001 A 
HETATM   13  C   UNL     1      -6.073  -3.683 -35.043  1.00  0.00     0.012 A 
HETATM   14  C   UNL     1      -7.315  -1.584 -35.183  1.00  0.00     0.049 A 
HETATM   15  C   UNL     1      -7.437  -0.233 -34.862  1.00  0.00     0.080 A 
BRANCH  15  16
HETATM   16  O   UNL     1      -8.530   0.400 -35.401  1.00  0.00    -0.360 OA
HETATM   17  H   UNL     1      -8.228   1.242 -35.802  1.00  0.00     0.217 HD
ENDBRANCH  15  16
ENDBRANCH   1   6
BRANCH   2  18
HETATM   18  C   UNL     1      -8.568   1.943 -32.061  1.00  0.00     0.198 C 
BRANCH  18  19
HETATM   19  C   UNL     1      -9.894   1.749 -32.689  1.00  0.00     0.070 A 
HETATM   20  O   UNL     1     -10.246   0.451 -32.926  1.00  0.00    -0.325 OA
HETATM   21  C   UNL     1     -11.490   0.467 -33.468  1.00  0.00     0.142 A 
HETATM   22  C   UNL     1     -11.948   1.759 -33.580  1.00  0.00     0.027 A 
HETATM   23  C   UNL     1     -10.918   2.589 -33.074  1.00  0.00     0.036 A 
ENDBRANCH  18  19
ENDBRANCH   2  18
BRANCH   3  24
HETATM   24  S   UNL     1      -8.206   5.151 -32.399  1.00  0.00    -0.081 SA
BRANCH  24  25
HETATM   25  C   UNL     1      -6.904   5.857 -31.347  1.00  0.00     0.185 C 
BRANCH  25  26
HETATM   26  C   UNL     1      -6.134   4.814 -30.554  1.00  0.00     0.227 C 
HETATM   27  N   UNL     1      -5.133   4.166 -31.239  1.00  0.00    -0.356 N 
HETATM   28  H   UNL     1      -4.976   4.417 -32.214  1.00  0.00     0.162 HD
HETATM   29  O   UNL     1      -6.459   4.519 -29.405  1.00  0.00    -0.273 OA
BRANCH  27  30
HETATM   30  C   UNL     1      -4.462   2.994 -30.725  1.00  0.00     0.084 C 
HETATM   31  C   UNL     1      -5.427   1.839 -30.481  1.00  0.00     0.025 C 
HETATM   32  C   UNL     1      -4.520   0.623 -30.354  1.00  0.00     0.002 C 
HETATM   33  C   UNL     1      -3.269   0.948 -31.170  1.00  0.00     0.002 C 
HETATM   34  C   UNL     1      -3.454   2.372 -31.690  1.00  0.00     0.025 C 
ENDBRANCH  27  30
ENDBRANCH  25  26
ENDBRANCH  24  25
ENDBRANCH   3  24
TORSDOF 8
ENDMDL
MODEL 8
REMARK VINA RESULT:      -8.2      1.737      2.515
REMARK  8 active torsions:
REMARK  status: ('A' for Active; 'I' for Inactive)
REMARK    1  A    between atoms: C_8  and  C_9 
REMARK    2  A    between atoms: N_10  and  C_11 
REMARK    3  A    between atoms: C_11  and  C_12 
REMARK    4  A    between atoms: C_17  and  S_18 
REMARK    5  A    between atoms: S_18  and  C_19 
REMARK    6  A    between atoms: C_19  and  C_20 
REMARK       I    between atoms: C_20  and  N_21 
REMARK    7  A    between atoms: N_21  and  C_22 
REMARK    8  A    between atoms: C_30  and  O_31 
ROOT
HETATM    1  C   UNL     1      -5.317   1.907 -31.543  1.00  0.00     0.167 A 
HETATM    2  N   UNL     1      -5.556   3.181 -32.039  1.00  0.00    -0.301 N 
HETATM    3  C   UNL     1      -5.549   4.002 -30.939  1.00  0.00     0.192 A 
HETATM    4  N   UNL     1      -5.336   3.303 -29.854  1.00  0.00    -0.122 NA
HETATM    5  N   UNL     1      -5.179   2.006 -30.227  1.00  0.00    -0.128 NA
ENDROOT
BRANCH   1   6
HETATM    6  C   UNL     1      -5.131   0.629 -32.250  1.00  0.00     0.046 A 
HETATM    7  C   UNL     1      -6.166  -0.039 -32.919  1.00  0.00     0.030 A 
HETATM    8  C   UNL     1      -5.955  -1.276 -33.565  1.00  0.00    -0.025 A 
HETATM    9  C   UNL     1      -6.994  -1.934 -34.245  1.00  0.00     0.012 A 
HETATM   10  C   UNL     1      -4.678  -1.875 -33.524  1.00  0.00    -0.023 A 
HETATM   11  C   UNL     1      -6.774  -3.165 -34.867  1.00  0.00     0.001 A 
HETATM   12  C   UNL     1      -5.516  -3.756 -34.818  1.00  0.00     0.001 A 
HETATM   13  C   UNL     1      -4.472  -3.115 -34.150  1.00  0.00     0.012 A 
HETATM   14  C   UNL     1      -3.643  -1.225 -32.845  1.00  0.00     0.049 A 
HETATM   15  C   UNL     1      -3.873  -0.003 -32.215  1.00  0.00     0.080 A 
BRANCH  15  16
HETATM   16  O   UNL     1      -2.791   0.527 -31.553  1.00  0.00    -0.360 OA
HETATM   17  H   UNL     1      -2.353  -0.196 -31.057  1.00  0.00     0.217 HD
ENDBRANCH  15  16
ENDBRANCH   1   6
BRANCH   2  18
HETATM   18  C   UNL     1      -5.821   3.587 -33.407  1.00  0.00     0.198 C 
BRANCH  18  19
HETATM   19  C   UNL     1      -7.263   3.741 -33.700  1.00  0.00     0.070 A 
HETATM   20  O   UNL     1      -7.653   4.991 -34.086  1.00  0.00    -0.325 OA
HETATM   21  C   UNL     1      -8.984   4.934 -34.340  1.00  0.00     0.142 A 
HETATM   22  C   UNL     1      -9.459   3.661 -34.127  1.00  0.00     0.027 A 
HETATM   23  C   UNL     1      -8.347   2.887 -33.717  1.00  0.00     0.036 A 
ENDBRANCH  18  19
ENDBRANCH   2  18
BRANCH   3  24
HETATM   24  S   UNL     1      -5.782   5.715 -30.956  1.00  0.00    -0.081 SA
BRANCH  24  25
HETATM   25  C   UNL     1      -5.173   6.152 -29.301  1.00  0.00     0.185 C 
BRANCH  25  26
HETATM   26  C   UNL     1      -3.955   7.062 -29.325  1.00  0.00     0.227 C 
HETATM   27  N   UNL     1      -2.782   6.497 -28.883  1.00  0.00    -0.356 N 
HETATM   28  H   UNL     1      -2.804   5.527 -28.569  1.00  0.00     0.162 HD
HETATM   29  O   UNL     1      -4.051   8.247 -29.637  1.00  0.00    -0.273 OA
BRANCH  27  30
HETATM   30  C   UNL     1      -1.591   7.269 -28.615  1.00  0.00     0.084 C 
HETATM   31  C   UNL     1      -0.826   6.744 -27.405  1.00  0.00     0.025 C 
HETATM   32  C   UNL     1       0.549   7.387 -27.533  1.00  0.00     0.002 C 
HETATM   33  C   UNL     1       0.754   7.639 -29.027  1.00  0.00     0.002 C 
HETATM   34  C   UNL     1      -0.536   7.201 -29.717  1.00  0.00     0.025 C 
ENDBRANCH  27  30
ENDBRANCH  25  26
ENDBRANCH  24  25
ENDBRANCH   3  24
TORSDOF 8
ENDMDL
MODEL 9
REMARK VINA RESULT:      -8.1      2.588      3.758
REMARK  8 active torsions:
REMARK  status: ('A' for Active; 'I' for Inactive)
REMARK    1  A    between atoms: C_8  and  C_9 
REMARK    2  A    between atoms: N_10  and  C_11 
REMARK    3  A    between atoms: C_11  and  C_12 
REMARK    4  A    between atoms: C_17  and  S_18 
REMARK    5  A    between atoms: S_18  and  C_19 
REMARK    6  A    between atoms: C_19  and  C_20 
REMARK       I    between atoms: C_20  and  N_21 
REMARK    7  A    between atoms: N_21  and  C_22 
REMARK    8  A    between atoms: C_30  and  O_31 
ROOT
HETATM    1  C   UNL     1      -6.232   1.378 -32.386  1.00  0.00     0.167 A 
HETATM    2  N   UNL     1      -7.041   2.373 -32.916  1.00  0.00    -0.301 N 
HETATM    3  C   UNL     1      -7.027   3.382 -31.984  1.00  0.00     0.192 A 
HETATM    4  N   UNL     1      -6.285   3.042 -30.962  1.00  0.00    -0.122 NA
HETATM    5  N   UNL     1      -5.781   1.805 -31.214  1.00  0.00    -0.128 NA
ENDROOT
BRANCH   1   6
HETATM    6  C   UNL     1      -5.802   0.094 -32.962  1.00  0.00     0.046 A 
HETATM    7  C   UNL     1      -6.695  -0.882 -33.426  1.00  0.00     0.030 A 
HETATM    8  C   UNL     1      -6.245  -2.112 -33.949  1.00  0.00    -0.025 A 
HETATM    9  C   UNL     1      -7.147  -3.080 -34.426  1.00  0.00     0.012 A 
HETATM   10  C   UNL     1      -4.862  -2.388 -33.992  1.00  0.00    -0.023 A 
HETATM   11  C   UNL     1      -6.687  -4.299 -34.927  1.00  0.00     0.001 A 
HETATM   12  C   UNL     1      -5.323  -4.571 -34.959  1.00  0.00     0.001 A 
HETATM   13  C   UNL     1      -4.414  -3.620 -34.495  1.00  0.00     0.012 A 
HETATM   14  C   UNL     1      -3.962  -1.429 -33.516  1.00  0.00     0.049 A 
HETATM   15  C   UNL     1      -4.428  -0.219 -33.004  1.00  0.00     0.080 A 
BRANCH  15  16
HETATM   16  O   UNL     1      -3.456   0.633 -32.537  1.00  0.00    -0.360 OA
HETATM   17  H   UNL     1      -2.813   0.106 -32.018  1.00  0.00     0.217 HD
ENDBRANCH  15  16
ENDBRANCH   1   6
BRANCH   2  18
HETATM   18  C   UNL     1      -7.801   2.362 -34.152  1.00  0.00     0.198 C 
BRANCH  18  19
HETATM   19  C   UNL     1      -9.212   1.955 -33.964  1.00  0.00     0.070 A 
HETATM   20  O   UNL     1     -10.143   2.896 -34.298  1.00  0.00    -0.325 OA
HETATM   21  C   UNL     1     -11.363   2.340 -34.094  1.00  0.00     0.142 A 
HETATM   22  C   UNL     1     -11.233   1.050 -33.637  1.00  0.00     0.027 A 
HETATM   23  C   UNL     1      -9.842   0.798 -33.556  1.00  0.00     0.036 A 
ENDBRANCH  18  19
ENDBRANCH   2  18
BRANCH   3  24
HETATM   24  S   UNL     1      -7.856   4.892 -32.119  1.00  0.00    -0.081 SA
BRANCH  24  25
HETATM   25  C   UNL     1      -6.968   5.875 -30.876  1.00  0.00     0.185 C 
BRANCH  25  26
HETATM   26  C   UNL     1      -5.874   6.751 -31.466  1.00  0.00     0.227 C 
HETATM   27  N   UNL     1      -4.591   6.270 -31.335  1.00  0.00    -0.356 N 
HETATM   28  H   UNL     1      -4.458   5.379 -30.858  1.00  0.00     0.162 HD
HETATM   29  O   UNL     1      -6.129   7.854 -31.943  1.00  0.00    -0.273 OA
BRANCH  27  30
HETATM   30  C   UNL     1      -3.421   7.068 -31.621  1.00  0.00     0.084 C 
HETATM   31  C   UNL     1      -2.245   6.705 -30.722  1.00  0.00     0.025 C 
HETATM   32  C   UNL     1      -1.043   7.322 -31.424  1.00  0.00     0.002 C 
HETATM   33  C   UNL     1      -1.408   7.376 -32.907  1.00  0.00     0.002 C 
HETATM   34  C   UNL     1      -2.839   6.854 -33.016  1.00  0.00     0.025 C 
ENDBRANCH  27  30
ENDBRANCH  25  26
ENDBRANCH  24  25
ENDBRANCH   3  24
TORSDOF 8
ENDMDL
MODEL 10
REMARK VINA RESULT:      -8.1      2.414      4.151
REMARK  8 active torsions:
REMARK  status: ('A' for Active; 'I' for Inactive)
REMARK    1  A    between atoms: C_8  and  C_9 
REMARK    2  A    between atoms: N_10  and  C_11 
REMARK    3  A    between atoms: C_11  and  C_12 
REMARK    4  A    between atoms: C_17  and  S_18 
REMARK    5  A    between atoms: S_18  and  C_19 
REMARK    6  A    between atoms: C_19  and  C_20 
REMARK       I    between atoms: C_20  and  N_21 
REMARK    7  A    between atoms: N_21  and  C_22 
REMARK    8  A    between atoms: C_30  and  O_31 
ROOT
HETATM    1  C   UNL     1      -7.003   2.906 -33.707  1.00  0.00     0.167 A 
HETATM    2  N   UNL     1      -7.644   3.551 -32.659  1.00  0.00    -0.301 N 
HETATM    3  C   UNL     1      -7.553   4.889 -32.950  1.00  0.00     0.192 A 
HETATM    4  N   UNL     1      -6.906   5.064 -34.073  1.00  0.00    -0.122 NA
HETATM    5  N   UNL     1      -6.573   3.836 -34.550  1.00  0.00    -0.128 NA
ENDROOT
BRANCH   1   6
HETATM    6  C   UNL     1      -6.850   1.470 -33.990  1.00  0.00     0.046 A 
HETATM    7  C   UNL     1      -5.683   0.747 -33.704  1.00  0.00     0.030 A 
HETATM    8  C   UNL     1      -5.565  -0.624 -34.013  1.00  0.00    -0.025 A 
HETATM    9  C   UNL     1      -4.397  -1.346 -33.710  1.00  0.00     0.012 A 
HETATM   10  C   UNL     1      -6.634  -1.291 -34.648  1.00  0.00    -0.023 A 
HETATM   11  C   UNL     1      -4.289  -2.699 -34.036  1.00  0.00     0.001 A 
HETATM   12  C   UNL     1      -5.342  -3.351 -34.670  1.00  0.00     0.001 A 
HETATM   13  C   UNL     1      -6.510  -2.651 -34.974  1.00  0.00     0.012 A 
HETATM   14  C   UNL     1      -7.796  -0.575 -34.955  1.00  0.00     0.049 A 
HETATM   15  C   UNL     1      -7.892   0.779 -34.639  1.00  0.00     0.080 A 
BRANCH  15  16
HETATM   16  O   UNL     1      -9.067   1.385 -35.015  1.00  0.00    -0.360 OA
HETATM   17  H   UNL     1      -8.864   2.028 -35.726  1.00  0.00     0.217 HD
ENDBRANCH  15  16
ENDBRANCH   1   6
BRANCH   2  18
HETATM   18  C   UNL     1      -8.238   2.974 -31.467  1.00  0.00     0.198 C 
BRANCH  18  19
HETATM   19  C   UNL     1      -7.453   1.850 -30.909  1.00  0.00     0.070 A 
HETATM   20  O   UNL     1      -6.312   2.203 -30.247  1.00  0.00    -0.325 OA
HETATM   21  C   UNL     1      -5.749   1.060 -29.784  1.00  0.00     0.142 A 
HETATM   22  C   UNL     1      -6.513  -0.028 -30.134  1.00  0.00     0.027 A 
HETATM   23  C   UNL     1      -7.618   0.481 -30.859  1.00  0.00     0.036 A 
ENDBRANCH  18  19
ENDBRANCH   2  18
BRANCH   3  24
HETATM   24  S   UNL     1      -8.196   6.176 -31.993  1.00  0.00    -0.081 SA
BRANCH  24  25
HETATM   25  C   UNL     1      -6.684   7.117 -31.635  1.00  0.00     0.185 C 
BRANCH  25  26
HETATM   26  C   UNL     1      -5.422   6.270 -31.667  1.00  0.00     0.227 C 
HETATM   27  N   UNL     1      -4.600   6.465 -32.752  1.00  0.00    -0.356 N 
HETATM   28  H   UNL     1      -4.885   7.148 -33.454  1.00  0.00     0.162 HD
HETATM   29  O   UNL     1      -5.213   5.407 -30.816  1.00  0.00    -0.273 OA
BRANCH  27  30
HETATM   30  C   UNL     1      -3.493   5.592 -33.066  1.00  0.00     0.084 C 
HETATM   31  C   UNL     1      -3.198   5.554 -34.561  1.00  0.00     0.025 C 
HETATM   32  C   UNL     1      -1.803   4.948 -34.644  1.00  0.00     0.002 C 
HETATM   33  C   UNL     1      -1.116   5.300 -33.325  1.00  0.00     0.002 C 
HETATM   34  C   UNL     1      -2.154   6.040 -32.484  1.00  0.00     0.025 C 
ENDBRANCH  27  30
ENDBRANCH  25  26
ENDBRANCH  24  25
ENDBRANCH   3  24
TORSDOF 8
ENDMDL
