MODEL 1
REMARK VINA RESULT:      -9.3      0.000      0.000
REMARK  8 active torsions:
REMARK  status: ('A' for Active; 'I' for Inactive)
REMARK    1  A    between atoms: C_4  and  O_5 
REMARK    2  A    between atoms: O_5  and  C_6 
REMARK    3  A    between atoms: C_8  and  C_9 
REMARK    4  A    between atoms: C_9  and  N_10 
REMARK    5  A    between atoms: C_9  and  C_14 
REMARK       I    between atoms: N_10  and  C_11 
REMARK       I    between atoms: C_11  and  N_12 
REMARK    6  A    between atoms: C_14  and  C_15 
REMARK       I    between atoms: C_15  and  N_16 
REMARK    7  A    between atoms: N_16  and  N_17 
REMARK       I    between atoms: N_17  and  C_18 
REMARK    8  A    between atoms: C_18  and  C_19 
ROOT
HETATM    1  C   UNL     1      -4.829   3.808 -32.348  1.00  0.00     0.127 C 
ENDROOT
BRANCH   1   2
HETATM    2  C   UNL     1      -3.581   4.536 -32.838  1.00  0.00    -0.032 A 
HETATM    3  C   UNL     1      -2.359   4.432 -32.147  1.00  0.00     0.046 A 
HETATM    4  C   UNL     1      -1.197   5.043 -32.627  1.00  0.00     0.076 A 
HETATM    5  C   UNL     1      -1.216   5.735 -33.836  1.00  0.00     0.037 A 
HETATM    6  C   UNL     1      -2.409   5.835 -34.546  1.00  0.00     0.003 A 
HETATM    7  C   UNL     1      -3.575   5.234 -34.058  1.00  0.00     0.009 A 
BRANCH   4   8
HETATM    8  O   UNL     1      -0.047   4.835 -31.900  1.00  0.00    -0.311 OA
BRANCH   8   9
HETATM    9  C   UNL     1       0.163   5.612 -30.783  1.00  0.00     0.076 A 
HETATM   10  C   UNL     1      -0.063   6.990 -30.754  1.00  0.00     0.037 A 
HETATM   11  C   UNL     1       0.134   7.700 -29.569  1.00  0.00     0.003 A 
HETATM   12  C   UNL     1       0.535   7.031 -28.411  1.00  0.00     0.000 A 
HETATM   13  C   UNL     1       0.733   5.651 -28.434  1.00  0.00     0.003 A 
HETATM   14  C   UNL     1       0.541   4.940 -29.619  1.00  0.00     0.037 A 
ENDBRANCH   8   9
ENDBRANCH   4   8
ENDBRANCH   1   2
BRANCH   1  15
HETATM   15  N   UNL     1      -5.360   4.271 -31.059  1.00  0.00    -0.339 N 
HETATM   16  C   UNL     1      -5.604   3.470 -29.995  1.00  0.00     0.292 C 
HETATM   17  N   UNL     1      -6.104   4.142 -28.933  1.00  0.00    -0.254 NA
HETATM   18  O   UNL     1      -5.400   2.269 -29.952  1.00  0.00    -0.254 OA
HETATM   19  H   UNL     1      -5.705   5.050 -28.747  1.00  0.00     0.128 HD
HETATM   20  H   UNL     1      -6.182   3.554 -28.110  1.00  0.00     0.128 HD
HETATM   21  H   UNL     1      -5.925   5.107 -31.083  1.00  0.00     0.164 HD
ENDBRANCH   1  15
BRANCH   1  22
HETATM   22  C   UNL     1      -5.941   3.461 -33.355  1.00  0.00     0.134 C 
BRANCH  22  23
HETATM   23  C   UNL     1      -6.316   2.014 -33.613  1.00  0.00     0.238 C 
HETATM   24  N   UNL     1      -5.651   1.069 -32.881  1.00  0.00    -0.267 N 
HETATM   25  H   UNL     1      -5.196   1.272 -31.984  1.00  0.00     0.190 HD
HETATM   26  O   UNL     1      -7.095   1.719 -34.523  1.00  0.00    -0.272 OA
BRANCH  24  27
HETATM   27  N   UNL     1      -5.853  -0.281 -33.169  1.00  0.00    -0.262 N 
HETATM   28  C   UNL     1      -4.768  -1.051 -33.539  1.00  0.00     0.288 C 
HETATM   29  O   UNL     1      -3.600  -0.673 -33.493  1.00  0.00    -0.264 OA
HETATM   30  H   UNL     1      -6.804  -0.595 -33.371  1.00  0.00     0.190 HD
BRANCH  28  31
HETATM   31  C   UNL     1      -5.118  -2.417 -34.028  1.00  0.00     0.125 A 
HETATM   32  N   UNL     1      -4.160  -3.378 -33.904  1.00  0.00    -0.255 NA
HETATM   33  C   UNL     1      -4.493  -4.613 -34.334  1.00  0.00     0.117 A 
HETATM   34  C   UNL     1      -5.724  -4.935 -34.887  1.00  0.00     0.019 A 
HETATM   35  C   UNL     1      -6.681  -3.932 -35.006  1.00  0.00     0.004 A 
HETATM   36  C   UNL     1      -6.380  -2.648 -34.568  1.00  0.00     0.037 A 
ENDBRANCH  28  31
ENDBRANCH  24  27
ENDBRANCH  22  23
ENDBRANCH   1  22
TORSDOF 8
ENDMDL
MODEL 2
REMARK VINA RESULT:      -9.3      2.619      9.574
REMARK  8 active torsions:
REMARK  status: ('A' for Active; 'I' for Inactive)
REMARK    1  A    between atoms: C_4  and  O_5 
REMARK    2  A    between atoms: O_5  and  C_6 
REMARK    3  A    between atoms: C_8  and  C_9 
REMARK    4  A    between atoms: C_9  and  N_10 
REMARK    5  A    between atoms: C_9  and  C_14 
REMARK       I    between atoms: N_10  and  C_11 
REMARK       I    between atoms: C_11  and  N_12 
REMARK    6  A    between atoms: C_14  and  C_15 
REMARK       I    between atoms: C_15  and  N_16 
REMARK    7  A    between atoms: N_16  and  N_17 
REMARK       I    between atoms: N_17  and  C_18 
REMARK    8  A    between atoms: C_18  and  C_19 
ROOT
HETATM    1  C   UNL     1      -4.409   3.518 -33.044  1.00  0.00     0.127 C 
ENDROOT
BRANCH   1   2
HETATM    2  C   UNL     1      -5.066   2.231 -32.553  1.00  0.00    -0.032 A 
HETATM    3  C   UNL     1      -5.690   1.344 -33.451  1.00  0.00     0.046 A 
HETATM    4  C   UNL     1      -6.235   0.132 -33.016  1.00  0.00     0.076 A 
HETATM    5  C   UNL     1      -6.128  -0.246 -31.680  1.00  0.00     0.037 A 
HETATM    6  C   UNL     1      -5.498   0.606 -30.778  1.00  0.00     0.003 A 
HETATM    7  C   UNL     1      -4.964   1.825 -31.212  1.00  0.00     0.009 A 
BRANCH   4   8
HETATM    8  O   UNL     1      -6.777  -0.682 -33.985  1.00  0.00    -0.311 OA
BRANCH   8   9
HETATM    9  C   UNL     1      -6.173  -1.896 -34.225  1.00  0.00     0.076 A 
HETATM   10  C   UNL     1      -4.802  -2.112 -34.073  1.00  0.00     0.037 A 
HETATM   11  C   UNL     1      -4.273  -3.385 -34.295  1.00  0.00     0.003 A 
HETATM   12  C   UNL     1      -5.115  -4.441 -34.647  1.00  0.00     0.000 A 
HETATM   13  C   UNL     1      -6.488  -4.229 -34.770  1.00  0.00     0.003 A 
HETATM   14  C   UNL     1      -7.018  -2.957 -34.553  1.00  0.00     0.037 A 
ENDBRANCH   8   9
ENDBRANCH   4   8
ENDBRANCH   1   2
BRANCH   1  15
HETATM   15  N   UNL     1      -5.061   4.760 -32.606  1.00  0.00    -0.339 N 
HETATM   16  C   UNL     1      -6.047   5.391 -33.285  1.00  0.00     0.292 C 
HETATM   17  N   UNL     1      -6.466   6.523 -32.675  1.00  0.00    -0.254 NA
HETATM   18  O   UNL     1      -6.541   5.011 -34.332  1.00  0.00    -0.254 OA
HETATM   19  H   UNL     1      -6.544   6.490 -31.669  1.00  0.00     0.128 HD
HETATM   20  H   UNL     1      -7.274   6.930 -33.134  1.00  0.00     0.128 HD
HETATM   21  H   UNL     1      -4.511   5.368 -32.017  1.00  0.00     0.164 HD
ENDBRANCH   1  15
BRANCH   1  22
HETATM   22  C   UNL     1      -2.874   3.625 -33.045  1.00  0.00     0.134 C 
BRANCH  22  23
HETATM   23  C   UNL     1      -2.182   4.735 -32.278  1.00  0.00     0.238 C 
HETATM   24  N   UNL     1      -1.813   4.452 -30.991  1.00  0.00    -0.267 N 
HETATM   25  H   UNL     1      -1.667   3.496 -30.647  1.00  0.00     0.190 HD
HETATM   26  O   UNL     1      -2.077   5.865 -32.763  1.00  0.00    -0.272 OA
BRANCH  24  27
HETATM   27  N   UNL     1      -1.298   5.472 -30.191  1.00  0.00    -0.262 N 
HETATM   28  C   UNL     1      -0.043   5.315 -29.639  1.00  0.00     0.288 C 
HETATM   29  O   UNL     1       0.728   4.400 -29.917  1.00  0.00    -0.264 OA
HETATM   30  H   UNL     1      -1.948   6.163 -29.811  1.00  0.00     0.190 HD
BRANCH  28  31
HETATM   31  C   UNL     1       0.327   6.356 -28.636  1.00  0.00     0.125 A 
HETATM   32  N   UNL     1       0.078   6.065 -27.328  1.00  0.00    -0.255 NA
HETATM   33  C   UNL     1       0.431   7.006 -26.428  1.00  0.00     0.117 A 
HETATM   34  C   UNL     1       1.009   8.222 -26.765  1.00  0.00     0.019 A 
HETATM   35  C   UNL     1       1.247   8.494 -28.109  1.00  0.00     0.004 A 
HETATM   36  C   UNL     1       0.904   7.547 -29.066  1.00  0.00     0.037 A 
ENDBRANCH  28  31
ENDBRANCH  24  27
ENDBRANCH  22  23
ENDBRANCH   1  22
TORSDOF 8
ENDMDL
MODEL 3
REMARK VINA RESULT:      -9.1      2.427      8.506
REMARK  8 active torsions:
REMARK  status: ('A' for Active; 'I' for Inactive)
REMARK    1  A    between atoms: C_4  and  O_5 
REMARK    2  A    between atoms: O_5  and  C_6 
REMARK    3  A    between atoms: C_8  and  C_9 
REMARK    4  A    between atoms: C_9  and  N_10 
REMARK    5  A    between atoms: C_9  and  C_14 
REMARK       I    between atoms: N_10  and  C_11 
REMARK       I    between atoms: C_11  and  N_12 
REMARK    6  A    between atoms: C_14  and  C_15 
REMARK       I    between atoms: C_15  and  N_16 
REMARK    7  A    between atoms: N_16  and  N_17 
REMARK       I    between atoms: N_17  and  C_18 
REMARK    8  A    between atoms: C_18  and  C_19 
ROOT
HETATM    1  C   UNL     1      -7.152   2.295 -32.625  1.00  0.00     0.127 C 
ENDROOT
BRANCH   1   2
HETATM    2  C   UNL     1      -6.110   1.234 -32.286  1.00  0.00    -0.032 A 
HETATM    3  C   UNL     1      -5.577   0.392 -33.281  1.00  0.00     0.046 A 
HETATM    4  C   UNL     1      -4.574  -0.536 -32.988  1.00  0.00     0.076 A 
HETATM    5  C   UNL     1      -4.043  -0.615 -31.703  1.00  0.00     0.037 A 
HETATM    6  C   UNL     1      -4.541   0.221 -30.707  1.00  0.00     0.003 A 
HETATM    7  C   UNL     1      -5.554   1.142 -30.998  1.00  0.00     0.009 A 
BRANCH   4   8
HETATM    8  O   UNL     1      -4.091  -1.274 -34.045  1.00  0.00    -0.311 OA
BRANCH   8   9
HETATM    9  C   UNL     1      -4.667  -2.497 -34.300  1.00  0.00     0.076 A 
HETATM   10  C   UNL     1      -4.039  -3.713 -34.022  1.00  0.00     0.037 A 
HETATM   11  C   UNL     1      -4.708  -4.912 -34.271  1.00  0.00     0.003 A 
HETATM   12  C   UNL     1      -6.009  -4.896 -34.776  1.00  0.00     0.000 A 
HETATM   13  C   UNL     1      -6.646  -3.680 -35.026  1.00  0.00     0.003 A 
HETATM   14  C   UNL     1      -5.977  -2.481 -34.782  1.00  0.00     0.037 A 
ENDBRANCH   8   9
ENDBRANCH   4   8
ENDBRANCH   1   2
BRANCH   1  15
HETATM   15  N   UNL     1      -8.070   2.645 -31.531  1.00  0.00    -0.339 N 
HETATM   16  C   UNL     1      -9.357   2.236 -31.448  1.00  0.00     0.292 C 
HETATM   17  N   UNL     1      -9.990   2.708 -30.349  1.00  0.00    -0.254 NA
HETATM   18  O   UNL     1      -9.923   1.512 -32.248  1.00  0.00    -0.254 OA
HETATM   19  H   UNL     1      -9.453   2.727 -29.495  1.00  0.00     0.128 HD
HETATM   20  H   UNL     1     -10.917   2.311 -30.240  1.00  0.00     0.128 HD
HETATM   21  H   UNL     1      -7.880   3.512 -31.050  1.00  0.00     0.164 HD
ENDBRANCH   1  15
BRANCH   1  22
HETATM   22  C   UNL     1      -6.735   3.519 -33.461  1.00  0.00     0.134 C 
BRANCH  22  23
HETATM   23  C   UNL     1      -5.551   4.367 -33.038  1.00  0.00     0.238 C 
HETATM   24  N   UNL     1      -4.368   4.133 -33.684  1.00  0.00    -0.267 N 
HETATM   25  H   UNL     1      -4.313   3.696 -34.611  1.00  0.00     0.190 HD
HETATM   26  O   UNL     1      -5.639   5.138 -32.078  1.00  0.00    -0.272 OA
BRANCH  24  27
HETATM   27  N   UNL     1      -3.214   4.783 -33.248  1.00  0.00    -0.262 N 
HETATM   28  C   UNL     1      -2.426   4.170 -32.294  1.00  0.00     0.288 C 
HETATM   29  O   UNL     1      -2.584   3.018 -31.899  1.00  0.00    -0.264 OA
HETATM   30  H   UNL     1      -3.128   5.786 -33.424  1.00  0.00     0.190 HD
BRANCH  28  31
HETATM   31  C   UNL     1      -1.340   5.033 -31.742  1.00  0.00     0.125 A 
HETATM   32  N   UNL     1      -0.635   4.532 -30.689  1.00  0.00    -0.255 NA
HETATM   33  C   UNL     1       0.356   5.313 -30.209  1.00  0.00     0.117 A 
HETATM   34  C   UNL     1       0.672   6.565 -30.718  1.00  0.00     0.019 A 
HETATM   35  C   UNL     1      -0.069   7.051 -31.790  1.00  0.00     0.004 A 
HETATM   36  C   UNL     1      -1.093   6.274 -32.318  1.00  0.00     0.037 A 
ENDBRANCH  28  31
ENDBRANCH  24  27
ENDBRANCH  22  23
ENDBRANCH   1  22
TORSDOF 8
ENDMDL
MODEL 4
REMARK VINA RESULT:      -9.0      3.794      8.954
REMARK  8 active torsions:
REMARK  status: ('A' for Active; 'I' for Inactive)
REMARK    1  A    between atoms: C_4  and  O_5 
REMARK    2  A    between atoms: O_5  and  C_6 
REMARK    3  A    between atoms: C_8  and  C_9 
REMARK    4  A    between atoms: C_9  and  N_10 
REMARK    5  A    between atoms: C_9  and  C_14 
REMARK       I    between atoms: N_10  and  C_11 
REMARK       I    between atoms: C_11  and  N_12 
REMARK    6  A    between atoms: C_14  and  C_15 
REMARK       I    between atoms: C_15  and  N_16 
REMARK    7  A    between atoms: N_16  and  N_17 
REMARK       I    between atoms: N_17  and  C_18 
REMARK    8  A    between atoms: C_18  and  C_19 
ROOT
HETATM    1  C   UNL     1     -10.450   1.123 -33.333  1.00  0.00     0.127 C 
ENDROOT
BRANCH   1   2
HETATM    2  C   UNL     1      -9.097   0.510 -32.988  1.00  0.00    -0.032 A 
HETATM    3  C   UNL     1      -8.277  -0.054 -33.984  1.00  0.00     0.046 A 
HETATM    4  C   UNL     1      -7.008  -0.557 -33.684  1.00  0.00     0.076 A 
HETATM    5  C   UNL     1      -6.506  -0.467 -32.389  1.00  0.00     0.037 A 
HETATM    6  C   UNL     1      -7.291   0.104 -31.391  1.00  0.00     0.003 A 
HETATM    7  C   UNL     1      -8.566   0.596 -31.690  1.00  0.00     0.009 A 
BRANCH   4   8
HETATM    8  O   UNL     1      -6.272  -1.041 -34.742  1.00  0.00    -0.311 OA
BRANCH   8   9
HETATM    9  C   UNL     1      -5.787  -2.326 -34.661  1.00  0.00     0.076 A 
HETATM   10  C   UNL     1      -4.483  -2.629 -34.262  1.00  0.00     0.037 A 
HETATM   11  C   UNL     1      -4.080  -3.962 -34.165  1.00  0.00     0.003 A 
HETATM   12  C   UNL     1      -4.983  -4.988 -34.446  1.00  0.00     0.000 A 
HETATM   13  C   UNL     1      -6.293  -4.685 -34.818  1.00  0.00     0.003 A 
HETATM   14  C   UNL     1      -6.696  -3.353 -34.919  1.00  0.00     0.037 A 
ENDBRANCH   8   9
ENDBRANCH   4   8
ENDBRANCH   1   2
BRANCH   1  15
HETATM   15  N   UNL     1     -11.614   0.265 -33.068  1.00  0.00    -0.339 N 
HETATM   16  C   UNL     1     -12.725   0.216 -33.840  1.00  0.00     0.292 C 
HETATM   17  N   UNL     1     -13.656  -0.646 -33.370  1.00  0.00    -0.254 NA
HETATM   18  O   UNL     1     -12.906   0.856 -34.861  1.00  0.00    -0.254 OA
HETATM   19  H   UNL     1     -13.313  -1.518 -32.997  1.00  0.00     0.128 HD
HETATM   20  H   UNL     1     -14.436  -0.754 -34.009  1.00  0.00     0.128 HD
HETATM   21  H   UNL     1     -11.769   0.010 -32.104  1.00  0.00     0.164 HD
ENDBRANCH   1  15
BRANCH   1  22
HETATM   22  C   UNL     1     -10.716   2.600 -32.991  1.00  0.00     0.134 C 
BRANCH  22  23
HETATM   23  C   UNL     1      -9.563   3.578 -32.873  1.00  0.00     0.238 C 
HETATM   24  N   UNL     1      -8.853   3.828 -34.016  1.00  0.00    -0.267 N 
HETATM   25  H   UNL     1      -9.234   3.678 -34.957  1.00  0.00     0.190 HD
HETATM   26  O   UNL     1      -9.223   4.022 -31.773  1.00  0.00    -0.272 OA
BRANCH  24  27
HETATM   27  N   UNL     1      -7.700   4.611 -33.943  1.00  0.00    -0.262 N 
HETATM   28  C   UNL     1      -6.469   3.987 -33.989  1.00  0.00     0.288 C 
HETATM   29  O   UNL     1      -6.304   2.795 -34.238  1.00  0.00    -0.264 OA
HETATM   30  H   UNL     1      -7.784   5.564 -33.585  1.00  0.00     0.190 HD
BRANCH  28  31
HETATM   31  C   UNL     1      -5.312   4.881 -33.692  1.00  0.00     0.125 A 
HETATM   32  N   UNL     1      -4.350   4.978 -34.652  1.00  0.00    -0.255 NA
HETATM   33  C   UNL     1      -3.316   5.802 -34.380  1.00  0.00     0.117 A 
HETATM   34  C   UNL     1      -3.189   6.524 -33.202  1.00  0.00     0.019 A 
HETATM   35  C   UNL     1      -4.186   6.401 -32.239  1.00  0.00     0.004 A 
HETATM   36  C   UNL     1      -5.271   5.568 -32.483  1.00  0.00     0.037 A 
ENDBRANCH  28  31
ENDBRANCH  24  27
ENDBRANCH  22  23
ENDBRANCH   1  22
TORSDOF 8
ENDMDL
MODEL 5
REMARK VINA RESULT:      -9.0      3.014      8.750
REMARK  8 active torsions:
REMARK  status: ('A' for Active; 'I' for Inactive)
REMARK    1  A    between atoms: C_4  and  O_5 
REMARK    2  A    between atoms: O_5  and  C_6 
REMARK    3  A    between atoms: C_8  and  C_9 
REMARK    4  A    between atoms: C_9  and  N_10 
REMARK    5  A    between atoms: C_9  and  C_14 
REMARK       I    between atoms: N_10  and  C_11 
REMARK       I    between atoms: C_11  and  N_12 
REMARK    6  A    between atoms: C_14  and  C_15 
REMARK       I    between atoms: C_15  and  N_16 
REMARK    7  A    between atoms: N_16  and  N_17 
REMARK       I    between atoms: N_17  and  C_18 
REMARK    8  A    between atoms: C_18  and  C_19 
ROOT
HETATM    1  C   UNL     1      -9.108   2.157 -33.625  1.00  0.00     0.127 C 
ENDROOT
BRANCH   1   2
HETATM    2  C   UNL     1      -8.093   1.208 -32.997  1.00  0.00    -0.032 A 
HETATM    3  C   UNL     1      -7.127   0.550 -33.782  1.00  0.00     0.046 A 
HETATM    4  C   UNL     1      -6.153  -0.269 -33.203  1.00  0.00     0.076 A 
HETATM    5  C   UNL     1      -6.091  -0.416 -31.820  1.00  0.00     0.037 A 
HETATM    6  C   UNL     1      -7.024   0.239 -31.022  1.00  0.00     0.003 A 
HETATM    7  C   UNL     1      -8.007   1.050 -31.603  1.00  0.00     0.009 A 
BRANCH   4   8
HETATM    8  O   UNL     1      -5.228  -0.823 -34.059  1.00  0.00    -0.311 OA
BRANCH   8   9
HETATM    9  C   UNL     1      -5.282  -2.180 -34.284  1.00  0.00     0.076 A 
HETATM   10  C   UNL     1      -4.228  -3.048 -33.991  1.00  0.00     0.037 A 
HETATM   11  C   UNL     1      -4.377  -4.418 -34.210  1.00  0.00     0.003 A 
HETATM   12  C   UNL     1      -5.584  -4.921 -34.699  1.00  0.00     0.000 A 
HETATM   13  C   UNL     1      -6.646  -4.056 -34.964  1.00  0.00     0.003 A 
HETATM   14  C   UNL     1      -6.497  -2.686 -34.750  1.00  0.00     0.037 A 
ENDBRANCH   8   9
ENDBRANCH   4   8
ENDBRANCH   1   2
BRANCH   1  15
HETATM   15  N   UNL     1     -10.410   2.223 -32.947  1.00  0.00    -0.339 N 
HETATM   16  C   UNL     1     -11.605   2.062 -33.561  1.00  0.00     0.292 C 
HETATM   17  N   UNL     1     -12.653   2.182 -32.714  1.00  0.00    -0.254 NA
HETATM   18  O   UNL     1     -11.766   1.824 -34.745  1.00  0.00    -0.254 OA
HETATM   19  H   UNL     1     -12.543   1.768 -31.801  1.00  0.00     0.128 HD
HETATM   20  H   UNL     1     -13.535   1.956 -33.161  1.00  0.00     0.128 HD
HETATM   21  H   UNL     1     -10.449   2.784 -32.109  1.00  0.00     0.164 HD
ENDBRANCH   1  15
BRANCH   1  22
HETATM   22  C   UNL     1      -8.636   3.532 -34.133  1.00  0.00     0.134 C 
BRANCH  22  23
HETATM   23  C   UNL     1      -7.481   4.243 -33.455  1.00  0.00     0.238 C 
HETATM   24  N   UNL     1      -6.319   4.343 -34.171  1.00  0.00    -0.267 N 
HETATM   25  H   UNL     1      -6.284   4.282 -35.195  1.00  0.00     0.190 HD
HETATM   26  O   UNL     1      -7.564   4.600 -32.277  1.00  0.00    -0.272 OA
BRANCH  24  27
HETATM   27  N   UNL     1      -5.181   4.863 -33.553  1.00  0.00    -0.262 N 
HETATM   28  C   UNL     1      -4.114   5.247 -34.341  1.00  0.00     0.288 C 
HETATM   29  O   UNL     1      -4.142   5.305 -35.567  1.00  0.00    -0.264 OA
HETATM   30  H   UNL     1      -5.052   4.691 -32.554  1.00  0.00     0.190 HD
BRANCH  28  31
HETATM   31  C   UNL     1      -2.876   5.588 -33.580  1.00  0.00     0.125 A 
HETATM   32  N   UNL     1      -2.399   4.639 -32.728  1.00  0.00    -0.255 NA
HETATM   33  C   UNL     1      -1.270   4.950 -32.057  1.00  0.00     0.117 A 
HETATM   34  C   UNL     1      -0.600   6.159 -32.187  1.00  0.00     0.019 A 
HETATM   35  C   UNL     1      -1.114   7.111 -33.062  1.00  0.00     0.004 A 
HETATM   36  C   UNL     1      -2.271   6.825 -33.776  1.00  0.00     0.037 A 
ENDBRANCH  28  31
ENDBRANCH  24  27
ENDBRANCH  22  23
ENDBRANCH   1  22
TORSDOF 8
ENDMDL
MODEL 6
REMARK VINA RESULT:      -8.7      2.636      9.941
REMARK  8 active torsions:
REMARK  status: ('A' for Active; 'I' for Inactive)
REMARK    1  A    between atoms: C_4  and  O_5 
REMARK    2  A    between atoms: O_5  and  C_6 
REMARK    3  A    between atoms: C_8  and  C_9 
REMARK    4  A    between atoms: C_9  and  N_10 
REMARK    5  A    between atoms: C_9  and  C_14 
REMARK       I    between atoms: N_10  and  C_11 
REMARK       I    between atoms: C_11  and  N_12 
REMARK    6  A    between atoms: C_14  and  C_15 
REMARK       I    between atoms: C_15  and  N_16 
REMARK    7  A    between atoms: N_16  and  N_17 
REMARK       I    between atoms: N_17  and  C_18 
REMARK    8  A    between atoms: C_18  and  C_19 
ROOT
HETATM    1  C   UNL     1      -4.573   3.831 -31.489  1.00  0.00     0.127 C 
ENDROOT
BRANCH   1   2
HETATM    2  C   UNL     1      -5.292   2.486 -31.480  1.00  0.00    -0.032 A 
HETATM    3  C   UNL     1      -5.651   1.845 -32.681  1.00  0.00     0.046 A 
HETATM    4  C   UNL     1      -6.251   0.582 -32.681  1.00  0.00     0.076 A 
HETATM    5  C   UNL     1      -6.465  -0.093 -31.482  1.00  0.00     0.037 A 
HETATM    6  C   UNL     1      -6.101   0.513 -30.284  1.00  0.00     0.003 A 
HETATM    7  C   UNL     1      -5.512   1.783 -30.283  1.00  0.00     0.009 A 
BRANCH   4   8
HETATM    8  O   UNL     1      -6.514   0.026 -33.913  1.00  0.00    -0.311 OA
BRANCH   8   9
HETATM    9  C   UNL     1      -6.053  -1.247 -34.161  1.00  0.00     0.076 A 
HETATM   10  C   UNL     1      -4.721  -1.628 -33.983  1.00  0.00     0.037 A 
HETATM   11  C   UNL     1      -4.341  -2.950 -34.217  1.00  0.00     0.003 A 
HETATM   12  C   UNL     1      -5.293  -3.894 -34.607  1.00  0.00     0.000 A 
HETATM   13  C   UNL     1      -6.628  -3.518 -34.757  1.00  0.00     0.003 A 
HETATM   14  C   UNL     1      -7.009  -2.196 -34.528  1.00  0.00     0.037 A 
ENDBRANCH   8   9
ENDBRANCH   4   8
ENDBRANCH   1   2
BRANCH   1  15
HETATM   15  N   UNL     1      -3.834   4.140 -32.721  1.00  0.00    -0.339 N 
HETATM   16  C   UNL     1      -2.490   4.271 -32.799  1.00  0.00     0.292 C 
HETATM   17  N   UNL     1      -2.060   4.570 -34.046  1.00  0.00    -0.254 NA
HETATM   18  O   UNL     1      -1.710   4.133 -31.872  1.00  0.00    -0.254 OA
HETATM   19  H   UNL     1      -2.524   4.097 -34.807  1.00  0.00     0.128 HD
HETATM   20  H   UNL     1      -1.048   4.561 -34.116  1.00  0.00     0.128 HD
HETATM   21  H   UNL     1      -4.341   4.654 -33.428  1.00  0.00     0.164 HD
ENDBRANCH   1  15
BRANCH   1  22
HETATM   22  C   UNL     1      -5.279   5.065 -30.898  1.00  0.00     0.134 C 
BRANCH  22  23
HETATM   23  C   UNL     1      -4.473   6.163 -30.232  1.00  0.00     0.238 C 
HETATM   24  N   UNL     1      -3.196   5.845 -29.858  1.00  0.00    -0.267 N 
HETATM   25  H   UNL     1      -2.664   5.076 -30.281  1.00  0.00     0.190 HD
HETATM   26  O   UNL     1      -4.998   7.242 -29.942  1.00  0.00    -0.272 OA
BRANCH  24  27
HETATM   27  N   UNL     1      -2.453   6.767 -29.120  1.00  0.00    -0.262 N 
HETATM   28  C   UNL     1      -1.338   7.338 -29.700  1.00  0.00     0.288 C 
HETATM   29  O   UNL     1      -1.026   7.208 -30.881  1.00  0.00    -0.264 OA
HETATM   30  H   UNL     1      -2.577   6.787 -28.106  1.00  0.00     0.190 HD
BRANCH  28  31
HETATM   31  C   UNL     1      -0.498   8.142 -28.764  1.00  0.00     0.125 A 
HETATM   32  N   UNL     1      -1.111   9.176 -28.124  1.00  0.00    -0.255 NA
HETATM   33  C   UNL     1      -0.347   9.886 -27.267  1.00  0.00     0.117 A 
HETATM   34  C   UNL     1       0.993   9.623 -27.024  1.00  0.00     0.019 A 
HETATM   35  C   UNL     1       1.594   8.562 -27.696  1.00  0.00     0.004 A 
HETATM   36  C   UNL     1       0.838   7.802 -28.581  1.00  0.00     0.037 A 
ENDBRANCH  28  31
ENDBRANCH  24  27
ENDBRANCH  22  23
ENDBRANCH   1  22
TORSDOF 8
ENDMDL
MODEL 7
REMARK VINA RESULT:      -8.7      3.434      7.839
REMARK  8 active torsions:
REMARK  status: ('A' for Active; 'I' for Inactive)
REMARK    1  A    between atoms: C_4  and  O_5 
REMARK    2  A    between atoms: O_5  and  C_6 
REMARK    3  A    between atoms: C_8  and  C_9 
REMARK    4  A    between atoms: C_9  and  N_10 
REMARK    5  A    between atoms: C_9  and  C_14 
REMARK       I    between atoms: N_10  and  C_11 
REMARK       I    between atoms: C_11  and  N_12 
REMARK    6  A    between atoms: C_14  and  C_15 
REMARK       I    between atoms: C_15  and  N_16 
REMARK    7  A    between atoms: N_16  and  N_17 
REMARK       I    between atoms: N_17  and  C_18 
REMARK    8  A    between atoms: C_18  and  C_19 
ROOT
HETATM    1  C   UNL     1      -5.312   3.640 -31.358  1.00  0.00     0.127 C 
ENDROOT
BRANCH   1   2
HETATM    2  C   UNL     1      -5.611   2.153 -31.512  1.00  0.00    -0.032 A 
HETATM    3  C   UNL     1      -5.517   1.517 -32.765  1.00  0.00     0.046 A 
HETATM    4  C   UNL     1      -5.726   0.141 -32.900  1.00  0.00     0.076 A 
HETATM    5  C   UNL     1      -5.987  -0.643 -31.779  1.00  0.00     0.037 A 
HETATM    6  C   UNL     1      -6.065  -0.039 -30.528  1.00  0.00     0.003 A 
HETATM    7  C   UNL     1      -5.869   1.340 -30.394  1.00  0.00     0.009 A 
BRANCH   4   8
HETATM    8  O   UNL     1      -5.561  -0.385 -34.161  1.00  0.00    -0.311 OA
BRANCH   8   9
HETATM    9  C   UNL     1      -5.632  -1.752 -34.308  1.00  0.00     0.076 A 
HETATM   10  C   UNL     1      -6.802  -2.424 -34.668  1.00  0.00     0.037 A 
HETATM   11  C   UNL     1      -6.781  -3.809 -34.838  1.00  0.00     0.003 A 
HETATM   12  C   UNL     1      -5.590  -4.517 -34.669  1.00  0.00     0.000 A 
HETATM   13  C   UNL     1      -4.416  -3.841 -34.337  1.00  0.00     0.003 A 
HETATM   14  C   UNL     1      -4.436  -2.457 -34.163  1.00  0.00     0.037 A 
ENDBRANCH   8   9
ENDBRANCH   4   8
ENDBRANCH   1   2
BRANCH   1  15
HETATM   15  N   UNL     1      -3.947   3.964 -30.918  1.00  0.00    -0.339 N 
HETATM   16  C   UNL     1      -2.842   3.846 -31.691  1.00  0.00     0.292 C 
HETATM   17  N   UNL     1      -1.707   4.195 -31.044  1.00  0.00    -0.254 NA
HETATM   18  O   UNL     1      -2.827   3.478 -32.853  1.00  0.00    -0.254 OA
HETATM   19  H   UNL     1      -1.764   5.000 -30.438  1.00  0.00     0.128 HD
HETATM   20  H   UNL     1      -0.901   4.205 -31.661  1.00  0.00     0.128 HD
HETATM   21  H   UNL     1      -3.768   3.888 -29.928  1.00  0.00     0.164 HD
ENDBRANCH   1  15
BRANCH   1  22
HETATM   22  C   UNL     1      -5.840   4.627 -32.415  1.00  0.00     0.134 C 
BRANCH  22  23
HETATM   23  C   UNL     1      -7.241   4.471 -32.976  1.00  0.00     0.238 C 
HETATM   24  N   UNL     1      -8.189   3.970 -32.125  1.00  0.00    -0.267 N 
HETATM   25  H   UNL     1      -8.105   4.016 -31.103  1.00  0.00     0.190 HD
HETATM   26  O   UNL     1      -7.467   4.675 -34.172  1.00  0.00    -0.272 OA
BRANCH  24  27
HETATM   27  N   UNL     1      -9.460   3.675 -32.620  1.00  0.00    -0.262 N 
HETATM   28  C   UNL     1      -9.813   2.352 -32.798  1.00  0.00     0.288 C 
HETATM   29  O   UNL     1      -9.144   1.397 -32.413  1.00  0.00    -0.264 OA
HETATM   30  H   UNL     1      -9.979   4.418 -33.091  1.00  0.00     0.190 HD
BRANCH  28  31
HETATM   31  C   UNL     1     -11.101   2.150 -33.525  1.00  0.00     0.125 A 
HETATM   32  N   UNL     1     -11.608   3.227 -34.187  1.00  0.00    -0.255 NA
HETATM   33  C   UNL     1     -12.764   3.029 -34.855  1.00  0.00     0.117 A 
HETATM   34  C   UNL     1     -13.441   1.818 -34.889  1.00  0.00     0.019 A 
HETATM   35  C   UNL     1     -12.901   0.736 -34.200  1.00  0.00     0.004 A 
HETATM   36  C   UNL     1     -11.708   0.898 -33.506  1.00  0.00     0.037 A 
ENDBRANCH  28  31
ENDBRANCH  24  27
ENDBRANCH  22  23
ENDBRANCH   1  22
TORSDOF 8
ENDMDL
MODEL 8
REMARK VINA RESULT:      -8.4      2.135      3.156
REMARK  8 active torsions:
REMARK  status: ('A' for Active; 'I' for Inactive)
REMARK    1  A    between atoms: C_4  and  O_5 
REMARK    2  A    between atoms: O_5  and  C_6 
REMARK    3  A    between atoms: C_8  and  C_9 
REMARK    4  A    between atoms: C_9  and  N_10 
REMARK    5  A    between atoms: C_9  and  C_14 
REMARK       I    between atoms: N_10  and  C_11 
REMARK       I    between atoms: C_11  and  N_12 
REMARK    6  A    between atoms: C_14  and  C_15 
REMARK       I    between atoms: C_15  and  N_16 
REMARK    7  A    between atoms: N_16  and  N_17 
REMARK       I    between atoms: N_17  and  C_18 
REMARK    8  A    between atoms: C_18  and  C_19 
ROOT
HETATM    1  C   UNL     1      -3.544   4.861 -32.151  1.00  0.00     0.127 C 
ENDROOT
BRANCH   1   2
HETATM    2  C   UNL     1      -3.034   6.085 -31.399  1.00  0.00    -0.032 A 
HETATM    3  C   UNL     1      -1.698   6.166 -30.959  1.00  0.00     0.046 A 
HETATM    4  C   UNL     1      -1.207   7.312 -30.328  1.00  0.00     0.076 A 
HETATM    5  C   UNL     1      -2.025   8.427 -30.161  1.00  0.00     0.037 A 
HETATM    6  C   UNL     1      -3.344   8.377 -30.605  1.00  0.00     0.003 A 
HETATM    7  C   UNL     1      -3.839   7.224 -31.226  1.00  0.00     0.009 A 
BRANCH   4   8
HETATM    8  O   UNL     1       0.126   7.302 -29.984  1.00  0.00    -0.311 OA
BRANCH   8   9
HETATM    9  C   UNL     1       0.453   7.429 -28.653  1.00  0.00     0.076 A 
HETATM   10  C   UNL     1      -0.003   6.553 -27.665  1.00  0.00     0.037 A 
HETATM   11  C   UNL     1       0.409   6.725 -26.343  1.00  0.00     0.003 A 
HETATM   12  C   UNL     1       1.290   7.756 -26.013  1.00  0.00     0.000 A 
HETATM   13  C   UNL     1       1.766   8.613 -27.005  1.00  0.00     0.003 A 
HETATM   14  C   UNL     1       1.353   8.445 -28.326  1.00  0.00     0.037 A 
ENDBRANCH   8   9
ENDBRANCH   4   8
ENDBRANCH   1   2
BRANCH   1  15
HETATM   15  N   UNL     1      -3.421   4.927 -33.614  1.00  0.00    -0.339 N 
HETATM   16  C   UNL     1      -4.456   5.116 -34.465  1.00  0.00     0.292 C 
HETATM   17  N   UNL     1      -4.076   5.124 -35.764  1.00  0.00    -0.254 NA
HETATM   18  O   UNL     1      -5.619   5.276 -34.140  1.00  0.00    -0.254 OA
HETATM   19  H   UNL     1      -3.210   5.596 -35.976  1.00  0.00     0.128 HD
HETATM   20  H   UNL     1      -4.839   5.372 -36.385  1.00  0.00     0.128 HD
HETATM   21  H   UNL     1      -2.639   4.432 -34.018  1.00  0.00     0.164 HD
ENDBRANCH   1  15
BRANCH   1  22
HETATM   22  C   UNL     1      -3.243   3.457 -31.596  1.00  0.00     0.134 C 
BRANCH  22  23
HETATM   23  C   UNL     1      -4.128   2.282 -31.963  1.00  0.00     0.238 C 
HETATM   24  N   UNL     1      -3.533   1.260 -32.653  1.00  0.00    -0.267 N 
HETATM   25  H   UNL     1      -2.522   1.086 -32.636  1.00  0.00     0.190 HD
HETATM   26  O   UNL     1      -5.343   2.317 -31.750  1.00  0.00    -0.272 OA
BRANCH  24  27
HETATM   27  N   UNL     1      -4.323   0.217 -33.138  1.00  0.00    -0.262 N 
HETATM   28  C   UNL     1      -3.955  -1.083 -32.853  1.00  0.00     0.288 C 
HETATM   29  O   UNL     1      -3.057  -1.395 -32.074  1.00  0.00    -0.264 OA
HETATM   30  H   UNL     1      -4.971   0.416 -33.902  1.00  0.00     0.190 HD
BRANCH  28  31
HETATM   31  C   UNL     1      -4.735  -2.121 -33.587  1.00  0.00     0.125 A 
HETATM   32  N   UNL     1      -4.118  -3.317 -33.798  1.00  0.00    -0.255 NA
HETATM   33  C   UNL     1      -4.838  -4.255 -34.449  1.00  0.00     0.117 A 
HETATM   34  C   UNL     1      -6.134  -4.059 -34.905  1.00  0.00     0.019 A 
HETATM   35  C   UNL     1      -6.737  -2.825 -34.679  1.00  0.00     0.004 A 
HETATM   36  C   UNL     1      -6.030  -1.835 -34.006  1.00  0.00     0.037 A 
ENDBRANCH  28  31
ENDBRANCH  24  27
ENDBRANCH  22  23
ENDBRANCH   1  22
TORSDOF 8
ENDMDL
MODEL 9
REMARK VINA RESULT:      -8.4      2.598      9.062
REMARK  8 active torsions:
REMARK  status: ('A' for Active; 'I' for Inactive)
REMARK    1  A    between atoms: C_4  and  O_5 
REMARK    2  A    between atoms: O_5  and  C_6 
REMARK    3  A    between atoms: C_8  and  C_9 
REMARK    4  A    between atoms: C_9  and  N_10 
REMARK    5  A    between atoms: C_9  and  C_14 
REMARK       I    between atoms: N_10  and  C_11 
REMARK       I    between atoms: C_11  and  N_12 
REMARK    6  A    between atoms: C_14  and  C_15 
REMARK       I    between atoms: C_15  and  N_16 
REMARK    7  A    between atoms: N_16  and  N_17 
REMARK       I    between atoms: N_17  and  C_18 
REMARK    8  A    between atoms: C_18  and  C_19 
ROOT
HETATM    1  C   UNL     1      -6.726   3.527 -33.867  1.00  0.00     0.127 C 
ENDROOT
BRANCH   1   2
HETATM    2  C   UNL     1      -6.726   2.050 -33.486  1.00  0.00    -0.032 A 
HETATM    3  C   UNL     1      -6.596   1.046 -34.464  1.00  0.00     0.046 A 
HETATM    4  C   UNL     1      -6.529  -0.306 -34.115  1.00  0.00     0.076 A 
HETATM    5  C   UNL     1      -6.543  -0.687 -32.775  1.00  0.00     0.037 A 
HETATM    6  C   UNL     1      -6.651   0.290 -31.790  1.00  0.00     0.003 A 
HETATM    7  C   UNL     1      -6.731   1.643 -32.141  1.00  0.00     0.009 A 
BRANCH   4   8
HETATM    8  O   UNL     1      -6.352  -1.200 -35.147  1.00  0.00    -0.311 OA
BRANCH   8   9
HETATM    9  C   UNL     1      -5.902  -2.464 -34.840  1.00  0.00     0.076 A 
HETATM   10  C   UNL     1      -6.698  -3.607 -34.944  1.00  0.00     0.037 A 
HETATM   11  C   UNL     1      -6.154  -4.860 -34.654  1.00  0.00     0.003 A 
HETATM   12  C   UNL     1      -4.814  -4.971 -34.281  1.00  0.00     0.000 A 
HETATM   13  C   UNL     1      -4.013  -3.832 -34.204  1.00  0.00     0.003 A 
HETATM   14  C   UNL     1      -4.556  -2.579 -34.490  1.00  0.00     0.037 A 
ENDBRANCH   8   9
ENDBRANCH   4   8
ENDBRANCH   1   2
BRANCH   1  15
HETATM   15  N   UNL     1      -7.560   4.393 -33.021  1.00  0.00    -0.339 N 
HETATM   16  C   UNL     1      -8.494   5.254 -33.488  1.00  0.00     0.292 C 
HETATM   17  N   UNL     1      -9.114   5.944 -32.504  1.00  0.00    -0.254 NA
HETATM   18  O   UNL     1      -8.785   5.415 -34.661  1.00  0.00    -0.254 OA
HETATM   19  H   UNL     1      -9.336   5.429 -31.665  1.00  0.00     0.128 HD
HETATM   20  H   UNL     1      -9.882   6.506 -32.854  1.00  0.00     0.128 HD
HETATM   21  H   UNL     1      -7.170   4.652 -32.127  1.00  0.00     0.164 HD
ENDBRANCH   1  15
BRANCH   1  22
HETATM   22  C   UNL     1      -5.402   4.198 -34.275  1.00  0.00     0.134 C 
BRANCH  22  23
HETATM   23  C   UNL     1      -4.585   4.964 -33.253  1.00  0.00     0.238 C 
HETATM   24  N   UNL     1      -3.580   4.274 -32.631  1.00  0.00    -0.267 N 
HETATM   25  H   UNL     1      -3.145   3.435 -33.031  1.00  0.00     0.190 HD
HETATM   26  O   UNL     1      -4.901   6.111 -32.925  1.00  0.00    -0.272 OA
BRANCH  24  27
HETATM   27  N   UNL     1      -2.883   4.882 -31.586  1.00  0.00    -0.262 N 
HETATM   28  C   UNL     1      -1.578   5.278 -31.799  1.00  0.00     0.288 C 
HETATM   29  O   UNL     1      -1.020   5.270 -32.893  1.00  0.00    -0.264 OA
HETATM   30  H   UNL     1      -3.242   4.769 -30.636  1.00  0.00     0.190 HD
BRANCH  28  31
HETATM   31  C   UNL     1      -0.857   5.718 -30.568  1.00  0.00     0.125 A 
HETATM   32  N   UNL     1      -1.278   6.880 -29.994  1.00  0.00    -0.255 NA
HETATM   33  C   UNL     1      -0.631   7.261 -28.873  1.00  0.00     0.117 A 
HETATM   34  C   UNL     1       0.415   6.550 -28.302  1.00  0.00     0.019 A 
HETATM   35  C   UNL     1       0.826   5.369 -28.913  1.00  0.00     0.004 A 
HETATM   36  C   UNL     1       0.179   4.939 -30.066  1.00  0.00     0.037 A 
ENDBRANCH  28  31
ENDBRANCH  24  27
ENDBRANCH  22  23
ENDBRANCH   1  22
TORSDOF 8
ENDMDL
MODEL 10
REMARK VINA RESULT:      -8.3      2.413      8.418
REMARK  8 active torsions:
REMARK  status: ('A' for Active; 'I' for Inactive)
REMARK    1  A    between atoms: C_4  and  O_5 
REMARK    2  A    between atoms: O_5  and  C_6 
REMARK    3  A    between atoms: C_8  and  C_9 
REMARK    4  A    between atoms: C_9  and  N_10 
REMARK    5  A    between atoms: C_9  and  C_14 
REMARK       I    between atoms: N_10  and  C_11 
REMARK       I    between atoms: C_11  and  N_12 
REMARK    6  A    between atoms: C_14  and  C_15 
REMARK       I    between atoms: C_15  and  N_16 
REMARK    7  A    between atoms: N_16  and  N_17 
REMARK       I    between atoms: N_17  and  C_18 
REMARK    8  A    between atoms: C_18  and  C_19 
ROOT
HETATM    1  C   UNL     1      -7.619   3.702 -32.616  1.00  0.00     0.127 C 
ENDROOT
BRANCH   1   2
HETATM    2  C   UNL     1      -8.107   2.273 -32.832  1.00  0.00    -0.032 A 
HETATM    3  C   UNL     1      -7.566   1.464 -33.849  1.00  0.00     0.046 A 
HETATM    4  C   UNL     1      -7.962   0.133 -34.009  1.00  0.00     0.076 A 
HETATM    5  C   UNL     1      -8.875  -0.438 -33.126  1.00  0.00     0.037 A 
HETATM    6  C   UNL     1      -9.410   0.337 -32.101  1.00  0.00     0.003 A 
HETATM    7  C   UNL     1      -9.022   1.673 -31.949  1.00  0.00     0.009 A 
BRANCH   4   8
HETATM    8  O   UNL     1      -7.332  -0.581 -35.003  1.00  0.00    -0.311 OA
BRANCH   8   9
HETATM    9  C   UNL     1      -6.371  -1.495 -34.635  1.00  0.00     0.076 A 
HETATM   10  C   UNL     1      -6.393  -2.832 -35.036  1.00  0.00     0.037 A 
HETATM   11  C   UNL     1      -5.357  -3.687 -34.656  1.00  0.00     0.003 A 
HETATM   12  C   UNL     1      -4.292  -3.201 -33.895  1.00  0.00     0.000 A 
HETATM   13  C   UNL     1      -4.258  -1.858 -33.519  1.00  0.00     0.003 A 
HETATM   14  C   UNL     1      -5.294  -1.003 -33.895  1.00  0.00     0.037 A 
ENDBRANCH   8   9
ENDBRANCH   4   8
ENDBRANCH   1   2
BRANCH   1  15
HETATM   15  N   UNL     1      -7.099   3.992 -31.272  1.00  0.00    -0.339 N 
HETATM   16  C   UNL     1      -6.113   3.293 -30.663  1.00  0.00     0.292 C 
HETATM   17  N   UNL     1      -5.829   3.755 -29.424  1.00  0.00    -0.254 NA
HETATM   18  O   UNL     1      -5.511   2.350 -31.146  1.00  0.00    -0.254 OA
HETATM   19  H   UNL     1      -5.827   4.757 -29.306  1.00  0.00     0.128 HD
HETATM   20  H   UNL     1      -5.019   3.295 -29.020  1.00  0.00     0.128 HD
HETATM   21  H   UNL     1      -7.737   4.446 -30.636  1.00  0.00     0.164 HD
ENDBRANCH   1  15
BRANCH   1  22
HETATM   22  C   UNL     1      -6.807   4.394 -33.726  1.00  0.00     0.134 C 
BRANCH  22  23
HETATM   23  C   UNL     1      -5.515   5.116 -33.392  1.00  0.00     0.238 C 
HETATM   24  N   UNL     1      -4.361   4.390 -33.509  1.00  0.00    -0.267 N 
HETATM   25  H   UNL     1      -4.281   3.555 -34.099  1.00  0.00     0.190 HD
HETATM   26  O   UNL     1      -5.534   6.258 -32.926  1.00  0.00    -0.272 OA
BRANCH  24  27
HETATM   27  N   UNL     1      -3.157   4.954 -33.086  1.00  0.00    -0.262 N 
HETATM   28  C   UNL     1      -2.394   4.275 -32.158  1.00  0.00     0.288 C 
HETATM   29  O   UNL     1      -2.622   3.129 -31.777  1.00  0.00    -0.264 OA
HETATM   30  H   UNL     1      -3.007   5.952 -33.249  1.00  0.00     0.190 HD
BRANCH  28  31
HETATM   31  C   UNL     1      -1.242   5.053 -31.616  1.00  0.00     0.125 A 
HETATM   32  N   UNL     1      -0.478   4.439 -30.669  1.00  0.00    -0.255 NA
HETATM   33  C   UNL     1       0.571   5.145 -30.197  1.00  0.00     0.117 A 
HETATM   34  C   UNL     1       0.891   6.429 -30.615  1.00  0.00     0.019 A 
HETATM   35  C   UNL     1       0.091   7.032 -31.581  1.00  0.00     0.004 A 
HETATM   36  C   UNL     1      -0.995   6.335 -32.096  1.00  0.00     0.037 A 
ENDBRANCH  28  31
ENDBRANCH  24  27
ENDBRANCH  22  23
ENDBRANCH   1  22
TORSDOF 8
ENDMDL
