MODEL 1
REMARK VINA RESULT:      -8.2      0.000      0.000
REMARK  6 active torsions:
REMARK  status: ('A' for Active; 'I' for Inactive)
REMARK    1  A    between atoms: C_2  and  N_3 
REMARK    2  A    between atoms: C_2  and  C_24 
REMARK       I    between atoms: N_3  and  C_4 
REMARK    3  A    between atoms: C_4  and  C_5 
REMARK    4  A    between atoms: C_5  and  N_6 
REMARK    5  A    between atoms: C_10  and  N_11 
REMARK       I    between atoms: N_11  and  C_12 
REMARK       I    between atoms: C_12  and  N_13 
REMARK    6  A    between atoms: N_13  and  C_14 
ROOT
HETATM    1  N   UNL     1      -4.728   2.001 -32.011  1.00  0.00    -0.063 N 
HETATM    2  H   UNL     1      -5.357   1.905 -32.826  1.00  0.00     0.280 HD
HETATM    3  C   UNL     1      -5.407   2.947 -31.049  1.00  0.00     0.237 C 
HETATM    4  C   UNL     1      -5.281   4.398 -31.474  1.00  0.00     0.053 C 
HETATM    5  C   UNL     1      -3.881   4.827 -31.910  1.00  0.00     0.089 C 
HETATM    6  C   UNL     1      -3.296   3.843 -32.918  1.00  0.00     0.053 C 
HETATM    7  C   UNL     1      -3.357   2.396 -32.476  1.00  0.00     0.237 C 
ENDROOT
BRANCH   1   8
HETATM    8  C   UNL     1      -4.669   0.582 -31.399  1.00  0.00     0.337 C 
BRANCH   8   9
HETATM    9  C   UNL     1      -6.042  -0.083 -31.413  1.00  0.00     0.244 C 
HETATM   10  N   UNL     1      -6.518  -0.747 -32.494  1.00  0.00    -0.351 N 
HETATM   11  H   UNL     1      -7.470  -1.068 -32.342  1.00  0.00     0.163 HD
HETATM   12  O   UNL     1      -6.731  -0.033 -30.387  1.00  0.00    -0.272 OA
BRANCH  10  13
HETATM   13  C   UNL     1      -6.056  -0.895 -33.877  1.00  0.00     0.120 C 
HETATM   14  C   UNL     1      -6.834  -0.123 -34.938  1.00  0.00     0.038 C 
BRANCH  13  15
HETATM   15  C   UNL     1      -5.860  -2.342 -34.253  1.00  0.00     0.005 A 
HETATM   16  S   UNL     1      -4.382  -3.178 -34.007  1.00  0.00    -0.104 SA
HETATM   17  C   UNL     1      -5.012  -4.637 -34.628  1.00  0.00     0.050 A 
HETATM   18  C   UNL     1      -6.329  -4.509 -35.003  1.00  0.00     0.008 A 
HETATM   19  C   UNL     1      -6.817  -3.188 -34.787  1.00  0.00     0.017 A 
ENDBRANCH  13  15
ENDBRANCH  10  13
ENDBRANCH   8   9
ENDBRANCH   1   8
BRANCH   5  20
HETATM   20  N   UNL     1      -2.974   5.189 -30.822  1.00  0.00    -0.338 N 
HETATM   21  C   UNL     1      -2.958   6.356 -30.112  1.00  0.00     0.316 C 
HETATM   22  N   UNL     1      -2.018   6.346 -29.121  1.00  0.00    -0.339 N 
HETATM   23  O   UNL     1      -3.712   7.296 -30.326  1.00  0.00    -0.247 OA
HETATM   24  H   UNL     1      -1.235   5.721 -29.248  1.00  0.00     0.164 HD
HETATM   25  H   UNL     1      -2.483   4.423 -30.377  1.00  0.00     0.164 HD
BRANCH  22  26
HETATM   26  C   UNL     1      -1.776   7.532 -28.299  1.00  0.00     0.086 C 
HETATM   27  C   UNL     1      -1.500   7.141 -26.843  1.00  0.00     0.025 C 
HETATM   28  C   UNL     1      -0.121   6.514 -26.645  1.00  0.00     0.002 C 
HETATM   29  C   UNL     1       0.987   7.393 -27.217  1.00  0.00     0.000 C 
HETATM   30  C   UNL     1       0.734   7.742 -28.680  1.00  0.00     0.002 C 
HETATM   31  C   UNL     1      -0.638   8.385 -28.876  1.00  0.00     0.025 C 
ENDBRANCH  22  26
ENDBRANCH   5  20
TORSDOF 6
ENDMDL
MODEL 2
REMARK VINA RESULT:      -7.9      1.386      1.813
REMARK  6 active torsions:
REMARK  status: ('A' for Active; 'I' for Inactive)
REMARK    1  A    between atoms: C_2  and  N_3 
REMARK    2  A    between atoms: C_2  and  C_24 
REMARK       I    between atoms: N_3  and  C_4 
REMARK    3  A    between atoms: C_4  and  C_5 
REMARK    4  A    between atoms: C_5  and  N_6 
REMARK    5  A    between atoms: C_10  and  N_11 
REMARK       I    between atoms: N_11  and  C_12 
REMARK       I    between atoms: C_12  and  N_13 
REMARK    6  A    between atoms: N_13  and  C_14 
ROOT
HETATM    1  N   UNL     1      -5.575   2.763 -31.928  1.00  0.00    -0.063 N 
HETATM    2  H   UNL     1      -5.770   2.364 -32.861  1.00  0.00     0.280 HD
HETATM    3  C   UNL     1      -5.737   4.259 -32.053  1.00  0.00     0.237 C 
HETATM    4  C   UNL     1      -4.547   4.920 -32.723  1.00  0.00     0.053 C 
HETATM    5  C   UNL     1      -3.181   4.467 -32.209  1.00  0.00     0.089 C 
HETATM    6  C   UNL     1      -3.089   2.946 -32.163  1.00  0.00     0.053 C 
HETATM    7  C   UNL     1      -4.240   2.278 -31.441  1.00  0.00     0.237 C 
ENDROOT
BRANCH   1   8
HETATM    8  C   UNL     1      -6.687   2.189 -31.020  1.00  0.00     0.337 C 
BRANCH   8   9
HETATM    9  C   UNL     1      -6.406   0.735 -30.654  1.00  0.00     0.244 C 
HETATM   10  N   UNL     1      -6.458  -0.268 -31.564  1.00  0.00    -0.351 N 
HETATM   11  H   UNL     1      -6.304  -1.172 -31.127  1.00  0.00     0.163 HD
HETATM   12  O   UNL     1      -6.093   0.471 -29.487  1.00  0.00    -0.272 OA
BRANCH  10  13
HETATM   13  C   UNL     1      -6.906  -0.350 -32.957  1.00  0.00     0.120 C 
HETATM   14  C   UNL     1      -8.414  -0.323 -33.187  1.00  0.00     0.038 C 
BRANCH  13  15
HETATM   15  C   UNL     1      -6.236  -1.480 -33.698  1.00  0.00     0.005 A 
HETATM   16  S   UNL     1      -4.542  -1.747 -33.654  1.00  0.00    -0.104 SA
HETATM   17  C   UNL     1      -4.655  -3.129 -34.650  1.00  0.00     0.050 A 
HETATM   18  C   UNL     1      -5.956  -3.403 -35.001  1.00  0.00     0.008 A 
HETATM   19  C   UNL     1      -6.866  -2.453 -34.454  1.00  0.00     0.017 A 
ENDBRANCH  13  15
ENDBRANCH  10  13
ENDBRANCH   8   9
ENDBRANCH   1   8
BRANCH   5  20
HETATM   20  N   UNL     1      -2.720   5.137 -30.993  1.00  0.00    -0.338 N 
HETATM   21  C   UNL     1      -1.486   5.676 -30.763  1.00  0.00     0.316 C 
HETATM   22  N   UNL     1      -1.406   6.282 -29.541  1.00  0.00    -0.339 N 
HETATM   23  O   UNL     1      -0.564   5.639 -31.566  1.00  0.00    -0.247 OA
HETATM   24  H   UNL     1      -2.052   5.959 -28.834  1.00  0.00     0.164 HD
HETATM   25  H   UNL     1      -3.443   5.463 -30.363  1.00  0.00     0.164 HD
BRANCH  22  26
HETATM   26  C   UNL     1      -0.145   6.847 -29.061  1.00  0.00     0.086 C 
HETATM   27  C   UNL     1      -0.311   8.327 -28.699  1.00  0.00     0.025 C 
HETATM   28  C   UNL     1      -1.096   8.542 -27.406  1.00  0.00     0.002 C 
HETATM   29  C   UNL     1      -0.510   7.737 -26.250  1.00  0.00     0.000 C 
HETATM   30  C   UNL     1      -0.390   6.257 -26.594  1.00  0.00     0.002 C 
HETATM   31  C   UNL     1       0.410   6.040 -27.878  1.00  0.00     0.025 C 
ENDBRANCH  22  26
ENDBRANCH   5  20
TORSDOF 6
ENDMDL
MODEL 3
REMARK VINA RESULT:      -7.7      2.981      3.942
REMARK  6 active torsions:
REMARK  status: ('A' for Active; 'I' for Inactive)
REMARK    1  A    between atoms: C_2  and  N_3 
REMARK    2  A    between atoms: C_2  and  C_24 
REMARK       I    between atoms: N_3  and  C_4 
REMARK    3  A    between atoms: C_4  and  C_5 
REMARK    4  A    between atoms: C_5  and  N_6 
REMARK    5  A    between atoms: C_10  and  N_11 
REMARK       I    between atoms: N_11  and  C_12 
REMARK       I    between atoms: C_12  and  N_13 
REMARK    6  A    between atoms: N_13  and  C_14 
ROOT
HETATM    1  N   UNL     1      -7.313   2.861 -31.737  1.00  0.00    -0.063 N 
HETATM    2  H   UNL     1      -7.735   1.958 -32.011  1.00  0.00     0.280 HD
HETATM    3  C   UNL     1      -6.305   3.210 -32.806  1.00  0.00     0.237 C 
HETATM    4  C   UNL     1      -5.016   2.423 -32.669  1.00  0.00     0.053 C 
HETATM    5  C   UNL     1      -4.446   2.355 -31.253  1.00  0.00     0.089 C 
HETATM    6  C   UNL     1      -5.519   1.947 -30.250  1.00  0.00     0.053 C 
HETATM    7  C   UNL     1      -6.789   2.768 -30.334  1.00  0.00     0.237 C 
ENDROOT
BRANCH   1   8
HETATM    8  C   UNL     1      -8.489   3.865 -31.775  1.00  0.00     0.337 C 
BRANCH   8   9
HETATM    9  C   UNL     1      -9.812   3.179 -31.450  1.00  0.00     0.244 C 
HETATM   10  N   UNL     1     -10.438   2.353 -32.323  1.00  0.00    -0.351 N 
HETATM   11  H   UNL     1     -11.333   2.040 -31.960  1.00  0.00     0.163 HD
HETATM   12  O   UNL     1     -10.315   3.368 -30.336  1.00  0.00    -0.272 OA
BRANCH  10  13
HETATM   13  C   UNL     1     -10.215   2.010 -33.731  1.00  0.00     0.120 C 
HETATM   14  C   UNL     1     -11.456   1.662 -34.548  1.00  0.00     0.038 C 
BRANCH  13  15
HETATM   15  C   UNL     1      -9.118   0.989 -33.894  1.00  0.00     0.005 A 
HETATM   16  S   UNL     1      -8.844  -0.274 -32.766  1.00  0.00    -0.104 SA
HETATM   17  C   UNL     1      -7.551  -0.915 -33.678  1.00  0.00     0.050 A 
HETATM   18  C   UNL     1      -7.334  -0.201 -34.833  1.00  0.00     0.008 A 
HETATM   19  C   UNL     1      -8.235   0.895 -34.957  1.00  0.00     0.017 A 
ENDBRANCH  13  15
ENDBRANCH  10  13
ENDBRANCH   8   9
ENDBRANCH   1   8
BRANCH   5  20
HETATM   20  N   UNL     1      -3.647   3.511 -30.847  1.00  0.00    -0.338 N 
HETATM   21  C   UNL     1      -2.604   4.075 -31.526  1.00  0.00     0.316 C 
HETATM   22  N   UNL     1      -2.115   5.183 -30.894  1.00  0.00    -0.339 N 
HETATM   23  O   UNL     1      -2.171   3.650 -32.588  1.00  0.00    -0.247 OA
HETATM   24  H   UNL     1      -2.272   5.241 -29.898  1.00  0.00     0.164 HD
HETATM   25  H   UNL     1      -4.054   4.106 -30.136  1.00  0.00     0.164 HD
BRANCH  22  26
HETATM   26  C   UNL     1      -0.941   5.888 -31.409  1.00  0.00     0.086 C 
HETATM   27  C   UNL     1      -1.071   7.400 -31.189  1.00  0.00     0.025 C 
HETATM   28  C   UNL     1      -0.887   7.808 -29.729  1.00  0.00     0.002 C 
HETATM   29  C   UNL     1       0.413   7.259 -29.148  1.00  0.00     0.000 C 
HETATM   30  C   UNL     1       0.518   5.748 -29.325  1.00  0.00     0.002 C 
HETATM   31  C   UNL     1       0.352   5.340 -30.789  1.00  0.00     0.025 C 
ENDBRANCH  22  26
ENDBRANCH   5  20
TORSDOF 6
ENDMDL
MODEL 4
REMARK VINA RESULT:      -7.7      1.705      2.160
REMARK  6 active torsions:
REMARK  status: ('A' for Active; 'I' for Inactive)
REMARK    1  A    between atoms: C_2  and  N_3 
REMARK    2  A    between atoms: C_2  and  C_24 
REMARK       I    between atoms: N_3  and  C_4 
REMARK    3  A    between atoms: C_4  and  C_5 
REMARK    4  A    between atoms: C_5  and  N_6 
REMARK    5  A    between atoms: C_10  and  N_11 
REMARK       I    between atoms: N_11  and  C_12 
REMARK       I    between atoms: C_12  and  N_13 
REMARK    6  A    between atoms: N_13  and  C_14 
ROOT
HETATM    1  N   UNL     1      -6.965   2.467 -31.431  1.00  0.00    -0.063 N 
HETATM    2  H   UNL     1      -7.909   2.706 -31.776  1.00  0.00     0.280 HD
HETATM    3  C   UNL     1      -6.831   3.097 -30.065  1.00  0.00     0.237 C 
HETATM    4  C   UNL     1      -6.563   4.589 -30.136  1.00  0.00     0.053 C 
HETATM    5  C   UNL     1      -5.490   5.007 -31.140  1.00  0.00     0.089 C 
HETATM    6  C   UNL     1      -5.734   4.365 -32.502  1.00  0.00     0.053 C 
HETATM    7  C   UNL     1      -5.939   2.866 -32.451  1.00  0.00     0.237 C 
ENDROOT
BRANCH   1   8
HETATM    8  C   UNL     1      -6.980   0.926 -31.299  1.00  0.00     0.337 C 
BRANCH   8   9
HETATM    9  C   UNL     1      -7.684   0.277 -32.486  1.00  0.00     0.244 C 
HETATM   10  N   UNL     1      -7.121  -0.721 -33.210  1.00  0.00    -0.351 N 
HETATM   11  H   UNL     1      -7.708  -0.984 -33.997  1.00  0.00     0.163 HD
HETATM   12  O   UNL     1      -8.821   0.663 -32.779  1.00  0.00    -0.272 OA
BRANCH  10  13
HETATM   13  C   UNL     1      -5.785  -1.324 -33.238  1.00  0.00     0.120 C 
HETATM   14  C   UNL     1      -4.636  -0.406 -33.645  1.00  0.00     0.038 C 
BRANCH  13  15
HETATM   15  C   UNL     1      -5.772  -2.627 -33.996  1.00  0.00     0.005 A 
HETATM   16  S   UNL     1      -4.377  -3.617 -34.126  1.00  0.00    -0.104 SA
HETATM   17  C   UNL     1      -5.202  -4.797 -35.042  1.00  0.00     0.050 A 
HETATM   18  C   UNL     1      -6.522  -4.464 -35.236  1.00  0.00     0.008 A 
HETATM   19  C   UNL     1      -6.850  -3.215 -34.636  1.00  0.00     0.017 A 
ENDBRANCH  13  15
ENDBRANCH  10  13
ENDBRANCH   8   9
ENDBRANCH   1   8
BRANCH   5  20
HETATM   20  N   UNL     1      -4.113   4.902 -30.660  1.00  0.00    -0.338 N 
HETATM   21  C   UNL     1      -3.008   5.517 -31.176  1.00  0.00     0.316 C 
HETATM   22  N   UNL     1      -1.882   5.251 -30.450  1.00  0.00    -0.339 N 
HETATM   23  O   UNL     1      -3.027   6.240 -32.163  1.00  0.00    -0.247 OA
HETATM   24  H   UNL     1      -1.885   4.398 -29.908  1.00  0.00     0.164 HD
HETATM   25  H   UNL     1      -3.996   4.555 -29.715  1.00  0.00     0.164 HD
BRANCH  22  26
HETATM   26  C   UNL     1      -0.573   5.742 -30.882  1.00  0.00     0.086 C 
HETATM   27  C   UNL     1      -0.500   7.270 -30.780  1.00  0.00     0.025 C 
HETATM   28  C   UNL     1      -0.401   7.767 -29.339  1.00  0.00     0.002 C 
HETATM   29  C   UNL     1       0.742   7.094 -28.586  1.00  0.00     0.000 C 
HETATM   30  C   UNL     1       0.642   5.573 -28.649  1.00  0.00     0.002 C 
HETATM   31  C   UNL     1       0.560   5.073 -30.091  1.00  0.00     0.025 C 
ENDBRANCH  22  26
ENDBRANCH   5  20
TORSDOF 6
ENDMDL
MODEL 5
REMARK VINA RESULT:      -7.7      2.071      2.982
REMARK  6 active torsions:
REMARK  status: ('A' for Active; 'I' for Inactive)
REMARK    1  A    between atoms: C_2  and  N_3 
REMARK    2  A    between atoms: C_2  and  C_24 
REMARK       I    between atoms: N_3  and  C_4 
REMARK    3  A    between atoms: C_4  and  C_5 
REMARK    4  A    between atoms: C_5  and  N_6 
REMARK    5  A    between atoms: C_10  and  N_11 
REMARK       I    between atoms: N_11  and  C_12 
REMARK       I    between atoms: C_12  and  N_13 
REMARK    6  A    between atoms: N_13  and  C_14 
ROOT
HETATM    1  N   UNL     1      -5.436   1.152 -31.475  1.00  0.00    -0.063 N 
HETATM    2  H   UNL     1      -6.375   0.860 -31.791  1.00  0.00     0.280 HD
HETATM    3  C   UNL     1      -5.595   1.677 -30.069  1.00  0.00     0.237 C 
HETATM    4  C   UNL     1      -6.180   3.076 -30.032  1.00  0.00     0.053 C 
HETATM    5  C   UNL     1      -5.555   4.065 -31.015  1.00  0.00     0.089 C 
HETATM    6  C   UNL     1      -5.480   3.471 -32.417  1.00  0.00     0.053 C 
HETATM    7  C   UNL     1      -4.840   2.100 -32.475  1.00  0.00     0.237 C 
ENDROOT
BRANCH   1   8
HETATM    8  C   UNL     1      -4.609  -0.155 -31.458  1.00  0.00     0.337 C 
BRANCH   8   9
HETATM    9  C   UNL     1      -4.182  -0.557 -32.866  1.00  0.00     0.244 C 
HETATM   10  N   UNL     1      -5.043  -1.101 -33.761  1.00  0.00    -0.351 N 
HETATM   11  H   UNL     1      -4.568  -1.361 -34.620  1.00  0.00     0.163 HD
HETATM   12  O   UNL     1      -3.011  -0.353 -33.207  1.00  0.00    -0.272 OA
BRANCH  10  13
HETATM   13  C   UNL     1      -6.421  -1.592 -33.671  1.00  0.00     0.120 C 
HETATM   14  C   UNL     1      -6.783  -2.765 -34.577  1.00  0.00     0.038 C 
BRANCH  13  15
HETATM   15  C   UNL     1      -7.425  -0.470 -33.761  1.00  0.00     0.005 A 
HETATM   16  S   UNL     1      -7.411   0.695 -35.020  1.00  0.00    -0.104 SA
HETATM   17  C   UNL     1      -8.792   1.489 -34.408  1.00  0.00     0.050 A 
HETATM   18  C   UNL     1      -9.276   0.877 -33.275  1.00  0.00     0.008 A 
HETATM   19  C   UNL     1      -8.488  -0.250 -32.902  1.00  0.00     0.017 A 
ENDBRANCH  13  15
ENDBRANCH  10  13
ENDBRANCH   8   9
ENDBRANCH   1   8
BRANCH   5  20
HETATM   20  N   UNL     1      -4.317   4.697 -30.559  1.00  0.00    -0.338 N 
HETATM   21  C   UNL     1      -3.829   5.919 -30.926  1.00  0.00     0.316 C 
HETATM   22  N   UNL     1      -2.675   6.234 -30.267  1.00  0.00    -0.339 N 
HETATM   23  O   UNL     1      -4.373   6.656 -31.737  1.00  0.00    -0.247 OA
HETATM   24  H   UNL     1      -2.128   5.459 -29.919  1.00  0.00     0.164 HD
HETATM   25  H   UNL     1      -3.912   4.323 -29.710  1.00  0.00     0.164 HD
BRANCH  22  26
HETATM   26  C   UNL     1      -1.940   7.461 -30.576  1.00  0.00     0.086 C 
HETATM   27  C   UNL     1      -1.734   8.307 -29.315  1.00  0.00     0.025 C 
HETATM   28  C   UNL     1      -0.690   7.720 -28.366  1.00  0.00     0.002 C 
HETATM   29  C   UNL     1       0.628   7.436 -29.081  1.00  0.00     0.000 C 
HETATM   30  C   UNL     1       0.426   6.554 -30.309  1.00  0.00     0.002 C 
HETATM   31  C   UNL     1      -0.605   7.150 -31.267  1.00  0.00     0.025 C 
ENDBRANCH  22  26
ENDBRANCH   5  20
TORSDOF 6
ENDMDL
MODEL 6
REMARK VINA RESULT:      -7.6      3.446      9.799
REMARK  6 active torsions:
REMARK  status: ('A' for Active; 'I' for Inactive)
REMARK    1  A    between atoms: C_2  and  N_3 
REMARK    2  A    between atoms: C_2  and  C_24 
REMARK       I    between atoms: N_3  and  C_4 
REMARK    3  A    between atoms: C_4  and  C_5 
REMARK    4  A    between atoms: C_5  and  N_6 
REMARK    5  A    between atoms: C_10  and  N_11 
REMARK       I    between atoms: N_11  and  C_12 
REMARK       I    between atoms: C_12  and  N_13 
REMARK    6  A    between atoms: N_13  and  C_14 
ROOT
HETATM    1  N   UNL     1      -2.054   6.409 -32.992  1.00  0.00    -0.063 N 
HETATM    2  H   UNL     1      -1.986   7.383 -33.331  1.00  0.00     0.280 HD
HETATM    3  C   UNL     1      -2.015   5.522 -34.214  1.00  0.00     0.237 C 
HETATM    4  C   UNL     1      -3.340   5.489 -34.952  1.00  0.00     0.053 C 
HETATM    5  C   UNL     1      -4.570   5.301 -34.066  1.00  0.00     0.089 C 
HETATM    6  C   UNL     1      -4.551   6.270 -32.889  1.00  0.00     0.053 C 
HETATM    7  C   UNL     1      -3.256   6.265 -32.105  1.00  0.00     0.237 C 
ENDROOT
BRANCH   1   8
HETATM    8  C   UNL     1      -0.772   6.201 -32.151  1.00  0.00     0.337 C 
BRANCH   8   9
HETATM    9  C   UNL     1      -1.048   5.327 -30.932  1.00  0.00     0.244 C 
HETATM   10  N   UNL     1      -1.147   5.835 -29.680  1.00  0.00    -0.351 N 
HETATM   11  H   UNL     1      -1.270   5.098 -28.990  1.00  0.00     0.163 HD
HETATM   12  O   UNL     1      -1.211   4.113 -31.103  1.00  0.00    -0.272 OA
BRANCH  10  13
HETATM   13  C   UNL     1      -0.891   7.156 -29.098  1.00  0.00     0.120 C 
HETATM   14  C   UNL     1       0.571   7.579 -28.997  1.00  0.00     0.038 C 
BRANCH  13  15
HETATM   15  C   UNL     1      -1.634   7.353 -27.801  1.00  0.00     0.005 A 
HETATM   16  S   UNL     1      -2.943   8.449 -27.634  1.00  0.00    -0.104 SA
HETATM   17  C   UNL     1      -3.184   8.034 -25.995  1.00  0.00     0.050 A 
HETATM   18  C   UNL     1      -2.302   7.066 -25.577  1.00  0.00     0.008 A 
HETATM   19  C   UNL     1      -1.410   6.674 -26.615  1.00  0.00     0.017 A 
ENDBRANCH  13  15
ENDBRANCH  10  13
ENDBRANCH   8   9
ENDBRANCH   1   8
BRANCH   5  20
HETATM   20  N   UNL     1      -4.871   3.916 -33.705  1.00  0.00    -0.338 N 
HETATM   21  C   UNL     1      -6.099   3.319 -33.668  1.00  0.00     0.316 C 
HETATM   22  N   UNL     1      -6.020   1.993 -33.347  1.00  0.00    -0.339 N 
HETATM   23  O   UNL     1      -7.148   3.898 -33.915  1.00  0.00    -0.247 OA
HETATM   24  H   UNL     1      -5.206   1.704 -32.823  1.00  0.00     0.164 HD
HETATM   25  H   UNL     1      -4.092   3.269 -33.733  1.00  0.00     0.164 HD
BRANCH  22  26
HETATM   26  C   UNL     1      -7.229   1.188 -33.169  1.00  0.00     0.086 C 
HETATM   27  C   UNL     1      -7.859   0.840 -34.522  1.00  0.00     0.025 C 
HETATM   28  C   UNL     1      -7.066  -0.211 -35.297  1.00  0.00     0.002 C 
HETATM   29  C   UNL     1      -6.807  -1.457 -34.455  1.00  0.00     0.000 C 
HETATM   30  C   UNL     1      -6.137  -1.114 -33.129  1.00  0.00     0.002 C 
HETATM   31  C   UNL     1      -6.938  -0.075 -32.345  1.00  0.00     0.025 C 
ENDBRANCH  22  26
ENDBRANCH   5  20
TORSDOF 6
ENDMDL
MODEL 7
REMARK VINA RESULT:      -7.3      4.767     10.390
REMARK  6 active torsions:
REMARK  status: ('A' for Active; 'I' for Inactive)
REMARK    1  A    between atoms: C_2  and  N_3 
REMARK    2  A    between atoms: C_2  and  C_24 
REMARK       I    between atoms: N_3  and  C_4 
REMARK    3  A    between atoms: C_4  and  C_5 
REMARK    4  A    between atoms: C_5  and  N_6 
REMARK    5  A    between atoms: C_10  and  N_11 
REMARK       I    between atoms: N_11  and  C_12 
REMARK       I    between atoms: C_12  and  N_13 
REMARK    6  A    between atoms: N_13  and  C_14 
ROOT
HETATM    1  N   UNL     1      -5.547   1.847 -31.802  1.00  0.00    -0.063 N 
HETATM    2  H   UNL     1      -4.752   1.196 -31.917  1.00  0.00     0.280 HD
HETATM    3  C   UNL     1      -6.412   1.284 -30.700  1.00  0.00     0.237 C 
HETATM    4  C   UNL     1      -7.269   0.123 -31.169  1.00  0.00     0.053 C 
HETATM    5  C   UNL     1      -7.991   0.345 -32.496  1.00  0.00     0.089 C 
HETATM    6  C   UNL     1      -7.031   0.864 -33.562  1.00  0.00     0.053 C 
HETATM    7  C   UNL     1      -6.216   2.064 -33.128  1.00  0.00     0.237 C 
ENDROOT
BRANCH   1   8
HETATM    8  C   UNL     1      -4.899   3.172 -31.336  1.00  0.00     0.337 C 
BRANCH   8   9
HETATM    9  C   UNL     1      -3.380   3.050 -31.269  1.00  0.00     0.244 C 
HETATM   10  N   UNL     1      -2.565   4.131 -31.203  1.00  0.00    -0.351 N 
HETATM   11  H   UNL     1      -1.586   3.859 -31.229  1.00  0.00     0.163 HD
HETATM   12  O   UNL     1      -2.880   1.919 -31.249  1.00  0.00    -0.272 OA
BRANCH  10  13
HETATM   13  C   UNL     1      -2.784   5.574 -31.334  1.00  0.00     0.120 C 
HETATM   14  C   UNL     1      -3.020   6.099 -32.747  1.00  0.00     0.038 C 
BRANCH  13  15
HETATM   15  C   UNL     1      -1.737   6.371 -30.596  1.00  0.00     0.005 A 
HETATM   16  S   UNL     1      -2.110   7.418 -29.290  1.00  0.00    -0.104 SA
HETATM   17  C   UNL     1      -0.472   7.838 -29.055  1.00  0.00     0.050 A 
HETATM   18  C   UNL     1       0.356   7.185 -29.938  1.00  0.00     0.008 A 
HETATM   19  C   UNL     1      -0.371   6.341 -30.825  1.00  0.00     0.017 A 
ENDBRANCH  13  15
ENDBRANCH  10  13
ENDBRANCH   8   9
ENDBRANCH   1   8
BRANCH   5  20
HETATM   20  N   UNL     1      -9.250   1.084 -32.404  1.00  0.00    -0.338 N 
HETATM   21  C   UNL     1     -10.131   1.346 -33.415  1.00  0.00     0.316 C 
HETATM   22  N   UNL     1     -11.240   2.010 -32.975  1.00  0.00    -0.339 N 
HETATM   23  O   UNL     1      -9.956   1.007 -34.578  1.00  0.00    -0.247 OA
HETATM   24  H   UNL     1     -11.137   2.548 -32.126  1.00  0.00     0.164 HD
HETATM   25  H   UNL     1      -9.637   1.191 -31.475  1.00  0.00     0.164 HD
BRANCH  22  26
HETATM   26  C   UNL     1     -12.269   2.464 -33.912  1.00  0.00     0.086 C 
HETATM   27  C   UNL     1     -13.026   1.273 -34.511  1.00  0.00     0.025 C 
HETATM   28  C   UNL     1     -13.981   0.613 -33.518  1.00  0.00     0.002 C 
HETATM   29  C   UNL     1     -14.928   1.628 -32.884  1.00  0.00     0.000 C 
HETATM   30  C   UNL     1     -14.170   2.787 -32.247  1.00  0.00     0.002 C 
HETATM   31  C   UNL     1     -13.227   3.460 -33.244  1.00  0.00     0.025 C 
ENDBRANCH  22  26
ENDBRANCH   5  20
TORSDOF 6
ENDMDL
MODEL 8
REMARK VINA RESULT:      -7.2      2.165      3.310
REMARK  6 active torsions:
REMARK  status: ('A' for Active; 'I' for Inactive)
REMARK    1  A    between atoms: C_2  and  N_3 
REMARK    2  A    between atoms: C_2  and  C_24 
REMARK       I    between atoms: N_3  and  C_4 
REMARK    3  A    between atoms: C_4  and  C_5 
REMARK    4  A    between atoms: C_5  and  N_6 
REMARK    5  A    between atoms: C_10  and  N_11 
REMARK       I    between atoms: N_11  and  C_12 
REMARK       I    between atoms: C_12  and  N_13 
REMARK    6  A    between atoms: N_13  and  C_14 
ROOT
HETATM    1  N   UNL     1      -7.234   3.068 -33.386  1.00  0.00    -0.063 N 
HETATM    2  H   UNL     1      -8.265   3.097 -33.462  1.00  0.00     0.280 HD
HETATM    3  C   UNL     1      -6.918   2.603 -31.984  1.00  0.00     0.237 C 
HETATM    4  C   UNL     1      -7.088   3.704 -30.954  1.00  0.00     0.053 C 
HETATM    5  C   UNL     1      -6.472   5.048 -31.334  1.00  0.00     0.089 C 
HETATM    6  C   UNL     1      -6.886   5.462 -32.743  1.00  0.00     0.053 C 
HETATM    7  C   UNL     1      -6.660   4.394 -33.792  1.00  0.00     0.237 C 
ENDROOT
BRANCH   1   8
HETATM    8  C   UNL     1      -6.800   1.990 -34.407  1.00  0.00     0.337 C 
BRANCH   8   9
HETATM    9  C   UNL     1      -7.669   0.742 -34.296  1.00  0.00     0.244 C 
HETATM   10  N   UNL     1      -7.147  -0.494 -34.105  1.00  0.00    -0.351 N 
HETATM   11  H   UNL     1      -7.871  -1.207 -34.119  1.00  0.00     0.163 HD
HETATM   12  O   UNL     1      -8.897   0.872 -34.358  1.00  0.00    -0.272 OA
BRANCH  10  13
HETATM   13  C   UNL     1      -5.783  -1.031 -34.115  1.00  0.00     0.120 C 
HETATM   14  C   UNL     1      -5.638  -2.506 -34.474  1.00  0.00     0.038 C 
BRANCH  13  15
HETATM   15  C   UNL     1      -5.028  -0.671 -32.860  1.00  0.00     0.005 A 
HETATM   16  S   UNL     1      -3.344  -0.348 -32.845  1.00  0.00    -0.104 SA
HETATM   17  C   UNL     1      -3.341  -0.023 -31.170  1.00  0.00     0.050 A 
HETATM   18  C   UNL     1      -4.597  -0.136 -30.623  1.00  0.00     0.008 A 
HETATM   19  C   UNL     1      -5.569  -0.510 -31.595  1.00  0.00     0.017 A 
ENDBRANCH  13  15
ENDBRANCH  10  13
ENDBRANCH   8   9
ENDBRANCH   1   8
BRANCH   5  20
HETATM   20  N   UNL     1      -5.040   5.177 -31.063  1.00  0.00    -0.338 N 
HETATM   21  C   UNL     1      -4.376   6.293 -30.640  1.00  0.00     0.316 C 
HETATM   22  N   UNL     1      -3.048   6.053 -30.424  1.00  0.00    -0.339 N 
HETATM   23  O   UNL     1      -4.911   7.378 -30.456  1.00  0.00    -0.247 OA
HETATM   24  H   UNL     1      -2.641   5.279 -30.929  1.00  0.00     0.164 HD
HETATM   25  H   UNL     1      -4.534   4.311 -30.924  1.00  0.00     0.164 HD
BRANCH  22  26
HETATM   26  C   UNL     1      -2.138   7.136 -30.050  1.00  0.00     0.086 C 
HETATM   27  C   UNL     1      -0.999   6.613 -29.168  1.00  0.00     0.025 C 
HETATM   28  C   UNL     1       0.027   5.789 -29.944  1.00  0.00     0.002 C 
HETATM   29  C   UNL     1       0.553   6.543 -31.162  1.00  0.00     0.000 C 
HETATM   30  C   UNL     1      -0.580   7.021 -32.063  1.00  0.00     0.002 C 
HETATM   31  C   UNL     1      -1.598   7.861 -31.291  1.00  0.00     0.025 C 
ENDBRANCH  22  26
ENDBRANCH   5  20
TORSDOF 6
ENDMDL
MODEL 9
REMARK VINA RESULT:      -7.0      3.290     10.203
REMARK  6 active torsions:
REMARK  status: ('A' for Active; 'I' for Inactive)
REMARK    1  A    between atoms: C_2  and  N_3 
REMARK    2  A    between atoms: C_2  and  C_24 
REMARK       I    between atoms: N_3  and  C_4 
REMARK    3  A    between atoms: C_4  and  C_5 
REMARK    4  A    between atoms: C_5  and  N_6 
REMARK    5  A    between atoms: C_10  and  N_11 
REMARK       I    between atoms: N_11  and  C_12 
REMARK       I    between atoms: C_12  and  N_13 
REMARK    6  A    between atoms: N_13  and  C_14 
ROOT
HETATM    1  N   UNL     1      -4.876   6.953 -31.095  1.00  0.00    -0.063 N 
HETATM    2  H   UNL     1      -5.256   7.782 -30.610  1.00  0.00     0.280 HD
HETATM    3  C   UNL     1      -5.651   6.812 -32.384  1.00  0.00     0.237 C 
HETATM    4  C   UNL     1      -7.027   6.211 -32.172  1.00  0.00     0.053 C 
HETATM    5  C   UNL     1      -7.065   4.981 -31.267  1.00  0.00     0.089 C 
HETATM    6  C   UNL     1      -6.301   5.230 -29.971  1.00  0.00     0.053 C 
HETATM    7  C   UNL     1      -4.901   5.770 -30.171  1.00  0.00     0.237 C 
ENDROOT
BRANCH   1   8
HETATM    8  C   UNL     1      -3.406   7.325 -31.404  1.00  0.00     0.337 C 
BRANCH   8   9
HETATM    9  C   UNL     1      -3.001   8.610 -30.689  1.00  0.00     0.244 C 
HETATM   10  N   UNL     1      -2.418   8.610 -29.466  1.00  0.00    -0.351 N 
HETATM   11  H   UNL     1      -2.276   9.555 -29.123  1.00  0.00     0.163 HD
HETATM   12  O   UNL     1      -3.190   9.688 -31.264  1.00  0.00    -0.272 OA
BRANCH  10  13
HETATM   13  C   UNL     1      -2.168   7.570 -28.463  1.00  0.00     0.120 C 
HETATM   14  C   UNL     1      -3.225   7.409 -27.375  1.00  0.00     0.038 C 
BRANCH  13  15
HETATM   15  C   UNL     1      -0.773   7.661 -27.895  1.00  0.00     0.005 A 
HETATM   16  S   UNL     1      -0.200   6.617 -26.660  1.00  0.00    -0.104 SA
HETATM   17  C   UNL     1       1.346   7.341 -26.658  1.00  0.00     0.050 A 
HETATM   18  C   UNL     1       1.443   8.348 -27.589  1.00  0.00     0.008 A 
HETATM   19  C   UNL     1       0.223   8.533 -28.300  1.00  0.00     0.017 A 
ENDBRANCH  13  15
ENDBRANCH  10  13
ENDBRANCH   8   9
ENDBRANCH   1   8
BRANCH   5  20
HETATM   20  N   UNL     1      -6.742   3.714 -31.925  1.00  0.00    -0.338 N 
HETATM   21  C   UNL     1      -7.315   2.495 -31.698  1.00  0.00     0.316 C 
HETATM   22  N   UNL     1      -6.820   1.529 -32.528  1.00  0.00    -0.339 N 
HETATM   23  O   UNL     1      -8.186   2.294 -30.863  1.00  0.00    -0.247 OA
HETATM   24  H   UNL     1      -5.896   1.687 -32.905  1.00  0.00     0.164 HD
HETATM   25  H   UNL     1      -6.237   3.783 -32.800  1.00  0.00     0.164 HD
BRANCH  22  26
HETATM   26  C   UNL     1      -7.237   0.133 -32.393  1.00  0.00     0.086 C 
HETATM   27  C   UNL     1      -8.212  -0.257 -33.510  1.00  0.00     0.025 C 
HETATM   28  C   UNL     1      -7.530  -0.415 -34.868  1.00  0.00     0.002 C 
HETATM   29  C   UNL     1      -6.339  -1.366 -34.796  1.00  0.00     0.000 C 
HETATM   30  C   UNL     1      -5.347  -0.948 -33.716  1.00  0.00     0.002 C 
HETATM   31  C   UNL     1      -6.025  -0.807 -32.353  1.00  0.00     0.025 C 
ENDBRANCH  22  26
ENDBRANCH   5  20
TORSDOF 6
ENDMDL
MODEL 10
REMARK VINA RESULT:      -7.0      7.356      9.343
REMARK  6 active torsions:
REMARK  status: ('A' for Active; 'I' for Inactive)
REMARK    1  A    between atoms: C_2  and  N_3 
REMARK    2  A    between atoms: C_2  and  C_24 
REMARK       I    between atoms: N_3  and  C_4 
REMARK    3  A    between atoms: C_4  and  C_5 
REMARK    4  A    between atoms: C_5  and  N_6 
REMARK    5  A    between atoms: C_10  and  N_11 
REMARK       I    between atoms: N_11  and  C_12 
REMARK       I    between atoms: C_12  and  N_13 
REMARK    6  A    between atoms: N_13  and  C_14 
ROOT
HETATM    1  N   UNL     1     -11.000   2.087 -33.295  1.00  0.00    -0.063 N 
HETATM    2  H   UNL     1     -11.518   1.412 -32.709  1.00  0.00     0.280 HD
HETATM    3  C   UNL     1     -11.114   3.429 -32.612  1.00  0.00     0.237 C 
HETATM    4  C   UNL     1     -12.465   4.083 -32.836  1.00  0.00     0.053 C 
HETATM    5  C   UNL     1     -12.966   4.056 -34.279  1.00  0.00     0.089 C 
HETATM    6  C   UNL     1     -12.861   2.654 -34.870  1.00  0.00     0.053 C 
HETATM    7  C   UNL     1     -11.497   2.016 -34.709  1.00  0.00     0.237 C 
ENDROOT
BRANCH   1   8
HETATM    8  C   UNL     1      -9.534   1.596 -33.246  1.00  0.00     0.337 C 
BRANCH   8   9
HETATM    9  C   UNL     1      -9.464   0.082 -33.069  1.00  0.00     0.244 C 
HETATM   10  N   UNL     1      -8.354  -0.635 -33.369  1.00  0.00    -0.351 N 
HETATM   11  H   UNL     1      -8.513  -1.631 -33.248  1.00  0.00     0.163 HD
HETATM   12  O   UNL     1     -10.452  -0.503 -32.611  1.00  0.00    -0.272 OA
BRANCH  10  13
HETATM   13  C   UNL     1      -7.087  -0.313 -34.033  1.00  0.00     0.120 C 
HETATM   14  C   UNL     1      -7.184   0.512 -35.313  1.00  0.00     0.038 C 
BRANCH  13  15
HETATM   15  C   UNL     1      -6.215  -1.532 -34.202  1.00  0.00     0.005 A 
HETATM   16  S   UNL     1      -4.579  -1.586 -33.690  1.00  0.00    -0.104 SA
HETATM   17  C   UNL     1      -4.393  -3.207 -34.194  1.00  0.00     0.050 A 
HETATM   18  C   UNL     1      -5.555  -3.714 -34.727  1.00  0.00     0.008 A 
HETATM   19  C   UNL     1      -6.603  -2.750 -34.733  1.00  0.00     0.017 A 
ENDBRANCH  13  15
ENDBRANCH  10  13
ENDBRANCH   8   9
ENDBRANCH   1   8
BRANCH   5  20
HETATM   20  N   UNL     1     -12.441   5.115 -35.141  1.00  0.00    -0.338 N 
HETATM   21  C   UNL     1     -12.738   6.448 -35.086  1.00  0.00     0.316 C 
HETATM   22  N   UNL     1     -12.026   7.173 -35.999  1.00  0.00    -0.339 N 
HETATM   23  O   UNL     1     -13.534   6.939 -34.298  1.00  0.00    -0.247 OA
HETATM   24  H   UNL     1     -11.694   6.674 -36.812  1.00  0.00     0.164 HD
HETATM   25  H   UNL     1     -11.595   4.896 -35.652  1.00  0.00     0.164 HD
BRANCH  22  26
HETATM   26  C   UNL     1     -12.257   8.608 -36.167  1.00  0.00     0.086 C 
HETATM   27  C   UNL     1     -10.941   9.345 -36.442  1.00  0.00     0.025 C 
HETATM   28  C   UNL     1     -10.401   9.095 -37.849  1.00  0.00     0.002 C 
HETATM   29  C   UNL     1     -11.450   9.388 -38.918  1.00  0.00     0.000 C 
HETATM   30  C   UNL     1     -12.741   8.616 -38.668  1.00  0.00     0.002 C 
HETATM   31  C   UNL     1     -13.292   8.880 -37.267  1.00  0.00     0.025 C 
ENDBRANCH  22  26
ENDBRANCH   5  20
TORSDOF 6
ENDMDL
