MODEL 1
REMARK VINA RESULT:      -9.4      0.000      0.000
REMARK  8 active torsions:
REMARK  status: ('A' for Active; 'I' for Inactive)
REMARK    1  A    between atoms: C_3  and  N_4 
REMARK       I    between atoms: N_4  and  C_5 
REMARK    2  A    between atoms: C_5  and  C_6 
REMARK    3  A    between atoms: C_6  and  S_7 
REMARK    4  A    between atoms: S_7  and  C_8 
REMARK    5  A    between atoms: N_9  and  C_10 
REMARK    6  A    between atoms: C_10  and  C_11 
REMARK       I    between atoms: C_11  and  N_12 
REMARK    7  A    between atoms: N_12  and  C_13 
REMARK    8  A    between atoms: C_20  and  C_21 
ROOT
HETATM    1  C   UNL     1      -5.689   3.869 -33.406  1.00  0.00     0.169 A 
HETATM    2  N   UNL     1      -4.746   4.320 -32.510  1.00  0.00    -0.315 N 
HETATM    3  C   UNL     1      -3.823   5.060 -33.235  1.00  0.00     0.065 A 
HETATM    4  C   UNL     1      -4.357   5.105 -34.512  1.00  0.00     0.150 A 
HETATM    5  N   UNL     1      -5.521   4.390 -34.599  1.00  0.00    -0.234 NA
ENDROOT
BRANCH   1   6
HETATM    6  S   UNL     1      -6.904   2.702 -33.004  1.00  0.00    -0.083 SA
BRANCH   6   7
HETATM    7  C   UNL     1      -6.510   1.350 -34.142  1.00  0.00     0.185 C 
BRANCH   7   8
HETATM    8  C   UNL     1      -6.161   0.063 -33.406  1.00  0.00     0.231 C 
HETATM    9  N   UNL     1      -4.927  -0.450 -33.764  1.00  0.00    -0.326 N 
HETATM   10  H   UNL     1      -4.444   0.061 -34.502  1.00  0.00     0.169 HD
HETATM   11  O   UNL     1      -6.982  -0.469 -32.663  1.00  0.00    -0.272 OA
BRANCH   9  12
HETATM   12  C   UNL     1      -4.389  -1.711 -33.422  1.00  0.00     0.046 A 
HETATM   13  C   UNL     1      -3.597  -1.772 -32.247  1.00  0.00    -0.035 A 
HETATM   14  C   UNL     1      -3.310  -0.554 -31.407  1.00  0.00     0.050 C 
HETATM   15  C   UNL     1      -3.015  -2.990 -31.860  1.00  0.00     0.009 A 
HETATM   16  C   UNL     1      -3.207  -4.137 -32.618  1.00  0.00     0.001 A 
HETATM   17  C   UNL     1      -4.011  -4.087 -33.753  1.00  0.00     0.009 A 
HETATM   18  C   UNL     1      -4.635  -2.890 -34.153  1.00  0.00    -0.035 A 
HETATM   19  C   UNL     1      -5.585  -2.983 -35.317  1.00  0.00     0.050 C 
ENDBRANCH   9  12
ENDBRANCH   7   8
ENDBRANCH   6   7
ENDBRANCH   1   6
BRANCH   2  20
HETATM   20  C   UNL     1      -4.797   4.163 -31.065  1.00  0.00     0.234 C 
BRANCH  20  21
HETATM   21  C   UNL     1      -5.061   5.389 -30.218  1.00  0.00     0.236 C 
HETATM   22  N   UNL     1      -4.006   6.005 -29.595  1.00  0.00    -0.355 N 
HETATM   23  H   UNL     1      -3.078   5.640 -29.763  1.00  0.00     0.162 HD
HETATM   24  O   UNL     1      -6.221   5.787 -30.126  1.00  0.00    -0.272 OA
BRANCH  22  25
HETATM   25  C   UNL     1      -4.039   7.309 -28.924  1.00  0.00     0.084 C 
HETATM   26  C   UNL     1      -2.764   7.581 -28.114  1.00  0.00     0.025 C 
HETATM   27  C   UNL     1      -1.655   8.256 -28.909  1.00  0.00     0.002 C 
HETATM   28  C   UNL     1      -2.152   9.541 -29.555  1.00  0.00     0.000 C 
HETATM   29  C   UNL     1      -3.358   9.308 -30.456  1.00  0.00     0.002 C 
HETATM   30  C   UNL     1      -4.476   8.502 -29.790  1.00  0.00     0.025 C 
ENDBRANCH  22  25
ENDBRANCH  20  21
ENDBRANCH   2  20
BRANCH   3  31
HETATM   31  C   UNL     1      -2.542   5.578 -32.766  1.00  0.00    -0.008 A 
HETATM   32  C   UNL     1      -1.620   4.772 -32.088  1.00  0.00     0.017 A 
HETATM   33  C   UNL     1      -0.401   5.304 -31.657  1.00  0.00     0.043 A 
HETATM   34  C   UNL     1      -0.114   6.645 -31.888  1.00  0.00     0.116 A 
HETATM   35  F   UNL     1       1.053   7.152 -31.471  1.00  0.00    -0.206 F 
HETATM   36  C   UNL     1      -1.024   7.467 -32.537  1.00  0.00     0.043 A 
HETATM   37  C   UNL     1      -2.238   6.933 -32.976  1.00  0.00     0.017 A 
ENDBRANCH   3  31
TORSDOF 8
ENDMDL
MODEL 2
REMARK VINA RESULT:      -9.2      3.798      9.183
REMARK  8 active torsions:
REMARK  status: ('A' for Active; 'I' for Inactive)
REMARK    1  A    between atoms: C_3  and  N_4 
REMARK       I    between atoms: N_4  and  C_5 
REMARK    2  A    between atoms: C_5  and  C_6 
REMARK    3  A    between atoms: C_6  and  S_7 
REMARK    4  A    between atoms: S_7  and  C_8 
REMARK    5  A    between atoms: N_9  and  C_10 
REMARK    6  A    between atoms: C_10  and  C_11 
REMARK       I    between atoms: C_11  and  N_12 
REMARK    7  A    between atoms: N_12  and  C_13 
REMARK    8  A    between atoms: C_20  and  C_21 
ROOT
HETATM    1  C   UNL     1      -3.954   1.880 -31.823  1.00  0.00     0.169 A 
HETATM    2  N   UNL     1      -4.860   1.200 -32.604  1.00  0.00    -0.315 N 
HETATM    3  C   UNL     1      -4.504  -0.140 -32.561  1.00  0.00     0.065 A 
HETATM    4  C   UNL     1      -3.469  -0.183 -31.642  1.00  0.00     0.150 A 
HETATM    5  N   UNL     1      -3.157   1.065 -31.173  1.00  0.00    -0.234 NA
ENDROOT
BRANCH   1   6
HETATM    6  S   UNL     1      -3.851   3.608 -31.768  1.00  0.00    -0.083 SA
BRANCH   6   7
HETATM    7  C   UNL     1      -2.442   3.930 -32.858  1.00  0.00     0.185 C 
BRANCH   7   8
HETATM    8  C   UNL     1      -1.483   4.956 -32.270  1.00  0.00     0.231 C 
HETATM    9  N   UNL     1      -1.643   5.131 -30.907  1.00  0.00    -0.326 N 
HETATM   10  H   UNL     1      -2.408   4.600 -30.490  1.00  0.00     0.169 HD
HETATM   11  O   UNL     1      -0.741   5.604 -33.004  1.00  0.00    -0.272 OA
BRANCH   9  12
HETATM   12  C   UNL     1      -1.059   6.128 -30.094  1.00  0.00     0.046 A 
HETATM   13  C   UNL     1      -1.831   7.293 -29.854  1.00  0.00    -0.035 A 
HETATM   14  C   UNL     1      -3.201   7.487 -30.452  1.00  0.00     0.050 C 
HETATM   15  C   UNL     1      -1.302   8.332 -29.071  1.00  0.00     0.009 A 
HETATM   16  C   UNL     1      -0.028   8.230 -28.529  1.00  0.00     0.001 A 
HETATM   17  C   UNL     1       0.719   7.075 -28.736  1.00  0.00     0.009 A 
HETATM   18  C   UNL     1       0.208   6.000 -29.489  1.00  0.00    -0.035 A 
HETATM   19  C   UNL     1       1.048   4.752 -29.537  1.00  0.00     0.050 C 
ENDBRANCH   9  12
ENDBRANCH   7   8
ENDBRANCH   6   7
ENDBRANCH   1   6
BRANCH   2  20
HETATM   20  C   UNL     1      -6.042   1.768 -33.233  1.00  0.00     0.234 C 
BRANCH  20  21
HETATM   21  C   UNL     1      -7.349   1.735 -32.471  1.00  0.00     0.236 C 
HETATM   22  N   UNL     1      -8.509   2.052 -33.128  1.00  0.00    -0.355 N 
HETATM   23  H   UNL     1      -8.453   2.256 -34.118  1.00  0.00     0.162 HD
HETATM   24  O   UNL     1      -7.315   1.416 -31.283  1.00  0.00    -0.272 OA
BRANCH  22  25
HETATM   25  C   UNL     1      -9.872   1.865 -32.619  1.00  0.00     0.084 C 
HETATM   26  C   UNL     1     -10.575   3.197 -32.327  1.00  0.00     0.025 C 
HETATM   27  C   UNL     1     -11.327   3.777 -33.517  1.00  0.00     0.002 C 
HETATM   28  C   UNL     1     -12.321   2.770 -34.077  1.00  0.00     0.000 C 
HETATM   29  C   UNL     1     -11.654   1.461 -34.482  1.00  0.00     0.002 C 
HETATM   30  C   UNL     1     -10.751   0.871 -33.396  1.00  0.00     0.025 C 
ENDBRANCH  22  25
ENDBRANCH  20  21
ENDBRANCH   2  20
BRANCH   3  31
HETATM   31  C   UNL     1      -5.038  -1.224 -33.379  1.00  0.00    -0.008 A 
HETATM   32  C   UNL     1      -6.410  -1.364 -33.621  1.00  0.00     0.017 A 
HETATM   33  C   UNL     1      -6.883  -2.414 -34.413  1.00  0.00     0.043 A 
HETATM   34  C   UNL     1      -5.987  -3.334 -34.945  1.00  0.00     0.116 A 
HETATM   35  F   UNL     1      -6.444  -4.340 -35.700  1.00  0.00    -0.206 F 
HETATM   36  C   UNL     1      -4.625  -3.228 -34.697  1.00  0.00     0.043 A 
HETATM   37  C   UNL     1      -4.152  -2.173 -33.914  1.00  0.00     0.017 A 
ENDBRANCH   3  31
TORSDOF 8
ENDMDL
MODEL 3
REMARK VINA RESULT:      -9.2      0.594      1.995
REMARK  8 active torsions:
REMARK  status: ('A' for Active; 'I' for Inactive)
REMARK    1  A    between atoms: C_3  and  N_4 
REMARK       I    between atoms: N_4  and  C_5 
REMARK    2  A    between atoms: C_5  and  C_6 
REMARK    3  A    between atoms: C_6  and  S_7 
REMARK    4  A    between atoms: S_7  and  C_8 
REMARK    5  A    between atoms: N_9  and  C_10 
REMARK    6  A    between atoms: C_10  and  C_11 
REMARK       I    between atoms: C_11  and  N_12 
REMARK    7  A    between atoms: N_12  and  C_13 
REMARK    8  A    between atoms: C_20  and  C_21 
ROOT
HETATM    1  C   UNL     1      -5.776   3.870 -33.352  1.00  0.00     0.169 A 
HETATM    2  N   UNL     1      -4.846   4.362 -32.465  1.00  0.00    -0.315 N 
HETATM    3  C   UNL     1      -3.930   5.095 -33.205  1.00  0.00     0.065 A 
HETATM    4  C   UNL     1      -4.455   5.093 -34.486  1.00  0.00     0.150 A 
HETATM    5  N   UNL     1      -5.608   4.358 -34.559  1.00  0.00    -0.234 NA
ENDROOT
BRANCH   1   6
HETATM    6  S   UNL     1      -6.976   2.698 -32.923  1.00  0.00    -0.083 SA
BRANCH   6   7
HETATM    7  C   UNL     1      -6.533   1.306 -33.992  1.00  0.00     0.185 C 
BRANCH   7   8
HETATM    8  C   UNL     1      -6.056   0.099 -33.197  1.00  0.00     0.231 C 
HETATM    9  N   UNL     1      -4.917  -0.483 -33.722  1.00  0.00    -0.326 N 
HETATM   10  H   UNL     1      -4.582  -0.068 -34.592  1.00  0.00     0.169 HD
HETATM   11  O   UNL     1      -6.722  -0.327 -32.256  1.00  0.00    -0.272 OA
BRANCH   9  12
HETATM   12  C   UNL     1      -4.329  -1.712 -33.349  1.00  0.00     0.046 A 
HETATM   13  C   UNL     1      -4.632  -2.838 -34.158  1.00  0.00    -0.035 A 
HETATM   14  C   UNL     1      -5.556  -2.750 -35.345  1.00  0.00     0.050 C 
HETATM   15  C   UNL     1      -4.097  -4.095 -33.831  1.00  0.00     0.009 A 
HETATM   16  C   UNL     1      -3.274  -4.247 -32.723  1.00  0.00     0.001 A 
HETATM   17  C   UNL     1      -2.950  -3.138 -31.948  1.00  0.00     0.009 A 
HETATM   18  C   UNL     1      -3.442  -1.857 -32.264  1.00  0.00    -0.035 A 
HETATM   19  C   UNL     1      -2.920  -0.714 -31.437  1.00  0.00     0.050 C 
ENDBRANCH   9  12
ENDBRANCH   7   8
ENDBRANCH   6   7
ENDBRANCH   1   6
BRANCH   2  20
HETATM   20  C   UNL     1      -4.905   4.249 -31.015  1.00  0.00     0.234 C 
BRANCH  20  21
HETATM   21  C   UNL     1      -5.060   5.514 -30.200  1.00  0.00     0.236 C 
HETATM   22  N   UNL     1      -3.984   5.983 -29.492  1.00  0.00    -0.355 N 
HETATM   23  H   UNL     1      -3.107   5.485 -29.576  1.00  0.00     0.162 HD
HETATM   24  O   UNL     1      -6.153   6.076 -30.211  1.00  0.00    -0.272 OA
BRANCH  22  25
HETATM   25  C   UNL     1      -3.884   7.289 -28.832  1.00  0.00     0.084 C 
HETATM   26  C   UNL     1      -4.242   7.220 -27.342  1.00  0.00     0.025 C 
HETATM   27  C   UNL     1      -3.061   6.909 -26.433  1.00  0.00     0.002 C 
HETATM   28  C   UNL     1      -1.926   7.897 -26.655  1.00  0.00     0.000 C 
HETATM   29  C   UNL     1      -1.461   7.928 -28.106  1.00  0.00     0.002 C 
HETATM   30  C   UNL     1      -2.601   8.090 -29.113  1.00  0.00     0.025 C 
ENDBRANCH  22  25
ENDBRANCH  20  21
ENDBRANCH   2  20
BRANCH   3  31
HETATM   31  C   UNL     1      -2.659   5.645 -32.744  1.00  0.00    -0.008 A 
HETATM   32  C   UNL     1      -2.382   7.016 -32.797  1.00  0.00     0.017 A 
HETATM   33  C   UNL     1      -1.154   7.505 -32.344  1.00  0.00     0.043 A 
HETATM   34  C   UNL     1      -0.198   6.622 -31.855  1.00  0.00     0.116 A 
HETATM   35  F   UNL     1       0.979   7.094 -31.424  1.00  0.00    -0.206 F 
HETATM   36  C   UNL     1      -0.443   5.256 -31.816  1.00  0.00     0.043 A 
HETATM   37  C   UNL     1      -1.674   4.769 -32.261  1.00  0.00     0.017 A 
ENDBRANCH   3  31
TORSDOF 8
ENDMDL
MODEL 4
REMARK VINA RESULT:      -9.0      3.555      6.104
REMARK  8 active torsions:
REMARK  status: ('A' for Active; 'I' for Inactive)
REMARK    1  A    between atoms: C_3  and  N_4 
REMARK       I    between atoms: N_4  and  C_5 
REMARK    2  A    between atoms: C_5  and  C_6 
REMARK    3  A    between atoms: C_6  and  S_7 
REMARK    4  A    between atoms: S_7  and  C_8 
REMARK    5  A    between atoms: N_9  and  C_10 
REMARK    6  A    between atoms: C_10  and  C_11 
REMARK       I    between atoms: C_11  and  N_12 
REMARK    7  A    between atoms: N_12  and  C_13 
REMARK    8  A    between atoms: C_20  and  C_21 
ROOT
HETATM    1  C   UNL     1      -5.273   1.907 -31.127  1.00  0.00     0.169 A 
HETATM    2  N   UNL     1      -6.213   2.040 -32.124  1.00  0.00    -0.315 N 
HETATM    3  C   UNL     1      -7.457   1.879 -31.529  1.00  0.00     0.065 A 
HETATM    4  C   UNL     1      -7.172   1.786 -30.176  1.00  0.00     0.150 A 
HETATM    5  N   UNL     1      -5.825   1.833 -29.939  1.00  0.00    -0.234 NA
ENDROOT
BRANCH   1   6
HETATM    6  S   UNL     1      -3.573   1.791 -31.431  1.00  0.00    -0.083 SA
BRANCH   6   7
HETATM    7  C   UNL     1      -3.301   0.003 -31.335  1.00  0.00     0.185 C 
BRANCH   7   8
HETATM    8  C   UNL     1      -3.651  -0.702 -32.638  1.00  0.00     0.231 C 
HETATM    9  N   UNL     1      -4.619  -1.679 -32.485  1.00  0.00    -0.326 N 
HETATM   10  H   UNL     1      -4.927  -1.834 -31.525  1.00  0.00     0.169 HD
HETATM   11  O   UNL     1      -3.023  -0.456 -33.665  1.00  0.00    -0.272 OA
BRANCH   9  12
HETATM   12  C   UNL     1      -5.030  -2.638 -33.436  1.00  0.00     0.046 A 
HETATM   13  C   UNL     1      -6.098  -2.272 -34.295  1.00  0.00    -0.035 A 
HETATM   14  C   UNL     1      -6.791  -0.937 -34.192  1.00  0.00     0.050 C 
HETATM   15  C   UNL     1      -6.570  -3.187 -35.250  1.00  0.00     0.009 A 
HETATM   16  C   UNL     1      -6.001  -4.448 -35.363  1.00  0.00     0.001 A 
HETATM   17  C   UNL     1      -4.932  -4.797 -34.544  1.00  0.00     0.009 A 
HETATM   18  C   UNL     1      -4.412  -3.894 -33.597  1.00  0.00    -0.035 A 
HETATM   19  C   UNL     1      -3.174  -4.331 -32.860  1.00  0.00     0.050 C 
ENDBRANCH   9  12
ENDBRANCH   7   8
ENDBRANCH   6   7
ENDBRANCH   1   6
BRANCH   2  20
HETATM   20  C   UNL     1      -5.949   2.416 -33.504  1.00  0.00     0.234 C 
BRANCH  20  21
HETATM   21  C   UNL     1      -5.634   3.865 -33.806  1.00  0.00     0.236 C 
HETATM   22  N   UNL     1      -4.370   4.335 -33.558  1.00  0.00    -0.355 N 
HETATM   23  H   UNL     1      -3.678   3.679 -33.220  1.00  0.00     0.162 HD
HETATM   24  O   UNL     1      -6.532   4.565 -34.271  1.00  0.00    -0.272 OA
BRANCH  22  25
HETATM   25  C   UNL     1      -3.828   5.629 -33.985  1.00  0.00     0.084 C 
HETATM   26  C   UNL     1      -3.484   6.539 -32.799  1.00  0.00     0.025 C 
HETATM   27  C   UNL     1      -2.068   6.361 -32.269  1.00  0.00     0.002 C 
HETATM   28  C   UNL     1      -1.044   6.537 -33.381  1.00  0.00     0.000 C 
HETATM   29  C   UNL     1      -1.280   5.580 -34.543  1.00  0.00     0.002 C 
HETATM   30  C   UNL     1      -2.722   5.577 -35.053  1.00  0.00     0.025 C 
ENDBRANCH  22  25
ENDBRANCH  20  21
ENDBRANCH   2  20
BRANCH   3  31
HETATM   31  C   UNL     1      -8.746   1.740 -32.199  1.00  0.00    -0.008 A 
HETATM   32  C   UNL     1      -9.321   0.489 -32.447  1.00  0.00     0.017 A 
HETATM   33  C   UNL     1     -10.559   0.397 -33.089  1.00  0.00     0.043 A 
HETATM   34  C   UNL     1     -11.211   1.554 -33.499  1.00  0.00     0.116 A 
HETATM   35  F   UNL     1     -12.396   1.463 -34.116  1.00  0.00    -0.206 F 
HETATM   36  C   UNL     1     -10.647   2.804 -33.284  1.00  0.00     0.043 A 
HETATM   37  C   UNL     1      -9.414   2.896 -32.635  1.00  0.00     0.017 A 
ENDBRANCH   3  31
TORSDOF 8
ENDMDL
MODEL 5
REMARK VINA RESULT:      -9.0      5.289      8.604
REMARK  8 active torsions:
REMARK  status: ('A' for Active; 'I' for Inactive)
REMARK    1  A    between atoms: C_3  and  N_4 
REMARK       I    between atoms: N_4  and  C_5 
REMARK    2  A    between atoms: C_5  and  C_6 
REMARK    3  A    between atoms: C_6  and  S_7 
REMARK    4  A    between atoms: S_7  and  C_8 
REMARK    5  A    between atoms: N_9  and  C_10 
REMARK    6  A    between atoms: C_10  and  C_11 
REMARK       I    between atoms: C_11  and  N_12 
REMARK    7  A    between atoms: N_12  and  C_13 
REMARK    8  A    between atoms: C_20  and  C_21 
ROOT
HETATM    1  C   UNL     1      -8.252   1.178 -33.350  1.00  0.00     0.169 A 
HETATM    2  N   UNL     1      -7.468   0.127 -32.933  1.00  0.00    -0.315 N 
HETATM    3  C   UNL     1      -6.925  -0.449 -34.072  1.00  0.00     0.065 A 
HETATM    4  C   UNL     1      -7.330   0.390 -35.097  1.00  0.00     0.150 A 
HETATM    5  N   UNL     1      -8.125   1.405 -34.636  1.00  0.00    -0.234 NA
ENDROOT
BRANCH   1   6
HETATM    6  S   UNL     1      -9.323   2.044 -32.300  1.00  0.00    -0.083 SA
BRANCH   6   7
HETATM    7  C   UNL     1      -9.747   3.485 -33.309  1.00  0.00     0.185 C 
BRANCH   7   8
HETATM    8  C   UNL     1     -11.249   3.722 -33.372  1.00  0.00     0.231 C 
HETATM    9  N   UNL     1     -11.972   2.836 -32.592  1.00  0.00    -0.326 N 
HETATM   10  H   UNL     1     -11.417   2.117 -32.128  1.00  0.00     0.169 HD
HETATM   11  O   UNL     1     -11.715   4.561 -34.139  1.00  0.00    -0.272 OA
BRANCH   9  12
HETATM   12  C   UNL     1     -13.373   2.655 -32.571  1.00  0.00     0.046 A 
HETATM   13  C   UNL     1     -13.889   1.565 -33.317  1.00  0.00    -0.035 A 
HETATM   14  C   UNL     1     -13.002   0.650 -34.122  1.00  0.00     0.050 C 
HETATM   15  C   UNL     1     -15.275   1.340 -33.356  1.00  0.00     0.009 A 
HETATM   16  C   UNL     1     -16.146   2.176 -32.670  1.00  0.00     0.001 A 
HETATM   17  C   UNL     1     -15.640   3.226 -31.911  1.00  0.00     0.009 A 
HETATM   18  C   UNL     1     -14.254   3.462 -31.824  1.00  0.00    -0.035 A 
HETATM   19  C   UNL     1     -13.814   4.541 -30.871  1.00  0.00     0.050 C 
ENDBRANCH   9  12
ENDBRANCH   7   8
ENDBRANCH   6   7
ENDBRANCH   1   6
BRANCH   2  20
HETATM   20  C   UNL     1      -7.162  -0.216 -31.552  1.00  0.00     0.234 C 
BRANCH  20  21
HETATM   21  C   UNL     1      -6.148   0.627 -30.810  1.00  0.00     0.236 C 
HETATM   22  N   UNL     1      -5.428   1.563 -31.505  1.00  0.00    -0.355 N 
HETATM   23  H   UNL     1      -5.634   1.687 -32.487  1.00  0.00     0.162 HD
HETATM   24  O   UNL     1      -6.015   0.437 -29.602  1.00  0.00    -0.272 OA
BRANCH  22  25
HETATM   25  C   UNL     1      -4.573   2.605 -30.924  1.00  0.00     0.084 C 
HETATM   26  C   UNL     1      -3.172   2.628 -31.549  1.00  0.00     0.025 C 
HETATM   27  C   UNL     1      -3.056   3.517 -32.780  1.00  0.00     0.002 C 
HETATM   28  C   UNL     1      -3.519   4.934 -32.473  1.00  0.00     0.000 C 
HETATM   29  C   UNL     1      -4.947   4.976 -31.945  1.00  0.00     0.002 C 
HETATM   30  C   UNL     1      -5.205   4.001 -30.794  1.00  0.00     0.025 C 
ENDBRANCH  22  25
ENDBRANCH  20  21
ENDBRANCH   2  20
BRANCH   3  31
HETATM   31  C   UNL     1      -6.187  -1.704 -34.163  1.00  0.00    -0.008 A 
HETATM   32  C   UNL     1      -4.846  -1.806 -33.775  1.00  0.00     0.017 A 
HETATM   33  C   UNL     1      -4.174  -3.028 -33.875  1.00  0.00     0.043 A 
HETATM   34  C   UNL     1      -4.837  -4.140 -34.379  1.00  0.00     0.116 A 
HETATM   35  F   UNL     1      -4.190  -5.308 -34.476  1.00  0.00    -0.206 F 
HETATM   36  C   UNL     1      -6.160  -4.055 -34.793  1.00  0.00     0.043 A 
HETATM   37  C   UNL     1      -6.834  -2.837 -34.684  1.00  0.00     0.017 A 
ENDBRANCH   3  31
TORSDOF 8
ENDMDL
MODEL 6
REMARK VINA RESULT:      -9.0      3.898      9.113
REMARK  8 active torsions:
REMARK  status: ('A' for Active; 'I' for Inactive)
REMARK    1  A    between atoms: C_3  and  N_4 
REMARK       I    between atoms: N_4  and  C_5 
REMARK    2  A    between atoms: C_5  and  C_6 
REMARK    3  A    between atoms: C_6  and  S_7 
REMARK    4  A    between atoms: S_7  and  C_8 
REMARK    5  A    between atoms: N_9  and  C_10 
REMARK    6  A    between atoms: C_10  and  C_11 
REMARK       I    between atoms: C_11  and  N_12 
REMARK    7  A    between atoms: N_12  and  C_13 
REMARK    8  A    between atoms: C_20  and  C_21 
ROOT
HETATM    1  C   UNL     1      -6.085   1.992 -33.515  1.00  0.00     0.169 A 
HETATM    2  N   UNL     1      -6.526   0.808 -34.060  1.00  0.00    -0.315 N 
HETATM    3  C   UNL     1      -5.701  -0.194 -33.568  1.00  0.00     0.065 A 
HETATM    4  C   UNL     1      -4.892   0.457 -32.652  1.00  0.00     0.150 A 
HETATM    5  N   UNL     1      -5.157   1.799 -32.608  1.00  0.00    -0.234 NA
ENDROOT
BRANCH   1   6
HETATM    6  S   UNL     1      -6.653   3.546 -34.026  1.00  0.00    -0.083 SA
BRANCH   6   7
HETATM    7  C   UNL     1      -6.515   4.511 -32.501  1.00  0.00     0.185 C 
BRANCH   7   8
HETATM    8  C   UNL     1      -5.446   5.590 -32.599  1.00  0.00     0.231 C 
HETATM    9  N   UNL     1      -4.160   5.094 -32.482  1.00  0.00    -0.326 N 
HETATM   10  H   UNL     1      -4.099   4.094 -32.293  1.00  0.00     0.169 HD
HETATM   11  O   UNL     1      -5.764   6.775 -32.667  1.00  0.00    -0.272 OA
BRANCH   9  12
HETATM   12  C   UNL     1      -2.963   5.832 -32.337  1.00  0.00     0.046 A 
HETATM   13  C   UNL     1      -2.144   5.955 -33.489  1.00  0.00    -0.035 A 
HETATM   14  C   UNL     1      -2.504   5.313 -34.804  1.00  0.00     0.050 C 
HETATM   15  C   UNL     1      -0.931   6.658 -33.409  1.00  0.00     0.009 A 
HETATM   16  C   UNL     1      -0.525   7.234 -32.213  1.00  0.00     0.001 A 
HETATM   17  C   UNL     1      -1.342   7.142 -31.091  1.00  0.00     0.009 A 
HETATM   18  C   UNL     1      -2.580   6.472 -31.142  1.00  0.00    -0.035 A 
HETATM   19  C   UNL     1      -3.438   6.549 -29.908  1.00  0.00     0.050 C 
ENDBRANCH   9  12
ENDBRANCH   7   8
ENDBRANCH   6   7
ENDBRANCH   1   6
BRANCH   2  20
HETATM   20  C   UNL     1      -7.715   0.634 -34.879  1.00  0.00     0.234 C 
BRANCH  20  21
HETATM   21  C   UNL     1      -9.070   0.771 -34.219  1.00  0.00     0.236 C 
HETATM   22  N   UNL     1      -9.931   1.739 -34.665  1.00  0.00    -0.355 N 
HETATM   23  H   UNL     1      -9.644   2.301 -35.456  1.00  0.00     0.162 HD
HETATM   24  O   UNL     1      -9.345  -0.003 -33.303  1.00  0.00    -0.272 OA
BRANCH  22  25
HETATM   25  C   UNL     1     -11.346   1.875 -34.300  1.00  0.00     0.084 C 
HETATM   26  C   UNL     1     -11.551   2.796 -33.091  1.00  0.00     0.025 C 
HETATM   27  C   UNL     1     -11.722   4.265 -33.451  1.00  0.00     0.002 C 
HETATM   28  C   UNL     1     -12.852   4.453 -34.453  1.00  0.00     0.000 C 
HETATM   29  C   UNL     1     -12.643   3.636 -35.722  1.00  0.00     0.002 C 
HETATM   30  C   UNL     1     -12.316   2.165 -35.458  1.00  0.00     0.025 C 
ENDBRANCH  22  25
ENDBRANCH  20  21
ENDBRANCH   2  20
BRANCH   3  31
HETATM   31  C   UNL     1      -5.645  -1.586 -34.003  1.00  0.00    -0.008 A 
HETATM   32  C   UNL     1      -6.793  -2.292 -34.381  1.00  0.00     0.017 A 
HETATM   33  C   UNL     1      -6.698  -3.624 -34.794  1.00  0.00     0.043 A 
HETATM   34  C   UNL     1      -5.459  -4.254 -34.810  1.00  0.00     0.116 A 
HETATM   35  F   UNL     1      -5.372  -5.530 -35.204  1.00  0.00    -0.206 F 
HETATM   36  C   UNL     1      -4.311  -3.579 -34.416  1.00  0.00     0.043 A 
HETATM   37  C   UNL     1      -4.405  -2.246 -34.012  1.00  0.00     0.017 A 
ENDBRANCH   3  31
TORSDOF 8
ENDMDL
MODEL 7
REMARK VINA RESULT:      -8.8      3.378      8.452
REMARK  8 active torsions:
REMARK  status: ('A' for Active; 'I' for Inactive)
REMARK    1  A    between atoms: C_3  and  N_4 
REMARK       I    between atoms: N_4  and  C_5 
REMARK    2  A    between atoms: C_5  and  C_6 
REMARK    3  A    between atoms: C_6  and  S_7 
REMARK    4  A    between atoms: S_7  and  C_8 
REMARK    5  A    between atoms: N_9  and  C_10 
REMARK    6  A    between atoms: C_10  and  C_11 
REMARK       I    between atoms: C_11  and  N_12 
REMARK    7  A    between atoms: N_12  and  C_13 
REMARK    8  A    between atoms: C_20  and  C_21 
ROOT
HETATM    1  C   UNL     1      -3.724   1.160 -31.631  1.00  0.00     0.169 A 
HETATM    2  N   UNL     1      -4.774   0.484 -32.211  1.00  0.00    -0.315 N 
HETATM    3  C   UNL     1      -4.295  -0.764 -32.580  1.00  0.00     0.065 A 
HETATM    4  C   UNL     1      -3.006  -0.793 -32.074  1.00  0.00     0.150 A 
HETATM    5  N   UNL     1      -2.675   0.389 -31.467  1.00  0.00    -0.234 NA
ENDROOT
BRANCH   1   6
HETATM    6  S   UNL     1      -3.779   2.844 -31.233  1.00  0.00    -0.083 SA
BRANCH   6   7
HETATM    7  C   UNL     1      -2.925   3.587 -32.645  1.00  0.00     0.185 C 
BRANCH   7   8
HETATM    8  C   UNL     1      -1.926   4.653 -32.217  1.00  0.00     0.231 C 
HETATM    9  N   UNL     1      -1.952   4.908 -30.858  1.00  0.00    -0.326 N 
HETATM   10  H   UNL     1      -2.664   4.397 -30.336  1.00  0.00     0.169 HD
HETATM   11  O   UNL     1      -1.269   5.262 -33.058  1.00  0.00    -0.272 OA
BRANCH   9  12
HETATM   12  C   UNL     1      -1.303   5.956 -30.167  1.00  0.00     0.046 A 
HETATM   13  C   UNL     1      -2.112   7.040 -29.742  1.00  0.00    -0.035 A 
HETATM   14  C   UNL     1      -3.591   7.101 -30.029  1.00  0.00     0.050 C 
HETATM   15  C   UNL     1      -1.527   8.125 -29.068  1.00  0.00     0.009 A 
HETATM   16  C   UNL     1      -0.162   8.146 -28.813  1.00  0.00     0.001 A 
HETATM   17  C   UNL     1       0.628   7.068 -29.201  1.00  0.00     0.009 A 
HETATM   18  C   UNL     1       0.070   5.950 -29.851  1.00  0.00    -0.035 A 
HETATM   19  C   UNL     1       0.994   4.790 -30.104  1.00  0.00     0.050 C 
ENDBRANCH   9  12
ENDBRANCH   7   8
ENDBRANCH   6   7
ENDBRANCH   1   6
BRANCH   2  20
HETATM   20  C   UNL     1      -6.151   0.947 -32.286  1.00  0.00     0.234 C 
BRANCH  20  21
HETATM   21  C   UNL     1      -6.493   2.026 -33.290  1.00  0.00     0.236 C 
HETATM   22  N   UNL     1      -6.977   3.226 -32.836  1.00  0.00    -0.355 N 
HETATM   23  H   UNL     1      -7.046   3.361 -31.836  1.00  0.00     0.162 HD
HETATM   24  O   UNL     1      -6.317   1.781 -34.482  1.00  0.00    -0.272 OA
BRANCH  22  25
HETATM   25  C   UNL     1      -7.153   4.446 -33.632  1.00  0.00     0.084 C 
HETATM   26  C   UNL     1      -8.552   5.053 -33.468  1.00  0.00     0.025 C 
HETATM   27  C   UNL     1      -8.669   6.042 -32.316  1.00  0.00     0.002 C 
HETATM   28  C   UNL     1      -7.628   7.145 -32.437  1.00  0.00     0.000 C 
HETATM   29  C   UNL     1      -6.207   6.597 -32.498  1.00  0.00     0.002 C 
HETATM   30  C   UNL     1      -6.023   5.484 -33.532  1.00  0.00     0.025 C 
ENDBRANCH  22  25
ENDBRANCH  20  21
ENDBRANCH   2  20
BRANCH   3  31
HETATM   31  C   UNL     1      -4.971  -1.763 -33.401  1.00  0.00    -0.008 A 
HETATM   32  C   UNL     1      -6.306  -1.618 -33.798  1.00  0.00     0.017 A 
HETATM   33  C   UNL     1      -6.918  -2.595 -34.587  1.00  0.00     0.043 A 
HETATM   34  C   UNL     1      -6.202  -3.726 -34.963  1.00  0.00     0.116 A 
HETATM   35  F   UNL     1      -6.792  -4.662 -35.716  1.00  0.00    -0.206 F 
HETATM   36  C   UNL     1      -4.885  -3.902 -34.560  1.00  0.00     0.043 A 
HETATM   37  C   UNL     1      -4.271  -2.921 -33.779  1.00  0.00     0.017 A 
ENDBRANCH   3  31
TORSDOF 8
ENDMDL
MODEL 8
REMARK VINA RESULT:      -8.7      3.799      9.101
REMARK  8 active torsions:
REMARK  status: ('A' for Active; 'I' for Inactive)
REMARK    1  A    between atoms: C_3  and  N_4 
REMARK       I    between atoms: N_4  and  C_5 
REMARK    2  A    between atoms: C_5  and  C_6 
REMARK    3  A    between atoms: C_6  and  S_7 
REMARK    4  A    between atoms: S_7  and  C_8 
REMARK    5  A    between atoms: N_9  and  C_10 
REMARK    6  A    between atoms: C_10  and  C_11 
REMARK       I    between atoms: C_11  and  N_12 
REMARK    7  A    between atoms: N_12  and  C_13 
REMARK    8  A    between atoms: C_20  and  C_21 
ROOT
HETATM    1  C   UNL     1      -4.685   4.008 -32.641  1.00  0.00     0.169 A 
HETATM    2  N   UNL     1      -5.547   3.111 -33.229  1.00  0.00    -0.315 N 
HETATM    3  C   UNL     1      -5.213   1.854 -32.745  1.00  0.00     0.065 A 
HETATM    4  C   UNL     1      -4.241   2.109 -31.791  1.00  0.00     0.150 A 
HETATM    5  N   UNL     1      -3.944   3.443 -31.717  1.00  0.00    -0.234 NA
ENDROOT
BRANCH   1   6
HETATM    6  S   UNL     1      -4.562   5.666 -33.123  1.00  0.00    -0.083 SA
BRANCH   6   7
HETATM    7  C   UNL     1      -2.954   5.692 -33.956  1.00  0.00     0.185 C 
BRANCH   7   8
HETATM    8  C   UNL     1      -1.895   6.417 -33.138  1.00  0.00     0.231 C 
HETATM    9  N   UNL     1      -2.018   6.203 -31.776  1.00  0.00    -0.326 N 
HETATM   10  H   UNL     1      -2.824   5.642 -31.499  1.00  0.00     0.169 HD
HETATM   11  O   UNL     1      -1.104   7.182 -33.684  1.00  0.00    -0.272 OA
BRANCH   9  12
HETATM   12  C   UNL     1      -1.330   6.867 -30.736  1.00  0.00     0.046 A 
HETATM   13  C   UNL     1      -2.018   7.923 -30.086  1.00  0.00    -0.035 A 
HETATM   14  C   UNL     1      -3.406   8.349 -30.492  1.00  0.00     0.050 C 
HETATM   15  C   UNL     1      -1.384   8.639 -29.057  1.00  0.00     0.009 A 
HETATM   16  C   UNL     1      -0.089   8.322 -28.669  1.00  0.00     0.001 A 
HETATM   17  C   UNL     1       0.575   7.265 -29.283  1.00  0.00     0.009 A 
HETATM   18  C   UNL     1      -0.041   6.506 -30.297  1.00  0.00    -0.035 A 
HETATM   19  C   UNL     1       0.720   5.307 -30.795  1.00  0.00     0.050 C 
ENDBRANCH   9  12
ENDBRANCH   7   8
ENDBRANCH   6   7
ENDBRANCH   1   6
BRANCH   2  20
HETATM   20  C   UNL     1      -6.678   3.444 -34.081  1.00  0.00     0.234 C 
BRANCH  20  21
HETATM   21  C   UNL     1      -8.024   3.681 -33.431  1.00  0.00     0.236 C 
HETATM   22  N   UNL     1      -9.158   3.553 -34.189  1.00  0.00    -0.355 N 
HETATM   23  H   UNL     1      -9.055   3.261 -35.152  1.00  0.00     0.162 HD
HETATM   24  O   UNL     1      -8.043   3.975 -32.237  1.00  0.00    -0.272 OA
BRANCH  22  25
HETATM   25  C   UNL     1     -10.537   3.530 -33.688  1.00  0.00     0.084 C 
HETATM   26  C   UNL     1     -11.522   4.197 -34.656  1.00  0.00     0.025 C 
HETATM   27  C   UNL     1     -12.109   3.252 -35.695  1.00  0.00     0.002 C 
HETATM   28  C   UNL     1     -12.760   2.048 -35.030  1.00  0.00     0.000 C 
HETATM   29  C   UNL     1     -11.790   1.285 -34.136  1.00  0.00     0.002 C 
HETATM   30  C   UNL     1     -11.035   2.178 -33.148  1.00  0.00     0.025 C 
ENDBRANCH  22  25
ENDBRANCH  20  21
ENDBRANCH   2  20
BRANCH   3  31
HETATM   31  C   UNL     1      -5.708   0.565 -33.216  1.00  0.00    -0.008 A 
HETATM   32  C   UNL     1      -7.076   0.289 -33.323  1.00  0.00     0.017 A 
HETATM   33  C   UNL     1      -7.511  -0.957 -33.781  1.00  0.00     0.043 A 
HETATM   34  C   UNL     1      -6.579  -1.933 -34.114  1.00  0.00     0.116 A 
HETATM   35  F   UNL     1      -6.999  -3.127 -34.550  1.00  0.00    -0.206 F 
HETATM   36  C   UNL     1      -5.218  -1.689 -33.992  1.00  0.00     0.043 A 
HETATM   37  C   UNL     1      -4.783  -0.441 -33.543  1.00  0.00     0.017 A 
ENDBRANCH   3  31
TORSDOF 8
ENDMDL
MODEL 9
REMARK VINA RESULT:      -8.5      2.489      4.382
REMARK  8 active torsions:
REMARK  status: ('A' for Active; 'I' for Inactive)
REMARK    1  A    between atoms: C_3  and  N_4 
REMARK       I    between atoms: N_4  and  C_5 
REMARK    2  A    between atoms: C_5  and  C_6 
REMARK    3  A    between atoms: C_6  and  S_7 
REMARK    4  A    between atoms: S_7  and  C_8 
REMARK    5  A    between atoms: N_9  and  C_10 
REMARK    6  A    between atoms: C_10  and  C_11 
REMARK       I    between atoms: C_11  and  N_12 
REMARK    7  A    between atoms: N_12  and  C_13 
REMARK    8  A    between atoms: C_20  and  C_21 
ROOT
HETATM    1  C   UNL     1      -8.811   3.094 -32.596  1.00  0.00     0.169 A 
HETATM    2  N   UNL     1      -7.908   4.124 -32.459  1.00  0.00    -0.315 N 
HETATM    3  C   UNL     1      -7.694   4.294 -31.099  1.00  0.00     0.065 A 
HETATM    4  C   UNL     1      -8.399   3.254 -30.516  1.00  0.00     0.150 A 
HETATM    5  N   UNL     1      -9.061   2.506 -31.451  1.00  0.00    -0.234 NA
ENDROOT
BRANCH   1   6
HETATM    6  S   UNL     1      -9.566   2.682 -34.099  1.00  0.00    -0.083 SA
BRANCH   6   7
HETATM    7  C   UNL     1      -9.550   0.873 -34.038  1.00  0.00     0.185 C 
BRANCH   7   8
HETATM    8  C   UNL     1      -8.181   0.298 -34.372  1.00  0.00     0.231 C 
HETATM    9  N   UNL     1      -7.664  -0.498 -33.365  1.00  0.00    -0.326 N 
HETATM   10  H   UNL     1      -8.235  -0.549 -32.521  1.00  0.00     0.169 HD
HETATM   11  O   UNL     1      -7.602   0.632 -35.403  1.00  0.00    -0.272 OA
BRANCH   9  12
HETATM   12  C   UNL     1      -6.356  -1.021 -33.268  1.00  0.00     0.046 A 
HETATM   13  C   UNL     1      -5.470  -0.371 -32.371  1.00  0.00    -0.035 A 
HETATM   14  C   UNL     1      -5.881   0.839 -31.572  1.00  0.00     0.050 C 
HETATM   15  C   UNL     1      -4.148  -0.827 -32.242  1.00  0.00     0.009 A 
HETATM   16  C   UNL     1      -3.699  -1.911 -32.985  1.00  0.00     0.001 A 
HETATM   17  C   UNL     1      -4.575  -2.571 -33.841  1.00  0.00     0.009 A 
HETATM   18  C   UNL     1      -5.916  -2.160 -33.972  1.00  0.00    -0.035 A 
HETATM   19  C   UNL     1      -6.805  -3.026 -34.824  1.00  0.00     0.050 C 
ENDBRANCH   9  12
ENDBRANCH   7   8
ENDBRANCH   6   7
ENDBRANCH   1   6
BRANCH   2  20
HETATM   20  C   UNL     1      -7.212   4.800 -33.543  1.00  0.00     0.234 C 
BRANCH  20  21
HETATM   21  C   UNL     1      -5.831   4.314 -33.925  1.00  0.00     0.236 C 
HETATM   22  N   UNL     1      -4.743   5.077 -33.588  1.00  0.00    -0.355 N 
HETATM   23  H   UNL     1      -4.903   5.922 -33.055  1.00  0.00     0.162 HD
HETATM   24  O   UNL     1      -5.742   3.243 -34.522  1.00  0.00    -0.272 OA
BRANCH  22  25
HETATM   25  C   UNL     1      -3.337   4.669 -33.680  1.00  0.00     0.084 C 
HETATM   26  C   UNL     1      -2.545   5.519 -34.681  1.00  0.00     0.025 C 
HETATM   27  C   UNL     1      -1.921   6.770 -34.077  1.00  0.00     0.002 C 
HETATM   28  C   UNL     1      -1.050   6.420 -32.879  1.00  0.00     0.000 C 
HETATM   29  C   UNL     1      -1.820   5.663 -31.804  1.00  0.00     0.002 C 
HETATM   30  C   UNL     1      -2.606   4.465 -32.342  1.00  0.00     0.025 C 
ENDBRANCH  22  25
ENDBRANCH  20  21
ENDBRANCH   2  20
BRANCH   3  31
HETATM   31  C   UNL     1      -6.973   5.383 -30.447  1.00  0.00    -0.008 A 
HETATM   32  C   UNL     1      -7.559   6.635 -30.230  1.00  0.00     0.017 A 
HETATM   33  C   UNL     1      -6.837   7.652 -29.600  1.00  0.00     0.043 A 
HETATM   34  C   UNL     1      -5.525   7.422 -29.204  1.00  0.00     0.116 A 
HETATM   35  F   UNL     1      -4.835   8.399 -28.603  1.00  0.00    -0.206 F 
HETATM   36  C   UNL     1      -4.916   6.195 -29.431  1.00  0.00     0.043 A 
HETATM   37  C   UNL     1      -5.641   5.176 -30.054  1.00  0.00     0.017 A 
ENDBRANCH   3  31
TORSDOF 8
ENDMDL
MODEL 10
REMARK VINA RESULT:      -8.4      2.924      8.318
REMARK  8 active torsions:
REMARK  status: ('A' for Active; 'I' for Inactive)
REMARK    1  A    between atoms: C_3  and  N_4 
REMARK       I    between atoms: N_4  and  C_5 
REMARK    2  A    between atoms: C_5  and  C_6 
REMARK    3  A    between atoms: C_6  and  S_7 
REMARK    4  A    between atoms: S_7  and  C_8 
REMARK    5  A    between atoms: N_9  and  C_10 
REMARK    6  A    between atoms: C_10  and  C_11 
REMARK       I    between atoms: C_11  and  N_12 
REMARK    7  A    between atoms: N_12  and  C_13 
REMARK    8  A    between atoms: C_20  and  C_21 
ROOT
HETATM    1  C   UNL     1      -6.087   6.126 -30.832  1.00  0.00     0.169 A 
HETATM    2  N   UNL     1      -5.832   4.942 -31.485  1.00  0.00    -0.315 N 
HETATM    3  C   UNL     1      -5.543   3.997 -30.511  1.00  0.00     0.065 A 
HETATM    4  C   UNL     1      -5.772   4.665 -29.318  1.00  0.00     0.150 A 
HETATM    5  N   UNL     1      -6.133   5.967 -29.530  1.00  0.00    -0.234 NA
ENDROOT
BRANCH   1   6
HETATM    6  S   UNL     1      -6.258   7.645 -31.645  1.00  0.00    -0.083 SA
BRANCH   6   7
HETATM    7  C   UNL     1      -5.140   8.704 -30.692  1.00  0.00     0.185 C 
BRANCH   7   8
HETATM    8  C   UNL     1      -3.679   8.455 -31.036  1.00  0.00     0.231 C 
HETATM    9  N   UNL     1      -3.204   7.248 -30.554  1.00  0.00    -0.326 N 
HETATM   10  H   UNL     1      -3.868   6.717 -29.992  1.00  0.00     0.169 HD
HETATM   11  O   UNL     1      -3.016   9.325 -31.596  1.00  0.00    -0.272 OA
BRANCH   9  12
HETATM   12  C   UNL     1      -1.864   6.800 -30.529  1.00  0.00     0.046 A 
HETATM   13  C   UNL     1      -1.462   5.926 -31.572  1.00  0.00    -0.035 A 
HETATM   14  C   UNL     1      -2.413   5.467 -32.647  1.00  0.00     0.050 C 
HETATM   15  C   UNL     1      -0.150   5.427 -31.596  1.00  0.00     0.009 A 
HETATM   16  C   UNL     1       0.759   5.780 -30.608  1.00  0.00     0.001 A 
HETATM   17  C   UNL     1       0.376   6.662 -29.602  1.00  0.00     0.009 A 
HETATM   18  C   UNL     1      -0.922   7.207 -29.565  1.00  0.00    -0.035 A 
HETATM   19  C   UNL     1      -1.183   8.250 -28.511  1.00  0.00     0.050 C 
ENDBRANCH   9  12
ENDBRANCH   7   8
ENDBRANCH   6   7
ENDBRANCH   1   6
BRANCH   2  20
HETATM   20  C   UNL     1      -5.980   4.704 -32.913  1.00  0.00     0.234 C 
BRANCH  20  21
HETATM   21  C   UNL     1      -7.099   3.799 -33.379  1.00  0.00     0.236 C 
HETATM   22  N   UNL     1      -6.783   2.581 -33.924  1.00  0.00    -0.355 N 
HETATM   23  H   UNL     1      -5.808   2.313 -33.954  1.00  0.00     0.162 HD
HETATM   24  O   UNL     1      -8.255   4.195 -33.243  1.00  0.00    -0.272 OA
BRANCH  22  25
HETATM   25  C   UNL     1      -7.725   1.497 -34.224  1.00  0.00     0.084 C 
HETATM   26  C   UNL     1      -7.221   0.579 -35.346  1.00  0.00     0.025 C 
HETATM   27  C   UNL     1      -6.366  -0.584 -34.861  1.00  0.00     0.002 C 
HETATM   28  C   UNL     1      -7.102  -1.398 -33.807  1.00  0.00     0.000 C 
HETATM   29  C   UNL     1      -7.534  -0.549 -32.617  1.00  0.00     0.002 C 
HETATM   30  C   UNL     1      -8.278   0.728 -33.012  1.00  0.00     0.025 C 
ENDBRANCH  22  25
ENDBRANCH  20  21
ENDBRANCH   2  20
BRANCH   3  31
HETATM   31  C   UNL     1      -5.020   2.650 -30.712  1.00  0.00    -0.008 A 
HETATM   32  C   UNL     1      -3.895   2.402 -31.507  1.00  0.00     0.017 A 
HETATM   33  C   UNL     1      -3.424   1.097 -31.674  1.00  0.00     0.043 A 
HETATM   34  C   UNL     1      -4.088   0.040 -31.062  1.00  0.00     0.116 A 
HETATM   35  F   UNL     1      -3.635  -1.209 -31.227  1.00  0.00    -0.206 F 
HETATM   36  C   UNL     1      -5.220   0.261 -30.289  1.00  0.00     0.043 A 
HETATM   37  C   UNL     1      -5.686   1.566 -30.115  1.00  0.00     0.017 A 
ENDBRANCH   3  31
TORSDOF 8
ENDMDL
