MODEL 1
REMARK VINA RESULT:      -8.5      0.000      0.000
REMARK  5 active torsions:
REMARK  status: ('A' for Active; 'I' for Inactive)
REMARK    1  A    between atoms: C_7  and  C_8 
REMARK    2  A    between atoms: N_9  and  N_10 
REMARK       I    between atoms: N_10  and  C_11 
REMARK    3  A    between atoms: C_11  and  C_12 
REMARK    4  A    between atoms: C_12  and  N_13 
REMARK    5  A    between atoms: N_13  and  C_14 
ROOT
HETATM    1  N   UNL     1      -4.892   1.797 -31.603  1.00  0.00    -0.246 N 
HETATM    2  C   UNL     1      -5.194   3.134 -31.863  1.00  0.00     0.255 C 
HETATM    3  O   UNL     1      -6.010   3.537 -32.689  1.00  0.00    -0.270 OA
HETATM    4  H   UNL     1      -4.416   1.574 -30.734  1.00  0.00     0.192 HD
ENDROOT
BRANCH   1   5
HETATM    5  N   UNL     1      -5.472   0.704 -32.205  1.00  0.00    -0.184 NA
HETATM    6  C   UNL     1      -4.881   0.171 -33.228  1.00  0.00     0.153 C 
BRANCH   6   7
HETATM    7  C   UNL     1      -5.466  -0.968 -33.916  1.00  0.00     0.018 A 
HETATM    8  C   UNL     1      -6.595  -0.987 -34.724  1.00  0.00     0.018 A 
HETATM    9  C   UNL     1      -7.525   0.096 -35.139  1.00  0.00     0.069 C 
HETATM   10  N   UNL     1      -6.781  -2.281 -35.149  1.00  0.00    -0.358 N 
HETATM   11  H   UNL     1      -7.529  -2.590 -35.754  1.00  0.00     0.166 HD
HETATM   12  C   UNL     1      -5.808  -3.106 -34.643  1.00  0.00     0.043 A 
HETATM   13  C   UNL     1      -4.963  -2.313 -33.868  1.00  0.00     0.004 A 
HETATM   14  C   UNL     1      -5.614  -4.483 -34.813  1.00  0.00     0.030 A 
HETATM   15  C   UNL     1      -3.861  -2.930 -33.236  1.00  0.00     0.014 A 
HETATM   16  C   UNL     1      -3.650  -4.305 -33.397  1.00  0.00     0.001 A 
HETATM   17  C   UNL     1      -4.517  -5.068 -34.173  1.00  0.00     0.002 A 
ENDBRANCH   6   7
ENDBRANCH   1   5
BRANCH   2  18
HETATM   18  C   UNL     1      -4.368   4.100 -31.010  1.00  0.00     0.224 C 
BRANCH  18  19
HETATM   19  N   UNL     1      -2.932   3.922 -31.239  1.00  0.00    -0.380 N 
HETATM   20  H   UNL     1      -2.618   2.951 -31.278  1.00  0.00     0.160 HD
BRANCH  19  21
HETATM   21  C   UNL     1      -2.300   4.706 -32.219  1.00  0.00     0.050 A 
HETATM   22  C   UNL     1      -1.752   5.965 -31.889  1.00  0.00     0.060 A 
HETATM   23 CL   UNL     1      -1.741   6.512 -30.245  1.00  0.00    -0.082 Cl
HETATM   24  C   UNL     1      -1.177   6.791 -32.859  1.00  0.00     0.026 A 
HETATM   25  C   UNL     1      -1.155   6.386 -34.191  1.00  0.00     0.002 A 
HETATM   26  C   UNL     1      -1.715   5.163 -34.547  1.00  0.00     0.002 A 
HETATM   27  C   UNL     1      -2.287   4.337 -33.573  1.00  0.00     0.031 A 
ENDBRANCH  19  21
ENDBRANCH  18  19
ENDBRANCH   2  18
TORSDOF 5
ENDMDL
MODEL 2
REMARK VINA RESULT:      -8.5      4.938      7.818
REMARK  5 active torsions:
REMARK  status: ('A' for Active; 'I' for Inactive)
REMARK    1  A    between atoms: C_7  and  C_8 
REMARK    2  A    between atoms: N_9  and  N_10 
REMARK       I    between atoms: N_10  and  C_11 
REMARK    3  A    between atoms: C_11  and  C_12 
REMARK    4  A    between atoms: C_12  and  N_13 
REMARK    5  A    between atoms: N_13  and  C_14 
ROOT
HETATM    1  N   UNL     1      -9.158   1.092 -34.822  1.00  0.00    -0.246 N 
HETATM    2  C   UNL     1      -9.347   2.363 -34.281  1.00  0.00     0.255 C 
HETATM    3  O   UNL     1      -8.486   3.042 -33.725  1.00  0.00    -0.270 OA
HETATM    4  H   UNL     1      -9.848   0.745 -35.482  1.00  0.00     0.192 HD
ENDROOT
BRANCH   1   5
HETATM    5  N   UNL     1      -7.972   0.393 -34.852  1.00  0.00    -0.184 NA
HETATM    6  C   UNL     1      -7.531  -0.128 -33.751  1.00  0.00     0.153 C 
BRANCH   6   7
HETATM    7  C   UNL     1      -6.271  -0.853 -33.723  1.00  0.00     0.018 A 
HETATM    8  C   UNL     1      -5.028  -0.386 -33.315  1.00  0.00     0.018 A 
HETATM    9  C   UNL     1      -4.599   0.937 -32.790  1.00  0.00     0.069 C 
HETATM   10  N   UNL     1      -4.126  -1.411 -33.471  1.00  0.00    -0.358 N 
HETATM   11  H   UNL     1      -3.142  -1.356 -33.250  1.00  0.00     0.166 HD
HETATM   12  C   UNL     1      -4.743  -2.532 -33.969  1.00  0.00     0.043 A 
HETATM   13  C   UNL     1      -6.090  -2.218 -34.134  1.00  0.00     0.004 A 
HETATM   14  C   UNL     1      -4.212  -3.791 -34.281  1.00  0.00     0.030 A 
HETATM   15  C   UNL     1      -6.955  -3.218 -34.630  1.00  0.00     0.014 A 
HETATM   16  C   UNL     1      -6.442  -4.482 -34.945  1.00  0.00     0.001 A 
HETATM   17  C   UNL     1      -5.090  -4.761 -34.774  1.00  0.00     0.002 A 
ENDBRANCH   6   7
ENDBRANCH   1   5
BRANCH   2  18
HETATM   18  C   UNL     1     -10.791   2.854 -34.422  1.00  0.00     0.224 C 
BRANCH  18  19
HETATM   19  N   UNL     1     -11.561   2.606 -33.201  1.00  0.00    -0.380 N 
HETATM   20  H   UNL     1     -11.423   3.292 -32.457  1.00  0.00     0.160 HD
BRANCH  19  21
HETATM   21  C   UNL     1     -12.911   2.234 -33.315  1.00  0.00     0.050 A 
HETATM   22  C   UNL     1     -13.872   2.724 -32.402  1.00  0.00     0.060 A 
HETATM   23 CL   UNL     1     -13.423   3.887 -31.199  1.00  0.00    -0.082 Cl
HETATM   24  C   UNL     1     -15.208   2.317 -32.456  1.00  0.00     0.026 A 
HETATM   25  C   UNL     1     -15.613   1.391 -33.414  1.00  0.00     0.002 A 
HETATM   26  C   UNL     1     -14.681   0.872 -34.307  1.00  0.00     0.002 A 
HETATM   27  C   UNL     1     -13.344   1.283 -34.252  1.00  0.00     0.031 A 
ENDBRANCH  19  21
ENDBRANCH  18  19
ENDBRANCH   2  18
TORSDOF 5
ENDMDL
MODEL 3
REMARK VINA RESULT:      -8.4      2.822      8.676
REMARK  5 active torsions:
REMARK  status: ('A' for Active; 'I' for Inactive)
REMARK    1  A    between atoms: C_7  and  C_8 
REMARK    2  A    between atoms: N_9  and  N_10 
REMARK       I    between atoms: N_10  and  C_11 
REMARK    3  A    between atoms: C_11  and  C_12 
REMARK    4  A    between atoms: C_12  and  N_13 
REMARK    5  A    between atoms: N_13  and  C_14 
ROOT
HETATM    1  N   UNL     1      -4.125   1.168 -32.168  1.00  0.00    -0.246 N 
HETATM    2  C   UNL     1      -3.308   0.175 -31.628  1.00  0.00     0.255 C 
HETATM    3  O   UNL     1      -2.338   0.361 -30.897  1.00  0.00    -0.270 OA
HETATM    4  H   UNL     1      -5.036   0.898 -32.525  1.00  0.00     0.192 HD
ENDROOT
BRANCH   1   5
HETATM    5  N   UNL     1      -4.000   2.522 -31.954  1.00  0.00    -0.184 NA
HETATM    6  C   UNL     1      -3.208   3.202 -32.721  1.00  0.00     0.153 C 
BRANCH   6   7
HETATM    7  C   UNL     1      -3.021   4.630 -32.521  1.00  0.00     0.018 A 
HETATM    8  C   UNL     1      -3.904   5.657 -32.830  1.00  0.00     0.018 A 
HETATM    9  C   UNL     1      -5.264   5.636 -33.430  1.00  0.00     0.069 C 
HETATM   10  N   UNL     1      -3.304   6.842 -32.479  1.00  0.00    -0.358 N 
HETATM   11  H   UNL     1      -3.719   7.757 -32.590  1.00  0.00     0.166 HD
HETATM   12  C   UNL     1      -2.057   6.620 -31.949  1.00  0.00     0.043 A 
HETATM   13  C   UNL     1      -1.850   5.242 -31.957  1.00  0.00     0.004 A 
HETATM   14  C   UNL     1      -1.106   7.529 -31.467  1.00  0.00     0.030 A 
HETATM   15  C   UNL     1      -0.629   4.746 -31.447  1.00  0.00     0.014 A 
HETATM   16  C   UNL     1       0.332   5.640 -30.960  1.00  0.00     0.001 A 
HETATM   17  C   UNL     1       0.094   7.011 -30.973  1.00  0.00     0.002 A 
ENDBRANCH   6   7
ENDBRANCH   1   5
BRANCH   2  18
HETATM   18  C   UNL     1      -3.730  -1.233 -32.063  1.00  0.00     0.224 C 
BRANCH  18  19
HETATM   19  N   UNL     1      -4.053  -1.276 -33.491  1.00  0.00    -0.380 N 
HETATM   20  H   UNL     1      -3.310  -0.952 -34.112  1.00  0.00     0.160 HD
BRANCH  19  21
HETATM   21  C   UNL     1      -4.695  -2.414 -34.006  1.00  0.00     0.050 A 
HETATM   22  C   UNL     1      -6.010  -2.330 -34.515  1.00  0.00     0.060 A 
HETATM   23 CL   UNL     1      -6.810  -0.798 -34.623  1.00  0.00    -0.082 Cl
HETATM   24  C   UNL     1      -6.693  -3.461 -34.971  1.00  0.00     0.026 A 
HETATM   25  C   UNL     1      -6.083  -4.712 -34.911  1.00  0.00     0.002 A 
HETATM   26  C   UNL     1      -4.799  -4.826 -34.388  1.00  0.00     0.002 A 
HETATM   27  C   UNL     1      -4.117  -3.691 -33.934  1.00  0.00     0.031 A 
ENDBRANCH  19  21
ENDBRANCH  18  19
ENDBRANCH   2  18
TORSDOF 5
ENDMDL
MODEL 4
REMARK VINA RESULT:      -8.2      4.279      6.607
REMARK  5 active torsions:
REMARK  status: ('A' for Active; 'I' for Inactive)
REMARK    1  A    between atoms: C_7  and  C_8 
REMARK    2  A    between atoms: N_9  and  N_10 
REMARK       I    between atoms: N_10  and  C_11 
REMARK    3  A    between atoms: C_11  and  C_12 
REMARK    4  A    between atoms: C_12  and  N_13 
REMARK    5  A    between atoms: N_13  and  C_14 
ROOT
HETATM    1  N   UNL     1      -7.953   1.551 -32.544  1.00  0.00    -0.246 N 
HETATM    2  C   UNL     1      -8.233   2.457 -31.521  1.00  0.00     0.255 C 
HETATM    3  O   UNL     1      -7.724   2.458 -30.402  1.00  0.00    -0.270 OA
HETATM    4  H   UNL     1      -8.220   1.800 -33.491  1.00  0.00     0.192 HD
ENDROOT
BRANCH   1   5
HETATM    5  N   UNL     1      -7.040   0.522 -32.484  1.00  0.00    -0.184 NA
HETATM    6  C   UNL     1      -6.404   0.192 -33.564  1.00  0.00     0.153 C 
BRANCH   6   7
HETATM    7  C   UNL     1      -5.450  -0.904 -33.561  1.00  0.00     0.018 A 
HETATM    8  C   UNL     1      -4.143  -0.894 -33.090  1.00  0.00     0.018 A 
HETATM    9  C   UNL     1      -3.334   0.181 -32.458  1.00  0.00     0.069 C 
HETATM   10  N   UNL     1      -3.615  -2.146 -33.301  1.00  0.00    -0.358 N 
HETATM   11  H   UNL     1      -2.677  -2.428 -33.053  1.00  0.00     0.166 HD
HETATM   12  C   UNL     1      -4.537  -2.971 -33.895  1.00  0.00     0.043 A 
HETATM   13  C   UNL     1      -5.701  -2.225 -34.068  1.00  0.00     0.004 A 
HETATM   14  C   UNL     1      -4.428  -4.312 -34.287  1.00  0.00     0.030 A 
HETATM   15  C   UNL     1      -6.819  -2.855 -34.658  1.00  0.00     0.014 A 
HETATM   16  C   UNL     1      -6.729  -4.195 -35.054  1.00  0.00     0.001 A 
HETATM   17  C   UNL     1      -5.549  -4.909 -34.872  1.00  0.00     0.002 A 
ENDBRANCH   6   7
ENDBRANCH   1   5
BRANCH   2  18
HETATM   18  C   UNL     1      -9.297   3.484 -31.922  1.00  0.00     0.224 C 
BRANCH  18  19
HETATM   19  N   UNL     1     -10.639   2.897 -31.902  1.00  0.00    -0.380 N 
HETATM   20  H   UNL     1     -11.225   3.184 -31.117  1.00  0.00     0.160 HD
BRANCH  19  21
HETATM   21  C   UNL     1     -11.373   2.844 -33.099  1.00  0.00     0.050 A 
HETATM   22  C   UNL     1     -11.512   1.629 -33.805  1.00  0.00     0.060 A 
HETATM   23 CL   UNL     1     -10.881   0.157 -33.146  1.00  0.00    -0.082 Cl
HETATM   24  C   UNL     1     -12.181   1.566 -35.031  1.00  0.00     0.026 A 
HETATM   25  C   UNL     1     -12.712   2.724 -35.592  1.00  0.00     0.002 A 
HETATM   26  C   UNL     1     -12.565   3.939 -34.931  1.00  0.00     0.002 A 
HETATM   27  C   UNL     1     -11.896   3.999 -33.703  1.00  0.00     0.031 A 
ENDBRANCH  19  21
ENDBRANCH  18  19
ENDBRANCH   2  18
TORSDOF 5
ENDMDL
MODEL 5
REMARK VINA RESULT:      -8.1      2.210      8.272
REMARK  5 active torsions:
REMARK  status: ('A' for Active; 'I' for Inactive)
REMARK    1  A    between atoms: C_7  and  C_8 
REMARK    2  A    between atoms: N_9  and  N_10 
REMARK       I    between atoms: N_10  and  C_11 
REMARK    3  A    between atoms: C_11  and  C_12 
REMARK    4  A    between atoms: C_12  and  N_13 
REMARK    5  A    between atoms: N_13  and  C_14 
ROOT
HETATM    1  N   UNL     1      -6.205   1.543 -33.555  1.00  0.00    -0.246 N 
HETATM    2  C   UNL     1      -7.212   0.882 -32.851  1.00  0.00     0.255 C 
HETATM    3  O   UNL     1      -7.777   1.299 -31.843  1.00  0.00    -0.270 OA
HETATM    4  H   UNL     1      -6.006   1.241 -34.504  1.00  0.00     0.192 HD
ENDROOT
BRANCH   1   5
HETATM    5  N   UNL     1      -5.692   2.785 -33.256  1.00  0.00    -0.184 NA
HETATM    6  C   UNL     1      -4.596   2.855 -32.569  1.00  0.00     0.153 C 
BRANCH   6   7
HETATM    7  C   UNL     1      -4.027   4.143 -32.205  1.00  0.00     0.018 A 
HETATM    8  C   UNL     1      -4.351   4.940 -31.114  1.00  0.00     0.018 A 
HETATM    9  C   UNL     1      -5.328   4.746 -30.011  1.00  0.00     0.069 C 
HETATM   10  N   UNL     1      -3.571   6.069 -31.178  1.00  0.00    -0.358 N 
HETATM   11  H   UNL     1      -3.592   6.827 -30.509  1.00  0.00     0.166 HD
HETATM   12  C   UNL     1      -2.748   6.034 -32.277  1.00  0.00     0.043 A 
HETATM   13  C   UNL     1      -3.006   4.836 -32.941  1.00  0.00     0.004 A 
HETATM   14  C   UNL     1      -1.803   6.965 -32.726  1.00  0.00     0.030 A 
HETATM   15  C   UNL     1      -2.273   4.550 -34.113  1.00  0.00     0.014 A 
HETATM   16  C   UNL     1      -1.322   5.468 -34.577  1.00  0.00     0.001 A 
HETATM   17  C   UNL     1      -1.094   6.658 -33.892  1.00  0.00     0.002 A 
ENDBRANCH   6   7
ENDBRANCH   1   5
BRANCH   2  18
HETATM   18  C   UNL     1      -7.552  -0.484 -33.458  1.00  0.00     0.224 C 
BRANCH  18  19
HETATM   19  N   UNL     1      -6.562  -0.884 -34.460  1.00  0.00    -0.380 N 
HETATM   20  H   UNL     1      -5.839  -0.191 -34.654  1.00  0.00     0.160 HD
BRANCH  19  21
HETATM   21  C   UNL     1      -6.028  -2.183 -34.402  1.00  0.00     0.050 A 
HETATM   22  C   UNL     1      -4.696  -2.396 -33.984  1.00  0.00     0.060 A 
HETATM   23 CL   UNL     1      -3.734  -1.071 -33.418  1.00  0.00    -0.082 Cl
HETATM   24  C   UNL     1      -4.124  -3.671 -33.981  1.00  0.00     0.026 A 
HETATM   25  C   UNL     1      -4.865  -4.766 -34.419  1.00  0.00     0.002 A 
HETATM   26  C   UNL     1      -6.170  -4.579 -34.864  1.00  0.00     0.002 A 
HETATM   27  C   UNL     1      -6.741  -3.301 -34.863  1.00  0.00     0.031 A 
ENDBRANCH  19  21
ENDBRANCH  18  19
ENDBRANCH   2  18
TORSDOF 5
ENDMDL
MODEL 6
REMARK VINA RESULT:      -8.1      1.143      1.543
REMARK  5 active torsions:
REMARK  status: ('A' for Active; 'I' for Inactive)
REMARK    1  A    between atoms: C_7  and  C_8 
REMARK    2  A    between atoms: N_9  and  N_10 
REMARK       I    between atoms: N_10  and  C_11 
REMARK    3  A    between atoms: C_11  and  C_12 
REMARK    4  A    between atoms: C_12  and  N_13 
REMARK    5  A    between atoms: N_13  and  C_14 
ROOT
HETATM    1  N   UNL     1      -4.633   1.711 -31.961  1.00  0.00    -0.246 N 
HETATM    2  C   UNL     1      -5.216   2.946 -31.677  1.00  0.00     0.255 C 
HETATM    3  O   UNL     1      -6.403   3.229 -31.823  1.00  0.00    -0.270 OA
HETATM    4  H   UNL     1      -3.724   1.507 -31.557  1.00  0.00     0.192 HD
ENDROOT
BRANCH   1   5
HETATM    5  N   UNL     1      -5.290   0.593 -32.425  1.00  0.00    -0.184 NA
HETATM    6  C   UNL     1      -4.885   0.049 -33.529  1.00  0.00     0.153 C 
BRANCH   6   7
HETATM    7  C   UNL     1      -5.561  -1.117 -34.075  1.00  0.00     0.018 A 
HETATM    8  C   UNL     1      -6.786  -1.163 -34.729  1.00  0.00     0.018 A 
HETATM    9  C   UNL     1      -7.755  -0.091 -35.077  1.00  0.00     0.069 C 
HETATM   10  N   UNL     1      -7.032  -2.474 -35.059  1.00  0.00    -0.358 N 
HETATM   11  H   UNL     1      -7.854  -2.805 -35.545  1.00  0.00     0.166 HD
HETATM   12  C   UNL     1      -6.007  -3.284 -34.639  1.00  0.00     0.043 A 
HETATM   13  C   UNL     1      -5.064  -2.464 -34.022  1.00  0.00     0.004 A 
HETATM   14  C   UNL     1      -5.845  -4.671 -34.760  1.00  0.00     0.030 A 
HETATM   15  C   UNL     1      -3.894  -3.061 -33.506  1.00  0.00     0.014 A 
HETATM   16  C   UNL     1      -3.714  -4.445 -33.620  1.00  0.00     0.001 A 
HETATM   17  C   UNL     1      -4.678  -5.235 -34.237  1.00  0.00     0.002 A 
ENDBRANCH   6   7
ENDBRANCH   1   5
BRANCH   2  18
HETATM   18  C   UNL     1      -4.200   3.973 -31.169  1.00  0.00     0.224 C 
BRANCH  18  19
HETATM   19  N   UNL     1      -2.912   3.833 -31.852  1.00  0.00    -0.380 N 
HETATM   20  H   UNL     1      -2.957   3.394 -32.773  1.00  0.00     0.160 HD
BRANCH  19  21
HETATM   21  C   UNL     1      -2.018   4.917 -31.842  1.00  0.00     0.050 A 
HETATM   22  C   UNL     1      -1.894   5.758 -32.970  1.00  0.00     0.060 A 
HETATM   23 CL   UNL     1      -2.929   5.541 -34.342  1.00  0.00    -0.082 Cl
HETATM   24  C   UNL     1      -0.966   6.802 -33.007  1.00  0.00     0.026 A 
HETATM   25  C   UNL     1      -0.121   7.019 -31.921  1.00  0.00     0.002 A 
HETATM   26  C   UNL     1      -0.203   6.187 -30.809  1.00  0.00     0.002 A 
HETATM   27  C   UNL     1      -1.136   5.144 -30.774  1.00  0.00     0.031 A 
ENDBRANCH  19  21
ENDBRANCH  18  19
ENDBRANCH   2  18
TORSDOF 5
ENDMDL
MODEL 7
REMARK VINA RESULT:      -8.1      4.532      7.953
REMARK  5 active torsions:
REMARK  status: ('A' for Active; 'I' for Inactive)
REMARK    1  A    between atoms: C_7  and  C_8 
REMARK    2  A    between atoms: N_9  and  N_10 
REMARK       I    between atoms: N_10  and  C_11 
REMARK    3  A    between atoms: C_11  and  C_12 
REMARK    4  A    between atoms: C_12  and  N_13 
REMARK    5  A    between atoms: N_13  and  C_14 
ROOT
HETATM    1  N   UNL     1      -7.248   0.027 -32.078  1.00  0.00    -0.246 N 
HETATM    2  C   UNL     1      -5.928   0.467 -32.171  1.00  0.00     0.255 C 
HETATM    3  O   UNL     1      -5.570   1.617 -32.416  1.00  0.00    -0.270 OA
HETATM    4  H   UNL     1      -7.426  -0.859 -31.613  1.00  0.00     0.192 HD
ENDROOT
BRANCH   1   5
HETATM    5  N   UNL     1      -8.373   0.808 -32.219  1.00  0.00    -0.184 NA
HETATM    6  C   UNL     1      -9.080   0.689 -33.298  1.00  0.00     0.153 C 
BRANCH   6   7
HETATM    7  C   UNL     1     -10.262   1.509 -33.507  1.00  0.00     0.018 A 
HETATM    8  C   UNL     1     -10.326   2.887 -33.668  1.00  0.00     0.018 A 
HETATM    9  C   UNL     1      -9.261   3.924 -33.687  1.00  0.00     0.069 C 
HETATM   10  N   UNL     1     -11.648   3.228 -33.825  1.00  0.00    -0.358 N 
HETATM   11  H   UNL     1     -11.992   4.168 -33.963  1.00  0.00     0.166 HD
HETATM   12  C   UNL     1     -12.449   2.114 -33.771  1.00  0.00     0.043 A 
HETATM   13  C   UNL     1     -11.611   1.018 -33.578  1.00  0.00     0.004 A 
HETATM   14  C   UNL     1     -13.841   1.998 -33.880  1.00  0.00     0.030 A 
HETATM   15  C   UNL     1     -12.196  -0.265 -33.497  1.00  0.00     0.014 A 
HETATM   16  C   UNL     1     -13.585  -0.401 -33.605  1.00  0.00     0.001 A 
HETATM   17  C   UNL     1     -14.393   0.716 -33.793  1.00  0.00     0.002 A 
ENDBRANCH   6   7
ENDBRANCH   1   5
BRANCH   2  18
HETATM   18  C   UNL     1      -4.915  -0.662 -31.954  1.00  0.00     0.224 C 
BRANCH  18  19
HETATM   19  N   UNL     1      -4.292  -1.070 -33.215  1.00  0.00    -0.380 N 
HETATM   20  H   UNL     1      -3.339  -0.732 -33.355  1.00  0.00     0.160 HD
BRANCH  19  21
HETATM   21  C   UNL     1      -4.435  -2.401 -33.641  1.00  0.00     0.050 A 
HETATM   22  C   UNL     1      -5.514  -2.779 -34.471  1.00  0.00     0.060 A 
HETATM   23 CL   UNL     1      -6.614  -1.585 -35.075  1.00  0.00    -0.082 Cl
HETATM   24  C   UNL     1      -5.713  -4.108 -34.854  1.00  0.00     0.026 A 
HETATM   25  C   UNL     1      -4.847  -5.099 -34.398  1.00  0.00     0.002 A 
HETATM   26  C   UNL     1      -3.793  -4.757 -33.557  1.00  0.00     0.002 A 
HETATM   27  C   UNL     1      -3.595  -3.425 -33.178  1.00  0.00     0.031 A 
ENDBRANCH  19  21
ENDBRANCH  18  19
ENDBRANCH   2  18
TORSDOF 5
ENDMDL
MODEL 8
REMARK VINA RESULT:      -8.0      2.530      8.105
REMARK  5 active torsions:
REMARK  status: ('A' for Active; 'I' for Inactive)
REMARK    1  A    between atoms: C_7  and  C_8 
REMARK    2  A    between atoms: N_9  and  N_10 
REMARK       I    between atoms: N_10  and  C_11 
REMARK    3  A    between atoms: C_11  and  C_12 
REMARK    4  A    between atoms: C_12  and  N_13 
REMARK    5  A    between atoms: N_13  and  C_14 
ROOT
HETATM    1  N   UNL     1      -5.197   2.118 -32.270  1.00  0.00    -0.246 N 
HETATM    2  C   UNL     1      -5.884   1.823 -31.092  1.00  0.00     0.255 C 
HETATM    3  O   UNL     1      -6.016   2.577 -30.130  1.00  0.00    -0.270 OA
HETATM    4  H   UNL     1      -5.378   1.542 -33.086  1.00  0.00     0.192 HD
ENDROOT
BRANCH   1   5
HETATM    5  N   UNL     1      -4.574   3.309 -32.566  1.00  0.00    -0.184 NA
HETATM    6  C   UNL     1      -3.282   3.328 -32.660  1.00  0.00     0.153 C 
BRANCH   6   7
HETATM    7  C   UNL     1      -2.574   4.565 -32.945  1.00  0.00     0.018 A 
HETATM    8  C   UNL     1      -2.723   5.397 -34.047  1.00  0.00     0.018 A 
HETATM    9  C   UNL     1      -3.616   5.308 -35.232  1.00  0.00     0.069 C 
HETATM   10  N   UNL     1      -1.842   6.442 -33.902  1.00  0.00    -0.358 N 
HETATM   11  H   UNL     1      -1.734   7.205 -34.556  1.00  0.00     0.166 HD
HETATM   12  C   UNL     1      -1.123   6.317 -32.739  1.00  0.00     0.043 A 
HETATM   13  C   UNL     1      -1.560   5.152 -32.112  1.00  0.00     0.004 A 
HETATM   14  C   UNL     1      -0.127   7.142 -32.200  1.00  0.00     0.030 A 
HETATM   15  C   UNL     1      -0.976   4.797 -30.876  1.00  0.00     0.014 A 
HETATM   16  C   UNL     1       0.019   5.611 -30.322  1.00  0.00     0.001 A 
HETATM   17  C   UNL     1       0.436   6.765 -30.977  1.00  0.00     0.002 A 
ENDBRANCH   6   7
ENDBRANCH   1   5
BRANCH   2  18
HETATM   18  C   UNL     1      -6.467   0.407 -31.091  1.00  0.00     0.224 C 
BRANCH  18  19
HETATM   19  N   UNL     1      -5.438  -0.594 -31.383  1.00  0.00    -0.380 N 
HETATM   20  H   UNL     1      -5.185  -1.196 -30.599  1.00  0.00     0.160 HD
BRANCH  19  21
HETATM   21  C   UNL     1      -5.521  -1.319 -32.584  1.00  0.00     0.050 A 
HETATM   22  C   UNL     1      -4.433  -2.104 -33.026  1.00  0.00     0.060 A 
HETATM   23 CL   UNL     1      -3.022  -2.283 -32.038  1.00  0.00    -0.082 Cl
HETATM   24  C   UNL     1      -4.468  -2.782 -34.249  1.00  0.00     0.026 A 
HETATM   25  C   UNL     1      -5.587  -2.674 -35.071  1.00  0.00     0.002 A 
HETATM   26  C   UNL     1      -6.660  -1.884 -34.671  1.00  0.00     0.002 A 
HETATM   27  C   UNL     1      -6.623  -1.209 -33.445  1.00  0.00     0.031 A 
ENDBRANCH  19  21
ENDBRANCH  18  19
ENDBRANCH   2  18
TORSDOF 5
ENDMDL
MODEL 9
REMARK VINA RESULT:      -7.8      4.765      8.569
REMARK  5 active torsions:
REMARK  status: ('A' for Active; 'I' for Inactive)
REMARK    1  A    between atoms: C_7  and  C_8 
REMARK    2  A    between atoms: N_9  and  N_10 
REMARK       I    between atoms: N_10  and  C_11 
REMARK    3  A    between atoms: C_11  and  C_12 
REMARK    4  A    between atoms: C_12  and  N_13 
REMARK    5  A    between atoms: N_13  and  C_14 
ROOT
HETATM    1  N   UNL     1      -8.628   0.251 -32.716  1.00  0.00    -0.246 N 
HETATM    2  C   UNL     1      -7.375   0.711 -32.311  1.00  0.00     0.255 C 
HETATM    3  O   UNL     1      -7.077   1.883 -32.089  1.00  0.00    -0.270 OA
HETATM    4  H   UNL     1      -8.833  -0.738 -32.609  1.00  0.00     0.192 HD
ENDROOT
BRANCH   1   5
HETATM    5  N   UNL     1      -9.749   1.026 -32.911  1.00  0.00    -0.184 NA
HETATM    6  C   UNL     1     -10.206   1.165 -34.115  1.00  0.00     0.153 C 
BRANCH   6   7
HETATM    7  C   UNL     1     -11.372   1.994 -34.377  1.00  0.00     0.018 A 
HETATM    8  C   UNL     1     -12.709   1.616 -34.350  1.00  0.00     0.018 A 
HETATM    9  C   UNL     1     -13.356   0.312 -34.050  1.00  0.00     0.069 C 
HETATM   10  N   UNL     1     -13.460   2.721 -34.673  1.00  0.00    -0.358 N 
HETATM   11  H   UNL     1     -14.469   2.740 -34.728  1.00  0.00     0.166 HD
HETATM   12  C   UNL     1     -12.654   3.807 -34.911  1.00  0.00     0.043 A 
HETATM   13  C   UNL     1     -11.338   3.386 -34.729  1.00  0.00     0.004 A 
HETATM   14  C   UNL     1     -12.990   5.119 -35.268  1.00  0.00     0.030 A 
HETATM   15  C   UNL     1     -10.303   4.331 -34.907  1.00  0.00     0.014 A 
HETATM   16  C   UNL     1     -10.621   5.647 -35.262  1.00  0.00     0.001 A 
HETATM   17  C   UNL     1     -11.946   6.032 -35.441  1.00  0.00     0.002 A 
ENDBRANCH   6   7
ENDBRANCH   1   5
BRANCH   2  18
HETATM   18  C   UNL     1      -6.348  -0.419 -32.183  1.00  0.00     0.224 C 
BRANCH  18  19
HETATM   19  N   UNL     1      -5.739  -0.736 -33.477  1.00  0.00    -0.380 N 
HETATM   20  H   UNL     1      -4.874  -0.235 -33.682  1.00  0.00     0.160 HD
BRANCH  19  21
HETATM   21  C   UNL     1      -5.663  -2.080 -33.879  1.00  0.00     0.050 A 
HETATM   22  C   UNL     1      -4.513  -2.850 -33.600  1.00  0.00     0.060 A 
HETATM   23 CL   UNL     1      -3.223  -2.187 -32.653  1.00  0.00    -0.082 Cl
HETATM   24  C   UNL     1      -4.388  -4.169 -34.047  1.00  0.00     0.026 A 
HETATM   25  C   UNL     1      -5.405  -4.745 -34.803  1.00  0.00     0.002 A 
HETATM   26  C   UNL     1      -6.537  -3.999 -35.116  1.00  0.00     0.002 A 
HETATM   27  C   UNL     1      -6.660  -2.679 -34.665  1.00  0.00     0.031 A 
ENDBRANCH  19  21
ENDBRANCH  18  19
ENDBRANCH   2  18
TORSDOF 5
ENDMDL
MODEL 10
REMARK VINA RESULT:      -7.7      2.745      4.476
REMARK  5 active torsions:
REMARK  status: ('A' for Active; 'I' for Inactive)
REMARK    1  A    between atoms: C_7  and  C_8 
REMARK    2  A    between atoms: N_9  and  N_10 
REMARK       I    between atoms: N_10  and  C_11 
REMARK    3  A    between atoms: C_11  and  C_12 
REMARK    4  A    between atoms: C_12  and  N_13 
REMARK    5  A    between atoms: N_13  and  C_14 
ROOT
HETATM    1  N   UNL     1      -2.770   4.038 -31.827  1.00  0.00    -0.246 N 
HETATM    2  C   UNL     1      -2.000   5.021 -32.447  1.00  0.00     0.255 C 
HETATM    3  O   UNL     1      -1.411   4.902 -33.519  1.00  0.00    -0.270 OA
HETATM    4  H   UNL     1      -3.418   4.325 -31.099  1.00  0.00     0.192 HD
ENDROOT
BRANCH   1   5
HETATM    5  N   UNL     1      -3.024   2.778 -32.321  1.00  0.00    -0.184 NA
HETATM    6  C   UNL     1      -4.175   2.235 -32.074  1.00  0.00     0.153 C 
BRANCH   6   7
HETATM    7  C   UNL     1      -4.483   0.896 -32.551  1.00  0.00     0.018 A 
HETATM    8  C   UNL     1      -3.825  -0.289 -32.248  1.00  0.00     0.018 A 
HETATM    9  C   UNL     1      -2.655  -0.567 -31.373  1.00  0.00     0.069 C 
HETATM   10  N   UNL     1      -4.454  -1.301 -32.932  1.00  0.00    -0.358 N 
HETATM   11  H   UNL     1      -4.188  -2.275 -32.899  1.00  0.00     0.166 HD
HETATM   12  C   UNL     1      -5.501  -0.812 -33.673  1.00  0.00     0.043 A 
HETATM   13  C   UNL     1      -5.551   0.563 -33.453  1.00  0.00     0.004 A 
HETATM   14  C   UNL     1      -6.401  -1.481 -34.513  1.00  0.00     0.030 A 
HETATM   15  C   UNL     1      -6.559   1.308 -34.102  1.00  0.00     0.014 A 
HETATM   16  C   UNL     1      -7.469   0.657 -34.943  1.00  0.00     0.001 A 
HETATM   17  C   UNL     1      -7.388  -0.717 -35.145  1.00  0.00     0.002 A 
ENDBRANCH   6   7
ENDBRANCH   1   5
BRANCH   2  18
HETATM   18  C   UNL     1      -1.927   6.314 -31.628  1.00  0.00     0.224 C 
BRANCH  18  19
HETATM   19  N   UNL     1      -1.807   6.033 -30.196  1.00  0.00    -0.380 N 
HETATM   20  H   UNL     1      -1.643   5.053 -29.960  1.00  0.00     0.160 HD
BRANCH  19  21
HETATM   21  C   UNL     1      -1.029   6.890 -29.400  1.00  0.00     0.050 A 
HETATM   22  C   UNL     1       0.231   6.475 -28.915  1.00  0.00     0.060 A 
HETATM   23 CL   UNL     1       0.893   4.947 -29.391  1.00  0.00    -0.082 Cl
HETATM   24  C   UNL     1       0.993   7.286 -28.068  1.00  0.00     0.026 A 
HETATM   25  C   UNL     1       0.503   8.526 -27.668  1.00  0.00     0.002 A 
HETATM   26  C   UNL     1      -0.748   8.946 -28.109  1.00  0.00     0.002 A 
HETATM   27  C   UNL     1      -1.507   8.134 -28.958  1.00  0.00     0.031 A 
ENDBRANCH  19  21
ENDBRANCH  18  19
ENDBRANCH   2  18
TORSDOF 5
ENDMDL
