MODEL 1
REMARK VINA RESULT:      -7.4      0.000      0.000
REMARK  7 active torsions:
REMARK  status: ('A' for Active; 'I' for Inactive)
REMARK    1  A    between atoms: C_2  and  N_3 
REMARK    2  A    between atoms: N_3  and  C_5 
REMARK    3  A    between atoms: N_3  and  C_17 
REMARK    4  A    between atoms: C_5  and  C_6 
REMARK       I    between atoms: C_6  and  N_7 
REMARK    5  A    between atoms: N_7  and  C_8 
REMARK    6  A    between atoms: C_17  and  C_18 
REMARK    7  A    between atoms: C_19  and  C_20 
ROOT
HETATM    1  N   UNL     1      -7.067   2.663 -32.368  1.00  0.00    -0.059 N 
HETATM    2  H   UNL     1      -7.205   2.072 -33.195  1.00  0.00     0.280 HD
ENDROOT
BRANCH   1   3
HETATM    3  C   UNL     1      -6.610   4.021 -32.854  1.00  0.00     0.231 C 
HETATM    4  C   UNL     1      -5.907   3.907 -34.194  1.00  0.00     0.034 C 
ENDBRANCH   1   3
BRANCH   1   5
HETATM    5  C   UNL     1      -6.056   1.940 -31.469  1.00  0.00     0.337 C 
BRANCH   5   6
HETATM    6  C   UNL     1      -5.912   0.438 -31.744  1.00  0.00     0.248 C 
HETATM    7  N   UNL     1      -5.351   0.141 -32.973  1.00  0.00    -0.325 N 
HETATM    8  H   UNL     1      -4.759   0.846 -33.394  1.00  0.00     0.169 HD
HETATM    9  O   UNL     1      -6.244  -0.373 -30.883  1.00  0.00    -0.271 OA
BRANCH   7  10
HETATM   10  C   UNL     1      -5.166  -1.170 -33.490  1.00  0.00     0.046 A 
HETATM   11  C   UNL     1      -4.126  -2.027 -33.069  1.00  0.00    -0.035 A 
HETATM   12  C   UNL     1      -3.143  -1.712 -31.972  1.00  0.00     0.050 C 
HETATM   13  C   UNL     1      -4.003  -3.297 -33.662  1.00  0.00     0.009 A 
HETATM   14  C   UNL     1      -4.921  -3.745 -34.605  1.00  0.00     0.001 A 
HETATM   15  C   UNL     1      -5.983  -2.928 -34.971  1.00  0.00     0.009 A 
HETATM   16  C   UNL     1      -6.123  -1.643 -34.424  1.00  0.00    -0.035 A 
HETATM   17  C   UNL     1      -7.284  -0.806 -34.898  1.00  0.00     0.050 C 
ENDBRANCH   7  10
ENDBRANCH   5   6
ENDBRANCH   1   5
BRANCH   1  18
HETATM   18  C   UNL     1      -8.444   2.744 -31.710  1.00  0.00     0.277 C 
BRANCH  18  19
HETATM   19  C   UNL     1      -9.392   1.743 -32.275  1.00  0.00     0.012 A 
HETATM   20  C   UNL     1     -10.486   1.939 -33.184  1.00  0.00     0.071 A 
HETATM   21  N   UNL     1     -11.068   0.768 -33.469  1.00  0.00    -0.178 NA
HETATM   22  N   UNL     1     -10.442  -0.140 -32.722  1.00  0.00    -0.288 N 
HETATM   23  H   UNL     1     -10.770  -1.102 -32.759  1.00  0.00     0.188 HD
HETATM   24  C   UNL     1      -9.414   0.386 -31.998  1.00  0.00     0.120 A 
BRANCH  20  25
HETATM   25  C   UNL     1     -11.036   3.220 -33.823  1.00  0.00    -0.004 C 
HETATM   26  C   UNL     1     -11.626   4.161 -32.756  1.00  0.00     0.021 C 
HETATM   27  C   UNL     1      -9.927   4.017 -34.559  1.00  0.00     0.021 C 
HETATM   28  C   UNL     1     -12.113   2.879 -34.872  1.00  0.00     0.021 C 
ENDBRANCH  20  25
ENDBRANCH  18  19
ENDBRANCH   1  18
TORSDOF 7
ENDMDL
MODEL 2
REMARK VINA RESULT:      -7.3      3.042      5.588
REMARK  7 active torsions:
REMARK  status: ('A' for Active; 'I' for Inactive)
REMARK    1  A    between atoms: C_2  and  N_3 
REMARK    2  A    between atoms: N_3  and  C_5 
REMARK    3  A    between atoms: N_3  and  C_17 
REMARK    4  A    between atoms: C_5  and  C_6 
REMARK       I    between atoms: C_6  and  N_7 
REMARK    5  A    between atoms: N_7  and  C_8 
REMARK    6  A    between atoms: C_17  and  C_18 
REMARK    7  A    between atoms: C_19  and  C_20 
ROOT
HETATM    1  N   UNL     1      -5.530   3.726 -31.666  1.00  0.00    -0.059 N 
HETATM    2  H   UNL     1      -4.747   3.304 -32.178  1.00  0.00     0.280 HD
ENDROOT
BRANCH   1   3
HETATM    3  C   UNL     1      -5.205   3.639 -30.191  1.00  0.00     0.231 C 
HETATM    4  C   UNL     1      -5.991   4.671 -29.403  1.00  0.00     0.034 C 
ENDBRANCH   1   3
BRANCH   1   5
HETATM    5  C   UNL     1      -6.795   2.964 -32.081  1.00  0.00     0.337 C 
BRANCH   5   6
HETATM    6  C   UNL     1      -6.615   1.446 -32.209  1.00  0.00     0.248 C 
HETATM    7  N   UNL     1      -5.798   1.061 -33.257  1.00  0.00    -0.325 N 
HETATM    8  H   UNL     1      -5.118   1.734 -33.584  1.00  0.00     0.169 HD
HETATM    9  O   UNL     1      -7.143   0.700 -31.388  1.00  0.00    -0.271 OA
BRANCH   7  10
HETATM   10  C   UNL     1      -5.522  -0.284 -33.624  1.00  0.00     0.046 A 
HETATM   11  C   UNL     1      -4.472  -1.039 -33.056  1.00  0.00    -0.035 A 
HETATM   12  C   UNL     1      -3.577  -0.566 -31.941  1.00  0.00     0.050 C 
HETATM   13  C   UNL     1      -4.255  -2.355 -33.507  1.00  0.00     0.009 A 
HETATM   14  C   UNL     1      -5.090  -2.941 -34.450  1.00  0.00     0.001 A 
HETATM   15  C   UNL     1      -6.162  -2.222 -34.961  1.00  0.00     0.009 A 
HETATM   16  C   UNL     1      -6.394  -0.897 -34.559  1.00  0.00    -0.035 A 
HETATM   17  C   UNL     1      -7.560  -0.173 -35.183  1.00  0.00     0.050 C 
ENDBRANCH   7  10
ENDBRANCH   5   6
ENDBRANCH   1   5
BRANCH   1  18
HETATM   18  C   UNL     1      -5.570   5.179 -32.139  1.00  0.00     0.277 C 
BRANCH  18  19
HETATM   19  C   UNL     1      -4.619   5.426 -33.259  1.00  0.00     0.012 A 
HETATM   20  C   UNL     1      -3.393   6.174 -33.261  1.00  0.00     0.071 A 
HETATM   21  N   UNL     1      -2.821   6.124 -34.470  1.00  0.00    -0.178 NA
HETATM   22  N   UNL     1      -3.668   5.447 -35.245  1.00  0.00    -0.288 N 
HETATM   23  H   UNL     1      -3.434   5.335 -36.228  1.00  0.00     0.188 HD
HETATM   24  C   UNL     1      -4.757   4.988 -34.566  1.00  0.00     0.120 A 
BRANCH  20  25
HETATM   25  C   UNL     1      -2.705   6.967 -32.144  1.00  0.00    -0.004 C 
HETATM   26  C   UNL     1      -2.195   6.029 -31.033  1.00  0.00     0.021 C 
HETATM   27  C   UNL     1      -1.473   7.751 -32.669  1.00  0.00     0.021 C 
HETATM   28  C   UNL     1      -3.674   8.006 -31.545  1.00  0.00     0.021 C 
ENDBRANCH  20  25
ENDBRANCH  18  19
ENDBRANCH   1  18
TORSDOF 7
ENDMDL
MODEL 3
REMARK VINA RESULT:      -7.3      3.001      5.796
REMARK  7 active torsions:
REMARK  status: ('A' for Active; 'I' for Inactive)
REMARK    1  A    between atoms: C_2  and  N_3 
REMARK    2  A    between atoms: N_3  and  C_5 
REMARK    3  A    between atoms: N_3  and  C_17 
REMARK    4  A    between atoms: C_5  and  C_6 
REMARK       I    between atoms: C_6  and  N_7 
REMARK    5  A    between atoms: N_7  and  C_8 
REMARK    6  A    between atoms: C_17  and  C_18 
REMARK    7  A    between atoms: C_19  and  C_20 
ROOT
HETATM    1  N   UNL     1      -5.669   3.754 -31.572  1.00  0.00    -0.059 N 
HETATM    2  H   UNL     1      -4.970   3.272 -32.148  1.00  0.00     0.280 HD
ENDROOT
BRANCH   1   3
HETATM    3  C   UNL     1      -5.165   3.741 -30.146  1.00  0.00     0.231 C 
HETATM    4  C   UNL     1      -5.569   5.011 -29.419  1.00  0.00     0.034 C 
ENDBRANCH   1   3
BRANCH   1   5
HETATM    5  C   UNL     1      -6.999   3.018 -31.779  1.00  0.00     0.337 C 
BRANCH   5   6
HETATM    6  C   UNL     1      -6.863   1.516 -32.062  1.00  0.00     0.248 C 
HETATM    7  N   UNL     1      -5.982   1.213 -33.084  1.00  0.00    -0.325 N 
HETATM    8  H   UNL     1      -5.255   1.888 -33.284  1.00  0.00     0.169 HD
HETATM    9  O   UNL     1      -7.478   0.709 -31.370  1.00  0.00    -0.271 OA
BRANCH   7  10
HETATM   10  C   UNL     1      -5.725  -0.095 -33.578  1.00  0.00     0.046 A 
HETATM   11  C   UNL     1      -6.549  -0.736 -34.529  1.00  0.00    -0.035 A 
HETATM   12  C   UNL     1      -7.735  -0.103 -35.206  1.00  0.00     0.050 C 
HETATM   13  C   UNL     1      -6.233  -2.047 -34.935  1.00  0.00     0.009 A 
HETATM   14  C   UNL     1      -5.095  -2.693 -34.465  1.00  0.00     0.001 A 
HETATM   15  C   UNL     1      -4.249  -2.038 -33.580  1.00  0.00     0.009 A 
HETATM   16  C   UNL     1      -4.546  -0.742 -33.129  1.00  0.00    -0.035 A 
HETATM   17  C   UNL     1      -3.594  -0.112 -32.144  1.00  0.00     0.050 C 
ENDBRANCH   7  10
ENDBRANCH   5   6
ENDBRANCH   1   5
BRANCH   1  18
HETATM   18  C   UNL     1      -5.724   5.177 -32.128  1.00  0.00     0.277 C 
BRANCH  18  19
HETATM   19  C   UNL     1      -4.778   5.367 -33.264  1.00  0.00     0.012 A 
HETATM   20  C   UNL     1      -3.542   6.097 -33.305  1.00  0.00     0.071 A 
HETATM   21  N   UNL     1      -2.981   5.992 -34.515  1.00  0.00    -0.178 NA
HETATM   22  N   UNL     1      -3.844   5.298 -35.256  1.00  0.00    -0.288 N 
HETATM   23  H   UNL     1      -3.620   5.145 -36.237  1.00  0.00     0.188 HD
HETATM   24  C   UNL     1      -4.933   4.881 -34.552  1.00  0.00     0.120 A 
BRANCH  20  25
HETATM   25  C   UNL     1      -2.834   6.923 -32.224  1.00  0.00    -0.004 C 
HETATM   26  C   UNL     1      -3.793   7.954 -31.599  1.00  0.00     0.021 C 
HETATM   27  C   UNL     1      -2.318   6.030 -31.065  1.00  0.00     0.021 C 
HETATM   28  C   UNL     1      -1.606   7.644 -32.815  1.00  0.00     0.021 C 
ENDBRANCH  20  25
ENDBRANCH  18  19
ENDBRANCH   1  18
TORSDOF 7
ENDMDL
MODEL 4
REMARK VINA RESULT:      -7.1      1.995      4.207
REMARK  7 active torsions:
REMARK  status: ('A' for Active; 'I' for Inactive)
REMARK    1  A    between atoms: C_2  and  N_3 
REMARK    2  A    between atoms: N_3  and  C_5 
REMARK    3  A    between atoms: N_3  and  C_17 
REMARK    4  A    between atoms: C_5  and  C_6 
REMARK       I    between atoms: C_6  and  N_7 
REMARK    5  A    between atoms: N_7  and  C_8 
REMARK    6  A    between atoms: C_17  and  C_18 
REMARK    7  A    between atoms: C_19  and  C_20 
ROOT
HETATM    1  N   UNL     1      -8.124   1.241 -33.426  1.00  0.00    -0.059 N 
HETATM    2  H   UNL     1      -8.192   0.761 -32.522  1.00  0.00     0.280 HD
ENDROOT
BRANCH   1   3
HETATM    3  C   UNL     1      -9.458   1.087 -34.121  1.00  0.00     0.231 C 
HETATM    4  C   UNL     1     -10.459   0.385 -33.221  1.00  0.00     0.034 C 
ENDBRANCH   1   3
BRANCH   1   5
HETATM    5  C   UNL     1      -6.944   0.611 -34.176  1.00  0.00     0.337 C 
BRANCH   5   6
HETATM    6  C   UNL     1      -6.362  -0.646 -33.515  1.00  0.00     0.248 C 
HETATM    7  N   UNL     1      -5.498  -1.360 -34.326  1.00  0.00    -0.325 N 
HETATM    8  H   UNL     1      -5.034  -0.854 -35.069  1.00  0.00     0.169 HD
HETATM    9  O   UNL     1      -6.645  -0.905 -32.349  1.00  0.00    -0.271 OA
BRANCH   7  10
HETATM   10  C   UNL     1      -4.876  -2.588 -33.972  1.00  0.00     0.046 A 
HETATM   11  C   UNL     1      -3.812  -2.677 -33.048  1.00  0.00    -0.035 A 
HETATM   12  C   UNL     1      -3.260  -1.520 -32.258  1.00  0.00     0.050 C 
HETATM   13  C   UNL     1      -3.238  -3.935 -32.784  1.00  0.00     0.009 A 
HETATM   14  C   UNL     1      -3.739  -5.093 -33.367  1.00  0.00     0.001 A 
HETATM   15  C   UNL     1      -4.828  -5.014 -34.224  1.00  0.00     0.009 A 
HETATM   16  C   UNL     1      -5.410  -3.775 -34.536  1.00  0.00    -0.035 A 
HETATM   17  C   UNL     1      -6.568  -3.772 -35.500  1.00  0.00     0.050 C 
ENDBRANCH   7  10
ENDBRANCH   5   6
ENDBRANCH   1   5
BRANCH   1  18
HETATM   18  C   UNL     1      -7.848   2.703 -33.074  1.00  0.00     0.277 C 
BRANCH  18  19
HETATM   19  C   UNL     1      -7.340   2.854 -31.681  1.00  0.00     0.012 A 
HETATM   20  C   UNL     1      -6.013   3.165 -31.227  1.00  0.00     0.071 A 
HETATM   21  N   UNL     1      -5.986   3.240 -29.891  1.00  0.00    -0.178 NA
HETATM   22  N   UNL     1      -7.213   2.913 -29.484  1.00  0.00    -0.288 N 
HETATM   23  H   UNL     1      -7.390   2.866 -28.484  1.00  0.00     0.188 HD
HETATM   24  C   UNL     1      -8.072   2.688 -30.517  1.00  0.00     0.120 A 
BRANCH  20  25
HETATM   25  C   UNL     1      -4.719   3.404 -32.013  1.00  0.00    -0.004 C 
HETATM   26  C   UNL     1      -4.027   2.071 -32.356  1.00  0.00     0.021 C 
HETATM   27  C   UNL     1      -4.988   4.129 -33.358  1.00  0.00     0.021 C 
HETATM   28  C   UNL     1      -3.757   4.300 -31.207  1.00  0.00     0.021 C 
ENDBRANCH  20  25
ENDBRANCH  18  19
ENDBRANCH   1  18
TORSDOF 7
ENDMDL
MODEL 5
REMARK VINA RESULT:      -7.1      1.359      2.684
REMARK  7 active torsions:
REMARK  status: ('A' for Active; 'I' for Inactive)
REMARK    1  A    between atoms: C_2  and  N_3 
REMARK    2  A    between atoms: N_3  and  C_5 
REMARK    3  A    between atoms: N_3  and  C_17 
REMARK    4  A    between atoms: C_5  and  C_6 
REMARK       I    between atoms: C_6  and  N_7 
REMARK    5  A    between atoms: N_7  and  C_8 
REMARK    6  A    between atoms: C_17  and  C_18 
REMARK    7  A    between atoms: C_19  and  C_20 
ROOT
HETATM    1  N   UNL     1      -6.986   2.622 -31.791  1.00  0.00    -0.059 N 
HETATM    2  H   UNL     1      -7.417   2.118 -32.573  1.00  0.00     0.280 HD
ENDROOT
BRANCH   1   3
HETATM    3  C   UNL     1      -6.698   4.030 -32.265  1.00  0.00     0.231 C 
HETATM    4  C   UNL     1      -6.298   4.036 -33.729  1.00  0.00     0.034 C 
ENDBRANCH   1   3
BRANCH   1   5
HETATM    5  C   UNL     1      -5.740   1.826 -31.381  1.00  0.00     0.337 C 
BRANCH   5   6
HETATM    6  C   UNL     1      -5.795   0.331 -31.721  1.00  0.00     0.248 C 
HETATM    7  N   UNL     1      -5.122  -0.008 -32.881  1.00  0.00    -0.325 N 
HETATM    8  H   UNL     1      -4.376   0.606 -33.180  1.00  0.00     0.169 HD
HETATM    9  O   UNL     1      -6.365  -0.446 -30.959  1.00  0.00    -0.271 OA
BRANCH   7  10
HETATM   10  C   UNL     1      -5.074  -1.313 -33.444  1.00  0.00     0.046 A 
HETATM   11  C   UNL     1      -5.985  -1.765 -34.424  1.00  0.00    -0.035 A 
HETATM   12  C   UNL     1      -7.053  -0.917 -35.062  1.00  0.00     0.050 C 
HETATM   13  C   UNL     1      -5.879  -3.086 -34.899  1.00  0.00     0.009 A 
HETATM   14  C   UNL     1      -4.860  -3.927 -34.469  1.00  0.00     0.001 A 
HETATM   15  C   UNL     1      -3.924  -3.461 -33.554  1.00  0.00     0.009 A 
HETATM   16  C   UNL     1      -4.014  -2.160 -33.034  1.00  0.00    -0.035 A 
HETATM   17  C   UNL     1      -2.978  -1.742 -32.022  1.00  0.00     0.050 C 
ENDBRANCH   7  10
ENDBRANCH   5   6
ENDBRANCH   1   5
BRANCH   1  18
HETATM   18  C   UNL     1      -8.044   2.615 -30.688  1.00  0.00     0.277 C 
BRANCH  18  19
HETATM   19  C   UNL     1      -9.339   3.185 -31.155  1.00  0.00     0.012 A 
HETATM   20  C   UNL     1     -10.226   2.707 -32.178  1.00  0.00     0.071 A 
HETATM   21  N   UNL     1     -11.304   3.496 -32.264  1.00  0.00    -0.178 NA
HETATM   22  N   UNL     1     -11.097   4.488 -31.399  1.00  0.00    -0.288 N 
HETATM   23  H   UNL     1     -11.791   5.229 -31.344  1.00  0.00     0.188 HD
HETATM   24  C   UNL     1      -9.941   4.343 -30.692  1.00  0.00     0.120 A 
BRANCH  20  25
HETATM   25  C   UNL     1     -10.108   1.501 -33.118  1.00  0.00    -0.004 C 
HETATM   26  C   UNL     1      -9.543   0.275 -32.376  1.00  0.00     0.021 C 
HETATM   27  C   UNL     1     -11.487   1.082 -33.691  1.00  0.00     0.021 C 
HETATM   28  C   UNL     1      -9.208   1.843 -34.323  1.00  0.00     0.021 C 
ENDBRANCH  20  25
ENDBRANCH  18  19
ENDBRANCH   1  18
TORSDOF 7
ENDMDL
MODEL 6
REMARK VINA RESULT:      -7.1      1.527      2.097
REMARK  7 active torsions:
REMARK  status: ('A' for Active; 'I' for Inactive)
REMARK    1  A    between atoms: C_2  and  N_3 
REMARK    2  A    between atoms: N_3  and  C_5 
REMARK    3  A    between atoms: N_3  and  C_17 
REMARK    4  A    between atoms: C_5  and  C_6 
REMARK       I    between atoms: C_6  and  N_7 
REMARK    5  A    between atoms: N_7  and  C_8 
REMARK    6  A    between atoms: C_17  and  C_18 
REMARK    7  A    between atoms: C_19  and  C_20 
ROOT
HETATM    1  N   UNL     1      -6.374   2.240 -32.028  1.00  0.00    -0.059 N 
HETATM    2  H   UNL     1      -6.863   1.837 -32.834  1.00  0.00     0.280 HD
ENDROOT
BRANCH   1   3
HETATM    3  C   UNL     1      -6.070   3.684 -32.361  1.00  0.00     0.231 C 
HETATM    4  C   UNL     1      -6.242   3.944 -33.846  1.00  0.00     0.034 C 
ENDBRANCH   1   3
BRANCH   1   5
HETATM    5  C   UNL     1      -5.134   1.373 -31.780  1.00  0.00     0.337 C 
BRANCH   5   6
HETATM    6  C   UNL     1      -5.347  -0.129 -32.006  1.00  0.00     0.248 C 
HETATM    7  N   UNL     1      -4.676  -0.634 -33.106  1.00  0.00    -0.325 N 
HETATM    8  H   UNL     1      -3.854  -0.133 -33.417  1.00  0.00     0.169 HD
HETATM    9  O   UNL     1      -6.028  -0.773 -31.212  1.00  0.00    -0.271 OA
BRANCH   7  10
HETATM   10  C   UNL     1      -4.757  -1.977 -33.564  1.00  0.00     0.046 A 
HETATM   11  C   UNL     1      -3.926  -3.010 -33.077  1.00  0.00    -0.035 A 
HETATM   12  C   UNL     1      -2.924  -2.856 -31.963  1.00  0.00     0.050 C 
HETATM   13  C   UNL     1      -4.058  -4.305 -33.615  1.00  0.00     0.009 A 
HETATM   14  C   UNL     1      -5.028  -4.595 -34.567  1.00  0.00     0.001 A 
HETATM   15  C   UNL     1      -5.888  -3.594 -34.998  1.00  0.00     0.009 A 
HETATM   16  C   UNL     1      -5.770  -2.284 -34.507  1.00  0.00    -0.035 A 
HETATM   17  C   UNL     1      -6.721  -1.248 -35.049  1.00  0.00     0.050 C 
ENDBRANCH   7  10
ENDBRANCH   5   6
ENDBRANCH   1   5
BRANCH   1  18
HETATM   18  C   UNL     1      -7.370   2.137 -30.872  1.00  0.00     0.277 C 
BRANCH  18  19
HETATM   19  C   UNL     1      -8.644   2.852 -31.169  1.00  0.00     0.012 A 
HETATM   20  C   UNL     1      -9.677   2.514 -32.108  1.00  0.00     0.071 A 
HETATM   21  N   UNL     1     -10.673   3.406 -32.041  1.00  0.00    -0.178 NA
HETATM   22  N   UNL     1     -10.278   4.327 -31.163  1.00  0.00    -0.288 N 
HETATM   23  H   UNL     1     -10.884   5.127 -31.000  1.00  0.00     0.188 HD
HETATM   24  C   UNL     1      -9.074   4.036 -30.595  1.00  0.00     0.120 A 
BRANCH  20  25
HETATM   25  C   UNL     1      -9.782   1.354 -33.104  1.00  0.00    -0.004 C 
HETATM   26  C   UNL     1     -11.221   1.207 -33.633  1.00  0.00     0.021 C 
HETATM   27  C   UNL     1      -8.870   1.574 -34.340  1.00  0.00     0.021 C 
HETATM   28  C   UNL     1      -9.331   0.035 -32.445  1.00  0.00     0.021 C 
ENDBRANCH  20  25
ENDBRANCH  18  19
ENDBRANCH   1  18
TORSDOF 7
ENDMDL
MODEL 7
REMARK VINA RESULT:      -7.0      2.439      5.372
REMARK  7 active torsions:
REMARK  status: ('A' for Active; 'I' for Inactive)
REMARK    1  A    between atoms: C_2  and  N_3 
REMARK    2  A    between atoms: N_3  and  C_5 
REMARK    3  A    between atoms: N_3  and  C_17 
REMARK    4  A    between atoms: C_5  and  C_6 
REMARK       I    between atoms: C_6  and  N_7 
REMARK    5  A    between atoms: N_7  and  C_8 
REMARK    6  A    between atoms: C_17  and  C_18 
REMARK    7  A    between atoms: C_19  and  C_20 
ROOT
HETATM    1  N   UNL     1      -6.162   2.906 -31.518  1.00  0.00    -0.059 N 
HETATM    2  H   UNL     1      -6.337   3.611 -30.795  1.00  0.00     0.280 HD
ENDROOT
BRANCH   1   3
HETATM    3  C   UNL     1      -7.505   2.484 -32.072  1.00  0.00     0.231 C 
HETATM    4  C   UNL     1      -7.736   3.085 -33.447  1.00  0.00     0.034 C 
ENDBRANCH   1   3
BRANCH   1   5
HETATM    5  C   UNL     1      -5.369   1.774 -30.853  1.00  0.00     0.337 C 
BRANCH   5   6
HETATM    6  C   UNL     1      -5.644   0.377 -31.426  1.00  0.00     0.248 C 
HETATM    7  N   UNL     1      -4.919   0.083 -32.566  1.00  0.00    -0.325 N 
HETATM    8  H   UNL     1      -4.050   0.582 -32.704  1.00  0.00     0.169 HD
HETATM    9  O   UNL     1      -6.418  -0.378 -30.842  1.00  0.00    -0.271 OA
BRANCH   7  10
HETATM   10  C   UNL     1      -5.036  -1.117 -33.320  1.00  0.00     0.046 A 
HETATM   11  C   UNL     1      -5.983  -1.289 -34.354  1.00  0.00    -0.035 A 
HETATM   12  C   UNL     1      -6.916  -0.219 -34.853  1.00  0.00     0.050 C 
HETATM   13  C   UNL     1      -6.046  -2.526 -35.023  1.00  0.00     0.009 A 
HETATM   14  C   UNL     1      -5.157  -3.553 -34.728  1.00  0.00     0.001 A 
HETATM   15  C   UNL     1      -4.183  -3.360 -33.757  1.00  0.00     0.009 A 
HETATM   16  C   UNL     1      -4.107  -2.152 -33.046  1.00  0.00    -0.035 A 
HETATM   17  C   UNL     1      -3.042  -2.034 -31.986  1.00  0.00     0.050 C 
ENDBRANCH   7  10
ENDBRANCH   5   6
ENDBRANCH   1   5
BRANCH   1  18
HETATM   18  C   UNL     1      -5.329   3.627 -32.577  1.00  0.00     0.277 C 
BRANCH  18  19
HETATM   19  C   UNL     1      -4.969   5.011 -32.155  1.00  0.00     0.012 A 
HETATM   20  C   UNL     1      -3.963   5.889 -32.683  1.00  0.00     0.071 A 
HETATM   21  N   UNL     1      -3.988   7.062 -32.039  1.00  0.00    -0.178 NA
HETATM   22  N   UNL     1      -4.906   6.932 -31.082  1.00  0.00    -0.288 N 
HETATM   23  H   UNL     1      -5.048   7.711 -30.444  1.00  0.00     0.188 HD
HETATM   24  C   UNL     1      -5.540   5.727 -31.116  1.00  0.00     0.120 A 
BRANCH  20  25
HETATM   25  C   UNL     1      -2.939   5.675 -33.803  1.00  0.00    -0.004 C 
HETATM   26  C   UNL     1      -2.066   6.930 -34.002  1.00  0.00     0.021 C 
HETATM   27  C   UNL     1      -1.974   4.504 -33.484  1.00  0.00     0.021 C 
HETATM   28  C   UNL     1      -3.651   5.321 -35.124  1.00  0.00     0.021 C 
ENDBRANCH  20  25
ENDBRANCH  18  19
ENDBRANCH   1  18
TORSDOF 7
ENDMDL
MODEL 8
REMARK VINA RESULT:      -7.0      1.898      4.305
REMARK  7 active torsions:
REMARK  status: ('A' for Active; 'I' for Inactive)
REMARK    1  A    between atoms: C_2  and  N_3 
REMARK    2  A    between atoms: N_3  and  C_5 
REMARK    3  A    between atoms: N_3  and  C_17 
REMARK    4  A    between atoms: C_5  and  C_6 
REMARK       I    between atoms: C_6  and  N_7 
REMARK    5  A    between atoms: N_7  and  C_8 
REMARK    6  A    between atoms: C_17  and  C_18 
REMARK    7  A    between atoms: C_19  and  C_20 
ROOT
HETATM    1  N   UNL     1      -8.575   1.064 -34.003  1.00  0.00    -0.059 N 
HETATM    2  H   UNL     1      -8.446   0.721 -33.045  1.00  0.00     0.280 HD
ENDROOT
BRANCH   1   3
HETATM    3  C   UNL     1     -10.055   0.999 -34.311  1.00  0.00     0.231 C 
HETATM    4  C   UNL     1     -10.816   0.348 -33.171  1.00  0.00     0.034 C 
ENDBRANCH   1   3
BRANCH   1   5
HETATM    5  C   UNL     1      -7.701   0.189 -34.910  1.00  0.00     0.337 C 
BRANCH   5   6
HETATM    6  C   UNL     1      -7.158  -1.082 -34.243  1.00  0.00     0.248 C 
HETATM    7  N   UNL     1      -5.925  -1.487 -34.724  1.00  0.00    -0.325 N 
HETATM    8  H   UNL     1      -5.336  -0.780 -35.143  1.00  0.00     0.169 HD
HETATM    9  O   UNL     1      -7.794  -1.611 -33.335  1.00  0.00    -0.271 OA
BRANCH   7  10
HETATM   10  C   UNL     1      -5.238  -2.662 -34.315  1.00  0.00     0.046 A 
HETATM   11  C   UNL     1      -5.583  -3.955 -34.767  1.00  0.00    -0.035 A 
HETATM   12  C   UNL     1      -6.644  -4.254 -35.793  1.00  0.00     0.050 C 
HETATM   13  C   UNL     1      -4.864  -5.064 -34.281  1.00  0.00     0.009 A 
HETATM   14  C   UNL     1      -3.787  -4.903 -33.417  1.00  0.00     0.001 A 
HETATM   15  C   UNL     1      -3.406  -3.627 -33.024  1.00  0.00     0.009 A 
HETATM   16  C   UNL     1      -4.116  -2.498 -33.463  1.00  0.00    -0.035 A 
HETATM   17  C   UNL     1      -3.659  -1.151 -32.967  1.00  0.00     0.050 C 
ENDBRANCH   7  10
ENDBRANCH   5   6
ENDBRANCH   1   5
BRANCH   1  18
HETATM   18  C   UNL     1      -8.079   2.510 -33.973  1.00  0.00     0.277 C 
BRANCH  18  19
HETATM   19  C   UNL     1      -8.193   3.109 -32.613  1.00  0.00     0.012 A 
HETATM   20  C   UNL     1      -7.325   2.960 -31.479  1.00  0.00     0.071 A 
HETATM   21  N   UNL     1      -7.771   3.696 -30.454  1.00  0.00    -0.178 NA
HETATM   22  N   UNL     1      -8.917   4.236 -30.866  1.00  0.00    -0.288 N 
HETATM   23  H   UNL     1      -9.445   4.804 -30.207  1.00  0.00     0.188 HD
HETATM   24  C   UNL     1      -9.211   3.931 -32.161  1.00  0.00     0.120 A 
BRANCH  20  25
HETATM   25  C   UNL     1      -6.049   2.129 -31.300  1.00  0.00    -0.004 C 
HETATM   26  C   UNL     1      -6.386   0.643 -31.068  1.00  0.00     0.021 C 
HETATM   27  C   UNL     1      -5.141   2.192 -32.556  1.00  0.00     0.021 C 
HETATM   28  C   UNL     1      -5.217   2.666 -30.118  1.00  0.00     0.021 C 
ENDBRANCH  20  25
ENDBRANCH  18  19
ENDBRANCH   1  18
TORSDOF 7
ENDMDL
MODEL 9
REMARK VINA RESULT:      -7.0      1.961      4.062
REMARK  7 active torsions:
REMARK  status: ('A' for Active; 'I' for Inactive)
REMARK    1  A    between atoms: C_2  and  N_3 
REMARK    2  A    between atoms: N_3  and  C_5 
REMARK    3  A    between atoms: N_3  and  C_17 
REMARK    4  A    between atoms: C_5  and  C_6 
REMARK       I    between atoms: C_6  and  N_7 
REMARK    5  A    between atoms: N_7  and  C_8 
REMARK    6  A    between atoms: C_17  and  C_18 
REMARK    7  A    between atoms: C_19  and  C_20 
ROOT
HETATM    1  N   UNL     1      -8.053   1.429 -33.847  1.00  0.00    -0.059 N 
HETATM    2  H   UNL     1      -8.025   1.063 -32.889  1.00  0.00     0.280 HD
ENDROOT
BRANCH   1   3
HETATM    3  C   UNL     1      -9.483   1.828 -34.137  1.00  0.00     0.231 C 
HETATM    4  C   UNL     1     -10.456   0.850 -33.505  1.00  0.00     0.034 C 
ENDBRANCH   1   3
BRANCH   1   5
HETATM    5  C   UNL     1      -7.507   0.324 -34.761  1.00  0.00     0.337 C 
BRANCH   5   6
HETATM    6  C   UNL     1      -6.880  -0.866 -34.023  1.00  0.00     0.248 C 
HETATM    7  N   UNL     1      -5.908  -1.530 -34.748  1.00  0.00    -0.325 N 
HETATM    8  H   UNL     1      -5.432  -1.008 -35.472  1.00  0.00     0.169 HD
HETATM    9  O   UNL     1      -7.226  -1.118 -32.871  1.00  0.00    -0.271 OA
BRANCH   7  10
HETATM   10  C   UNL     1      -5.221  -2.697 -34.314  1.00  0.00     0.046 A 
HETATM   11  C   UNL     1      -5.573  -4.000 -34.731  1.00  0.00    -0.035 A 
HETATM   12  C   UNL     1      -6.641  -4.320 -35.744  1.00  0.00     0.050 C 
HETATM   13  C   UNL     1      -4.855  -5.098 -34.222  1.00  0.00     0.009 A 
HETATM   14  C   UNL     1      -3.772  -4.919 -33.369  1.00  0.00     0.001 A 
HETATM   15  C   UNL     1      -3.385  -3.635 -33.010  1.00  0.00     0.009 A 
HETATM   16  C   UNL     1      -4.094  -2.515 -33.474  1.00  0.00    -0.035 A 
HETATM   17  C   UNL     1      -3.630  -1.157 -33.013  1.00  0.00     0.050 C 
ENDBRANCH   7  10
ENDBRANCH   5   6
ENDBRANCH   1   5
BRANCH   1  18
HETATM   18  C   UNL     1      -7.131   2.648 -33.829  1.00  0.00     0.277 C 
BRANCH  18  19
HETATM   19  C   UNL     1      -6.252   2.663 -32.625  1.00  0.00     0.012 A 
HETATM   20  C   UNL     1      -6.507   3.207 -31.321  1.00  0.00     0.071 A 
HETATM   21  N   UNL     1      -5.465   2.983 -30.512  1.00  0.00    -0.178 NA
HETATM   22  N   UNL     1      -4.539   2.395 -31.269  1.00  0.00    -0.288 N 
HETATM   23  H   UNL     1      -3.639   2.179 -30.846  1.00  0.00     0.188 HD
HETATM   24  C   UNL     1      -4.964   2.162 -32.543  1.00  0.00     0.120 A 
BRANCH  20  25
HETATM   25  C   UNL     1      -7.727   3.958 -30.773  1.00  0.00    -0.004 C 
HETATM   26  C   UNL     1      -7.410   4.609 -29.412  1.00  0.00     0.021 C 
HETATM   27  C   UNL     1      -8.173   5.100 -31.723  1.00  0.00     0.021 C 
HETATM   28  C   UNL     1      -8.928   3.002 -30.627  1.00  0.00     0.021 C 
ENDBRANCH  20  25
ENDBRANCH  18  19
ENDBRANCH   1  18
TORSDOF 7
ENDMDL
MODEL 10
REMARK VINA RESULT:      -6.8      4.543      7.574
REMARK  7 active torsions:
REMARK  status: ('A' for Active; 'I' for Inactive)
REMARK    1  A    between atoms: C_2  and  N_3 
REMARK    2  A    between atoms: N_3  and  C_5 
REMARK    3  A    between atoms: N_3  and  C_17 
REMARK    4  A    between atoms: C_5  and  C_6 
REMARK       I    between atoms: C_6  and  N_7 
REMARK    5  A    between atoms: N_7  and  C_8 
REMARK    6  A    between atoms: C_17  and  C_18 
REMARK    7  A    between atoms: C_19  and  C_20 
ROOT
HETATM    1  N   UNL     1      -4.918   3.709 -33.152  1.00  0.00    -0.059 N 
HETATM    2  H   UNL     1      -3.988   3.288 -33.258  1.00  0.00     0.280 HD
ENDROOT
BRANCH   1   3
HETATM    3  C   UNL     1      -5.232   4.439 -34.440  1.00  0.00     0.231 C 
HETATM    4  C   UNL     1      -4.003   5.154 -34.970  1.00  0.00     0.034 C 
ENDBRANCH   1   3
BRANCH   1   5
HETATM    5  C   UNL     1      -4.860   4.611 -31.913  1.00  0.00     0.337 C 
BRANCH   5   6
HETATM    6  C   UNL     1      -3.453   4.820 -31.338  1.00  0.00     0.248 C 
HETATM    7  N   UNL     1      -3.171   6.132 -31.002  1.00  0.00    -0.325 N 
HETATM    8  H   UNL     1      -3.955   6.735 -30.793  1.00  0.00     0.169 HD
HETATM    9  O   UNL     1      -2.713   3.853 -31.174  1.00  0.00    -0.271 OA
BRANCH   7  10
HETATM   10  C   UNL     1      -1.921   6.596 -30.508  1.00  0.00     0.046 A 
HETATM   11  C   UNL     1      -0.750   6.646 -31.296  1.00  0.00    -0.035 A 
HETATM   12  C   UNL     1      -0.685   6.310 -32.763  1.00  0.00     0.050 C 
HETATM   13  C   UNL     1       0.450   7.091 -30.711  1.00  0.00     0.009 A 
HETATM   14  C   UNL     1       0.488   7.538 -29.395  1.00  0.00     0.001 A 
HETATM   15  C   UNL     1      -0.676   7.551 -28.640  1.00  0.00     0.009 A 
HETATM   16  C   UNL     1      -1.887   7.087 -29.178  1.00  0.00    -0.035 A 
HETATM   17  C   UNL     1      -3.100   7.104 -28.283  1.00  0.00     0.050 C 
ENDBRANCH   7  10
ENDBRANCH   5   6
ENDBRANCH   1   5
BRANCH   1  18
HETATM   18  C   UNL     1      -5.863   2.526 -32.941  1.00  0.00     0.277 C 
BRANCH  18  19
HETATM   19  C   UNL     1      -5.140   1.224 -32.975  1.00  0.00     0.012 A 
HETATM   20  C   UNL     1      -5.566  -0.039 -33.511  1.00  0.00     0.071 A 
HETATM   21  N   UNL     1      -4.600  -0.954 -33.366  1.00  0.00    -0.178 NA
HETATM   22  N   UNL     1      -3.622  -0.347 -32.696  1.00  0.00    -0.288 N 
HETATM   23  H   UNL     1      -2.803  -0.893 -32.442  1.00  0.00     0.188 HD
HETATM   24  C   UNL     1      -3.884   0.967 -32.449  1.00  0.00     0.120 A 
BRANCH  20  25
HETATM   25  C   UNL     1      -6.886  -0.446 -34.177  1.00  0.00    -0.004 C 
HETATM   26  C   UNL     1      -7.143   0.385 -35.449  1.00  0.00     0.021 C 
HETATM   27  C   UNL     1      -6.876  -1.936 -34.609  1.00  0.00     0.021 C 
HETATM   28  C   UNL     1      -8.061  -0.273 -33.194  1.00  0.00     0.021 C 
ENDBRANCH  20  25
ENDBRANCH  18  19
ENDBRANCH   1  18
TORSDOF 7
ENDMDL
