MODEL 1
REMARK VINA RESULT:      -7.6      0.000      0.000
REMARK  7 active torsions:
REMARK  status: ('A' for Active; 'I' for Inactive)
REMARK    1  A    between atoms: C_2  and  N_3 
REMARK    2  A    between atoms: C_2  and  C_17 
REMARK       I    between atoms: N_3  and  C_4 
REMARK    3  A    between atoms: C_4  and  C_5 
REMARK    4  A    between atoms: C_6  and  N_7 
REMARK    5  A    between atoms: C_17  and  O_18 
REMARK    6  A    between atoms: C_17  and  C_19 
REMARK    7  A    between atoms: C_22  and  O_23 
ROOT
HETATM    1  N   UNL     1      -7.687  -0.696 -32.960  1.00  0.00    -0.350 N 
HETATM    2  C   UNL     1      -7.137  -1.019 -34.185  1.00  0.00     0.255 C 
HETATM    3  O   UNL     1      -7.250  -0.373 -35.216  1.00  0.00    -0.268 OA
HETATM    4  H   UNL     1      -7.514  -1.308 -32.173  1.00  0.00     0.163 HD
ENDROOT
BRANCH   1   5
HETATM    5  C   UNL     1      -8.591   0.447 -32.733  1.00  0.00     0.114 C 
HETATM    6  C   UNL     1     -10.050   0.074 -33.017  1.00  0.00     0.035 C 
BRANCH   5   7
HETATM    7  C   UNL     1      -8.353   1.137 -31.351  1.00  0.00     0.173 C 
BRANCH   7   8
HETATM    8  O   UNL     1      -9.478   1.900 -30.922  1.00  0.00    -0.389 OA
HETATM    9  H   UNL     1     -10.154   1.853 -31.617  1.00  0.00     0.210 HD
ENDBRANCH   7   8
BRANCH   7  10
HETATM   10  C   UNL     1      -7.102   1.997 -31.314  1.00  0.00    -0.028 A 
HETATM   11  C   UNL     1      -6.513   2.448 -32.502  1.00  0.00     0.012 A 
HETATM   12  C   UNL     1      -5.377   3.261 -32.464  1.00  0.00     0.037 A 
HETATM   13  C   UNL     1      -4.810   3.644 -31.246  1.00  0.00     0.068 A 
HETATM   14  C   UNL     1      -5.384   3.195 -30.059  1.00  0.00     0.037 A 
HETATM   15  C   UNL     1      -6.520   2.379 -30.094  1.00  0.00     0.012 A 
BRANCH  13  16
HETATM   16  O   UNL     1      -3.707   4.446 -31.352  1.00  0.00    -0.356 OA
HETATM   17  C   UNL     1      -2.790   4.138 -32.394  1.00  0.00     0.210 C 
ENDBRANCH  13  16
ENDBRANCH   7  10
ENDBRANCH   5   7
ENDBRANCH   1   5
BRANCH   2  18
HETATM   18  C   UNL     1      -6.330  -2.250 -34.203  1.00  0.00     0.079 A 
HETATM   19  C   UNL     1      -5.020  -2.343 -33.726  1.00  0.00     0.165 A 
HETATM   20  N   UNL     1      -4.273  -3.476 -33.937  1.00  0.00    -0.241 NA
HETATM   21  C   UNL     1      -4.826  -4.509 -34.603  1.00  0.00     0.119 A 
HETATM   22  C   UNL     1      -6.116  -4.496 -35.092  1.00  0.00     0.020 A 
HETATM   23  C   UNL     1      -6.873  -3.347 -34.897  1.00  0.00     0.022 A 
BRANCH  19  24
HETATM   24  N   UNL     1      -4.384  -1.311 -32.948  1.00  0.00    -0.226 N 
HETATM   25  N   UNL     1      -4.771  -1.100 -31.650  1.00  0.00    -0.179 NA
HETATM   26  C   UNL     1      -3.994  -0.111 -31.212  1.00  0.00     0.141 A 
HETATM   27  C   UNL     1      -3.159   0.398 -32.211  1.00  0.00     0.040 A 
HETATM   28  C   UNL     1      -3.456  -0.355 -33.322  1.00  0.00     0.122 A 
ENDBRANCH  19  24
ENDBRANCH   2  18
TORSDOF 7
ENDMDL
MODEL 2
REMARK VINA RESULT:      -7.2      3.165      7.148
REMARK  7 active torsions:
REMARK  status: ('A' for Active; 'I' for Inactive)
REMARK    1  A    between atoms: C_2  and  N_3 
REMARK    2  A    between atoms: C_2  and  C_17 
REMARK       I    between atoms: N_3  and  C_4 
REMARK    3  A    between atoms: C_4  and  C_5 
REMARK    4  A    between atoms: C_6  and  N_7 
REMARK    5  A    between atoms: C_17  and  O_18 
REMARK    6  A    between atoms: C_17  and  C_19 
REMARK    7  A    between atoms: C_22  and  O_23 
ROOT
HETATM    1  N   UNL     1      -4.911   2.730 -32.859  1.00  0.00    -0.350 N 
HETATM    2  C   UNL     1      -3.693   3.140 -32.355  1.00  0.00     0.255 C 
HETATM    3  O   UNL     1      -3.021   2.543 -31.527  1.00  0.00    -0.268 OA
HETATM    4  H   UNL     1      -5.369   3.308 -33.553  1.00  0.00     0.163 HD
ENDROOT
BRANCH   1   5
HETATM    5  C   UNL     1      -5.644   1.539 -32.392  1.00  0.00     0.114 C 
HETATM    6  C   UNL     1      -6.449   1.836 -31.123  1.00  0.00     0.035 C 
BRANCH   5   7
HETATM    7  C   UNL     1      -6.460   0.848 -33.532  1.00  0.00     0.173 C 
BRANCH   7   8
HETATM    8  O   UNL     1      -7.863   0.855 -33.280  1.00  0.00    -0.389 OA
HETATM    9  H   UNL     1      -8.138  -0.058 -33.096  1.00  0.00     0.210 HD
ENDBRANCH   7   8
BRANCH   7  10
HETATM   10  C   UNL     1      -5.998  -0.568 -33.832  1.00  0.00    -0.028 A 
HETATM   11  C   UNL     1      -4.703  -0.979 -33.496  1.00  0.00     0.012 A 
HETATM   12  C   UNL     1      -4.289  -2.290 -33.750  1.00  0.00     0.037 A 
HETATM   13  C   UNL     1      -5.156  -3.214 -34.337  1.00  0.00     0.068 A 
HETATM   14  C   UNL     1      -6.445  -2.813 -34.681  1.00  0.00     0.037 A 
HETATM   15  C   UNL     1      -6.861  -1.501 -34.430  1.00  0.00     0.012 A 
BRANCH  13  16
HETATM   16  O   UNL     1      -4.627  -4.462 -34.522  1.00  0.00    -0.356 OA
HETATM   17  C   UNL     1      -3.530  -4.820 -33.691  1.00  0.00     0.210 C 
ENDBRANCH  13  16
ENDBRANCH   7  10
ENDBRANCH   5   7
ENDBRANCH   1   5
BRANCH   2  18
HETATM   18  C   UNL     1      -3.180   4.405 -32.908  1.00  0.00     0.079 A 
HETATM   19  C   UNL     1      -3.985   5.438 -33.395  1.00  0.00     0.165 A 
HETATM   20  N   UNL     1      -3.432   6.509 -34.054  1.00  0.00    -0.241 NA
HETATM   21  C   UNL     1      -2.095   6.558 -34.215  1.00  0.00     0.119 A 
HETATM   22  C   UNL     1      -1.236   5.584 -33.750  1.00  0.00     0.020 A 
HETATM   23  C   UNL     1      -1.788   4.488 -33.097  1.00  0.00     0.022 A 
BRANCH  19  24
HETATM   24  N   UNL     1      -5.411   5.490 -33.202  1.00  0.00    -0.226 N 
HETATM   25  N   UNL     1      -6.248   4.990 -34.164  1.00  0.00    -0.179 NA
HETATM   26  C   UNL     1      -7.477   5.169 -33.684  1.00  0.00     0.141 A 
HETATM   27  C   UNL     1      -7.482   5.853 -32.464  1.00  0.00     0.040 A 
HETATM   28  C   UNL     1      -6.154   6.085 -32.197  1.00  0.00     0.122 A 
ENDBRANCH  19  24
ENDBRANCH   2  18
TORSDOF 7
ENDMDL
MODEL 3
REMARK VINA RESULT:      -7.1      3.357      7.281
REMARK  7 active torsions:
REMARK  status: ('A' for Active; 'I' for Inactive)
REMARK    1  A    between atoms: C_2  and  N_3 
REMARK    2  A    between atoms: C_2  and  C_17 
REMARK       I    between atoms: N_3  and  C_4 
REMARK    3  A    between atoms: C_4  and  C_5 
REMARK    4  A    between atoms: C_6  and  N_7 
REMARK    5  A    between atoms: C_17  and  O_18 
REMARK    6  A    between atoms: C_17  and  C_19 
REMARK    7  A    between atoms: C_22  and  O_23 
ROOT
HETATM    1  N   UNL     1      -4.676   3.106 -32.380  1.00  0.00    -0.350 N 
HETATM    2  C   UNL     1      -3.374   3.400 -32.027  1.00  0.00     0.255 C 
HETATM    3  O   UNL     1      -2.649   2.716 -31.320  1.00  0.00    -0.268 OA
HETATM    4  H   UNL     1      -5.173   3.749 -32.983  1.00  0.00     0.163 HD
ENDROOT
BRANCH   1   5
HETATM    5  C   UNL     1      -5.433   1.950 -31.866  1.00  0.00     0.114 C 
HETATM    6  C   UNL     1      -6.016   2.232 -30.477  1.00  0.00     0.035 C 
BRANCH   5   7
HETATM    7  C   UNL     1      -6.463   1.395 -32.902  1.00  0.00     0.173 C 
BRANCH   7   8
HETATM    8  O   UNL     1      -7.800   1.417 -32.409  1.00  0.00    -0.389 OA
HETATM    9  H   UNL     1      -8.229   0.587 -32.673  1.00  0.00     0.210 HD
ENDBRANCH   7   8
BRANCH   7  10
HETATM   10  C   UNL     1      -6.122   0.002 -33.405  1.00  0.00    -0.028 A 
HETATM   11  C   UNL     1      -7.100  -0.794 -34.012  1.00  0.00     0.012 A 
HETATM   12  C   UNL     1      -6.777  -2.065 -34.496  1.00  0.00     0.037 A 
HETATM   13  C   UNL     1      -5.477  -2.563 -34.390  1.00  0.00     0.068 A 
HETATM   14  C   UNL     1      -4.498  -1.781 -33.782  1.00  0.00     0.037 A 
HETATM   15  C   UNL     1      -4.818  -0.510 -33.294  1.00  0.00     0.012 A 
BRANCH  13  16
HETATM   16  O   UNL     1      -5.296  -3.815 -34.911  1.00  0.00    -0.356 OA
HETATM   17  C   UNL     1      -6.465  -4.505 -35.335  1.00  0.00     0.210 C 
ENDBRANCH  13  16
ENDBRANCH   7  10
ENDBRANCH   5   7
ENDBRANCH   1   5
BRANCH   2  18
HETATM   18  C   UNL     1      -2.839   4.650 -32.593  1.00  0.00     0.079 A 
HETATM   19  C   UNL     1      -3.172   5.929 -32.139  1.00  0.00     0.165 A 
HETATM   20  N   UNL     1      -2.770   7.047 -32.829  1.00  0.00    -0.241 NA
HETATM   21  C   UNL     1      -2.036   6.895 -33.949  1.00  0.00     0.119 A 
HETATM   22  C   UNL     1      -1.657   5.667 -34.450  1.00  0.00     0.020 A 
HETATM   23  C   UNL     1      -2.074   4.530 -33.768  1.00  0.00     0.022 A 
BRANCH  19  24
HETATM   24  N   UNL     1      -3.894   6.174 -30.917  1.00  0.00    -0.226 N 
HETATM   25  N   UNL     1      -5.235   5.900 -30.851  1.00  0.00    -0.179 NA
HETATM   26  C   UNL     1      -5.592   6.212 -29.607  1.00  0.00     0.141 A 
HETATM   27  C   UNL     1      -4.541   6.765 -28.869  1.00  0.00     0.040 A 
HETATM   28  C   UNL     1      -3.478   6.770 -29.740  1.00  0.00     0.122 A 
ENDBRANCH  19  24
ENDBRANCH   2  18
TORSDOF 7
ENDMDL
MODEL 4
REMARK VINA RESULT:      -7.0      2.693      6.774
REMARK  7 active torsions:
REMARK  status: ('A' for Active; 'I' for Inactive)
REMARK    1  A    between atoms: C_2  and  N_3 
REMARK    2  A    between atoms: C_2  and  C_17 
REMARK       I    between atoms: N_3  and  C_4 
REMARK    3  A    between atoms: C_4  and  C_5 
REMARK    4  A    between atoms: C_6  and  N_7 
REMARK    5  A    between atoms: C_17  and  O_18 
REMARK    6  A    between atoms: C_17  and  C_19 
REMARK    7  A    between atoms: C_22  and  O_23 
ROOT
HETATM    1  N   UNL     1      -4.447   1.902 -31.794  1.00  0.00    -0.350 N 
HETATM    2  C   UNL     1      -3.464   2.870 -31.857  1.00  0.00     0.255 C 
HETATM    3  O   UNL     1      -2.519   2.986 -31.092  1.00  0.00    -0.268 OA
HETATM    4  H   UNL     1      -5.177   1.903 -32.495  1.00  0.00     0.163 HD
ENDROOT
BRANCH   1   5
HETATM    5  C   UNL     1      -4.559   0.904 -30.714  1.00  0.00     0.114 C 
HETATM    6  C   UNL     1      -6.019   0.670 -30.314  1.00  0.00     0.035 C 
BRANCH   5   7
HETATM    7  C   UNL     1      -3.749  -0.399 -31.012  1.00  0.00     0.173 C 
BRANCH   7   8
HETATM    8  O   UNL     1      -2.349  -0.159 -31.119  1.00  0.00    -0.389 OA
HETATM    9  H   UNL     1      -2.226   0.709 -31.537  1.00  0.00     0.210 HD
ENDBRANCH   7   8
BRANCH   7  10
HETATM   10  C   UNL     1      -4.239  -1.146 -32.241  1.00  0.00    -0.028 A 
HETATM   11  C   UNL     1      -3.674  -2.376 -32.598  1.00  0.00     0.012 A 
HETATM   12  C   UNL     1      -4.145  -3.072 -33.716  1.00  0.00     0.037 A 
HETATM   13  C   UNL     1      -5.188  -2.561 -34.492  1.00  0.00     0.068 A 
HETATM   14  C   UNL     1      -5.752  -1.336 -34.148  1.00  0.00     0.037 A 
HETATM   15  C   UNL     1      -5.282  -0.635 -33.033  1.00  0.00     0.012 A 
BRANCH  13  16
HETATM   16  O   UNL     1      -5.556  -3.347 -35.549  1.00  0.00    -0.356 OA
HETATM   17  C   UNL     1      -6.365  -4.479 -35.253  1.00  0.00     0.210 C 
ENDBRANCH  13  16
ENDBRANCH   7  10
ENDBRANCH   5   7
ENDBRANCH   1   5
BRANCH   2  18
HETATM   18  C   UNL     1      -3.591   3.817 -32.978  1.00  0.00     0.079 A 
HETATM   19  C   UNL     1      -4.798   4.151 -33.597  1.00  0.00     0.165 A 
HETATM   20  N   UNL     1      -4.813   4.905 -34.746  1.00  0.00    -0.241 NA
HETATM   21  C   UNL     1      -3.645   5.332 -35.264  1.00  0.00     0.119 A 
HETATM   22  C   UNL     1      -2.417   5.054 -34.701  1.00  0.00     0.020 A 
HETATM   23  C   UNL     1      -2.390   4.278 -33.549  1.00  0.00     0.022 A 
BRANCH  19  24
HETATM   24  N   UNL     1      -6.088   3.791 -33.067  1.00  0.00    -0.226 N 
HETATM   25  N   UNL     1      -6.759   2.714 -33.582  1.00  0.00    -0.179 NA
HETATM   26  C   UNL     1      -7.887   2.638 -32.878  1.00  0.00     0.141 A 
HETATM   27  C   UNL     1      -8.021   3.689 -31.965  1.00  0.00     0.040 A 
HETATM   28  C   UNL     1      -6.880   4.436 -32.134  1.00  0.00     0.122 A 
ENDBRANCH  19  24
ENDBRANCH   2  18
TORSDOF 7
ENDMDL
MODEL 5
REMARK VINA RESULT:      -6.9      2.294      4.540
REMARK  7 active torsions:
REMARK  status: ('A' for Active; 'I' for Inactive)
REMARK    1  A    between atoms: C_2  and  N_3 
REMARK    2  A    between atoms: C_2  and  C_17 
REMARK       I    between atoms: N_3  and  C_4 
REMARK    3  A    between atoms: C_4  and  C_5 
REMARK    4  A    between atoms: C_6  and  N_7 
REMARK    5  A    between atoms: C_17  and  O_18 
REMARK    6  A    between atoms: C_17  and  C_19 
REMARK    7  A    between atoms: C_22  and  O_23 
ROOT
HETATM    1  N   UNL     1      -5.307   1.393 -33.219  1.00  0.00    -0.350 N 
HETATM    2  C   UNL     1      -5.076   0.150 -32.665  1.00  0.00     0.255 C 
HETATM    3  O   UNL     1      -4.646  -0.066 -31.542  1.00  0.00    -0.268 OA
HETATM    4  H   UNL     1      -5.677   1.445 -34.160  1.00  0.00     0.163 HD
ENDROOT
BRANCH   1   5
HETATM    5  C   UNL     1      -4.970   2.670 -32.562  1.00  0.00     0.114 C 
HETATM    6  C   UNL     1      -5.730   2.841 -31.243  1.00  0.00     0.035 C 
BRANCH   5   7
HETATM    7  C   UNL     1      -3.429   2.907 -32.462  1.00  0.00     0.173 C 
BRANCH   7   8
HETATM    8  O   UNL     1      -2.864   2.331 -31.287  1.00  0.00    -0.389 OA
HETATM    9  H   UNL     1      -3.496   1.681 -30.940  1.00  0.00     0.210 HD
ENDBRANCH   7   8
BRANCH   7  10
HETATM   10  C   UNL     1      -3.037   4.372 -32.557  1.00  0.00    -0.028 A 
HETATM   11  C   UNL     1      -2.728   5.102 -31.403  1.00  0.00     0.012 A 
HETATM   12  C   UNL     1      -2.343   6.443 -31.496  1.00  0.00     0.037 A 
HETATM   13  C   UNL     1      -2.252   7.077 -32.737  1.00  0.00     0.068 A 
HETATM   14  C   UNL     1      -2.562   6.361 -33.891  1.00  0.00     0.037 A 
HETATM   15  C   UNL     1      -2.951   5.021 -33.800  1.00  0.00     0.012 A 
BRANCH  13  16
HETATM   16  O   UNL     1      -1.855   8.385 -32.686  1.00  0.00    -0.356 OA
HETATM   17  C   UNL     1      -2.118   9.086 -31.477  1.00  0.00     0.210 C 
ENDBRANCH  13  16
ENDBRANCH   7  10
ENDBRANCH   5   7
ENDBRANCH   1   5
BRANCH   2  18
HETATM   18  C   UNL     1      -5.412  -0.993 -33.529  1.00  0.00     0.079 A 
HETATM   19  C   UNL     1      -6.704  -1.301 -33.966  1.00  0.00     0.165 A 
HETATM   20  N   UNL     1      -6.962  -2.479 -34.622  1.00  0.00    -0.241 NA
HETATM   21  C   UNL     1      -5.947  -3.335 -34.854  1.00  0.00     0.119 A 
HETATM   22  C   UNL     1      -4.645  -3.094 -34.465  1.00  0.00     0.020 A 
HETATM   23  C   UNL     1      -4.378  -1.912 -33.785  1.00  0.00     0.022 A 
BRANCH  19  24
HETATM   24  N   UNL     1      -7.824  -0.408 -33.818  1.00  0.00    -0.226 N 
HETATM   25  N   UNL     1      -8.021   0.596 -34.729  1.00  0.00    -0.179 NA
HETATM   26  C   UNL     1      -9.129   1.217 -34.328  1.00  0.00     0.141 A 
HETATM   27  C   UNL     1      -9.627   0.704 -33.126  1.00  0.00     0.040 A 
HETATM   28  C   UNL     1      -8.753  -0.305 -32.797  1.00  0.00     0.122 A 
ENDBRANCH  19  24
ENDBRANCH   2  18
TORSDOF 7
ENDMDL
MODEL 6
REMARK VINA RESULT:      -6.8     14.236     16.517
REMARK  7 active torsions:
REMARK  status: ('A' for Active; 'I' for Inactive)
REMARK    1  A    between atoms: C_2  and  N_3 
REMARK    2  A    between atoms: C_2  and  C_17 
REMARK       I    between atoms: N_3  and  C_4 
REMARK    3  A    between atoms: C_4  and  C_5 
REMARK    4  A    between atoms: C_6  and  N_7 
REMARK    5  A    between atoms: C_17  and  O_18 
REMARK    6  A    between atoms: C_17  and  C_19 
REMARK    7  A    between atoms: C_22  and  O_23 
ROOT
HETATM    1  N   UNL     1      -4.963 -13.126 -38.806  1.00  0.00    -0.350 N 
HETATM    2  C   UNL     1      -3.707 -12.709 -38.416  1.00  0.00     0.255 C 
HETATM    3  O   UNL     1      -3.338 -11.550 -38.302  1.00  0.00    -0.268 OA
HETATM    4  H   UNL     1      -5.153 -14.120 -38.852  1.00  0.00     0.163 HD
ENDROOT
BRANCH   1   5
HETATM    5  C   UNL     1      -6.039 -12.219 -39.248  1.00  0.00     0.114 C 
HETATM    6  C   UNL     1      -6.316 -12.365 -40.748  1.00  0.00     0.035 C 
BRANCH   5   7
HETATM    7  C   UNL     1      -7.308 -12.302 -38.341  1.00  0.00     0.173 C 
BRANCH   7   8
HETATM    8  O   UNL     1      -7.063 -13.000 -37.122  1.00  0.00    -0.389 OA
HETATM    9  H   UNL     1      -7.892 -13.425 -36.850  1.00  0.00     0.210 HD
ENDBRANCH   7   8
BRANCH   7  10
HETATM   10  C   UNL     1      -8.514 -12.901 -39.044  1.00  0.00    -0.028 A 
HETATM   11  C   UNL     1      -9.447 -12.077 -39.684  1.00  0.00     0.012 A 
HETATM   12  C   UNL     1     -10.542 -12.633 -40.351  1.00  0.00     0.037 A 
HETATM   13  C   UNL     1     -10.724 -14.017 -40.399  1.00  0.00     0.068 A 
HETATM   14  C   UNL     1      -9.805 -14.846 -39.760  1.00  0.00     0.037 A 
HETATM   15  C   UNL     1      -8.710 -14.292 -39.089  1.00  0.00     0.012 A 
BRANCH  13  16
HETATM   16  O   UNL     1     -11.830 -14.428 -41.092  1.00  0.00    -0.356 OA
HETATM   17  C   UNL     1     -11.678 -15.577 -41.916  1.00  0.00     0.210 C 
ENDBRANCH  13  16
ENDBRANCH   7  10
ENDBRANCH   5   7
ENDBRANCH   1   5
BRANCH   2  18
HETATM   18  C   UNL     1      -2.760 -13.790 -38.093  1.00  0.00     0.079 A 
HETATM   19  C   UNL     1      -2.493 -14.880 -38.926  1.00  0.00     0.165 A 
HETATM   20  N   UNL     1      -1.733 -15.934 -38.482  1.00  0.00    -0.241 NA
HETATM   21  C   UNL     1      -1.233 -15.899 -37.230  1.00  0.00     0.119 A 
HETATM   22  C   UNL     1      -1.443 -14.852 -36.357  1.00  0.00     0.020 A 
HETATM   23  C   UNL     1      -2.225 -13.789 -36.792  1.00  0.00     0.022 A 
BRANCH  19  24
HETATM   24  N   UNL     1      -2.932 -14.959 -40.295  1.00  0.00    -0.226 N 
HETATM   25  N   UNL     1      -4.102 -15.605 -40.600  1.00  0.00    -0.179 NA
HETATM   26  C   UNL     1      -4.231 -15.486 -41.920  1.00  0.00     0.141 A 
HETATM   27  C   UNL     1      -3.135 -14.851 -42.511  1.00  0.00     0.040 A 
HETATM   28  C   UNL     1      -2.299 -14.562 -41.460  1.00  0.00     0.122 A 
ENDBRANCH  19  24
ENDBRANCH   2  18
TORSDOF 7
ENDMDL
MODEL 7
REMARK VINA RESULT:      -6.8      3.522      7.020
REMARK  7 active torsions:
REMARK  status: ('A' for Active; 'I' for Inactive)
REMARK    1  A    between atoms: C_2  and  N_3 
REMARK    2  A    between atoms: C_2  and  C_17 
REMARK       I    between atoms: N_3  and  C_4 
REMARK    3  A    between atoms: C_4  and  C_5 
REMARK    4  A    between atoms: C_6  and  N_7 
REMARK    5  A    between atoms: C_17  and  O_18 
REMARK    6  A    between atoms: C_17  and  C_19 
REMARK    7  A    between atoms: C_22  and  O_23 
ROOT
HETATM    1  N   UNL     1      -3.445   4.881 -32.579  1.00  0.00    -0.350 N 
HETATM    2  C   UNL     1      -3.246   3.922 -31.607  1.00  0.00     0.255 C 
HETATM    3  O   UNL     1      -2.165   3.485 -31.240  1.00  0.00    -0.268 OA
HETATM    4  H   UNL     1      -4.392   5.171 -32.789  1.00  0.00     0.163 HD
ENDROOT
BRANCH   1   5
HETATM    5  C   UNL     1      -2.370   5.460 -33.406  1.00  0.00     0.114 C 
HETATM    6  C   UNL     1      -2.543   5.101 -34.885  1.00  0.00     0.035 C 
BRANCH   5   7
HETATM    7  C   UNL     1      -2.149   6.981 -33.128  1.00  0.00     0.173 C 
BRANCH   7   8
HETATM    8  O   UNL     1      -1.424   7.627 -34.171  1.00  0.00    -0.389 OA
HETATM    9  H   UNL     1      -2.055   8.143 -34.699  1.00  0.00     0.210 HD
ENDBRANCH   7   8
BRANCH   7  10
HETATM   10  C   UNL     1      -1.485   7.260 -31.790  1.00  0.00    -0.028 A 
HETATM   11  C   UNL     1      -2.101   8.094 -30.850  1.00  0.00     0.012 A 
HETATM   12  C   UNL     1      -1.499   8.327 -29.610  1.00  0.00     0.037 A 
HETATM   13  C   UNL     1      -0.279   7.732 -29.282  1.00  0.00     0.068 A 
HETATM   14  C   UNL     1       0.345   6.906 -30.214  1.00  0.00     0.037 A 
HETATM   15  C   UNL     1      -0.253   6.673 -31.456  1.00  0.00     0.012 A 
BRANCH  13  16
HETATM   16  O   UNL     1       0.194   8.038 -28.036  1.00  0.00    -0.356 OA
HETATM   17  C   UNL     1       0.973   7.042 -27.385  1.00  0.00     0.210 C 
ENDBRANCH  13  16
ENDBRANCH   7  10
ENDBRANCH   5   7
ENDBRANCH   1   5
BRANCH   2  18
HETATM   18  C   UNL     1      -4.470   3.422 -30.960  1.00  0.00     0.079 A 
HETATM   19  C   UNL     1      -4.936   2.108 -31.058  1.00  0.00     0.165 A 
HETATM   20  N   UNL     1      -6.174   1.762 -30.574  1.00  0.00    -0.241 NA
HETATM   21  C   UNL     1      -6.934   2.708 -29.987  1.00  0.00     0.119 A 
HETATM   22  C   UNL     1      -6.537   4.021 -29.842  1.00  0.00     0.020 A 
HETATM   23  C   UNL     1      -5.293   4.383 -30.344  1.00  0.00     0.022 A 
BRANCH  19  24
HETATM   24  N   UNL     1      -4.155   1.029 -31.608  1.00  0.00    -0.226 N 
HETATM   25  N   UNL     1      -4.410   0.582 -32.878  1.00  0.00    -0.179 NA
HETATM   26  C   UNL     1      -3.523  -0.388 -33.089  1.00  0.00     0.141 A 
HETATM   27  C   UNL     1      -2.739  -0.654 -31.962  1.00  0.00     0.040 A 
HETATM   28  C   UNL     1      -3.191   0.234 -31.015  1.00  0.00     0.122 A 
ENDBRANCH  19  24
ENDBRANCH   2  18
TORSDOF 7
ENDMDL
MODEL 8
REMARK VINA RESULT:      -6.6      3.362      6.055
REMARK  7 active torsions:
REMARK  status: ('A' for Active; 'I' for Inactive)
REMARK    1  A    between atoms: C_2  and  N_3 
REMARK    2  A    between atoms: C_2  and  C_17 
REMARK       I    between atoms: N_3  and  C_4 
REMARK    3  A    between atoms: C_4  and  C_5 
REMARK    4  A    between atoms: C_6  and  N_7 
REMARK    5  A    between atoms: C_17  and  O_18 
REMARK    6  A    between atoms: C_17  and  C_19 
REMARK    7  A    between atoms: C_22  and  O_23 
ROOT
HETATM    1  N   UNL     1      -8.653   1.553 -33.903  1.00  0.00    -0.350 N 
HETATM    2  C   UNL     1      -8.613   0.381 -33.175  1.00  0.00     0.255 C 
HETATM    3  O   UNL     1      -9.479  -0.021 -32.412  1.00  0.00    -0.268 OA
HETATM    4  H   UNL     1      -7.876   1.774 -34.513  1.00  0.00     0.163 HD
ENDROOT
BRANCH   1   5
HETATM    5  C   UNL     1      -9.722   2.563 -33.791  1.00  0.00     0.114 C 
HETATM    6  C   UNL     1      -9.172   3.984 -33.952  1.00  0.00     0.035 C 
BRANCH   5   7
HETATM    7  C   UNL     1     -10.955   2.237 -34.694  1.00  0.00     0.173 C 
BRANCH   7   8
HETATM    8  O   UNL     1     -11.118   3.176 -35.755  1.00  0.00    -0.389 OA
HETATM    9  H   UNL     1     -11.594   3.945 -35.402  1.00  0.00     0.210 HD
ENDBRANCH   7   8
BRANCH   7  10
HETATM   10  C   UNL     1     -12.255   2.109 -33.917  1.00  0.00    -0.028 A 
HETATM   11  C   UNL     1     -12.654   3.113 -33.026  1.00  0.00     0.012 A 
HETATM   12  C   UNL     1     -13.862   3.003 -32.332  1.00  0.00     0.037 A 
HETATM   13  C   UNL     1     -14.696   1.897 -32.515  1.00  0.00     0.068 A 
HETATM   14  C   UNL     1     -14.305   0.890 -33.394  1.00  0.00     0.037 A 
HETATM   15  C   UNL     1     -13.095   0.996 -34.088  1.00  0.00     0.012 A 
BRANCH  13  16
HETATM   16  O   UNL     1     -15.850   1.920 -31.782  1.00  0.00    -0.356 OA
HETATM   17  C   UNL     1     -16.951   2.623 -32.345  1.00  0.00     0.210 C 
ENDBRANCH  13  16
ENDBRANCH   7  10
ENDBRANCH   5   7
ENDBRANCH   1   5
BRANCH   2  18
HETATM   18  C   UNL     1      -7.411  -0.444 -33.382  1.00  0.00     0.079 A 
HETATM   19  C   UNL     1      -6.174  -0.203 -32.778  1.00  0.00     0.165 A 
HETATM   20  N   UNL     1      -5.058  -0.909 -33.155  1.00  0.00    -0.241 NA
HETATM   21  C   UNL     1      -5.173  -1.852 -34.111  1.00  0.00     0.119 A 
HETATM   22  C   UNL     1      -6.361  -2.155 -34.742  1.00  0.00     0.020 A 
HETATM   23  C   UNL     1      -7.492  -1.433 -34.379  1.00  0.00     0.022 A 
BRANCH  19  24
HETATM   24  N   UNL     1      -5.986   0.738 -31.703  1.00  0.00    -0.226 N 
HETATM   25  N   UNL     1      -5.356   1.930 -31.944  1.00  0.00    -0.179 NA
HETATM   26  C   UNL     1      -5.358   2.567 -30.774  1.00  0.00     0.141 A 
HETATM   27  C   UNL     1      -5.900   1.792 -29.743  1.00  0.00     0.040 A 
HETATM   28  C   UNL     1      -6.254   0.612 -30.352  1.00  0.00     0.122 A 
ENDBRANCH  19  24
ENDBRANCH   2  18
TORSDOF 7
ENDMDL
MODEL 9
REMARK VINA RESULT:      -6.5      3.861      7.539
REMARK  7 active torsions:
REMARK  status: ('A' for Active; 'I' for Inactive)
REMARK    1  A    between atoms: C_2  and  N_3 
REMARK    2  A    between atoms: C_2  and  C_17 
REMARK       I    between atoms: N_3  and  C_4 
REMARK    3  A    between atoms: C_4  and  C_5 
REMARK    4  A    between atoms: C_6  and  N_7 
REMARK    5  A    between atoms: C_17  and  O_18 
REMARK    6  A    between atoms: C_17  and  C_19 
REMARK    7  A    between atoms: C_22  and  O_23 
ROOT
HETATM    1  N   UNL     1      -9.700   0.884 -33.251  1.00  0.00    -0.350 N 
HETATM    2  C   UNL     1     -10.493   1.808 -33.902  1.00  0.00     0.255 C 
HETATM    3  O   UNL     1     -10.097   2.782 -34.525  1.00  0.00    -0.268 OA
HETATM    4  H   UNL     1     -10.147   0.110 -32.776  1.00  0.00     0.163 HD
ENDROOT
BRANCH   1   5
HETATM    5  C   UNL     1      -8.235   0.991 -33.124  1.00  0.00     0.114 C 
HETATM    6  C   UNL     1      -7.723   0.251 -31.885  1.00  0.00     0.035 C 
BRANCH   5   7
HETATM    7  C   UNL     1      -7.488   0.634 -34.450  1.00  0.00     0.173 C 
BRANCH   7   8
HETATM    8  O   UNL     1      -8.384   0.369 -35.526  1.00  0.00    -0.389 OA
HETATM    9  H   UNL     1      -8.901  -0.420 -35.297  1.00  0.00     0.210 HD
ENDBRANCH   7   8
BRANCH   7  10
HETATM   10  C   UNL     1      -6.509  -0.519 -34.299  1.00  0.00    -0.028 A 
HETATM   11  C   UNL     1      -5.242  -0.307 -33.744  1.00  0.00     0.012 A 
HETATM   12  C   UNL     1      -4.353  -1.374 -33.584  1.00  0.00     0.037 A 
HETATM   13  C   UNL     1      -4.712  -2.669 -33.966  1.00  0.00     0.068 A 
HETATM   14  C   UNL     1      -5.969  -2.889 -34.524  1.00  0.00     0.037 A 
HETATM   15  C   UNL     1      -6.858  -1.823 -34.689  1.00  0.00     0.012 A 
BRANCH  13  16
HETATM   16  O   UNL     1      -3.753  -3.620 -33.745  1.00  0.00    -0.356 OA
HETATM   17  C   UNL     1      -4.146  -4.976 -33.918  1.00  0.00     0.210 C 
ENDBRANCH  13  16
ENDBRANCH   7  10
ENDBRANCH   5   7
ENDBRANCH   1   5
BRANCH   2  18
HETATM   18  C   UNL     1     -11.941   1.549 -33.835  1.00  0.00     0.079 A 
HETATM   19  C   UNL     1     -12.912   2.535 -33.641  1.00  0.00     0.165 A 
HETATM   20  N   UNL     1     -14.223   2.196 -33.415  1.00  0.00    -0.241 NA
HETATM   21  C   UNL     1     -14.568   0.893 -33.395  1.00  0.00     0.119 A 
HETATM   22  C   UNL     1     -13.669  -0.134 -33.593  1.00  0.00     0.020 A 
HETATM   23  C   UNL     1     -12.336   0.199 -33.805  1.00  0.00     0.022 A 
BRANCH  19  24
HETATM   24  N   UNL     1     -12.634   3.947 -33.716  1.00  0.00    -0.226 N 
HETATM   25  N   UNL     1     -12.246   4.626 -32.591  1.00  0.00    -0.179 NA
HETATM   26  C   UNL     1     -12.053   5.881 -32.991  1.00  0.00     0.141 A 
HETATM   27  C   UNL     1     -12.385   6.072 -34.336  1.00  0.00     0.040 A 
HETATM   28  C   UNL     1     -12.794   4.833 -34.767  1.00  0.00     0.122 A 
ENDBRANCH  19  24
ENDBRANCH   2  18
TORSDOF 7
ENDMDL
MODEL 10
REMARK VINA RESULT:      -6.5     14.163     15.941
REMARK  7 active torsions:
REMARK  status: ('A' for Active; 'I' for Inactive)
REMARK    1  A    between atoms: C_2  and  N_3 
REMARK    2  A    between atoms: C_2  and  C_17 
REMARK       I    between atoms: N_3  and  C_4 
REMARK    3  A    between atoms: C_4  and  C_5 
REMARK    4  A    between atoms: C_6  and  N_7 
REMARK    5  A    between atoms: C_17  and  O_18 
REMARK    6  A    between atoms: C_17  and  C_19 
REMARK    7  A    between atoms: C_22  and  O_23 
ROOT
HETATM    1  N   UNL     1      -4.987 -13.276 -38.726  1.00  0.00    -0.350 N 
HETATM    2  C   UNL     1      -3.822 -12.813 -38.148  1.00  0.00     0.255 C 
HETATM    3  O   UNL     1      -3.465 -11.646 -38.086  1.00  0.00    -0.268 OA
HETATM    4  H   UNL     1      -5.179 -14.270 -38.705  1.00  0.00     0.163 HD
ENDROOT
BRANCH   1   5
HETATM    5  C   UNL     1      -5.947 -12.425 -39.454  1.00  0.00     0.114 C 
HETATM    6  C   UNL     1      -6.164 -12.923 -40.887  1.00  0.00     0.035 C 
BRANCH   5   7
HETATM    7  C   UNL     1      -7.260 -12.172 -38.647  1.00  0.00     0.173 C 
BRANCH   7   8
HETATM    8  O   UNL     1      -7.148 -12.570 -37.283  1.00  0.00    -0.389 OA
HETATM    9  H   UNL     1      -6.516 -13.306 -37.238  1.00  0.00     0.210 HD
ENDBRANCH   7   8
BRANCH   7  10
HETATM   10  C   UNL     1      -8.486 -12.816 -39.273  1.00  0.00    -0.028 A 
HETATM   11  C   UNL     1      -9.465 -12.029 -39.891  1.00  0.00     0.012 A 
HETATM   12  C   UNL     1     -10.580 -12.627 -40.488  1.00  0.00     0.037 A 
HETATM   13  C   UNL     1     -10.736 -14.015 -40.485  1.00  0.00     0.068 A 
HETATM   14  C   UNL     1      -9.770 -14.805 -39.867  1.00  0.00     0.037 A 
HETATM   15  C   UNL     1      -8.656 -14.211 -39.266  1.00  0.00     0.012 A 
BRANCH  13  16
HETATM   16  O   UNL     1     -11.865 -14.468 -41.111  1.00  0.00    -0.356 OA
HETATM   17  C   UNL     1     -11.725 -15.629 -41.920  1.00  0.00     0.210 C 
ENDBRANCH  13  16
ENDBRANCH   7  10
ENDBRANCH   5   7
ENDBRANCH   1   5
BRANCH   2  18
HETATM   18  C   UNL     1      -2.968 -13.850 -37.544  1.00  0.00     0.079 A 
HETATM   19  C   UNL     1      -3.243 -14.491 -36.333  1.00  0.00     0.165 A 
HETATM   20  N   UNL     1      -2.313 -15.317 -35.749  1.00  0.00    -0.241 NA
HETATM   21  C   UNL     1      -1.132 -15.513 -36.367  1.00  0.00     0.119 A 
HETATM   22  C   UNL     1      -0.795 -14.926 -37.569  1.00  0.00     0.020 A 
HETATM   23  C   UNL     1      -1.723 -14.075 -38.158  1.00  0.00     0.022 A 
BRANCH  19  24
HETATM   24  N   UNL     1      -4.505 -14.387 -35.648  1.00  0.00    -0.226 N 
HETATM   25  N   UNL     1      -5.573 -15.135 -36.070  1.00  0.00    -0.179 NA
HETATM   26  C   UNL     1      -6.564 -14.829 -35.235  1.00  0.00     0.141 A 
HETATM   27  C   UNL     1      -6.206 -13.834 -34.319  1.00  0.00     0.040 A 
HETATM   28  C   UNL     1      -4.901 -13.537 -34.630  1.00  0.00     0.122 A 
ENDBRANCH  19  24
ENDBRANCH   2  18
TORSDOF 7
ENDMDL
