MODEL 1
REMARK VINA RESULT:      -8.4      0.000      0.000
REMARK  5 active torsions:
REMARK  status: ('A' for Active; 'I' for Inactive)
REMARK    1  A    between atoms: C_4  and  N_5 
REMARK       I    between atoms: N_5  and  C_6 
REMARK       I    between atoms: C_6  and  N_7 
REMARK    2  A    between atoms: N_7  and  C_8 
REMARK    3  A    between atoms: C_8  and  C_9 
REMARK    4  A    between atoms: C_9  and  N_10 
REMARK    5  A    between atoms: C_9  and  C_14 
ROOT
HETATM    1  N   UNL     1      -4.657   0.436 -31.354  1.00  0.00    -0.307 N 
HETATM    2  C   UNL     1      -3.670   1.341 -31.542  1.00  0.00     0.320 C 
HETATM    3  N   UNL     1      -3.916   2.392 -32.369  1.00  0.00    -0.340 N 
HETATM    4  O   UNL     1      -2.617   1.266 -30.913  1.00  0.00    -0.247 OA
HETATM    5  H   UNL     1      -4.496  -0.181 -30.555  1.00  0.00     0.170 HD
HETATM    6  H   UNL     1      -4.881   2.586 -32.599  1.00  0.00     0.164 HD
ENDROOT
BRANCH   1   7
HETATM    7  C   UNL     1      -5.842   0.103 -32.054  1.00  0.00     0.066 A 
HETATM    8  C   UNL     1      -7.058   0.781 -31.899  1.00  0.00     0.038 A 
HETATM    9  C   UNL     1      -8.194   0.379 -32.612  1.00  0.00    -0.059 A 
HETATM   10  C   UNL     1      -9.497   1.109 -32.457  1.00  0.00     0.048 C 
HETATM   11  C   UNL     1      -8.082  -0.665 -33.534  1.00  0.00     0.020 A 
HETATM   12  C   UNL     1      -6.853  -1.312 -33.739  1.00  0.00    -0.005 A 
HETATM   13  C   UNL     1      -5.715  -0.933 -32.996  1.00  0.00     0.093 A 
HETATM   14  C   UNL     1      -6.716  -2.334 -34.687  1.00  0.00     0.015 A 
HETATM   15  N   UNL     1      -4.517  -1.537 -33.171  1.00  0.00    -0.258 NA
HETATM   16  C   UNL     1      -4.423  -2.514 -34.103  1.00  0.00     0.117 A 
HETATM   17  C   UNL     1      -5.482  -2.943 -34.877  1.00  0.00     0.020 A 
ENDBRANCH   1   7
BRANCH   3  18
HETATM   18  C   UNL     1      -2.863   3.301 -32.793  1.00  0.00     0.164 C 
BRANCH  18  19
HETATM   19  C   UNL     1      -3.004   4.785 -32.367  1.00  0.00     0.261 C 
BRANCH  19  20
HETATM   20  N   UNL     1      -3.689   5.688 -33.395  1.00  0.00    -0.067 N 
HETATM   21  H   UNL     1      -3.226   6.592 -33.227  1.00  0.00     0.280 HD
HETATM   22  C   UNL     1      -3.407   5.399 -34.841  1.00  0.00     0.270 C 
HETATM   23  C   UNL     1      -5.150   5.898 -33.142  1.00  0.00     0.270 C 
ENDBRANCH  19  20
BRANCH  19  24
HETATM   24  C   UNL     1      -1.720   5.388 -31.873  1.00  0.00     0.085 A 
HETATM   25  O   UNL     1      -0.954   4.569 -31.085  1.00  0.00    -0.325 OA
HETATM   26  C   UNL     1       0.166   5.264 -30.757  1.00  0.00     0.142 A 
HETATM   27  C   UNL     1       0.136   6.516 -31.322  1.00  0.00     0.027 A 
HETATM   28  C   UNL     1      -1.076   6.597 -32.049  1.00  0.00     0.037 A 
ENDBRANCH  19  24
ENDBRANCH  18  19
ENDBRANCH   3  18
TORSDOF 5
ENDMDL
MODEL 2
REMARK VINA RESULT:      -8.3      1.772      3.319
REMARK  5 active torsions:
REMARK  status: ('A' for Active; 'I' for Inactive)
REMARK    1  A    between atoms: C_4  and  N_5 
REMARK       I    between atoms: N_5  and  C_6 
REMARK       I    between atoms: C_6  and  N_7 
REMARK    2  A    between atoms: N_7  and  C_8 
REMARK    3  A    between atoms: C_8  and  C_9 
REMARK    4  A    between atoms: C_9  and  N_10 
REMARK    5  A    between atoms: C_9  and  C_14 
ROOT
HETATM    1  N   UNL     1      -3.865  -0.750 -32.006  1.00  0.00    -0.307 N 
HETATM    2  C   UNL     1      -3.269   0.413 -31.660  1.00  0.00     0.320 C 
HETATM    3  N   UNL     1      -3.826   1.573 -32.100  1.00  0.00    -0.340 N 
HETATM    4  O   UNL     1      -2.307   0.427 -30.894  1.00  0.00    -0.247 OA
HETATM    5  H   UNL     1      -3.545  -1.550 -31.457  1.00  0.00     0.170 HD
HETATM    6  H   UNL     1      -4.776   1.531 -32.442  1.00  0.00     0.164 HD
ENDROOT
BRANCH   1   7
HETATM    7  C   UNL     1      -4.794  -1.127 -33.007  1.00  0.00     0.066 A 
HETATM    8  C   UNL     1      -5.722  -0.250 -33.583  1.00  0.00     0.038 A 
HETATM    9  C   UNL     1      -6.623  -0.703 -34.553  1.00  0.00    -0.059 A 
HETATM   10  C   UNL     1      -7.613   0.235 -35.182  1.00  0.00     0.048 C 
HETATM   11  C   UNL     1      -6.541  -2.028 -34.990  1.00  0.00     0.020 A 
HETATM   12  C   UNL     1      -5.575  -2.899 -34.461  1.00  0.00    -0.005 A 
HETATM   13  C   UNL     1      -4.689  -2.455 -33.456  1.00  0.00     0.093 A 
HETATM   14  C   UNL     1      -5.455  -4.218 -34.916  1.00  0.00     0.015 A 
HETATM   15  N   UNL     1      -3.747  -3.271 -32.927  1.00  0.00    -0.258 NA
HETATM   16  C   UNL     1      -3.657  -4.535 -33.400  1.00  0.00     0.117 A 
HETATM   17  C   UNL     1      -4.479  -5.050 -34.382  1.00  0.00     0.020 A 
ENDBRANCH   1   7
BRANCH   3  18
HETATM   18  C   UNL     1      -3.154   2.855 -31.955  1.00  0.00     0.164 C 
BRANCH  18  19
HETATM   19  C   UNL     1      -3.285   3.853 -33.133  1.00  0.00     0.261 C 
BRANCH  19  20
HETATM   20  N   UNL     1      -2.299   5.022 -33.100  1.00  0.00    -0.067 N 
HETATM   21  H   UNL     1      -2.917   5.816 -32.881  1.00  0.00     0.280 HD
HETATM   22  C   UNL     1      -1.294   5.026 -31.986  1.00  0.00     0.270 C 
HETATM   23  C   UNL     1      -1.666   5.321 -34.424  1.00  0.00     0.270 C 
ENDBRANCH  19  20
BRANCH  19  24
HETATM   24  C   UNL     1      -4.692   4.326 -33.360  1.00  0.00     0.085 A 
HETATM   25  O   UNL     1      -5.595   3.345 -33.677  1.00  0.00    -0.325 OA
HETATM   26  C   UNL     1      -6.805   3.946 -33.819  1.00  0.00     0.142 A 
HETATM   27  C   UNL     1      -6.698   5.297 -33.597  1.00  0.00     0.027 A 
HETATM   28  C   UNL     1      -5.338   5.545 -33.293  1.00  0.00     0.037 A 
ENDBRANCH  19  24
ENDBRANCH  18  19
ENDBRANCH   3  18
TORSDOF 5
ENDMDL
MODEL 3
REMARK VINA RESULT:      -8.2      2.570      3.718
REMARK  5 active torsions:
REMARK  status: ('A' for Active; 'I' for Inactive)
REMARK    1  A    between atoms: C_4  and  N_5 
REMARK       I    between atoms: N_5  and  C_6 
REMARK       I    between atoms: C_6  and  N_7 
REMARK    2  A    between atoms: N_7  and  C_8 
REMARK    3  A    between atoms: C_8  and  C_9 
REMARK    4  A    between atoms: C_9  and  N_10 
REMARK    5  A    between atoms: C_9  and  C_14 
ROOT
HETATM    1  N   UNL     1      -3.722  -0.747 -32.395  1.00  0.00    -0.307 N 
HETATM    2  C   UNL     1      -3.634   0.229 -31.463  1.00  0.00     0.320 C 
HETATM    3  N   UNL     1      -4.789   0.774 -30.998  1.00  0.00    -0.340 N 
HETATM    4  O   UNL     1      -2.548   0.549 -30.985  1.00  0.00    -0.247 OA
HETATM    5  H   UNL     1      -2.852  -1.268 -32.521  1.00  0.00     0.170 HD
HETATM    6  H   UNL     1      -5.645   0.266 -31.171  1.00  0.00     0.164 HD
ENDROOT
BRANCH   1   7
HETATM    7  C   UNL     1      -4.735  -1.177 -33.287  1.00  0.00     0.066 A 
HETATM    8  C   UNL     1      -5.688  -0.324 -33.857  1.00  0.00     0.038 A 
HETATM    9  C   UNL     1      -6.672  -0.828 -34.715  1.00  0.00    -0.059 A 
HETATM   10  C   UNL     1      -7.690   0.084 -35.337  1.00  0.00     0.048 C 
HETATM   11  C   UNL     1      -6.650  -2.184 -35.052  1.00  0.00     0.020 A 
HETATM   12  C   UNL     1      -5.661  -3.036 -34.532  1.00  0.00    -0.005 A 
HETATM   13  C   UNL     1      -4.690  -2.538 -33.638  1.00  0.00     0.093 A 
HETATM   14  C   UNL     1      -5.602  -4.388 -34.890  1.00  0.00     0.015 A 
HETATM   15  N   UNL     1      -3.725  -3.334 -33.120  1.00  0.00    -0.258 NA
HETATM   16  C   UNL     1      -3.696  -4.632 -33.498  1.00  0.00     0.117 A 
HETATM   17  C   UNL     1      -4.603  -5.201 -34.370  1.00  0.00     0.020 A 
ENDBRANCH   1   7
BRANCH   3  18
HETATM   18  C   UNL     1      -4.797   1.959 -30.154  1.00  0.00     0.164 C 
BRANCH  18  19
HETATM   19  C   UNL     1      -4.581   3.323 -30.859  1.00  0.00     0.261 C 
BRANCH  19  20
HETATM   20  N   UNL     1      -4.820   4.549 -29.976  1.00  0.00    -0.067 N 
HETATM   21  H   UNL     1      -4.164   4.384 -29.200  1.00  0.00     0.280 HD
HETATM   22  C   UNL     1      -4.397   5.875 -30.535  1.00  0.00     0.270 C 
HETATM   23  C   UNL     1      -6.192   4.608 -29.376  1.00  0.00     0.270 C 
ENDBRANCH  19  20
BRANCH  19  24
HETATM   24  C   UNL     1      -5.307   3.438 -32.169  1.00  0.00     0.085 A 
HETATM   25  O   UNL     1      -6.590   2.959 -32.172  1.00  0.00    -0.325 OA
HETATM   26  C   UNL     1      -7.092   3.168 -33.416  1.00  0.00     0.142 A 
HETATM   27  C   UNL     1      -6.155   3.775 -34.216  1.00  0.00     0.027 A 
HETATM   28  C   UNL     1      -5.003   3.958 -33.412  1.00  0.00     0.037 A 
ENDBRANCH  19  24
ENDBRANCH  18  19
ENDBRANCH   3  18
TORSDOF 5
ENDMDL
MODEL 4
REMARK VINA RESULT:      -8.2      2.148      3.566
REMARK  5 active torsions:
REMARK  status: ('A' for Active; 'I' for Inactive)
REMARK    1  A    between atoms: C_4  and  N_5 
REMARK       I    between atoms: N_5  and  C_6 
REMARK       I    between atoms: C_6  and  N_7 
REMARK    2  A    between atoms: N_7  and  C_8 
REMARK    3  A    between atoms: C_8  and  C_9 
REMARK    4  A    between atoms: C_9  and  N_10 
REMARK    5  A    between atoms: C_9  and  C_14 
ROOT
HETATM    1  N   UNL     1      -6.267   1.563 -30.852  1.00  0.00    -0.307 N 
HETATM    2  C   UNL     1      -5.850   2.809 -30.533  1.00  0.00     0.320 C 
HETATM    3  N   UNL     1      -4.972   3.423 -31.371  1.00  0.00    -0.340 N 
HETATM    4  O   UNL     1      -6.321   3.405 -29.567  1.00  0.00    -0.247 OA
HETATM    5  H   UNL     1      -7.090   1.262 -30.325  1.00  0.00     0.170 HD
HETATM    6  H   UNL     1      -4.869   3.038 -32.299  1.00  0.00     0.164 HD
ENDROOT
BRANCH   1   7
HETATM    7  C   UNL     1      -5.785   0.547 -31.713  1.00  0.00     0.066 A 
HETATM    8  C   UNL     1      -4.725  -0.311 -31.393  1.00  0.00     0.038 A 
HETATM    9  C   UNL     1      -4.291  -1.279 -32.306  1.00  0.00    -0.059 A 
HETATM   10  C   UNL     1      -3.162  -2.207 -31.964  1.00  0.00     0.048 C 
HETATM   11  C   UNL     1      -4.975  -1.425 -33.516  1.00  0.00     0.020 A 
HETATM   12  C   UNL     1      -6.077  -0.610 -33.820  1.00  0.00    -0.005 A 
HETATM   13  C   UNL     1      -6.493   0.392 -32.918  1.00  0.00     0.093 A 
HETATM   14  C   UNL     1      -6.796  -0.770 -35.011  1.00  0.00     0.015 A 
HETATM   15  N   UNL     1      -7.551   1.193 -33.182  1.00  0.00    -0.258 NA
HETATM   16  C   UNL     1      -8.226   1.001 -34.339  1.00  0.00     0.117 A 
HETATM   17  C   UNL     1      -7.890   0.043 -35.276  1.00  0.00     0.020 A 
ENDBRANCH   1   7
BRANCH   3  18
HETATM   18  C   UNL     1      -4.312   4.670 -31.015  1.00  0.00     0.164 C 
BRANCH  18  19
HETATM   19  C   UNL     1      -2.807   4.791 -31.366  1.00  0.00     0.261 C 
BRANCH  19  20
HETATM   20  N   UNL     1      -2.033   5.818 -30.538  1.00  0.00    -0.067 N 
HETATM   21  H   UNL     1      -2.452   5.700 -29.605  1.00  0.00     0.280 HD
HETATM   22  C   UNL     1      -0.574   5.546 -30.318  1.00  0.00     0.270 C 
HETATM   23  C   UNL     1      -2.280   7.238 -30.947  1.00  0.00     0.270 C 
ENDBRANCH  19  20
BRANCH  19  24
HETATM   24  C   UNL     1      -2.549   4.961 -32.836  1.00  0.00     0.085 A 
HETATM   25  O   UNL     1      -3.654   5.239 -33.596  1.00  0.00    -0.325 OA
HETATM   26  C   UNL     1      -3.232   5.385 -34.878  1.00  0.00     0.142 A 
HETATM   27  C   UNL     1      -1.872   5.208 -34.958  1.00  0.00     0.027 A 
HETATM   28  C   UNL     1      -1.427   4.941 -33.641  1.00  0.00     0.037 A 
ENDBRANCH  19  24
ENDBRANCH  18  19
ENDBRANCH   3  18
TORSDOF 5
ENDMDL
MODEL 5
REMARK VINA RESULT:      -8.1      0.912      2.702
REMARK  5 active torsions:
REMARK  status: ('A' for Active; 'I' for Inactive)
REMARK    1  A    between atoms: C_4  and  N_5 
REMARK       I    between atoms: N_5  and  C_6 
REMARK       I    between atoms: C_6  and  N_7 
REMARK    2  A    between atoms: N_7  and  C_8 
REMARK    3  A    between atoms: C_8  and  C_9 
REMARK    4  A    between atoms: C_9  and  N_10 
REMARK    5  A    between atoms: C_9  and  C_14 
ROOT
HETATM    1  N   UNL     1      -4.240   0.049 -31.607  1.00  0.00    -0.307 N 
HETATM    2  C   UNL     1      -3.478   1.166 -31.618  1.00  0.00     0.320 C 
HETATM    3  N   UNL     1      -3.818   2.164 -32.476  1.00  0.00    -0.340 N 
HETATM    4  O   UNL     1      -2.563   1.313 -30.811  1.00  0.00    -0.247 OA
HETATM    5  H   UNL     1      -4.080  -0.545 -30.792  1.00  0.00     0.170 HD
HETATM    6  H   UNL     1      -4.746   2.137 -32.875  1.00  0.00     0.164 HD
ENDROOT
BRANCH   1   7
HETATM    7  C   UNL     1      -5.174  -0.522 -32.507  1.00  0.00     0.066 A 
HETATM    8  C   UNL     1      -4.867  -1.555 -33.401  1.00  0.00     0.038 A 
HETATM    9  C   UNL     1      -5.840  -2.054 -34.275  1.00  0.00    -0.059 A 
HETATM   10  C   UNL     1      -5.519  -3.169 -35.228  1.00  0.00     0.048 C 
HETATM   11  C   UNL     1      -7.143  -1.554 -34.197  1.00  0.00     0.020 A 
HETATM   12  C   UNL     1      -7.474  -0.559 -33.263  1.00  0.00    -0.005 A 
HETATM   13  C   UNL     1      -6.487  -0.029 -32.406  1.00  0.00     0.093 A 
HETATM   14  C   UNL     1      -8.783  -0.075 -33.147  1.00  0.00     0.015 A 
HETATM   15  N   UNL     1      -6.775   0.931 -31.495  1.00  0.00    -0.258 NA
HETATM   16  C   UNL     1      -8.053   1.365 -31.407  1.00  0.00     0.117 A 
HETATM   17  C   UNL     1      -9.081   0.899 -32.202  1.00  0.00     0.020 A 
ENDBRANCH   1   7
BRANCH   3  18
HETATM   18  C   UNL     1      -2.953   3.310 -32.707  1.00  0.00     0.164 C 
BRANCH  18  19
HETATM   19  C   UNL     1      -3.070   4.490 -31.709  1.00  0.00     0.261 C 
BRANCH  19  20
HETATM   20  N   UNL     1      -4.212   5.466 -31.997  1.00  0.00    -0.067 N 
HETATM   21  H   UNL     1      -3.791   6.369 -31.737  1.00  0.00     0.280 HD
HETATM   22  C   UNL     1      -4.598   5.647 -33.436  1.00  0.00     0.270 C 
HETATM   23  C   UNL     1      -5.410   5.278 -31.118  1.00  0.00     0.270 C 
ENDBRANCH  19  20
BRANCH  19  24
HETATM   24  C   UNL     1      -1.772   5.211 -31.483  1.00  0.00     0.085 A 
HETATM   25  O   UNL     1      -0.778   4.462 -30.910  1.00  0.00    -0.325 OA
HETATM   26  C   UNL     1       0.316   5.261 -30.808  1.00  0.00     0.142 A 
HETATM   27  C   UNL     1       0.045   6.511 -31.308  1.00  0.00     0.027 A 
HETATM   28  C   UNL     1      -1.300   6.481 -31.751  1.00  0.00     0.037 A 
ENDBRANCH  19  24
ENDBRANCH  18  19
ENDBRANCH   3  18
TORSDOF 5
ENDMDL
MODEL 6
REMARK VINA RESULT:      -8.1      4.566      7.328
REMARK  5 active torsions:
REMARK  status: ('A' for Active; 'I' for Inactive)
REMARK    1  A    between atoms: C_4  and  N_5 
REMARK       I    between atoms: N_5  and  C_6 
REMARK       I    between atoms: C_6  and  N_7 
REMARK    2  A    between atoms: N_7  and  C_8 
REMARK    3  A    between atoms: C_8  and  C_9 
REMARK    4  A    between atoms: C_9  and  N_10 
REMARK    5  A    between atoms: C_9  and  C_14 
ROOT
HETATM    1  N   UNL     1      -6.294  -0.449 -34.576  1.00  0.00    -0.307 N 
HETATM    2  C   UNL     1      -7.587  -0.125 -34.349  1.00  0.00     0.320 C 
HETATM    3  N   UNL     1      -7.976   0.083 -33.063  1.00  0.00    -0.340 N 
HETATM    4  O   UNL     1      -8.364   0.067 -35.282  1.00  0.00    -0.247 OA
HETATM    5  H   UNL     1      -6.018  -0.356 -35.556  1.00  0.00     0.170 HD
HETATM    6  H   UNL     1      -7.251   0.234 -32.376  1.00  0.00     0.164 HD
ENDROOT
BRANCH   1   7
HETATM    7  C   UNL     1      -5.242  -0.951 -33.772  1.00  0.00     0.066 A 
HETATM    8  C   UNL     1      -4.544  -0.185 -32.830  1.00  0.00     0.038 A 
HETATM    9  C   UNL     1      -3.501  -0.748 -32.086  1.00  0.00    -0.059 A 
HETATM   10  C   UNL     1      -2.755   0.066 -31.068  1.00  0.00     0.048 C 
HETATM   11  C   UNL     1      -3.210  -2.106 -32.244  1.00  0.00     0.020 A 
HETATM   12  C   UNL     1      -3.944  -2.897 -33.143  1.00  0.00    -0.005 A 
HETATM   13  C   UNL     1      -4.972  -2.323 -33.921  1.00  0.00     0.093 A 
HETATM   14  C   UNL     1      -3.690  -4.267 -33.285  1.00  0.00     0.015 A 
HETATM   15  N   UNL     1      -5.698  -3.059 -34.795  1.00  0.00    -0.258 NA
HETATM   16  C   UNL     1      -5.428  -4.381 -34.897  1.00  0.00     0.117 A 
HETATM   17  C   UNL     1      -4.445  -5.024 -34.171  1.00  0.00     0.020 A 
ENDBRANCH   1   7
BRANCH   3  18
HETATM   18  C   UNL     1      -9.376   0.235 -32.697  1.00  0.00     0.164 C 
BRANCH  18  19
HETATM   19  C   UNL     1     -10.010   1.633 -32.912  1.00  0.00     0.261 C 
BRANCH  19  20
HETATM   20  N   UNL     1     -10.204   2.455 -31.637  1.00  0.00    -0.067 N 
HETATM   21  H   UNL     1     -10.793   1.831 -31.068  1.00  0.00     0.280 HD
HETATM   22  C   UNL     1      -8.988   2.682 -30.787  1.00  0.00     0.270 C 
HETATM   23  C   UNL     1     -10.985   3.718 -31.841  1.00  0.00     0.270 C 
ENDBRANCH  19  20
BRANCH  19  24
HETATM   24  C   UNL     1     -11.261   1.599 -33.742  1.00  0.00     0.085 A 
HETATM   25  O   UNL     1     -11.248   2.399 -34.854  1.00  0.00    -0.325 OA
HETATM   26  C   UNL     1     -12.436   2.222 -35.488  1.00  0.00     0.142 A 
HETATM   27  C   UNL     1     -13.214   1.319 -34.805  1.00  0.00     0.027 A 
HETATM   28  C   UNL     1     -12.456   0.910 -33.681  1.00  0.00     0.037 A 
ENDBRANCH  19  24
ENDBRANCH  18  19
ENDBRANCH   3  18
TORSDOF 5
ENDMDL
MODEL 7
REMARK VINA RESULT:      -8.0      1.851      2.199
REMARK  5 active torsions:
REMARK  status: ('A' for Active; 'I' for Inactive)
REMARK    1  A    between atoms: C_4  and  N_5 
REMARK       I    between atoms: N_5  and  C_6 
REMARK       I    between atoms: C_6  and  N_7 
REMARK    2  A    between atoms: N_7  and  C_8 
REMARK    3  A    between atoms: C_8  and  C_9 
REMARK    4  A    between atoms: C_9  and  N_10 
REMARK    5  A    between atoms: C_9  and  C_14 
ROOT
HETATM    1  N   UNL     1      -4.061  -0.528 -31.956  1.00  0.00    -0.307 N 
HETATM    2  C   UNL     1      -3.362   0.607 -31.730  1.00  0.00     0.320 C 
HETATM    3  N   UNL     1      -3.754   1.738 -32.375  1.00  0.00    -0.340 N 
HETATM    4  O   UNL     1      -2.460   0.637 -30.896  1.00  0.00    -0.247 OA
HETATM    5  H   UNL     1      -3.871  -1.266 -31.274  1.00  0.00     0.170 HD
HETATM    6  H   UNL     1      -4.677   1.742 -32.785  1.00  0.00     0.164 HD
ENDROOT
BRANCH   1   7
HETATM    7  C   UNL     1      -4.957  -0.955 -32.967  1.00  0.00     0.066 A 
HETATM    8  C   UNL     1      -5.925  -0.130 -33.553  1.00  0.00     0.038 A 
HETATM    9  C   UNL     1      -6.789  -0.631 -34.533  1.00  0.00    -0.059 A 
HETATM   10  C   UNL     1      -7.822   0.253 -35.172  1.00  0.00     0.048 C 
HETATM   11  C   UNL     1      -6.629  -1.948 -34.971  1.00  0.00     0.020 A 
HETATM   12  C   UNL     1      -5.622  -2.765 -34.431  1.00  0.00    -0.005 A 
HETATM   13  C   UNL     1      -4.773  -2.275 -33.417  1.00  0.00     0.093 A 
HETATM   14  C   UNL     1      -5.424  -4.075 -34.886  1.00  0.00     0.015 A 
HETATM   15  N   UNL     1      -3.794  -3.038 -32.877  1.00  0.00    -0.258 NA
HETATM   16  C   UNL     1      -3.628  -4.294 -33.350  1.00  0.00     0.117 A 
HETATM   17  C   UNL     1      -4.410  -4.852 -34.342  1.00  0.00     0.020 A 
ENDBRANCH   1   7
BRANCH   3  18
HETATM   18  C   UNL     1      -2.953   2.952 -32.357  1.00  0.00     0.164 C 
BRANCH  18  19
HETATM   19  C   UNL     1      -3.720   4.298 -32.312  1.00  0.00     0.261 C 
BRANCH  19  20
HETATM   20  N   UNL     1      -5.125   4.259 -32.916  1.00  0.00    -0.067 N 
HETATM   21  H   UNL     1      -5.366   3.262 -32.833  1.00  0.00     0.280 HD
HETATM   22  C   UNL     1      -6.208   4.960 -32.149  1.00  0.00     0.270 C 
HETATM   23  C   UNL     1      -5.168   4.595 -34.375  1.00  0.00     0.270 C 
ENDBRANCH  19  20
BRANCH  19  24
HETATM   24  C   UNL     1      -2.924   5.456 -32.842  1.00  0.00     0.085 A 
HETATM   25  O   UNL     1      -1.911   5.125 -33.702  1.00  0.00    -0.325 OA
HETATM   26  C   UNL     1      -1.325   6.285 -34.096  1.00  0.00     0.142 A 
HETATM   27  C   UNL     1      -1.945   7.359 -33.506  1.00  0.00     0.027 A 
HETATM   28  C   UNL     1      -2.982   6.829 -32.702  1.00  0.00     0.037 A 
ENDBRANCH  19  24
ENDBRANCH  18  19
ENDBRANCH   3  18
TORSDOF 5
ENDMDL
MODEL 8
REMARK VINA RESULT:      -7.9      1.761      3.872
REMARK  5 active torsions:
REMARK  status: ('A' for Active; 'I' for Inactive)
REMARK    1  A    between atoms: C_4  and  N_5 
REMARK       I    between atoms: N_5  and  C_6 
REMARK       I    between atoms: C_6  and  N_7 
REMARK    2  A    between atoms: N_7  and  C_8 
REMARK    3  A    between atoms: C_8  and  C_9 
REMARK    4  A    between atoms: C_9  and  N_10 
REMARK    5  A    between atoms: C_9  and  C_14 
ROOT
HETATM    1  N   UNL     1      -4.289   0.063 -31.668  1.00  0.00    -0.307 N 
HETATM    2  C   UNL     1      -3.597   1.224 -31.654  1.00  0.00     0.320 C 
HETATM    3  N   UNL     1      -4.009   2.224 -32.478  1.00  0.00    -0.340 N 
HETATM    4  O   UNL     1      -2.680   1.403 -30.854  1.00  0.00    -0.247 OA
HETATM    5  H   UNL     1      -4.082  -0.544 -30.872  1.00  0.00     0.170 HD
HETATM    6  H   UNL     1      -4.939   2.152 -32.866  1.00  0.00     0.164 HD
ENDROOT
BRANCH   1   7
HETATM    7  C   UNL     1      -5.199  -0.537 -32.573  1.00  0.00     0.066 A 
HETATM    8  C   UNL     1      -4.854  -1.559 -33.466  1.00  0.00     0.038 A 
HETATM    9  C   UNL     1      -5.805  -2.088 -34.346  1.00  0.00    -0.059 A 
HETATM   10  C   UNL     1      -5.443  -3.190 -35.299  1.00  0.00     0.048 C 
HETATM   11  C   UNL     1      -7.124  -1.632 -34.274  1.00  0.00     0.020 A 
HETATM   12  C   UNL     1      -7.493  -0.650 -33.340  1.00  0.00    -0.005 A 
HETATM   13  C   UNL     1      -6.528  -0.088 -32.478  1.00  0.00     0.093 A 
HETATM   14  C   UNL     1      -8.818  -0.210 -33.230  1.00  0.00     0.015 A 
HETATM   15  N   UNL     1      -6.853   0.859 -31.567  1.00  0.00    -0.258 NA
HETATM   16  C   UNL     1      -8.145   1.251 -31.484  1.00  0.00     0.117 A 
HETATM   17  C   UNL     1      -9.153   0.752 -32.285  1.00  0.00     0.020 A 
ENDBRANCH   1   7
BRANCH   3  18
HETATM   18  C   UNL     1      -3.217   3.427 -32.685  1.00  0.00     0.164 C 
BRANCH  18  19
HETATM   19  C   UNL     1      -3.653   4.695 -31.907  1.00  0.00     0.261 C 
BRANCH  19  20
HETATM   20  N   UNL     1      -2.644   5.192 -30.870  1.00  0.00    -0.067 N 
HETATM   21  H   UNL     1      -2.850   4.586 -30.063  1.00  0.00     0.280 HD
HETATM   22  C   UNL     1      -1.195   4.932 -31.159  1.00  0.00     0.270 C 
HETATM   23  C   UNL     1      -2.879   6.602 -30.421  1.00  0.00     0.270 C 
ENDBRANCH  19  20
BRANCH  19  24
HETATM   24  C   UNL     1      -5.034   4.593 -31.327  1.00  0.00     0.085 A 
HETATM   25  O   UNL     1      -5.119   3.942 -30.125  1.00  0.00    -0.325 OA
HETATM   26  C   UNL     1      -6.422   3.970 -29.745  1.00  0.00     0.142 A 
HETATM   27  C   UNL     1      -7.180   4.630 -30.681  1.00  0.00     0.027 A 
HETATM   28  C   UNL     1      -6.287   5.040 -31.701  1.00  0.00     0.037 A 
ENDBRANCH  19  24
ENDBRANCH  18  19
ENDBRANCH   3  18
TORSDOF 5
ENDMDL
MODEL 9
REMARK VINA RESULT:      -7.8      3.497      5.521
REMARK  5 active torsions:
REMARK  status: ('A' for Active; 'I' for Inactive)
REMARK    1  A    between atoms: C_4  and  N_5 
REMARK       I    between atoms: N_5  and  C_6 
REMARK       I    between atoms: C_6  and  N_7 
REMARK    2  A    between atoms: N_7  and  C_8 
REMARK    3  A    between atoms: C_8  and  C_9 
REMARK    4  A    between atoms: C_9  and  N_10 
REMARK    5  A    between atoms: C_9  and  C_14 
ROOT
HETATM    1  N   UNL     1      -6.762  -0.025 -34.641  1.00  0.00    -0.307 N 
HETATM    2  C   UNL     1      -7.771   0.627 -34.020  1.00  0.00     0.320 C 
HETATM    3  N   UNL     1      -8.014   0.333 -32.715  1.00  0.00    -0.340 N 
HETATM    4  O   UNL     1      -8.388   1.524 -34.591  1.00  0.00    -0.247 OA
HETATM    5  H   UNL     1      -6.483   0.405 -35.525  1.00  0.00     0.170 HD
HETATM    6  H   UNL     1      -7.291  -0.157 -32.207  1.00  0.00     0.164 HD
ENDROOT
BRANCH   1   7
HETATM    7  C   UNL     1      -6.039  -1.214 -34.375  1.00  0.00     0.066 A 
HETATM    8  C   UNL     1      -6.319  -2.450 -34.970  1.00  0.00     0.038 A 
HETATM    9  C   UNL     1      -5.571  -3.586 -34.640  1.00  0.00    -0.059 A 
HETATM   10  C   UNL     1      -5.861  -4.911 -35.283  1.00  0.00     0.048 C 
HETATM   11  C   UNL     1      -4.493  -3.456 -33.759  1.00  0.00     0.020 A 
HETATM   12  C   UNL     1      -4.168  -2.209 -33.204  1.00  0.00    -0.005 A 
HETATM   13  C   UNL     1      -4.943  -1.070 -33.506  1.00  0.00     0.093 A 
HETATM   14  C   UNL     1      -3.068  -2.056 -32.350  1.00  0.00     0.015 A 
HETATM   15  N   UNL     1      -4.653   0.147 -32.986  1.00  0.00    -0.258 NA
HETATM   16  C   UNL     1      -3.578   0.255 -32.173  1.00  0.00     0.117 A 
HETATM   17  C   UNL     1      -2.763  -0.805 -31.828  1.00  0.00     0.020 A 
ENDBRANCH   1   7
BRANCH   3  18
HETATM   18  C   UNL     1      -9.194   0.825 -32.022  1.00  0.00     0.164 C 
BRANCH  18  19
HETATM   19  C   UNL     1      -9.034   2.132 -31.205  1.00  0.00     0.261 C 
BRANCH  19  20
HETATM   20  N   UNL     1      -9.918   3.292 -31.666  1.00  0.00    -0.067 N 
HETATM   21  H   UNL     1      -9.240   3.900 -32.147  1.00  0.00     0.280 HD
HETATM   22  C   UNL     1     -10.941   2.984 -32.720  1.00  0.00     0.270 C 
HETATM   23  C   UNL     1     -10.499   4.096 -30.543  1.00  0.00     0.270 C 
ENDBRANCH  19  20
BRANCH  19  24
HETATM   24  C   UNL     1      -7.604   2.561 -31.042  1.00  0.00     0.085 A 
HETATM   25  O   UNL     1      -6.890   1.873 -30.097  1.00  0.00    -0.325 OA
HETATM   26  C   UNL     1      -5.627   2.372 -30.107  1.00  0.00     0.142 A 
HETATM   27  C   UNL     1      -5.513   3.370 -31.045  1.00  0.00     0.027 A 
HETATM   28  C   UNL     1      -6.785   3.490 -31.655  1.00  0.00     0.037 A 
ENDBRANCH  19  24
ENDBRANCH  18  19
ENDBRANCH   3  18
TORSDOF 5
ENDMDL
MODEL 10
REMARK VINA RESULT:      -7.7      2.375      4.003
REMARK  5 active torsions:
REMARK  status: ('A' for Active; 'I' for Inactive)
REMARK    1  A    between atoms: C_4  and  N_5 
REMARK       I    between atoms: N_5  and  C_6 
REMARK       I    between atoms: C_6  and  N_7 
REMARK    2  A    between atoms: N_7  and  C_8 
REMARK    3  A    between atoms: C_8  and  C_9 
REMARK    4  A    between atoms: C_9  and  N_10 
REMARK    5  A    between atoms: C_9  and  C_14 
ROOT
HETATM    1  N   UNL     1      -7.561   0.386 -32.942  1.00  0.00    -0.307 N 
HETATM    2  C   UNL     1      -7.639   1.727 -33.089  1.00  0.00     0.320 C 
HETATM    3  N   UNL     1      -6.763   2.329 -33.937  1.00  0.00    -0.340 N 
HETATM    4  O   UNL     1      -8.532   2.371 -32.544  1.00  0.00    -0.247 OA
HETATM    5  H   UNL     1      -8.381  -0.022 -32.489  1.00  0.00     0.170 HD
HETATM    6  H   UNL     1      -6.275   1.739 -34.597  1.00  0.00     0.164 HD
ENDROOT
BRANCH   1   7
HETATM    7  C   UNL     1      -6.568  -0.585 -33.219  1.00  0.00     0.066 A 
HETATM    8  C   UNL     1      -6.724  -1.621 -34.150  1.00  0.00     0.038 A 
HETATM    9  C   UNL     1      -5.703  -2.555 -34.354  1.00  0.00    -0.059 A 
HETATM   10  C   UNL     1      -5.861  -3.661 -35.357  1.00  0.00     0.048 C 
HETATM   11  C   UNL     1      -4.495  -2.403 -33.666  1.00  0.00     0.020 A 
HETATM   12  C   UNL     1      -4.308  -1.334 -32.776  1.00  0.00    -0.005 A 
HETATM   13  C   UNL     1      -5.349  -0.411 -32.541  1.00  0.00     0.093 A 
HETATM   14  C   UNL     1      -3.090  -1.145 -32.109  1.00  0.00     0.015 A 
HETATM   15  N   UNL     1      -5.198   0.630 -31.688  1.00  0.00    -0.258 NA
HETATM   16  C   UNL     1      -4.004   0.783 -31.071  1.00  0.00     0.117 A 
HETATM   17  C   UNL     1      -2.932  -0.069 -31.246  1.00  0.00     0.020 A 
ENDBRANCH   1   7
BRANCH   3  18
HETATM   18  C   UNL     1      -6.631   3.776 -34.010  1.00  0.00     0.164 C 
BRANCH  18  19
HETATM   19  C   UNL     1      -5.690   4.447 -32.977  1.00  0.00     0.261 C 
BRANCH  19  20
HETATM   20  N   UNL     1      -6.228   5.739 -32.360  1.00  0.00    -0.067 N 
HETATM   21  H   UNL     1      -6.069   6.420 -33.115  1.00  0.00     0.280 HD
HETATM   22  C   UNL     1      -7.707   5.805 -32.116  1.00  0.00     0.270 C 
HETATM   23  C   UNL     1      -5.446   6.217 -31.175  1.00  0.00     0.270 C 
ENDBRANCH  19  20
BRANCH  19  24
HETATM   24  C   UNL     1      -4.284   4.619 -33.476  1.00  0.00     0.085 A 
HETATM   25  O   UNL     1      -4.133   5.507 -34.508  1.00  0.00    -0.325 OA
HETATM   26  C   UNL     1      -2.809   5.553 -34.807  1.00  0.00     0.142 A 
HETATM   27  C   UNL     1      -2.102   4.711 -33.983  1.00  0.00     0.027 A 
HETATM   28  C   UNL     1      -3.050   4.112 -33.118  1.00  0.00     0.037 A 
ENDBRANCH  19  24
ENDBRANCH  18  19
ENDBRANCH   3  18
TORSDOF 5
ENDMDL
