MODEL 1
REMARK VINA RESULT:      -9.2      0.000      0.000
REMARK  3 active torsions:
REMARK  status: ('A' for Active; 'I' for Inactive)
REMARK    1  A    between atoms: C_2  and  C_3 
REMARK    2  A    between atoms: C_18  and  C_19 
REMARK    3  A    between atoms: C_22  and  O_23 
ROOT
HETATM    1  C   UNL     1      -7.825   4.186 -33.549  1.00  0.00     0.060 C 
HETATM    2  C   UNL     1      -7.921   2.916 -32.646  1.00  0.00     0.210 C 
HETATM    3  N   UNL     1      -8.163   3.302 -31.231  1.00  0.00     0.110 N 
HETATM    4  C   UNL     1      -7.309   4.324 -30.613  1.00  0.00     0.367 C 
HETATM    5  C   UNL     1      -5.875   3.826 -30.469  1.00  0.00     0.230 C 
HETATM    6  O   UNL     1      -5.418   3.404 -29.410  1.00  0.00    -0.278 OA
HETATM    7  N   UNL     1      -5.187   3.773 -31.677  1.00  0.00    -0.227 NA
HETATM    8  C   UNL     1      -5.355   2.535 -32.346  1.00  0.00     0.024 A 
HETATM    9  C   UNL     1      -6.622   2.053 -32.747  1.00  0.00     0.007 A 
HETATM   10  C   UNL     1      -4.194   1.770 -32.485  1.00  0.00     0.025 A 
HETATM   11  C   UNL     1      -4.262   0.478 -32.996  1.00  0.00     0.014 A 
HETATM   12  C   UNL     1      -5.495  -0.089 -33.339  1.00  0.00    -0.025 A 
HETATM   13  C   UNL     1      -6.653   0.709 -33.194  1.00  0.00     0.024 A 
HETATM   14  H   UNL     1      -8.100   2.451 -30.667  1.00  0.00     0.318 HD
HETATM   15  H   UNL     1      -5.505   4.524 -32.274  1.00  0.00     0.136 HD
ENDROOT
BRANCH  12  16
HETATM   16  C   UNL     1      -5.575  -1.482 -33.826  1.00  0.00    -0.026 A 
HETATM   17  C   UNL     1      -4.429  -2.299 -33.879  1.00  0.00     0.015 A 
HETATM   18  C   UNL     1      -4.489  -3.611 -34.359  1.00  0.00     0.037 A 
HETATM   19  C   UNL     1      -5.706  -4.124 -34.789  1.00  0.00     0.065 A 
HETATM   20  C   UNL     1      -6.856  -3.349 -34.742  1.00  0.00     0.037 A 
HETATM   21  C   UNL     1      -6.790  -2.036 -34.264  1.00  0.00     0.015 A 
BRANCH  19  22
HETATM   22  O   UNL     1      -5.812  -5.395 -35.269  1.00  0.00    -0.361 OA
HETATM   23  H   UNL     1      -4.981  -5.628 -35.714  1.00  0.00     0.217 HD
ENDBRANCH  19  22
ENDBRANCH  12  16
BRANCH   2  24
HETATM   24  C   UNL     1      -9.207   2.183 -33.185  1.00  0.00    -0.016 A 
HETATM   25  C   UNL     1     -10.006   2.768 -34.196  1.00  0.00     0.010 A 
HETATM   26  C   UNL     1     -11.172   2.151 -34.659  1.00  0.00     0.001 A 
HETATM   27  C   UNL     1     -11.579   0.937 -34.119  1.00  0.00     0.000 A 
HETATM   28  C   UNL     1     -10.818   0.338 -33.121  1.00  0.00     0.001 A 
HETATM   29  C   UNL     1      -9.648   0.951 -32.660  1.00  0.00     0.010 A 
ENDBRANCH   2  24
TORSDOF 3
ENDMDL
MODEL 2
REMARK VINA RESULT:      -9.1      2.198      4.687
REMARK  3 active torsions:
REMARK  status: ('A' for Active; 'I' for Inactive)
REMARK    1  A    between atoms: C_2  and  C_3 
REMARK    2  A    between atoms: C_18  and  C_19 
REMARK    3  A    between atoms: C_22  and  O_23 
ROOT
HETATM    1  C   UNL     1      -7.410   4.329 -31.363  1.00  0.00     0.060 C 
HETATM    2  C   UNL     1      -6.988   3.801 -32.770  1.00  0.00     0.210 C 
HETATM    3  N   UNL     1      -7.452   4.730 -33.834  1.00  0.00     0.110 N 
HETATM    4  C   UNL     1      -8.854   5.170 -33.835  1.00  0.00     0.367 C 
HETATM    5  C   UNL     1      -9.794   4.007 -34.125  1.00  0.00     0.230 C 
HETATM    6  O   UNL     1     -10.293   3.810 -35.230  1.00  0.00    -0.278 OA
HETATM    7  N   UNL     1      -9.922   3.123 -33.058  1.00  0.00    -0.227 NA
HETATM    8  C   UNL     1      -8.943   2.098 -33.079  1.00  0.00     0.024 A 
HETATM    9  C   UNL     1      -7.556   2.369 -33.029  1.00  0.00     0.007 A 
HETATM   10  C   UNL     1      -9.439   0.804 -33.266  1.00  0.00     0.025 A 
HETATM   11  C   UNL     1      -8.564  -0.262 -33.446  1.00  0.00     0.014 A 
HETATM   12  C   UNL     1      -7.181  -0.052 -33.485  1.00  0.00    -0.025 A 
HETATM   13  C   UNL     1      -6.706   1.265 -33.289  1.00  0.00     0.024 A 
HETATM   14  H   UNL     1      -7.258   4.285 -34.734  1.00  0.00     0.318 HD
HETATM   15  H   UNL     1      -9.851   3.637 -32.190  1.00  0.00     0.136 HD
ENDROOT
BRANCH  12  16
HETATM   16  C   UNL     1      -6.254  -1.175 -33.736  1.00  0.00    -0.026 A 
HETATM   17  C   UNL     1      -6.629  -2.254 -34.560  1.00  0.00     0.015 A 
HETATM   18  C   UNL     1      -5.768  -3.334 -34.786  1.00  0.00     0.037 A 
HETATM   19  C   UNL     1      -4.514  -3.341 -34.190  1.00  0.00     0.065 A 
HETATM   20  C   UNL     1      -4.110  -2.289 -33.380  1.00  0.00     0.037 A 
HETATM   21  C   UNL     1      -4.975  -1.214 -33.154  1.00  0.00     0.015 A 
BRANCH  19  22
HETATM   22  O   UNL     1      -3.644  -4.373 -34.378  1.00  0.00    -0.361 OA
HETATM   23  H   UNL     1      -4.128  -5.208 -34.275  1.00  0.00     0.217 HD
ENDBRANCH  19  22
ENDBRANCH  12  16
BRANCH   2  24
HETATM   24  C   UNL     1      -5.414   3.854 -32.721  1.00  0.00    -0.016 A 
HETATM   25  C   UNL     1      -4.704   3.328 -31.616  1.00  0.00     0.010 A 
HETATM   26  C   UNL     1      -3.310   3.400 -31.537  1.00  0.00     0.001 A 
HETATM   27  C   UNL     1      -2.586   4.010 -32.555  1.00  0.00     0.000 A 
HETATM   28  C   UNL     1      -3.254   4.541 -33.653  1.00  0.00     0.001 A 
HETATM   29  C   UNL     1      -4.649   4.464 -33.735  1.00  0.00     0.010 A 
ENDBRANCH   2  24
TORSDOF 3
ENDMDL
MODEL 3
REMARK VINA RESULT:      -9.0      2.919      6.397
REMARK  3 active torsions:
REMARK  status: ('A' for Active; 'I' for Inactive)
REMARK    1  A    between atoms: C_2  and  C_3 
REMARK    2  A    between atoms: C_18  and  C_19 
REMARK    3  A    between atoms: C_22  and  O_23 
ROOT
HETATM    1  C   UNL     1      -7.854   0.024 -35.035  1.00  0.00     0.060 C 
HETATM    2  C   UNL     1      -7.377   0.478 -33.619  1.00  0.00     0.210 C 
HETATM    3  N   UNL     1      -8.430   0.205 -32.605  1.00  0.00     0.110 N 
HETATM    4  C   UNL     1      -9.806   0.650 -32.866  1.00  0.00     0.367 C 
HETATM    5  C   UNL     1      -9.896   2.171 -32.882  1.00  0.00     0.230 C 
HETATM    6  O   UNL     1     -10.312   2.825 -31.930  1.00  0.00    -0.278 OA
HETATM    7  N   UNL     1      -9.341   2.743 -34.022  1.00  0.00    -0.227 NA
HETATM    8  C   UNL     1      -7.957   3.011 -33.878  1.00  0.00     0.024 A 
HETATM    9  C   UNL     1      -7.010   1.996 -33.608  1.00  0.00     0.007 A 
HETATM   10  C   UNL     1      -7.604   4.363 -33.910  1.00  0.00     0.025 A 
HETATM   11  C   UNL     1      -6.297   4.753 -33.637  1.00  0.00     0.014 A 
HETATM   12  C   UNL     1      -5.328   3.807 -33.286  1.00  0.00    -0.025 A 
HETATM   13  C   UNL     1      -5.710   2.446 -33.266  1.00  0.00     0.024 A 
HETATM   14  H   UNL     1      -8.122   0.624 -31.724  1.00  0.00     0.318 HD
HETATM   15  H   UNL     1      -9.483   2.125 -34.808  1.00  0.00     0.136 HD
ENDROOT
BRANCH  12  16
HETATM   16  C   UNL     1      -3.955   4.227 -32.937  1.00  0.00    -0.026 A 
HETATM   17  C   UNL     1      -3.104   4.797 -33.904  1.00  0.00     0.015 A 
HETATM   18  C   UNL     1      -1.794   5.177 -33.590  1.00  0.00     0.037 A 
HETATM   19  C   UNL     1      -1.323   4.993 -32.297  1.00  0.00     0.065 A 
HETATM   20  C   UNL     1      -2.138   4.442 -31.319  1.00  0.00     0.037 A 
HETATM   21  C   UNL     1      -3.445   4.061 -31.637  1.00  0.00     0.015 A 
BRANCH  19  22
HETATM   22  O   UNL     1      -0.053   5.344 -31.947  1.00  0.00    -0.361 OA
HETATM   23  H   UNL     1       0.142   4.967 -31.073  1.00  0.00     0.217 HD
ENDBRANCH  19  22
ENDBRANCH  12  16
BRANCH   2  24
HETATM   24  C   UNL     1      -6.153  -0.469 -33.326  1.00  0.00    -0.016 A 
HETATM   25  C   UNL     1      -5.492  -0.432 -32.075  1.00  0.00     0.010 A 
HETATM   26  C   UNL     1      -4.379  -1.237 -31.810  1.00  0.00     0.001 A 
HETATM   27  C   UNL     1      -3.890  -2.094 -32.789  1.00  0.00     0.000 A 
HETATM   28  C   UNL     1      -4.515  -2.150 -34.029  1.00  0.00     0.001 A 
HETATM   29  C   UNL     1      -5.632  -1.350 -34.295  1.00  0.00     0.010 A 
ENDBRANCH   2  24
TORSDOF 3
ENDMDL
MODEL 4
REMARK VINA RESULT:      -8.8     14.732     16.372
REMARK  3 active torsions:
REMARK  status: ('A' for Active; 'I' for Inactive)
REMARK    1  A    between atoms: C_2  and  C_3 
REMARK    2  A    between atoms: C_18  and  C_19 
REMARK    3  A    between atoms: C_22  and  O_23 
ROOT
HETATM    1  C   UNL     1      -4.119 -12.800 -35.667  1.00  0.00     0.060 C 
HETATM    2  C   UNL     1      -4.586 -13.891 -36.681  1.00  0.00     0.210 C 
HETATM    3  N   UNL     1      -3.454 -14.785 -37.040  1.00  0.00     0.110 N 
HETATM    4  C   UNL     1      -2.178 -14.189 -37.459  1.00  0.00     0.367 C 
HETATM    5  C   UNL     1      -2.324 -13.463 -38.791  1.00  0.00     0.230 C 
HETATM    6  O   UNL     1      -1.965 -13.950 -39.859  1.00  0.00    -0.278 OA
HETATM    7  N   UNL     1      -3.018 -12.261 -38.689  1.00  0.00    -0.227 NA
HETATM    8  C   UNL     1      -4.417 -12.427 -38.837  1.00  0.00     0.024 A 
HETATM    9  C   UNL     1      -5.182 -13.244 -37.972  1.00  0.00     0.007 A 
HETATM   10  C   UNL     1      -4.975 -11.816 -39.963  1.00  0.00     0.025 A 
HETATM   11  C   UNL     1      -6.311 -12.030 -40.288  1.00  0.00     0.014 A 
HETATM   12  C   UNL     1      -7.103 -12.889 -39.519  1.00  0.00    -0.025 A 
HETATM   13  C   UNL     1      -6.516 -13.490 -38.382  1.00  0.00     0.024 A 
HETATM   14  H   UNL     1      -3.777 -15.403 -37.789  1.00  0.00     0.318 HD
HETATM   15  H   UNL     1      -2.822 -11.839 -37.792  1.00  0.00     0.136 HD
ENDROOT
BRANCH  12  16
HETATM   16  C   UNL     1      -8.505 -13.163 -39.897  1.00  0.00    -0.026 A 
HETATM   17  C   UNL     1      -8.915 -14.456 -40.275  1.00  0.00     0.015 A 
HETATM   18  C   UNL     1     -10.234 -14.721 -40.657  1.00  0.00     0.037 A 
HETATM   19  C   UNL     1     -11.163 -13.690 -40.659  1.00  0.00     0.065 A 
HETATM   20  C   UNL     1     -10.795 -12.405 -40.284  1.00  0.00     0.037 A 
HETATM   21  C   UNL     1      -9.474 -12.144 -39.906  1.00  0.00     0.015 A 
BRANCH  19  22
HETATM   22  O   UNL     1     -12.459 -13.900 -41.028  1.00  0.00    -0.361 OA
HETATM   23  H   UNL     1     -12.773 -13.120 -41.514  1.00  0.00     0.217 HD
ENDBRANCH  19  22
ENDBRANCH  12  16
BRANCH   2  24
HETATM   24  C   UNL     1      -5.634 -14.730 -35.856  1.00  0.00    -0.016 A 
HETATM   25  C   UNL     1      -6.209 -14.209 -34.672  1.00  0.00     0.010 A 
HETATM   26  C   UNL     1      -7.111 -14.953 -33.906  1.00  0.00     0.001 A 
HETATM   27  C   UNL     1      -7.457 -16.242 -34.294  1.00  0.00     0.000 A 
HETATM   28  C   UNL     1      -6.906 -16.784 -35.450  1.00  0.00     0.001 A 
HETATM   29  C   UNL     1      -6.008 -16.038 -36.221  1.00  0.00     0.010 A 
ENDBRANCH   2  24
TORSDOF 3
ENDMDL
MODEL 5
REMARK VINA RESULT:      -8.8      2.445      4.723
REMARK  3 active torsions:
REMARK  status: ('A' for Active; 'I' for Inactive)
REMARK    1  A    between atoms: C_2  and  C_3 
REMARK    2  A    between atoms: C_18  and  C_19 
REMARK    3  A    between atoms: C_22  and  O_23 
ROOT
HETATM    1  C   UNL     1      -6.062   5.448 -31.186  1.00  0.00     0.060 C 
HETATM    2  C   UNL     1      -6.267   4.761 -32.573  1.00  0.00     0.210 C 
HETATM    3  N   UNL     1      -7.112   5.611 -33.453  1.00  0.00     0.110 N 
HETATM    4  C   UNL     1      -8.382   6.136 -32.933  1.00  0.00     0.367 C 
HETATM    5  C   UNL     1      -9.378   5.012 -32.680  1.00  0.00     0.230 C 
HETATM    6  O   UNL     1     -10.292   4.742 -33.454  1.00  0.00    -0.278 OA
HETATM    7  N   UNL     1      -9.070   4.245 -31.560  1.00  0.00    -0.227 NA
HETATM    8  C   UNL     1      -8.206   3.163 -31.862  1.00  0.00     0.024 A 
HETATM    9  C   UNL     1      -6.918   3.350 -32.413  1.00  0.00     0.007 A 
HETATM   10  C   UNL     1      -8.758   1.891 -31.682  1.00  0.00     0.025 A 
HETATM   11  C   UNL     1      -8.054   0.759 -32.080  1.00  0.00     0.014 A 
HETATM   12  C   UNL     1      -6.807   0.877 -32.704  1.00  0.00    -0.025 A 
HETATM   13  C   UNL     1      -6.270   2.174 -32.869  1.00  0.00     0.024 A 
HETATM   14  H   UNL     1      -7.314   5.070 -34.297  1.00  0.00     0.318 HD
HETATM   15  H   UNL     1      -8.639   4.834 -30.862  1.00  0.00     0.136 HD
ENDROOT
BRANCH  12  16
HETATM   16  C   UNL     1      -6.086  -0.322 -33.182  1.00  0.00    -0.026 A 
HETATM   17  C   UNL     1      -4.798  -0.631 -32.705  1.00  0.00     0.015 A 
HETATM   18  C   UNL     1      -4.097  -1.750 -33.167  1.00  0.00     0.037 A 
HETATM   19  C   UNL     1      -4.686  -2.578 -34.113  1.00  0.00     0.065 A 
HETATM   20  C   UNL     1      -5.958  -2.308 -34.597  1.00  0.00     0.037 A 
HETATM   21  C   UNL     1      -6.653  -1.186 -34.135  1.00  0.00     0.015 A 
BRANCH  19  22
HETATM   22  O   UNL     1      -4.040  -3.677 -34.596  1.00  0.00    -0.361 OA
HETATM   23  H   UNL     1      -3.188  -3.762 -34.137  1.00  0.00     0.217 HD
ENDBRANCH  19  22
ENDBRANCH  12  16
BRANCH   2  24
HETATM   24  C   UNL     1      -4.813   4.719 -33.176  1.00  0.00    -0.016 A 
HETATM   25  C   UNL     1      -3.706   4.349 -32.377  1.00  0.00     0.010 A 
HETATM   26  C   UNL     1      -2.403   4.344 -32.884  1.00  0.00     0.001 A 
HETATM   27  C   UNL     1      -2.168   4.717 -34.202  1.00  0.00     0.000 A 
HETATM   28  C   UNL     1      -3.234   5.091 -35.013  1.00  0.00     0.001 A 
HETATM   29  C   UNL     1      -4.538   5.091 -34.508  1.00  0.00     0.010 A 
ENDBRANCH   2  24
TORSDOF 3
ENDMDL
MODEL 6
REMARK VINA RESULT:      -8.4     14.720     17.221
REMARK  3 active torsions:
REMARK  status: ('A' for Active; 'I' for Inactive)
REMARK    1  A    between atoms: C_2  and  C_3 
REMARK    2  A    between atoms: C_18  and  C_19 
REMARK    3  A    between atoms: C_22  and  O_23 
ROOT
HETATM    1  C   UNL     1      -6.899 -12.462 -40.954  1.00  0.00     0.060 C 
HETATM    2  C   UNL     1      -6.276 -13.773 -40.381  1.00  0.00     0.210 C 
HETATM    3  N   UNL     1      -7.314 -14.583 -39.690  1.00  0.00     0.110 N 
HETATM    4  C   UNL     1      -8.183 -13.935 -38.698  1.00  0.00     0.367 C 
HETATM    5  C   UNL     1      -7.386 -13.498 -37.474  1.00  0.00     0.230 C 
HETATM    6  O   UNL     1      -7.371 -14.135 -36.425  1.00  0.00    -0.278 OA
HETATM    7  N   UNL     1      -6.582 -12.387 -37.710  1.00  0.00    -0.227 NA
HETATM    8  C   UNL     1      -5.296 -12.738 -38.192  1.00  0.00     0.024 A 
HETATM    9  C   UNL     1      -5.106 -13.457 -39.394  1.00  0.00     0.007 A 
HETATM   10  C   UNL     1      -4.233 -12.421 -37.342  1.00  0.00     0.025 A 
HETATM   11  C   UNL     1      -2.943 -12.845 -37.645  1.00  0.00     0.014 A 
HETATM   12  C   UNL     1      -2.697 -13.627 -38.778  1.00  0.00    -0.025 A 
HETATM   13  C   UNL     1      -3.789 -13.928 -39.624  1.00  0.00     0.024 A 
HETATM   14  H   UNL     1      -6.838 -15.365 -39.233  1.00  0.00     0.318 HD
HETATM   15  H   UNL     1      -7.038 -11.781 -38.378  1.00  0.00     0.136 HD
ENDROOT
BRANCH  12  16
HETATM   16  C   UNL     1      -1.337 -14.128 -39.069  1.00  0.00    -0.026 A 
HETATM   17  C   UNL     1      -0.391 -14.294 -38.039  1.00  0.00     0.015 A 
HETATM   18  C   UNL     1       0.906 -14.745 -38.306  1.00  0.00     0.037 A 
HETATM   19  C   UNL     1       1.269 -15.042 -39.613  1.00  0.00     0.065 A 
HETATM   20  C   UNL     1       0.358 -14.898 -40.650  1.00  0.00     0.037 A 
HETATM   21  C   UNL     1      -0.936 -14.443 -40.379  1.00  0.00     0.015 A 
BRANCH  19  22
HETATM   22  O   UNL     1       2.522 -15.480 -39.921  1.00  0.00    -0.361 OA
HETATM   23  H   UNL     1       2.610 -15.513 -40.887  1.00  0.00     0.217 HD
ENDBRANCH  19  22
ENDBRANCH  12  16
BRANCH   2  24
HETATM   24  C   UNL     1      -5.819 -14.553 -41.670  1.00  0.00    -0.016 A 
HETATM   25  C   UNL     1      -6.204 -15.899 -41.878  1.00  0.00     0.010 A 
HETATM   26  C   UNL     1      -5.777 -16.621 -42.997  1.00  0.00     0.001 A 
HETATM   27  C   UNL     1      -4.944 -16.022 -43.935  1.00  0.00     0.000 A 
HETATM   28  C   UNL     1      -4.544 -14.702 -43.758  1.00  0.00     0.001 A 
HETATM   29  C   UNL     1      -4.976 -13.977 -42.641  1.00  0.00     0.010 A 
ENDBRANCH   2  24
TORSDOF 3
ENDMDL
MODEL 7
REMARK VINA RESULT:      -8.4      2.569      5.680
REMARK  3 active torsions:
REMARK  status: ('A' for Active; 'I' for Inactive)
REMARK    1  A    between atoms: C_2  and  C_3 
REMARK    2  A    between atoms: C_18  and  C_19 
REMARK    3  A    between atoms: C_22  and  O_23 
ROOT
HETATM    1  C   UNL     1      -4.823  -0.038 -30.645  1.00  0.00     0.060 C 
HETATM    2  C   UNL     1      -5.309   0.784 -31.880  1.00  0.00     0.210 C 
HETATM    3  N   UNL     1      -4.223   1.672 -32.372  1.00  0.00     0.110 N 
HETATM    4  C   UNL     1      -3.513   2.530 -31.414  1.00  0.00     0.367 C 
HETATM    5  C   UNL     1      -4.438   3.599 -30.845  1.00  0.00     0.230 C 
HETATM    6  O   UNL     1      -4.440   4.760 -31.242  1.00  0.00    -0.278 OA
HETATM    7  N   UNL     1      -5.361   3.098 -29.932  1.00  0.00    -0.227 NA
HETATM    8  C   UNL     1      -6.556   2.657 -30.553  1.00  0.00     0.024 A 
HETATM    9  C   UNL     1      -6.572   1.634 -31.530  1.00  0.00     0.007 A 
HETATM   10  C   UNL     1      -7.705   3.378 -30.217  1.00  0.00     0.025 A 
HETATM   11  C   UNL     1      -8.907   3.127 -30.872  1.00  0.00     0.014 A 
HETATM   12  C   UNL     1      -8.975   2.183 -31.902  1.00  0.00    -0.025 A 
HETATM   13  C   UNL     1      -7.799   1.464 -32.219  1.00  0.00     0.024 A 
HETATM   14  H   UNL     1      -4.623   2.270 -33.099  1.00  0.00     0.318 HD
HETATM   15  H   UNL     1      -4.944   2.331 -29.423  1.00  0.00     0.136 HD
ENDROOT
BRANCH  12  16
HETATM   16  C   UNL     1     -10.237   1.959 -32.638  1.00  0.00    -0.026 A 
HETATM   17  C   UNL     1     -10.573   0.682 -33.128  1.00  0.00     0.015 A 
HETATM   18  C   UNL     1     -11.754   0.464 -33.845  1.00  0.00     0.037 A 
HETATM   19  C   UNL     1     -12.617   1.527 -34.076  1.00  0.00     0.065 A 
HETATM   20  C   UNL     1     -12.320   2.796 -33.599  1.00  0.00     0.037 A 
HETATM   21  C   UNL     1     -11.137   3.010 -32.886  1.00  0.00     0.015 A 
BRANCH  19  22
HETATM   22  O   UNL     1     -13.777   1.363 -34.774  1.00  0.00    -0.361 OA
HETATM   23  H   UNL     1     -14.506   1.740 -34.256  1.00  0.00     0.217 HD
ENDBRANCH  19  22
ENDBRANCH  12  16
BRANCH   2  24
HETATM   24  C   UNL     1      -5.576  -0.320 -32.971  1.00  0.00    -0.016 A 
HETATM   25  C   UNL     1      -4.800  -1.504 -33.010  1.00  0.00     0.010 A 
HETATM   26  C   UNL     1      -4.996  -2.477 -33.994  1.00  0.00     0.001 A 
HETATM   27  C   UNL     1      -5.965  -2.293 -34.973  1.00  0.00     0.000 A 
HETATM   28  C   UNL     1      -6.741  -1.139 -34.965  1.00  0.00     0.001 A 
HETATM   29  C   UNL     1      -6.550  -0.166 -33.977  1.00  0.00     0.010 A 
ENDBRANCH   2  24
TORSDOF 3
ENDMDL
MODEL 8
REMARK VINA RESULT:      -8.3     14.958     17.445
REMARK  3 active torsions:
REMARK  status: ('A' for Active; 'I' for Inactive)
REMARK    1  A    between atoms: C_2  and  C_3 
REMARK    2  A    between atoms: C_18  and  C_19 
REMARK    3  A    between atoms: C_22  and  O_23 
ROOT
HETATM    1  C   UNL     1      -2.581 -15.985 -39.639  1.00  0.00     0.060 C 
HETATM    2  C   UNL     1      -3.265 -14.743 -40.292  1.00  0.00     0.210 C 
HETATM    3  N   UNL     1      -2.260 -13.684 -40.572  1.00  0.00     0.110 N 
HETATM    4  C   UNL     1      -1.336 -13.276 -39.504  1.00  0.00     0.367 C 
HETATM    5  C   UNL     1      -2.082 -12.586 -38.369  1.00  0.00     0.230 C 
HETATM    6  O   UNL     1      -2.111 -11.366 -38.233  1.00  0.00    -0.278 OA
HETATM    7  N   UNL     1      -2.828 -13.463 -37.587  1.00  0.00    -0.227 NA
HETATM    8  C   UNL     1      -4.141 -13.655 -38.085  1.00  0.00     0.024 A 
HETATM    9  C   UNL     1      -4.395 -14.174 -39.376  1.00  0.00     0.007 A 
HETATM   10  C   UNL     1      -5.167 -13.192 -37.258  1.00  0.00     0.025 A 
HETATM   11  C   UNL     1      -6.484 -13.197 -37.704  1.00  0.00     0.014 A 
HETATM   12  C   UNL     1      -6.797 -13.625 -38.999  1.00  0.00    -0.025 A 
HETATM   13  C   UNL     1      -5.741 -14.093 -39.814  1.00  0.00     0.024 A 
HETATM   14  H   UNL     1      -2.769 -12.854 -40.886  1.00  0.00     0.318 HD
HETATM   15  H   UNL     1      -2.353 -14.353 -37.540  1.00  0.00     0.136 HD
ENDROOT
BRANCH  12  16
HETATM   16  C   UNL     1      -8.188 -13.575 -39.495  1.00  0.00    -0.026 A 
HETATM   17  C   UNL     1      -8.881 -12.352 -39.589  1.00  0.00     0.015 A 
HETATM   18  C   UNL     1     -10.205 -12.296 -40.035  1.00  0.00     0.037 A 
HETATM   19  C   UNL     1     -10.852 -13.469 -40.400  1.00  0.00     0.065 A 
HETATM   20  C   UNL     1     -10.195 -14.690 -40.328  1.00  0.00     0.037 A 
HETATM   21  C   UNL     1      -8.872 -14.741 -39.878  1.00  0.00     0.015 A 
BRANCH  19  22
HETATM   22  O   UNL     1     -12.143 -13.463 -40.836  1.00  0.00    -0.361 OA
HETATM   23  H   UNL     1     -12.719 -13.215 -40.095  1.00  0.00     0.217 HD
ENDBRANCH  19  22
ENDBRANCH  12  16
BRANCH   2  24
HETATM   24  C   UNL     1      -3.791 -15.299 -41.669  1.00  0.00    -0.016 A 
HETATM   25  C   UNL     1      -3.785 -14.488 -42.829  1.00  0.00     0.010 A 
HETATM   26  C   UNL     1      -4.284 -14.950 -44.050  1.00  0.00     0.001 A 
HETATM   27  C   UNL     1      -4.811 -16.232 -44.147  1.00  0.00     0.000 A 
HETATM   28  C   UNL     1      -4.835 -17.053 -43.025  1.00  0.00     0.001 A 
HETATM   29  C   UNL     1      -4.332 -16.594 -41.803  1.00  0.00     0.010 A 
ENDBRANCH   2  24
TORSDOF 3
ENDMDL
MODEL 9
REMARK VINA RESULT:      -8.2      2.784      5.049
REMARK  3 active torsions:
REMARK  status: ('A' for Active; 'I' for Inactive)
REMARK    1  A    between atoms: C_2  and  C_3 
REMARK    2  A    between atoms: C_18  and  C_19 
REMARK    3  A    between atoms: C_22  and  O_23 
ROOT
HETATM    1  C   UNL     1      -4.092   5.952 -30.442  1.00  0.00     0.060 C 
HETATM    2  C   UNL     1      -4.930   5.427 -31.650  1.00  0.00     0.210 C 
HETATM    3  N   UNL     1      -5.924   6.448 -32.074  1.00  0.00     0.110 N 
HETATM    4  C   UNL     1      -6.790   7.067 -31.061  1.00  0.00     0.367 C 
HETATM    5  C   UNL     1      -7.754   6.047 -30.467  1.00  0.00     0.230 C 
HETATM    6  O   UNL     1      -8.929   5.959 -30.811  1.00  0.00    -0.278 OA
HETATM    7  N   UNL     1      -7.139   5.148 -29.601  1.00  0.00    -0.227 NA
HETATM    8  C   UNL     1      -6.633   4.006 -30.271  1.00  0.00     0.024 A 
HETATM    9  C   UNL     1      -5.660   4.092 -31.293  1.00  0.00     0.007 A 
HETATM   10  C   UNL     1      -7.244   2.795 -29.932  1.00  0.00     0.025 A 
HETATM   11  C   UNL     1      -6.930   1.632 -30.626  1.00  0.00     0.014 A 
HETATM   12  C   UNL     1      -6.033   1.662 -31.699  1.00  0.00    -0.025 A 
HETATM   13  C   UNL     1      -5.425   2.898 -32.019  1.00  0.00     0.024 A 
HETATM   14  H   UNL     1      -6.523   6.017 -32.783  1.00  0.00     0.318 HD
HETATM   15  H   UNL     1      -6.384   5.615 -29.118  1.00  0.00     0.136 HD
ENDROOT
BRANCH  12  16
HETATM   16  C   UNL     1      -5.745   0.438 -32.476  1.00  0.00    -0.026 A 
HETATM   17  C   UNL     1      -4.432   0.133 -32.887  1.00  0.00     0.015 A 
HETATM   18  C   UNL     1      -4.152  -1.011 -33.641  1.00  0.00     0.037 A 
HETATM   19  C   UNL     1      -5.187  -1.868 -33.990  1.00  0.00     0.065 A 
HETATM   20  C   UNL     1      -6.490  -1.602 -33.594  1.00  0.00     0.037 A 
HETATM   21  C   UNL     1      -6.766  -0.455 -32.843  1.00  0.00     0.015 A 
BRANCH  19  22
HETATM   22  O   UNL     1      -4.961  -2.992 -34.728  1.00  0.00    -0.361 OA
HETATM   23  H   UNL     1      -4.521  -3.649 -34.164  1.00  0.00     0.217 HD
ENDBRANCH  19  22
ENDBRANCH  12  16
BRANCH   2  24
HETATM   24  C   UNL     1      -3.861   5.274 -32.796  1.00  0.00    -0.016 A 
HETATM   25  C   UNL     1      -2.511   4.973 -32.493  1.00  0.00     0.010 A 
HETATM   26  C   UNL     1      -1.540   4.871 -33.494  1.00  0.00     0.001 A 
HETATM   27  C   UNL     1      -1.887   5.077 -34.824  1.00  0.00     0.000 A 
HETATM   28  C   UNL     1      -3.204   5.377 -35.154  1.00  0.00     0.001 A 
HETATM   29  C   UNL     1      -4.178   5.474 -34.154  1.00  0.00     0.010 A 
ENDBRANCH   2  24
TORSDOF 3
ENDMDL
MODEL 10
REMARK VINA RESULT:      -8.1     14.861     16.734
REMARK  3 active torsions:
REMARK  status: ('A' for Active; 'I' for Inactive)
REMARK    1  A    between atoms: C_2  and  C_3 
REMARK    2  A    between atoms: C_18  and  C_19 
REMARK    3  A    between atoms: C_22  and  O_23 
ROOT
HETATM    1  C   UNL     1      -5.047 -12.068 -40.340  1.00  0.00     0.060 C 
HETATM    2  C   UNL     1      -5.026 -13.463 -39.639  1.00  0.00     0.210 C 
HETATM    3  N   UNL     1      -5.156 -14.550 -40.645  1.00  0.00     0.110 N 
HETATM    4  C   UNL     1      -6.232 -14.477 -41.642  1.00  0.00     0.367 C 
HETATM    5  C   UNL     1      -7.599 -14.615 -40.983  1.00  0.00     0.230 C 
HETATM    6  O   UNL     1      -8.239 -15.663 -40.986  1.00  0.00    -0.278 OA
HETATM    7  N   UNL     1      -7.984 -13.482 -40.272  1.00  0.00    -0.227 NA
HETATM    8  C   UNL     1      -7.539 -13.507 -38.927  1.00  0.00     0.024 A 
HETATM    9  C   UNL     1      -6.170 -13.579 -38.581  1.00  0.00     0.007 A 
HETATM   10  C   UNL     1      -8.550 -13.566 -37.965  1.00  0.00     0.025 A 
HETATM   11  C   UNL     1      -8.231 -13.737 -36.622  1.00  0.00     0.014 A 
HETATM   12  C   UNL     1      -6.901 -13.894 -36.219  1.00  0.00    -0.025 A 
HETATM   13  C   UNL     1      -5.896 -13.825 -37.212  1.00  0.00     0.024 A 
HETATM   14  H   UNL     1      -5.256 -15.430 -40.133  1.00  0.00     0.318 HD
HETATM   15  H   UNL     1      -7.619 -12.661 -40.733  1.00  0.00     0.136 HD
ENDROOT
BRANCH  12  16
HETATM   16  C   UNL     1      -6.565 -14.136 -34.800  1.00  0.00    -0.026 A 
HETATM   17  C   UNL     1      -5.868 -13.172 -34.046  1.00  0.00     0.015 A 
HETATM   18  C   UNL     1      -5.525 -13.400 -32.709  1.00  0.00     0.037 A 
HETATM   19  C   UNL     1      -5.884 -14.600 -32.109  1.00  0.00     0.065 A 
HETATM   20  C   UNL     1      -6.580 -15.567 -32.821  1.00  0.00     0.037 A 
HETATM   21  C   UNL     1      -6.917 -15.336 -34.158  1.00  0.00     0.015 A 
BRANCH  19  22
HETATM   22  O   UNL     1      -5.568 -14.868 -30.810  1.00  0.00    -0.361 OA
HETATM   23  H   UNL     1      -6.081 -14.274 -30.238  1.00  0.00     0.217 HD
ENDBRANCH  19  22
ENDBRANCH  12  16
BRANCH   2  24
HETATM   24  C   UNL     1      -3.582 -13.536 -39.016  1.00  0.00    -0.016 A 
HETATM   25  C   UNL     1      -2.918 -12.363 -38.584  1.00  0.00     0.010 A 
HETATM   26  C   UNL     1      -1.621 -12.404 -38.064  1.00  0.00     0.001 A 
HETATM   27  C   UNL     1      -0.946 -13.615 -37.971  1.00  0.00     0.000 A 
HETATM   28  C   UNL     1      -1.569 -14.785 -38.391  1.00  0.00     0.001 A 
HETATM   29  C   UNL     1      -2.869 -14.747 -38.906  1.00  0.00     0.010 A 
ENDBRANCH   2  24
TORSDOF 3
ENDMDL
