MODEL 1
REMARK VINA RESULT:      -8.9      0.000      0.000
REMARK  2 active torsions:
REMARK  status: ('A' for Active; 'I' for Inactive)
REMARK    1  A    between atoms: C_15  and  C_16 
REMARK    2  A    between atoms: C_19  and  O_20 
ROOT
HETATM    1  C   UNL     1      -6.311  -4.550 -35.528  1.00  0.00     0.048 C 
HETATM    2  C   UNL     1      -5.562  -3.579 -34.662  1.00  0.00    -0.061 A 
HETATM    3  C   UNL     1      -5.957  -2.229 -34.602  1.00  0.00     0.021 A 
HETATM    4  C   UNL     1      -5.253  -1.327 -33.780  1.00  0.00    -0.000 A 
HETATM    5  C   UNL     1      -4.168  -1.813 -33.038  1.00  0.00     0.043 A 
HETATM    6  N   UNL     1      -3.627  -0.749 -32.353  1.00  0.00    -0.353 N 
HETATM    7  H   UNL     1      -2.824  -0.790 -31.739  1.00  0.00     0.166 HD
HETATM    8  C   UNL     1      -4.370   0.365 -32.586  1.00  0.00     0.066 A 
HETATM    9  C   UNL     1      -5.378   0.059 -33.479  1.00  0.00    -0.017 A 
HETATM   10  C   UNL     1      -6.360   1.097 -33.948  1.00  0.00     0.043 C 
HETATM   11  C   UNL     1      -5.903   2.540 -33.568  1.00  0.00     0.018 C 
HETATM   12  C   UNL     1      -5.369   2.599 -32.120  1.00  0.00     0.065 C 
HETATM   13  C   UNL     1      -4.190   1.669 -32.052  1.00  0.00     0.082 C 
HETATM   14  N   UNL     1      -3.076   2.143 -31.601  1.00  0.00    -0.203 NA
HETATM   15  C   UNL     1      -4.681   3.891 -31.664  1.00  0.00     0.121 C 
HETATM   16  N   UNL     1      -3.346   3.420 -31.256  1.00  0.00    -0.207 NA
HETATM   17  C   UNL     1      -3.781  -3.155 -33.052  1.00  0.00     0.031 A 
HETATM   18  C   UNL     1      -4.499  -4.029 -33.871  1.00  0.00     0.009 A 
HETATM   19  H   UNL     1      -2.598   4.078 -31.472  1.00  0.00     0.149 HD
ENDROOT
BRANCH  15  20
HETATM   20  C   UNL     1      -5.307   4.596 -30.472  1.00  0.00    -0.038 A 
HETATM   21  C   UNL     1      -4.808   5.823 -29.999  1.00  0.00     0.011 A 
HETATM   22  C   UNL     1      -5.478   6.537 -29.004  1.00  0.00     0.037 A 
HETATM   23  C   UNL     1      -6.682   6.060 -28.498  1.00  0.00     0.068 A 
HETATM   24  C   UNL     1      -7.180   4.831 -28.928  1.00  0.00     0.037 A 
HETATM   25  C   UNL     1      -6.498   4.104 -29.913  1.00  0.00     0.011 A 
BRANCH  23  26
HETATM   26  O   UNL     1      -7.308   6.842 -27.568  1.00  0.00    -0.356 OA
HETATM   27  C   UNL     1      -8.628   7.213 -27.964  1.00  0.00     0.210 C 
ENDBRANCH  23  26
ENDBRANCH  15  20
TORSDOF 2
ENDMDL
MODEL 2
REMARK VINA RESULT:      -8.8      2.680      3.626
REMARK  2 active torsions:
REMARK  status: ('A' for Active; 'I' for Inactive)
REMARK    1  A    between atoms: C_15  and  C_16 
REMARK    2  A    between atoms: C_19  and  O_20 
ROOT
HETATM    1  C   UNL     1      -4.772  -5.246 -34.914  1.00  0.00     0.048 C 
HETATM    2  C   UNL     1      -5.312  -3.902 -34.520  1.00  0.00    -0.061 A 
HETATM    3  C   UNL     1      -4.505  -2.992 -33.812  1.00  0.00     0.021 A 
HETATM    4  C   UNL     1      -5.018  -1.729 -33.454  1.00  0.00    -0.000 A 
HETATM    5  C   UNL     1      -6.334  -1.418 -33.821  1.00  0.00     0.043 A 
HETATM    6  N   UNL     1      -6.614  -0.163 -33.332  1.00  0.00    -0.353 N 
HETATM    7  H   UNL     1      -7.494   0.326 -33.433  1.00  0.00     0.166 HD
HETATM    8  C   UNL     1      -5.505   0.347 -32.734  1.00  0.00     0.066 A 
HETATM    9  C   UNL     1      -4.497  -0.595 -32.768  1.00  0.00    -0.017 A 
HETATM   10  C   UNL     1      -3.145  -0.328 -32.165  1.00  0.00     0.043 C 
HETATM   11  C   UNL     1      -3.155   0.945 -31.263  1.00  0.00     0.018 C 
HETATM   12  C   UNL     1      -3.931   2.102 -31.930  1.00  0.00     0.065 C 
HETATM   13  C   UNL     1      -5.341   1.623 -32.130  1.00  0.00     0.082 C 
HETATM   14  N   UNL     1      -6.296   2.355 -31.663  1.00  0.00    -0.203 NA
HETATM   15  C   UNL     1      -4.220   3.349 -31.087  1.00  0.00     0.121 C 
HETATM   16  N   UNL     1      -5.689   3.440 -31.135  1.00  0.00    -0.207 NA
HETATM   17  C   UNL     1      -7.141  -2.291 -34.555  1.00  0.00     0.031 A 
HETATM   18  C   UNL     1      -6.606  -3.533 -34.903  1.00  0.00     0.009 A 
HETATM   19  H   UNL     1      -6.105   3.770 -30.265  1.00  0.00     0.149 HD
ENDROOT
BRANCH  15  20
HETATM   20  C   UNL     1      -3.658   4.659 -31.617  1.00  0.00    -0.038 A 
HETATM   21  C   UNL     1      -4.374   5.864 -31.506  1.00  0.00     0.011 A 
HETATM   22  C   UNL     1      -3.792   7.083 -31.856  1.00  0.00     0.037 A 
HETATM   23  C   UNL     1      -2.469   7.123 -32.280  1.00  0.00     0.068 A 
HETATM   24  C   UNL     1      -1.749   5.940 -32.430  1.00  0.00     0.037 A 
HETATM   25  C   UNL     1      -2.339   4.713 -32.096  1.00  0.00     0.011 A 
BRANCH  23  26
HETATM   26  O   UNL     1      -1.950   8.359 -32.551  1.00  0.00    -0.356 OA
HETATM   27  C   UNL     1      -2.080   9.259 -31.452  1.00  0.00     0.210 C 
ENDBRANCH  23  26
ENDBRANCH  15  20
TORSDOF 2
ENDMDL
MODEL 3
REMARK VINA RESULT:      -8.7      5.139      8.792
REMARK  2 active torsions:
REMARK  status: ('A' for Active; 'I' for Inactive)
REMARK    1  A    between atoms: C_15  and  C_16 
REMARK    2  A    between atoms: C_19  and  O_20 
ROOT
HETATM    1  C   UNL     1     -13.682   6.326 -36.282  1.00  0.00     0.048 C 
HETATM    2  C   UNL     1     -12.370   5.919 -35.677  1.00  0.00    -0.061 A 
HETATM    3  C   UNL     1     -12.146   4.582 -35.298  1.00  0.00     0.021 A 
HETATM    4  C   UNL     1     -10.907   4.209 -34.739  1.00  0.00    -0.000 A 
HETATM    5  C   UNL     1      -9.926   5.195 -34.579  1.00  0.00     0.043 A 
HETATM    6  N   UNL     1      -8.835   4.602 -33.986  1.00  0.00    -0.353 N 
HETATM    7  H   UNL     1      -7.973   5.068 -33.736  1.00  0.00     0.166 HD
HETATM    8  C   UNL     1      -9.073   3.272 -33.832  1.00  0.00     0.066 A 
HETATM    9  C   UNL     1     -10.351   2.985 -34.267  1.00  0.00    -0.017 A 
HETATM   10  C   UNL     1     -10.913   1.592 -34.206  1.00  0.00     0.043 C 
HETATM   11  C   UNL     1     -10.029   0.649 -33.332  1.00  0.00     0.018 C 
HETATM   12  C   UNL     1      -8.527   0.850 -33.628  1.00  0.00     0.065 C 
HETATM   13  C   UNL     1      -8.205   2.281 -33.299  1.00  0.00     0.082 C 
HETATM   14  N   UNL     1      -7.226   2.506 -32.488  1.00  0.00    -0.203 NA
HETATM   15  C   UNL     1      -7.517   0.160 -32.703  1.00  0.00     0.121 C 
HETATM   16  N   UNL     1      -6.718   1.289 -32.196  1.00  0.00    -0.207 NA
HETATM   17  C   UNL     1     -10.112   6.521 -34.981  1.00  0.00     0.031 A 
HETATM   18  C   UNL     1     -11.346   6.863 -35.538  1.00  0.00     0.009 A 
HETATM   19  H   UNL     1      -6.429   1.179 -31.225  1.00  0.00     0.149 HD
ENDROOT
BRANCH  15  20
HETATM   20  C   UNL     1      -6.564  -0.819 -33.369  1.00  0.00    -0.038 A 
HETATM   21  C   UNL     1      -5.190  -0.827 -33.067  1.00  0.00     0.011 A 
HETATM   22  C   UNL     1      -4.348  -1.823 -33.566  1.00  0.00     0.037 A 
HETATM   23  C   UNL     1      -4.874  -2.854 -34.336  1.00  0.00     0.068 A 
HETATM   24  C   UNL     1      -6.226  -2.851 -34.675  1.00  0.00     0.037 A 
HETATM   25  C   UNL     1      -7.068  -1.841 -34.191  1.00  0.00     0.011 A 
BRANCH  23  26
HETATM   26  O   UNL     1      -3.999  -3.823 -34.740  1.00  0.00    -0.356 OA
HETATM   27  C   UNL     1      -3.676  -4.739 -33.694  1.00  0.00     0.210 C 
ENDBRANCH  23  26
ENDBRANCH  15  20
TORSDOF 2
ENDMDL
MODEL 4
REMARK VINA RESULT:      -8.6     16.324     18.010
REMARK  2 active torsions:
REMARK  status: ('A' for Active; 'I' for Inactive)
REMARK    1  A    between atoms: C_15  and  C_16 
REMARK    2  A    between atoms: C_19  and  O_20 
ROOT
HETATM    1  C   UNL     1       1.834 -14.663 -38.718  1.00  0.00     0.048 C 
HETATM    2  C   UNL     1       0.474 -14.734 -38.089  1.00  0.00    -0.061 A 
HETATM    3  C   UNL     1      -0.595 -13.986 -38.619  1.00  0.00     0.021 A 
HETATM    4  C   UNL     1      -1.871 -14.066 -38.026  1.00  0.00    -0.000 A 
HETATM    5  C   UNL     1      -2.035 -14.901 -36.913  1.00  0.00     0.043 A 
HETATM    6  N   UNL     1      -3.341 -14.782 -36.496  1.00  0.00    -0.353 N 
HETATM    7  H   UNL     1      -3.753 -15.260 -35.705  1.00  0.00     0.166 HD
HETATM    8  C   UNL     1      -4.013 -13.959 -37.343  1.00  0.00     0.066 A 
HETATM    9  C   UNL     1      -3.138 -13.477 -38.296  1.00  0.00    -0.017 A 
HETATM   10  C   UNL     1      -3.586 -12.522 -39.369  1.00  0.00     0.043 C 
HETATM   11  C   UNL     1      -5.000 -11.935 -39.067  1.00  0.00     0.018 C 
HETATM   12  C   UNL     1      -5.970 -13.029 -38.571  1.00  0.00     0.065 C 
HETATM   13  C   UNL     1      -5.384 -13.590 -37.306  1.00  0.00     0.082 C 
HETATM   14  N   UNL     1      -6.135 -13.614 -36.255  1.00  0.00    -0.203 NA
HETATM   15  C   UNL     1      -7.333 -12.583 -38.026  1.00  0.00     0.121 C 
HETATM   16  N   UNL     1      -7.330 -13.132 -36.660  1.00  0.00    -0.207 NA
HETATM   17  C   UNL     1      -0.999 -15.681 -36.392  1.00  0.00     0.031 A 
HETATM   18  C   UNL     1       0.254 -15.587 -37.002  1.00  0.00     0.009 A 
HETATM   19  H   UNL     1      -7.790 -12.530 -35.978  1.00  0.00     0.149 HD
ENDROOT
BRANCH  15  20
HETATM   20  C   UNL     1      -8.553 -13.136 -38.745  1.00  0.00    -0.038 A 
HETATM   21  C   UNL     1      -9.443 -12.295 -39.435  1.00  0.00     0.011 A 
HETATM   22  C   UNL     1     -10.473 -12.821 -40.217  1.00  0.00     0.037 A 
HETATM   23  C   UNL     1     -10.602 -14.198 -40.357  1.00  0.00     0.068 A 
HETATM   24  C   UNL     1      -9.753 -15.053 -39.658  1.00  0.00     0.037 A 
HETATM   25  C   UNL     1      -8.730 -14.525 -38.858  1.00  0.00     0.011 A 
BRANCH  23  26
HETATM   26  O   UNL     1     -11.599 -14.638 -41.184  1.00  0.00    -0.356 OA
HETATM   27  C   UNL     1     -11.182 -15.719 -42.016  1.00  0.00     0.210 C 
ENDBRANCH  23  26
ENDBRANCH  15  20
TORSDOF 2
ENDMDL
MODEL 5
REMARK VINA RESULT:      -8.6      3.209      8.434
REMARK  2 active torsions:
REMARK  status: ('A' for Active; 'I' for Inactive)
REMARK    1  A    between atoms: C_15  and  C_16 
REMARK    2  A    between atoms: C_19  and  O_20 
ROOT
HETATM    1  C   UNL     1      -3.859   9.463 -30.866  1.00  0.00     0.048 C 
HETATM    2  C   UNL     1      -3.360   8.054 -31.007  1.00  0.00    -0.061 A 
HETATM    3  C   UNL     1      -4.259   6.973 -30.959  1.00  0.00     0.021 A 
HETATM    4  C   UNL     1      -3.782   5.655 -31.102  1.00  0.00    -0.000 A 
HETATM    5  C   UNL     1      -2.407   5.463 -31.290  1.00  0.00     0.043 A 
HETATM    6  N   UNL     1      -2.185   4.107 -31.363  1.00  0.00    -0.353 N 
HETATM    7  H   UNL     1      -1.285   3.663 -31.487  1.00  0.00     0.166 HD
HETATM    8  C   UNL     1      -3.373   3.450 -31.295  1.00  0.00     0.066 A 
HETATM    9  C   UNL     1      -4.389   4.366 -31.114  1.00  0.00    -0.017 A 
HETATM   10  C   UNL     1      -5.825   3.939 -30.984  1.00  0.00     0.043 C 
HETATM   11  C   UNL     1      -5.953   2.400 -30.760  1.00  0.00     0.018 C 
HETATM   12  C   UNL     1      -5.009   1.615 -31.696  1.00  0.00     0.065 C 
HETATM   13  C   UNL     1      -3.608   2.050 -31.368  1.00  0.00     0.082 C 
HETATM   14  N   UNL     1      -2.743   1.133 -31.089  1.00  0.00    -0.203 NA
HETATM   15  C   UNL     1      -4.853   0.108 -31.454  1.00  0.00     0.121 C 
HETATM   16  N   UNL     1      -3.403  -0.036 -31.235  1.00  0.00    -0.207 NA
HETATM   17  C   UNL     1      -1.499   6.522 -31.378  1.00  0.00     0.031 A 
HETATM   18  C   UNL     1      -2.000   7.818 -31.239  1.00  0.00     0.009 A 
HETATM   19  H   UNL     1      -3.165  -0.740 -30.537  1.00  0.00     0.149 HD
ENDROOT
BRANCH  15  20
HETATM   20  C   UNL     1      -5.237  -0.797 -32.613  1.00  0.00    -0.038 A 
HETATM   21  C   UNL     1      -4.331  -1.729 -33.149  1.00  0.00     0.011 A 
HETATM   22  C   UNL     1      -4.736  -2.659 -34.108  1.00  0.00     0.037 A 
HETATM   23  C   UNL     1      -6.065  -2.702 -34.514  1.00  0.00     0.068 A 
HETATM   24  C   UNL     1      -6.975  -1.769 -34.021  1.00  0.00     0.037 A 
HETATM   25  C   UNL     1      -6.564  -0.823 -33.072  1.00  0.00     0.011 A 
BRANCH  23  26
HETATM   26  O   UNL     1      -6.399  -3.676 -35.414  1.00  0.00    -0.356 OA
HETATM   27  C   UNL     1      -5.829  -4.943 -35.085  1.00  0.00     0.210 C 
ENDBRANCH  23  26
ENDBRANCH  15  20
TORSDOF 2
ENDMDL
MODEL 6
REMARK VINA RESULT:      -8.5      4.859      9.663
REMARK  2 active torsions:
REMARK  status: ('A' for Active; 'I' for Inactive)
REMARK    1  A    between atoms: C_15  and  C_16 
REMARK    2  A    between atoms: C_19  and  O_20 
ROOT
HETATM    1  C   UNL     1       2.410   8.605 -25.503  1.00  0.00     0.048 C 
HETATM    2  C   UNL     1       1.342   8.656 -26.557  1.00  0.00    -0.061 A 
HETATM    3  C   UNL     1       1.265   7.651 -27.539  1.00  0.00     0.021 A 
HETATM    4  C   UNL     1       0.253   7.703 -28.520  1.00  0.00    -0.000 A 
HETATM    5  C   UNL     1      -0.654   8.770 -28.481  1.00  0.00     0.043 A 
HETATM    6  N   UNL     1      -1.510   8.623 -29.549  1.00  0.00    -0.353 N 
HETATM    7  H   UNL     1      -2.269   9.248 -29.787  1.00  0.00     0.166 HD
HETATM    8  C   UNL     1      -1.214   7.473 -30.211  1.00  0.00     0.066 A 
HETATM    9  C   UNL     1      -0.117   6.879 -29.620  1.00  0.00    -0.017 A 
HETATM   10  C   UNL     1       0.463   5.593 -30.143  1.00  0.00     0.043 C 
HETATM   11  C   UNL     1      -0.106   5.232 -31.551  1.00  0.00     0.018 C 
HETATM   12  C   UNL     1      -1.632   5.460 -31.617  1.00  0.00     0.065 C 
HETATM   13  C   UNL     1      -1.867   6.919 -31.344  1.00  0.00     0.082 C 
HETATM   14  N   UNL     1      -2.567   7.585 -32.201  1.00  0.00    -0.203 NA
HETATM   15  C   UNL     1      -2.311   5.360 -32.988  1.00  0.00     0.121 C 
HETATM   16  N   UNL     1      -2.944   6.682 -33.132  1.00  0.00    -0.207 NA
HETATM   17  C   UNL     1      -0.620   9.759 -27.495  1.00  0.00     0.031 A 
HETATM   18  C   UNL     1       0.388   9.680 -26.532  1.00  0.00     0.009 A 
HETATM   19  H   UNL     1      -2.931   7.038 -34.088  1.00  0.00     0.149 HD
ENDROOT
BRANCH  15  20
HETATM   20  C   UNL     1      -3.400   4.309 -33.119  1.00  0.00    -0.038 A 
HETATM   21  C   UNL     1      -3.341   3.097 -32.407  1.00  0.00     0.011 A 
HETATM   22  C   UNL     1      -4.414   2.204 -32.414  1.00  0.00     0.037 A 
HETATM   23  C   UNL     1      -5.581   2.528 -33.096  1.00  0.00     0.068 A 
HETATM   24  C   UNL     1      -5.652   3.707 -33.835  1.00  0.00     0.037 A 
HETATM   25  C   UNL     1      -4.569   4.595 -33.844  1.00  0.00     0.011 A 
BRANCH  23  26
HETATM   26  O   UNL     1      -6.609   1.630 -33.010  1.00  0.00    -0.356 OA
HETATM   27  C   UNL     1      -6.160   0.315 -32.686  1.00  0.00     0.210 C 
ENDBRANCH  23  26
ENDBRANCH  15  20
TORSDOF 2
ENDMDL
MODEL 7
REMARK VINA RESULT:      -8.2      4.013      9.105
REMARK  2 active torsions:
REMARK  status: ('A' for Active; 'I' for Inactive)
REMARK    1  A    between atoms: C_15  and  C_16 
REMARK    2  A    between atoms: C_19  and  O_20 
ROOT
HETATM    1  C   UNL     1       1.876   8.801 -27.402  1.00  0.00     0.048 C 
HETATM    2  C   UNL     1       0.526   8.438 -27.947  1.00  0.00    -0.061 A 
HETATM    3  C   UNL     1       0.409   7.489 -28.980  1.00  0.00     0.021 A 
HETATM    4  C   UNL     1      -0.864   7.148 -29.480  1.00  0.00    -0.000 A 
HETATM    5  C   UNL     1      -1.986   7.773 -28.922  1.00  0.00     0.043 A 
HETATM    6  N   UNL     1      -3.095   7.310 -29.594  1.00  0.00    -0.353 N 
HETATM    7  H   UNL     1      -4.050   7.591 -29.419  1.00  0.00     0.166 HD
HETATM    8  C   UNL     1      -2.714   6.372 -30.501  1.00  0.00     0.066 A 
HETATM    9  C   UNL     1      -1.339   6.251 -30.480  1.00  0.00    -0.017 A 
HETATM   10  C   UNL     1      -0.615   5.299 -31.391  1.00  0.00     0.043 C 
HETATM   11  C   UNL     1      -1.548   4.753 -32.516  1.00  0.00     0.018 C 
HETATM   12  C   UNL     1      -2.935   4.365 -31.960  1.00  0.00     0.065 C 
HETATM   13  C   UNL     1      -3.536   5.614 -31.378  1.00  0.00     0.082 C 
HETATM   14  N   UNL     1      -4.713   5.959 -31.781  1.00  0.00    -0.203 NA
HETATM   15  C   UNL     1      -4.038   4.017 -32.967  1.00  0.00     0.121 C 
HETATM   16  N   UNL     1      -5.096   4.987 -32.637  1.00  0.00    -0.207 NA
HETATM   17  C   UNL     1      -1.898   8.691 -27.872  1.00  0.00     0.031 A 
HETATM   18  C   UNL     1      -0.626   9.007 -27.391  1.00  0.00     0.009 A 
HETATM   19  H   UNL     1      -5.607   5.325 -33.451  1.00  0.00     0.149 HD
ENDROOT
BRANCH  15  20
HETATM   20  C   UNL     1      -4.634   2.624 -32.849  1.00  0.00    -0.038 A 
HETATM   21  C   UNL     1      -5.892   2.315 -33.395  1.00  0.00     0.011 A 
HETATM   22  C   UNL     1      -6.366   1.002 -33.416  1.00  0.00     0.037 A 
HETATM   23  C   UNL     1      -5.570  -0.030 -32.933  1.00  0.00     0.068 A 
HETATM   24  C   UNL     1      -4.333   0.254 -32.358  1.00  0.00     0.037 A 
HETATM   25  C   UNL     1      -3.865   1.574 -32.320  1.00  0.00     0.011 A 
BRANCH  23  26
HETATM   26  O   UNL     1      -6.078  -1.295 -33.039  1.00  0.00    -0.356 OA
HETATM   27  C   UNL     1      -5.758  -1.910 -34.287  1.00  0.00     0.210 C 
ENDBRANCH  23  26
ENDBRANCH  15  20
TORSDOF 2
ENDMDL
MODEL 8
REMARK VINA RESULT:      -8.0      5.868      8.916
REMARK  2 active torsions:
REMARK  status: ('A' for Active; 'I' for Inactive)
REMARK    1  A    between atoms: C_15  and  C_16 
REMARK    2  A    between atoms: C_19  and  O_20 
ROOT
HETATM    1  C   UNL     1     -14.074   6.967 -37.109  1.00  0.00     0.048 C 
HETATM    2  C   UNL     1     -13.176   6.524 -35.991  1.00  0.00    -0.061 A 
HETATM    3  C   UNL     1     -12.877   5.159 -35.818  1.00  0.00     0.021 A 
HETATM    4  C   UNL     1     -12.026   4.753 -34.770  1.00  0.00    -0.000 A 
HETATM    5  C   UNL     1     -11.497   5.738 -33.925  1.00  0.00     0.043 A 
HETATM    6  N   UNL     1     -10.738   5.099 -32.971  1.00  0.00    -0.353 N 
HETATM    7  H   UNL     1     -10.239   5.551 -32.216  1.00  0.00     0.166 HD
HETATM    8  C   UNL     1     -10.719   3.765 -33.227  1.00  0.00     0.066 A 
HETATM    9  C   UNL     1     -11.518   3.501 -34.322  1.00  0.00    -0.017 A 
HETATM   10  C   UNL     1     -11.712   2.102 -34.840  1.00  0.00     0.043 C 
HETATM   11  C   UNL     1     -11.189   1.033 -33.831  1.00  0.00     0.018 C 
HETATM   12  C   UNL     1      -9.823   1.441 -33.237  1.00  0.00     0.065 C 
HETATM   13  C   UNL     1     -10.031   2.744 -32.518  1.00  0.00     0.082 C 
HETATM   14  N   UNL     1      -9.655   2.817 -31.285  1.00  0.00    -0.203 NA
HETATM   15  C   UNL     1      -9.274   0.610 -32.071  1.00  0.00     0.121 C 
HETATM   16  N   UNL     1      -9.101   1.616 -31.009  1.00  0.00    -0.207 NA
HETATM   17  C   UNL     1     -11.750   7.101 -34.099  1.00  0.00     0.031 A 
HETATM   18  C   UNL     1     -12.591   7.476 -35.148  1.00  0.00     0.009 A 
HETATM   19  H   UNL     1      -9.310   1.263 -30.076  1.00  0.00     0.149 HD
ENDROOT
BRANCH  15  20
HETATM   20  C   UNL     1      -7.927  -0.056 -32.301  1.00  0.00    -0.038 A 
HETATM   21  C   UNL     1      -7.606  -0.658 -33.531  1.00  0.00     0.011 A 
HETATM   22  C   UNL     1      -6.318  -1.132 -33.786  1.00  0.00     0.037 A 
HETATM   23  C   UNL     1      -5.318  -0.971 -32.834  1.00  0.00     0.068 A 
HETATM   24  C   UNL     1      -5.619  -0.407 -31.596  1.00  0.00     0.037 A 
HETATM   25  C   UNL     1      -6.916   0.053 -31.332  1.00  0.00     0.011 A 
BRANCH  23  26
HETATM   26  O   UNL     1      -4.069  -1.409 -33.179  1.00  0.00    -0.356 OA
HETATM   27  C   UNL     1      -3.414  -2.089 -32.109  1.00  0.00     0.210 C 
ENDBRANCH  23  26
ENDBRANCH  15  20
TORSDOF 2
ENDMDL
MODEL 9
REMARK VINA RESULT:      -8.0      2.491      3.207
REMARK  2 active torsions:
REMARK  status: ('A' for Active; 'I' for Inactive)
REMARK    1  A    between atoms: C_15  and  C_16 
REMARK    2  A    between atoms: C_19  and  O_20 
ROOT
HETATM    1  C   UNL     1      -3.623  -4.030 -34.377  1.00  0.00     0.048 C 
HETATM    2  C   UNL     1      -4.715  -3.037 -34.106  1.00  0.00    -0.061 A 
HETATM    3  C   UNL     1      -4.609  -2.142 -33.025  1.00  0.00     0.021 A 
HETATM    4  C   UNL     1      -5.635  -1.207 -32.783  1.00  0.00    -0.000 A 
HETATM    5  C   UNL     1      -6.742  -1.199 -33.642  1.00  0.00     0.043 A 
HETATM    6  N   UNL     1      -7.614  -0.237 -33.185  1.00  0.00    -0.353 N 
HETATM    7  H   UNL     1      -8.508  -0.008 -33.598  1.00  0.00     0.166 HD
HETATM    8  C   UNL     1      -7.065   0.399 -32.116  1.00  0.00     0.066 A 
HETATM    9  C   UNL     1      -5.847  -0.180 -31.820  1.00  0.00    -0.017 A 
HETATM   10  C   UNL     1      -5.004   0.298 -30.670  1.00  0.00     0.043 C 
HETATM   11  C   UNL     1      -5.801   1.250 -29.724  1.00  0.00     0.018 C 
HETATM   12  C   UNL     1      -6.639   2.269 -30.527  1.00  0.00     0.065 C 
HETATM   13  C   UNL     1      -7.604   1.477 -31.364  1.00  0.00     0.082 C 
HETATM   14  N   UNL     1      -8.859   1.768 -31.273  1.00  0.00    -0.203 NA
HETATM   15  C   UNL     1      -7.645   3.132 -29.756  1.00  0.00     0.121 C 
HETATM   16  N   UNL     1      -8.921   2.813 -30.419  1.00  0.00    -0.207 NA
HETATM   17  C   UNL     1      -6.852  -2.052 -34.744  1.00  0.00     0.031 A 
HETATM   18  C   UNL     1      -5.819  -2.965 -34.963  1.00  0.00     0.009 A 
HETATM   19  H   UNL     1      -9.716   2.784 -29.781  1.00  0.00     0.149 HD
ENDROOT
BRANCH  15  20
HETATM   20  C   UNL     1      -7.441   4.636 -29.845  1.00  0.00    -0.038 A 
HETATM   21  C   UNL     1      -7.454   5.448 -28.698  1.00  0.00     0.011 A 
HETATM   22  C   UNL     1      -7.117   6.801 -28.769  1.00  0.00     0.037 A 
HETATM   23  C   UNL     1      -6.717   7.353 -29.980  1.00  0.00     0.068 A 
HETATM   24  C   UNL     1      -6.727   6.577 -31.137  1.00  0.00     0.037 A 
HETATM   25  C   UNL     1      -7.084   5.223 -31.070  1.00  0.00     0.011 A 
BRANCH  23  26
HETATM   26  O   UNL     1      -6.348   8.670 -29.959  1.00  0.00    -0.356 OA
HETATM   27  C   UNL     1      -5.374   8.980 -30.955  1.00  0.00     0.210 C 
ENDBRANCH  23  26
ENDBRANCH  15  20
TORSDOF 2
ENDMDL
MODEL 10
REMARK VINA RESULT:      -7.8      3.855      7.422
REMARK  2 active torsions:
REMARK  status: ('A' for Active; 'I' for Inactive)
REMARK    1  A    between atoms: C_15  and  C_16 
REMARK    2  A    between atoms: C_19  and  O_20 
ROOT
HETATM    1  C   UNL     1      -1.145   7.776 -30.346  1.00  0.00     0.048 C 
HETATM    2  C   UNL     1      -1.671   6.569 -31.068  1.00  0.00    -0.061 A 
HETATM    3  C   UNL     1      -2.871   5.960 -30.654  1.00  0.00     0.021 A 
HETATM    4  C   UNL     1      -3.361   4.833 -31.344  1.00  0.00    -0.000 A 
HETATM    5  C   UNL     1      -2.627   4.351 -32.435  1.00  0.00     0.043 A 
HETATM    6  N   UNL     1      -3.279   3.237 -32.912  1.00  0.00    -0.353 N 
HETATM    7  H   UNL     1      -2.979   2.667 -33.692  1.00  0.00     0.166 HD
HETATM    8  C   UNL     1      -4.423   3.045 -32.205  1.00  0.00     0.066 A 
HETATM    9  C   UNL     1      -4.507   3.999 -31.210  1.00  0.00    -0.017 A 
HETATM   10  C   UNL     1      -5.661   4.036 -30.246  1.00  0.00     0.043 C 
HETATM   11  C   UNL     1      -6.514   2.731 -30.314  1.00  0.00     0.018 C 
HETATM   12  C   UNL     1      -6.759   2.294 -31.775  1.00  0.00     0.065 C 
HETATM   13  C   UNL     1      -5.410   2.039 -32.386  1.00  0.00     0.082 C 
HETATM   14  N   UNL     1      -5.212   0.894 -32.950  1.00  0.00    -0.203 NA
HETATM   15  C   UNL     1      -7.393   0.918 -32.013  1.00  0.00     0.121 C 
HETATM   16  N   UNL     1      -6.390   0.241 -32.852  1.00  0.00    -0.207 NA
HETATM   17  C   UNL     1      -1.453   4.961 -32.887  1.00  0.00     0.031 A 
HETATM   18  C   UNL     1      -0.993   6.079 -32.190  1.00  0.00     0.009 A 
HETATM   19  H   UNL     1      -6.300  -0.755 -32.655  1.00  0.00     0.149 HD
ENDROOT
BRANCH  15  20
HETATM   20  C   UNL     1      -8.710   0.913 -32.771  1.00  0.00    -0.038 A 
HETATM   21  C   UNL     1      -9.706  -0.045 -32.506  1.00  0.00     0.011 A 
HETATM   22  C   UNL     1     -10.968   0.046 -33.096  1.00  0.00     0.037 A 
HETATM   23  C   UNL     1     -11.271   1.120 -33.924  1.00  0.00     0.068 A 
HETATM   24  C   UNL     1     -10.292   2.064 -34.227  1.00  0.00     0.037 A 
HETATM   25  C   UNL     1      -9.018   1.964 -33.650  1.00  0.00     0.011 A 
BRANCH  23  26
HETATM   26  O   UNL     1     -12.544   1.171 -34.419  1.00  0.00    -0.356 OA
HETATM   27  C   UNL     1     -13.394   0.179 -33.844  1.00  0.00     0.210 C 
ENDBRANCH  23  26
ENDBRANCH  15  20
TORSDOF 2
ENDMDL
