MODEL 1
REMARK VINA RESULT:      -8.2      0.000      0.000
REMARK  5 active torsions:
REMARK  status: ('A' for Active; 'I' for Inactive)
REMARK    1  A    between atoms: C_10  and  N_11 
REMARK    2  A    between atoms: N_11  and  C_12 
REMARK    3  A    between atoms: C_12  and  C_13 
REMARK    4  A    between atoms: C_13  and  N_14 
REMARK       I    between atoms: N_14  and  C_15 
REMARK    5  A    between atoms: C_15  and  C_16 
ROOT
HETATM    1  C   UNL     1      -3.362  -4.906 -33.829  1.00  0.00     0.048 C 
HETATM    2  C   UNL     1      -4.414  -3.853 -34.033  1.00  0.00    -0.060 A 
HETATM    3  C   UNL     1      -4.201  -2.534 -33.617  1.00  0.00     0.037 A 
HETATM    4  C   UNL     1      -5.179  -1.554 -33.835  1.00  0.00     0.044 A 
HETATM    5  C   UNL     1      -6.381  -1.882 -34.488  1.00  0.00    -0.009 A 
HETATM    6  C   UNL     1      -6.585  -3.201 -34.916  1.00  0.00     0.014 A 
HETATM    7  C   UNL     1      -5.607  -4.175 -34.693  1.00  0.00     0.007 A 
HETATM    8  N   UNL     1      -4.983  -0.292 -33.420  1.00  0.00    -0.346 N 
HETATM    9  H   UNL     1      -4.102  -0.091 -32.963  1.00  0.00     0.167 HD
HETATM   10  C   UNL     1      -5.871   0.708 -33.562  1.00  0.00     0.086 A 
HETATM   11  C   UNL     1      -7.069   0.437 -34.252  1.00  0.00    -0.023 A 
HETATM   12  C   UNL     1      -8.108   1.499 -34.494  1.00  0.00     0.052 C 
HETATM   13  C   UNL     1      -7.324  -0.870 -34.691  1.00  0.00     0.023 A 
ENDROOT
BRANCH  10  14
HETATM   14  N   UNL     1      -5.576   2.000 -33.116  1.00  0.00    -0.277 NA
HETATM   15  H   UNL     1      -6.355   2.637 -33.294  1.00  0.00     0.129 HD
BRANCH  14  16
HETATM   16  C   UNL     1      -5.013   2.163 -31.776  1.00  0.00     0.113 C 
BRANCH  16  17
HETATM   17  C   UNL     1      -3.559   2.653 -31.785  1.00  0.00     0.137 C 
BRANCH  17  18
HETATM   18  N   UNL     1      -3.193   3.555 -32.874  1.00  0.00    -0.360 N 
HETATM   19  C   UNL     1      -2.096   4.395 -32.900  1.00  0.00     0.221 C 
HETATM   20  O   UNL     1      -1.304   4.491 -31.966  1.00  0.00    -0.273 OA
HETATM   21  H   UNL     1      -3.768   3.512 -33.709  1.00  0.00     0.162 HD
BRANCH  19  22
HETATM   22  C   UNL     1      -1.956   5.190 -34.198  1.00  0.00     0.070 C 
HETATM   23  C   UNL     1      -3.302   5.298 -34.912  1.00  0.00     0.019 C 
HETATM   24  C   UNL     1      -1.389   6.583 -33.923  1.00  0.00     0.019 C 
ENDBRANCH  19  22
ENDBRANCH  17  18
ENDBRANCH  16  17
ENDBRANCH  14  16
ENDBRANCH  10  14
TORSDOF 5
ENDMDL
MODEL 2
REMARK VINA RESULT:      -8.1      3.200      5.931
REMARK  5 active torsions:
REMARK  status: ('A' for Active; 'I' for Inactive)
REMARK    1  A    between atoms: C_10  and  N_11 
REMARK    2  A    between atoms: N_11  and  C_12 
REMARK    3  A    between atoms: C_12  and  C_13 
REMARK    4  A    between atoms: C_13  and  N_14 
REMARK       I    between atoms: N_14  and  C_15 
REMARK    5  A    between atoms: C_15  and  C_16 
ROOT
HETATM    1  C   UNL     1      -6.678  -4.542 -35.425  1.00  0.00     0.048 C 
HETATM    2  C   UNL     1      -6.050  -3.338 -34.783  1.00  0.00    -0.060 A 
HETATM    3  C   UNL     1      -6.778  -2.156 -34.607  1.00  0.00     0.037 A 
HETATM    4  C   UNL     1      -6.189  -1.047 -33.984  1.00  0.00     0.044 A 
HETATM    5  C   UNL     1      -4.865  -1.114 -33.515  1.00  0.00    -0.009 A 
HETATM    6  C   UNL     1      -4.144  -2.305 -33.681  1.00  0.00     0.014 A 
HETATM    7  C   UNL     1      -4.735  -3.406 -34.305  1.00  0.00     0.007 A 
HETATM    8  N   UNL     1      -6.881   0.094 -33.831  1.00  0.00    -0.346 N 
HETATM    9  H   UNL     1      -7.834   0.102 -34.172  1.00  0.00     0.167 HD
HETATM   10  C   UNL     1      -6.394   1.215 -33.269  1.00  0.00     0.086 A 
HETATM   11  C   UNL     1      -5.088   1.179 -32.743  1.00  0.00    -0.023 A 
HETATM   12  C   UNL     1      -4.469   2.372 -32.063  1.00  0.00     0.052 C 
HETATM   13  C   UNL     1      -4.323   0.014 -32.893  1.00  0.00     0.023 A 
ENDROOT
BRANCH  10  14
HETATM   14  N   UNL     1      -7.193   2.355 -33.133  1.00  0.00    -0.277 NA
HETATM   15  H   UNL     1      -7.772   2.499 -33.963  1.00  0.00     0.129 HD
BRANCH  14  16
HETATM   16  C   UNL     1      -7.940   2.539 -31.889  1.00  0.00     0.113 C 
BRANCH  16  17
HETATM   17  C   UNL     1      -8.903   1.384 -31.585  1.00  0.00     0.137 C 
BRANCH  17  18
HETATM   18  N   UNL     1     -10.234   1.486 -32.177  1.00  0.00    -0.360 N 
HETATM   19  C   UNL     1     -10.585   1.108 -33.459  1.00  0.00     0.221 C 
HETATM   20  O   UNL     1      -9.779   0.656 -34.268  1.00  0.00    -0.273 OA
HETATM   21  H   UNL     1     -10.976   1.810 -31.566  1.00  0.00     0.162 HD
BRANCH  19  22
HETATM   22  C   UNL     1     -12.067   1.300 -33.776  1.00  0.00     0.070 C 
HETATM   23  C   UNL     1     -12.247   1.899 -35.170  1.00  0.00     0.019 C 
HETATM   24  C   UNL     1     -12.822  -0.025 -33.668  1.00  0.00     0.019 C 
ENDBRANCH  19  22
ENDBRANCH  17  18
ENDBRANCH  16  17
ENDBRANCH  14  16
ENDBRANCH  10  14
TORSDOF 5
ENDMDL
MODEL 3
REMARK VINA RESULT:      -8.0      1.590      2.708
REMARK  5 active torsions:
REMARK  status: ('A' for Active; 'I' for Inactive)
REMARK    1  A    between atoms: C_10  and  N_11 
REMARK    2  A    between atoms: N_11  and  C_12 
REMARK    3  A    between atoms: C_12  and  C_13 
REMARK    4  A    between atoms: C_13  and  N_14 
REMARK       I    between atoms: N_14  and  C_15 
REMARK    5  A    between atoms: C_15  and  C_16 
ROOT
HETATM    1  C   UNL     1      -6.816  -4.551 -35.604  1.00  0.00     0.048 C 
HETATM    2  C   UNL     1      -6.021  -3.519 -34.856  1.00  0.00    -0.060 A 
HETATM    3  C   UNL     1      -6.554  -2.252 -34.595  1.00  0.00     0.037 A 
HETATM    4  C   UNL     1      -5.813  -1.305 -33.875  1.00  0.00     0.044 A 
HETATM    5  C   UNL     1      -4.530  -1.622 -33.393  1.00  0.00    -0.009 A 
HETATM    6  C   UNL     1      -4.005  -2.897 -33.646  1.00  0.00     0.014 A 
HETATM    7  C   UNL     1      -4.747  -3.836 -34.367  1.00  0.00     0.007 A 
HETATM    8  N   UNL     1      -6.317  -0.083 -33.639  1.00  0.00    -0.346 N 
HETATM    9  H   UNL     1      -7.248   0.106 -33.991  1.00  0.00     0.167 HD
HETATM   10  C   UNL     1      -5.673   0.897 -32.980  1.00  0.00     0.086 A 
HETATM   11  C   UNL     1      -4.404   0.609 -32.440  1.00  0.00    -0.023 A 
HETATM   12  C   UNL     1      -3.621   1.628 -31.655  1.00  0.00     0.052 C 
HETATM   13  C   UNL     1      -3.832  -0.649 -32.673  1.00  0.00     0.023 A 
ENDROOT
BRANCH  10  14
HETATM   14  N   UNL     1      -6.282   2.137 -32.762  1.00  0.00    -0.277 NA
HETATM   15  H   UNL     1      -5.864   2.616 -31.961  1.00  0.00     0.129 HD
BRANCH  14  16
HETATM   16  C   UNL     1      -6.480   3.026 -33.906  1.00  0.00     0.113 C 
BRANCH  16  17
HETATM   17  C   UNL     1      -5.818   4.399 -33.729  1.00  0.00     0.137 C 
BRANCH  17  18
HETATM   18  N   UNL     1      -4.368   4.392 -33.547  1.00  0.00    -0.360 N 
HETATM   19  C   UNL     1      -3.440   4.969 -34.393  1.00  0.00     0.221 C 
HETATM   20  O   UNL     1      -3.749   5.544 -35.434  1.00  0.00    -0.273 OA
HETATM   21  H   UNL     1      -4.023   3.976 -32.689  1.00  0.00     0.162 HD
BRANCH  19  22
HETATM   22  C   UNL     1      -1.996   4.831 -33.913  1.00  0.00     0.070 C 
HETATM   23  C   UNL     1      -1.124   5.937 -34.505  1.00  0.00     0.019 C 
HETATM   24  C   UNL     1      -1.925   4.861 -32.387  1.00  0.00     0.019 C 
ENDBRANCH  19  22
ENDBRANCH  17  18
ENDBRANCH  16  17
ENDBRANCH  14  16
ENDBRANCH  10  14
TORSDOF 5
ENDMDL
MODEL 4
REMARK VINA RESULT:      -7.5      2.825      3.618
REMARK  5 active torsions:
REMARK  status: ('A' for Active; 'I' for Inactive)
REMARK    1  A    between atoms: C_10  and  N_11 
REMARK    2  A    between atoms: N_11  and  C_12 
REMARK    3  A    between atoms: C_12  and  C_13 
REMARK    4  A    between atoms: C_13  and  N_14 
REMARK       I    between atoms: N_14  and  C_15 
REMARK    5  A    between atoms: C_15  and  C_16 
ROOT
HETATM    1  C   UNL     1      -2.964  -1.433 -31.960  1.00  0.00     0.048 C 
HETATM    2  C   UNL     1      -4.381  -1.200 -32.402  1.00  0.00    -0.060 A 
HETATM    3  C   UNL     1      -5.244  -0.395 -31.649  1.00  0.00     0.037 A 
HETATM    4  C   UNL     1      -6.556  -0.164 -32.083  1.00  0.00     0.044 A 
HETATM    5  C   UNL     1      -7.017  -0.726 -33.287  1.00  0.00    -0.009 A 
HETATM    6  C   UNL     1      -6.145  -1.521 -34.045  1.00  0.00     0.014 A 
HETATM    7  C   UNL     1      -4.838  -1.751 -33.605  1.00  0.00     0.007 A 
HETATM    8  N   UNL     1      -7.391   0.594 -31.354  1.00  0.00    -0.346 N 
HETATM    9  H   UNL     1      -7.021   0.991 -30.498  1.00  0.00     0.167 HD
HETATM   10  C   UNL     1      -8.671   0.852 -31.676  1.00  0.00     0.086 A 
HETATM   11  C   UNL     1      -9.162   0.347 -32.896  1.00  0.00    -0.023 A 
HETATM   12  C   UNL     1     -10.569   0.613 -33.361  1.00  0.00     0.052 C 
HETATM   13  C   UNL     1      -8.331  -0.461 -33.684  1.00  0.00     0.023 A 
ENDROOT
BRANCH  10  14
HETATM   14  N   UNL     1      -9.465   1.669 -30.865  1.00  0.00    -0.277 NA
HETATM   15  H   UNL     1      -9.830   1.148 -30.065  1.00  0.00     0.129 HD
BRANCH  14  16
HETATM   16  C   UNL     1      -8.954   2.987 -30.491  1.00  0.00     0.113 C 
BRANCH  16  17
HETATM   17  C   UNL     1      -8.698   3.902 -31.695  1.00  0.00     0.137 C 
BRANCH  17  18
HETATM   18  N   UNL     1      -7.300   4.224 -31.971  1.00  0.00    -0.360 N 
HETATM   19  C   UNL     1      -6.534   3.706 -32.997  1.00  0.00     0.221 C 
HETATM   20  O   UNL     1      -6.958   2.872 -33.795  1.00  0.00    -0.273 OA
HETATM   21  H   UNL     1      -6.878   4.938 -31.387  1.00  0.00     0.162 HD
BRANCH  19  22
HETATM   22  C   UNL     1      -5.113   4.266 -33.053  1.00  0.00     0.070 C 
HETATM   23  C   UNL     1      -4.096   3.197 -32.659  1.00  0.00     0.019 C 
HETATM   24  C   UNL     1      -4.798   4.810 -34.446  1.00  0.00     0.019 C 
ENDBRANCH  19  22
ENDBRANCH  17  18
ENDBRANCH  16  17
ENDBRANCH  14  16
ENDBRANCH  10  14
TORSDOF 5
ENDMDL
MODEL 5
REMARK VINA RESULT:      -7.3      4.584      7.077
REMARK  5 active torsions:
REMARK  status: ('A' for Active; 'I' for Inactive)
REMARK    1  A    between atoms: C_10  and  N_11 
REMARK    2  A    between atoms: N_11  and  C_12 
REMARK    3  A    between atoms: C_12  and  C_13 
REMARK    4  A    between atoms: C_13  and  N_14 
REMARK       I    between atoms: N_14  and  C_15 
REMARK    5  A    between atoms: C_15  and  C_16 
ROOT
HETATM    1  C   UNL     1      -5.890  -4.639 -35.135  1.00  0.00     0.048 C 
HETATM    2  C   UNL     1      -5.834  -3.189 -34.745  1.00  0.00    -0.060 A 
HETATM    3  C   UNL     1      -6.936  -2.349 -34.941  1.00  0.00     0.037 A 
HETATM    4  C   UNL     1      -6.882  -1.005 -34.550  1.00  0.00     0.044 A 
HETATM    5  C   UNL     1      -5.723  -0.486 -33.944  1.00  0.00    -0.009 A 
HETATM    6  C   UNL     1      -4.626  -1.335 -33.737  1.00  0.00     0.014 A 
HETATM    7  C   UNL     1      -4.685  -2.674 -34.131  1.00  0.00     0.007 A 
HETATM    8  N   UNL     1      -7.932  -0.194 -34.754  1.00  0.00    -0.346 N 
HETATM    9  H   UNL     1      -8.753  -0.604 -35.184  1.00  0.00     0.167 HD
HETATM   10  C   UNL     1      -7.965   1.113 -34.436  1.00  0.00     0.086 A 
HETATM   11  C   UNL     1      -6.844   1.664 -33.784  1.00  0.00    -0.023 A 
HETATM   12  C   UNL     1      -6.800   3.106 -33.356  1.00  0.00     0.052 C 
HETATM   13  C   UNL     1      -5.718   0.858 -33.563  1.00  0.00     0.023 A 
ENDROOT
BRANCH  10  14
HETATM   14  N   UNL     1      -9.111   1.880 -34.667  1.00  0.00    -0.277 NA
HETATM   15  H   UNL     1      -9.319   1.937 -35.666  1.00  0.00     0.129 HD
BRANCH  14  16
HETATM   16  C   UNL     1     -10.301   1.616 -33.860  1.00  0.00     0.113 C 
BRANCH  16  17
HETATM   17  C   UNL     1     -10.672   2.777 -32.929  1.00  0.00     0.137 C 
BRANCH  17  18
HETATM   18  N   UNL     1     -11.994   2.707 -32.311  1.00  0.00    -0.360 N 
HETATM   19  C   UNL     1     -13.169   3.202 -32.847  1.00  0.00     0.221 C 
HETATM   20  O   UNL     1     -13.217   3.796 -33.922  1.00  0.00    -0.273 OA
HETATM   21  H   UNL     1     -12.059   2.195 -31.439  1.00  0.00     0.162 HD
BRANCH  19  22
HETATM   22  C   UNL     1     -14.401   2.940 -31.982  1.00  0.00     0.070 C 
HETATM   23  C   UNL     1     -15.210   4.222 -31.794  1.00  0.00     0.019 C 
HETATM   24  C   UNL     1     -15.274   1.848 -32.598  1.00  0.00     0.019 C 
ENDBRANCH  19  22
ENDBRANCH  17  18
ENDBRANCH  16  17
ENDBRANCH  14  16
ENDBRANCH  10  14
TORSDOF 5
ENDMDL
MODEL 6
REMARK VINA RESULT:      -7.3      4.385      6.521
REMARK  5 active torsions:
REMARK  status: ('A' for Active; 'I' for Inactive)
REMARK    1  A    between atoms: C_10  and  N_11 
REMARK    2  A    between atoms: N_11  and  C_12 
REMARK    3  A    between atoms: C_12  and  C_13 
REMARK    4  A    between atoms: C_13  and  N_14 
REMARK       I    between atoms: N_14  and  C_15 
REMARK    5  A    between atoms: C_15  and  C_16 
ROOT
HETATM    1  C   UNL     1      -2.915  -1.180 -31.869  1.00  0.00     0.048 C 
HETATM    2  C   UNL     1      -4.340  -1.007 -32.314  1.00  0.00    -0.060 A 
HETATM    3  C   UNL     1      -5.233  -0.222 -31.576  1.00  0.00     0.037 A 
HETATM    4  C   UNL     1      -6.553  -0.047 -32.013  1.00  0.00     0.044 A 
HETATM    5  C   UNL     1      -6.992  -0.648 -33.207  1.00  0.00    -0.009 A 
HETATM    6  C   UNL     1      -6.091  -1.422 -33.950  1.00  0.00     0.014 A 
HETATM    7  C   UNL     1      -4.777  -1.596 -33.508  1.00  0.00     0.007 A 
HETATM    8  N   UNL     1      -7.415   0.691 -31.296  1.00  0.00    -0.346 N 
HETATM    9  H   UNL     1      -7.060   1.117 -30.448  1.00  0.00     0.167 HD
HETATM   10  C   UNL     1      -8.704   0.896 -31.622  1.00  0.00     0.086 A 
HETATM   11  C   UNL     1      -9.175   0.352 -32.833  1.00  0.00    -0.023 A 
HETATM   12  C   UNL     1     -10.591   0.557 -33.302  1.00  0.00     0.052 C 
HETATM   13  C   UNL     1      -8.314  -0.439 -33.608  1.00  0.00     0.023 A 
ENDROOT
BRANCH  10  14
HETATM   14  N   UNL     1      -9.528   1.697 -30.826  1.00  0.00    -0.277 NA
HETATM   15  H   UNL     1      -9.476   1.415 -29.844  1.00  0.00     0.129 HD
BRANCH  14  16
HETATM   16  C   UNL     1      -9.465   3.148 -30.996  1.00  0.00     0.113 C 
BRANCH  16  17
HETATM   17  C   UNL     1     -10.786   3.855 -30.667  1.00  0.00     0.137 C 
BRANCH  17  18
HETATM   18  N   UNL     1     -11.913   3.548 -31.543  1.00  0.00    -0.360 N 
HETATM   19  C   UNL     1     -12.066   3.972 -32.850  1.00  0.00     0.221 C 
HETATM   20  O   UNL     1     -11.253   4.698 -33.418  1.00  0.00    -0.273 OA
HETATM   21  H   UNL     1     -12.615   2.917 -31.173  1.00  0.00     0.162 HD
BRANCH  19  22
HETATM   22  C   UNL     1     -13.335   3.453 -33.525  1.00  0.00     0.070 C 
HETATM   23  C   UNL     1     -13.002   2.779 -34.854  1.00  0.00     0.019 C 
HETATM   24  C   UNL     1     -14.078   2.481 -32.609  1.00  0.00     0.019 C 
ENDBRANCH  19  22
ENDBRANCH  17  18
ENDBRANCH  16  17
ENDBRANCH  14  16
ENDBRANCH  10  14
TORSDOF 5
ENDMDL
MODEL 7
REMARK VINA RESULT:      -7.1      2.326      7.566
REMARK  5 active torsions:
REMARK  status: ('A' for Active; 'I' for Inactive)
REMARK    1  A    between atoms: C_10  and  N_11 
REMARK    2  A    between atoms: N_11  and  C_12 
REMARK    3  A    between atoms: C_12  and  C_13 
REMARK    4  A    between atoms: C_13  and  N_14 
REMARK       I    between atoms: N_14  and  C_15 
REMARK    5  A    between atoms: C_15  and  C_16 
ROOT
HETATM    1  C   UNL     1       0.690   6.757 -31.211  1.00  0.00     0.048 C 
HETATM    2  C   UNL     1      -0.564   6.334 -31.924  1.00  0.00    -0.060 A 
HETATM    3  C   UNL     1      -1.232   5.158 -31.565  1.00  0.00     0.037 A 
HETATM    4  C   UNL     1      -2.414   4.786 -32.220  1.00  0.00     0.044 A 
HETATM    5  C   UNL     1      -2.951   5.598 -33.235  1.00  0.00    -0.009 A 
HETATM    6  C   UNL     1      -2.286   6.783 -33.581  1.00  0.00     0.014 A 
HETATM    7  C   UNL     1      -1.106   7.147 -32.927  1.00  0.00     0.007 A 
HETATM    8  N   UNL     1      -3.046   3.649 -31.889  1.00  0.00    -0.346 N 
HETATM    9  H   UNL     1      -2.636   3.095 -31.147  1.00  0.00     0.167 HD
HETATM   10  C   UNL     1      -4.170   3.198 -32.476  1.00  0.00     0.086 A 
HETATM   11  C   UNL     1      -4.768   4.002 -33.465  1.00  0.00    -0.023 A 
HETATM   12  C   UNL     1      -6.046   3.601 -34.153  1.00  0.00     0.052 C 
HETATM   13  C   UNL     1      -4.136   5.192 -33.854  1.00  0.00     0.023 A 
ENDROOT
BRANCH  10  14
HETATM   14  N   UNL     1      -4.773   2.009 -32.054  1.00  0.00    -0.277 NA
HETATM   15  H   UNL     1      -4.089   1.251 -31.997  1.00  0.00     0.129 HD
BRANCH  14  16
HETATM   16  C   UNL     1      -5.662   2.051 -30.893  1.00  0.00     0.113 C 
BRANCH  16  17
HETATM   17  C   UNL     1      -6.620   0.856 -30.819  1.00  0.00     0.137 C 
BRANCH  17  18
HETATM   18  N   UNL     1      -7.065   0.311 -32.100  1.00  0.00    -0.360 N 
HETATM   19  C   UNL     1      -6.430  -0.678 -32.827  1.00  0.00     0.221 C 
HETATM   20  O   UNL     1      -5.375  -1.199 -32.471  1.00  0.00    -0.273 OA
HETATM   21  H   UNL     1      -7.953   0.652 -32.451  1.00  0.00     0.162 HD
BRANCH  19  22
HETATM   22  C   UNL     1      -7.161  -1.067 -34.111  1.00  0.00     0.070 C 
HETATM   23  C   UNL     1      -7.246   0.123 -35.065  1.00  0.00     0.019 C 
HETATM   24  C   UNL     1      -6.468  -2.245 -34.795  1.00  0.00     0.019 C 
ENDBRANCH  19  22
ENDBRANCH  17  18
ENDBRANCH  16  17
ENDBRANCH  14  16
ENDBRANCH  10  14
TORSDOF 5
ENDMDL
MODEL 8
REMARK VINA RESULT:      -7.0      6.401     11.411
REMARK  5 active torsions:
REMARK  status: ('A' for Active; 'I' for Inactive)
REMARK    1  A    between atoms: C_10  and  N_11 
REMARK    2  A    between atoms: N_11  and  C_12 
REMARK    3  A    between atoms: C_12  and  C_13 
REMARK    4  A    between atoms: C_13  and  N_14 
REMARK       I    between atoms: N_14  and  C_15 
REMARK    5  A    between atoms: C_15  and  C_16 
ROOT
HETATM    1  C   UNL     1       0.056  10.368 -23.231  1.00  0.00     0.048 C 
HETATM    2  C   UNL     1       0.360   9.697 -24.542  1.00  0.00    -0.060 A 
HETATM    3  C   UNL     1      -0.671   9.291 -25.396  1.00  0.00     0.037 A 
HETATM    4  C   UNL     1      -0.376   8.690 -26.627  1.00  0.00     0.044 A 
HETATM    5  C   UNL     1       0.960   8.499 -27.025  1.00  0.00    -0.009 A 
HETATM    6  C   UNL     1       1.989   8.920 -26.171  1.00  0.00     0.014 A 
HETATM    7  C   UNL     1       1.689   9.517 -24.944  1.00  0.00     0.007 A 
HETATM    8  N   UNL     1      -1.365   8.283 -27.440  1.00  0.00    -0.346 N 
HETATM    9  H   UNL     1      -2.314   8.446 -27.126  1.00  0.00     0.167 HD
HETATM   10  C   UNL     1      -1.180   7.676 -28.626  1.00  0.00     0.086 A 
HETATM   11  C   UNL     1       0.141   7.507 -29.086  1.00  0.00    -0.023 A 
HETATM   12  C   UNL     1       0.447   6.872 -30.416  1.00  0.00     0.052 C 
HETATM   13  C   UNL     1       1.205   7.903 -28.264  1.00  0.00     0.023 A 
ENDROOT
BRANCH  10  14
HETATM   14  N   UNL     1      -2.271   7.303 -29.419  1.00  0.00    -0.277 NA
HETATM   15  H   UNL     1      -2.835   6.589 -28.954  1.00  0.00     0.129 HD
BRANCH  14  16
HETATM   16  C   UNL     1      -3.085   8.355 -30.025  1.00  0.00     0.113 C 
BRANCH  16  17
HETATM   17  C   UNL     1      -3.238   8.205 -31.544  1.00  0.00     0.137 C 
BRANCH  17  18
HETATM   18  N   UNL     1      -2.702   6.976 -32.124  1.00  0.00    -0.360 N 
HETATM   19  C   UNL     1      -1.913   6.888 -33.255  1.00  0.00     0.221 C 
HETATM   20  O   UNL     1      -1.593   7.866 -33.927  1.00  0.00    -0.273 OA
HETATM   21  H   UNL     1      -2.879   6.120 -31.611  1.00  0.00     0.162 HD
BRANCH  19  22
HETATM   22  C   UNL     1      -1.472   5.465 -33.592  1.00  0.00     0.070 C 
HETATM   23  C   UNL     1      -2.003   4.476 -32.556  1.00  0.00     0.019 C 
HETATM   24  C   UNL     1      -1.940   5.068 -34.992  1.00  0.00     0.019 C 
ENDBRANCH  19  22
ENDBRANCH  17  18
ENDBRANCH  16  17
ENDBRANCH  14  16
ENDBRANCH  10  14
TORSDOF 5
ENDMDL
MODEL 9
REMARK VINA RESULT:      -7.0      3.938      4.964
REMARK  5 active torsions:
REMARK  status: ('A' for Active; 'I' for Inactive)
REMARK    1  A    between atoms: C_10  and  N_11 
REMARK    2  A    between atoms: N_11  and  C_12 
REMARK    3  A    between atoms: C_12  and  C_13 
REMARK    4  A    between atoms: C_13  and  N_14 
REMARK       I    between atoms: N_14  and  C_15 
REMARK    5  A    between atoms: C_15  and  C_16 
ROOT
HETATM    1  C   UNL     1      -2.900  -1.282 -31.964  1.00  0.00     0.048 C 
HETATM    2  C   UNL     1      -4.328  -1.077 -32.383  1.00  0.00    -0.060 A 
HETATM    3  C   UNL     1      -5.162  -0.194 -31.687  1.00  0.00     0.037 A 
HETATM    4  C   UNL     1      -6.485   0.008 -32.102  1.00  0.00     0.044 A 
HETATM    5  C   UNL     1      -6.987  -0.663 -33.231  1.00  0.00    -0.009 A 
HETATM    6  C   UNL     1      -6.144  -1.536 -33.934  1.00  0.00     0.014 A 
HETATM    7  C   UNL     1      -4.827  -1.736 -33.514  1.00  0.00     0.007 A 
HETATM    8  N   UNL     1      -7.290   0.842 -31.424  1.00  0.00    -0.346 N 
HETATM    9  H   UNL     1      -6.891   1.315 -30.622  1.00  0.00     0.167 HD
HETATM   10  C   UNL     1      -8.578   1.081 -31.731  1.00  0.00     0.086 A 
HETATM   11  C   UNL     1      -9.110   0.466 -32.882  1.00  0.00    -0.023 A 
HETATM   12  C   UNL     1     -10.529   0.701 -33.327  1.00  0.00     0.052 C 
HETATM   13  C   UNL     1      -8.310  -0.423 -33.612  1.00  0.00     0.023 A 
ENDROOT
BRANCH  10  14
HETATM   14  N   UNL     1      -9.340   1.981 -30.979  1.00  0.00    -0.277 NA
HETATM   15  H   UNL     1      -9.953   1.487 -30.326  1.00  0.00     0.129 HD
BRANCH  14  16
HETATM   16  C   UNL     1      -8.664   3.121 -30.362  1.00  0.00     0.113 C 
BRANCH  16  17
HETATM   17  C   UNL     1      -8.489   4.310 -31.315  1.00  0.00     0.137 C 
BRANCH  17  18
HETATM   18  N   UNL     1      -9.400   4.358 -32.456  1.00  0.00    -0.360 N 
HETATM   19  C   UNL     1      -9.041   4.564 -33.774  1.00  0.00     0.221 C 
HETATM   20  O   UNL     1      -7.881   4.760 -34.130  1.00  0.00    -0.273 OA
HETATM   21  H   UNL     1     -10.376   4.162 -32.263  1.00  0.00     0.162 HD
BRANCH  19  22
HETATM   22  C   UNL     1     -10.216   4.519 -34.750  1.00  0.00     0.070 C 
HETATM   23  C   UNL     1     -11.523   4.247 -34.007  1.00  0.00     0.019 C 
HETATM   24  C   UNL     1     -10.317   5.824 -35.539  1.00  0.00     0.019 C 
ENDBRANCH  19  22
ENDBRANCH  17  18
ENDBRANCH  16  17
ENDBRANCH  14  16
ENDBRANCH  10  14
TORSDOF 5
ENDMDL
MODEL 10
REMARK VINA RESULT:      -6.9      3.848      7.082
REMARK  5 active torsions:
REMARK  status: ('A' for Active; 'I' for Inactive)
REMARK    1  A    between atoms: C_10  and  N_11 
REMARK    2  A    between atoms: N_11  and  C_12 
REMARK    3  A    between atoms: C_12  and  C_13 
REMARK    4  A    between atoms: C_13  and  N_14 
REMARK       I    between atoms: N_14  and  C_15 
REMARK    5  A    between atoms: C_15  and  C_16 
ROOT
HETATM    1  C   UNL     1     -12.318   1.411 -34.945  1.00  0.00     0.048 C 
HETATM    2  C   UNL     1     -11.271   1.660 -33.896  1.00  0.00    -0.060 A 
HETATM    3  C   UNL     1     -10.188   0.787 -33.741  1.00  0.00     0.037 A 
HETATM    4  C   UNL     1      -9.204   1.042 -32.777  1.00  0.00     0.044 A 
HETATM    5  C   UNL     1      -9.286   2.185 -31.962  1.00  0.00    -0.009 A 
HETATM    6  C   UNL     1     -10.366   3.064 -32.130  1.00  0.00     0.014 A 
HETATM    7  C   UNL     1     -11.345   2.803 -33.091  1.00  0.00     0.007 A 
HETATM    8  N   UNL     1      -8.174   0.196 -32.615  1.00  0.00    -0.346 N 
HETATM    9  H   UNL     1      -8.143  -0.611 -33.226  1.00  0.00     0.167 HD
HETATM   10  C   UNL     1      -7.197   0.343 -31.702  1.00  0.00     0.086 A 
HETATM   11  C   UNL     1      -7.214   1.499 -30.896  1.00  0.00    -0.023 A 
HETATM   12  C   UNL     1      -6.144   1.771 -29.871  1.00  0.00     0.052 C 
HETATM   13  C   UNL     1      -8.278   2.403 -31.019  1.00  0.00     0.023 A 
ENDROOT
BRANCH  10  14
HETATM   14  N   UNL     1      -6.149  -0.579 -31.616  1.00  0.00    -0.277 NA
HETATM   15  H   UNL     1      -6.386  -1.449 -32.098  1.00  0.00     0.129 HD
BRANCH  14  16
HETATM   16  C   UNL     1      -4.793  -0.122 -31.916  1.00  0.00     0.113 C 
BRANCH  16  17
HETATM   17  C   UNL     1      -4.397  -0.323 -33.385  1.00  0.00     0.137 C 
BRANCH  17  18
HETATM   18  N   UNL     1      -4.512  -1.686 -33.899  1.00  0.00    -0.360 N 
HETATM   19  C   UNL     1      -5.627  -2.234 -34.504  1.00  0.00     0.221 C 
HETATM   20  O   UNL     1      -6.680  -1.618 -34.652  1.00  0.00    -0.273 OA
HETATM   21  H   UNL     1      -3.675  -2.256 -33.859  1.00  0.00     0.162 HD
BRANCH  19  22
HETATM   22  C   UNL     1      -5.430  -3.674 -34.976  1.00  0.00     0.070 C 
HETATM   23  C   UNL     1      -4.368  -4.377 -34.132  1.00  0.00     0.019 C 
HETATM   24  C   UNL     1      -6.746  -4.448 -34.924  1.00  0.00     0.019 C 
ENDBRANCH  19  22
ENDBRANCH  17  18
ENDBRANCH  16  17
ENDBRANCH  14  16
ENDBRANCH  10  14
TORSDOF 5
ENDMDL
