MODEL 1
REMARK VINA RESULT:      -8.1      0.000      0.000
REMARK  6 active torsions:
REMARK  status: ('A' for Active; 'I' for Inactive)
REMARK    1  A    between atoms: C_2  and  O_3 
REMARK    2  A    between atoms: O_3  and  C_4 
REMARK    3  A    between atoms: C_9  and  S_10 
REMARK    4  A    between atoms: S_10  and  C_11 
REMARK    5  A    between atoms: C_11  and  C_12 
REMARK       I    between atoms: C_12  and  N_13 
REMARK    6  A    between atoms: N_13  and  C_14 
ROOT
HETATM    1  C   UNL     1      -2.520   4.843 -33.795  1.00  0.00     0.069 A 
HETATM    2  C   UNL     1      -2.684   3.764 -32.927  1.00  0.00     0.050 A 
HETATM    3  C   UNL     1      -3.970   3.250 -32.664  1.00  0.00    -0.004 A 
HETATM    4  C   UNL     1      -5.102   3.807 -33.284  1.00  0.00     0.068 A 
HETATM    5  N   UNL     1      -6.346   3.360 -33.048  1.00  0.00    -0.241 NA
HETATM    6  C   UNL     1      -6.528   2.375 -32.137  1.00  0.00     0.100 A 
HETATM    7  C   UNL     1      -5.470   1.734 -31.493  1.00  0.00    -0.026 A 
HETATM    8  C   UNL     1      -5.669   0.610 -30.520  1.00  0.00     0.051 C 
HETATM    9  C   UNL     1      -4.176   2.187 -31.776  1.00  0.00     0.023 A 
HETATM   10  C   UNL     1      -4.914   4.861 -34.165  1.00  0.00     0.035 A 
HETATM   11  C   UNL     1      -3.641   5.379 -34.422  1.00  0.00     0.039 A 
ENDROOT
BRANCH   6  12
HETATM   12  S   UNL     1      -8.231   1.995 -31.777  1.00  0.00    -0.096 SA
BRANCH  12  13
HETATM   13  C   UNL     1      -8.840   1.402 -33.403  1.00  0.00     0.142 C 
HETATM   14  C   UNL     1      -9.452   2.489 -34.279  1.00  0.00     0.031 C 
BRANCH  13  15
HETATM   15  C   UNL     1      -7.793   0.519 -34.091  1.00  0.00     0.236 C 
HETATM   16  N   UNL     1      -7.501  -0.662 -33.431  1.00  0.00    -0.326 N 
HETATM   17  H   UNL     1      -8.066  -0.880 -32.616  1.00  0.00     0.169 HD
HETATM   18  O   UNL     1      -7.315   0.870 -35.169  1.00  0.00    -0.272 OA
BRANCH  16  19
HETATM   19  C   UNL     1      -6.592  -1.665 -33.827  1.00  0.00     0.034 A 
HETATM   20  C   UNL     1      -6.950  -2.807 -34.548  1.00  0.00     0.029 A 
HETATM   21  C   UNL     1      -5.985  -3.755 -34.902  1.00  0.00     0.002 A 
HETATM   22  C   UNL     1      -4.653  -3.568 -34.543  1.00  0.00     0.000 A 
HETATM   23  C   UNL     1      -4.284  -2.432 -33.828  1.00  0.00     0.002 A 
HETATM   24  C   UNL     1      -5.249  -1.486 -33.471  1.00  0.00     0.029 A 
ENDBRANCH  16  19
ENDBRANCH  13  15
ENDBRANCH  12  13
ENDBRANCH   6  12
BRANCH   1  25
HETATM   25  O   UNL     1      -1.339   5.452 -34.110  1.00  0.00    -0.351 OA
BRANCH  25  26
HETATM   26  C   UNL     1      -1.233   6.847 -33.827  1.00  0.00     0.171 C 
HETATM   27  C   UNL     1      -0.858   7.002 -32.365  1.00  0.00     0.034 C 
ENDBRANCH  25  26
ENDBRANCH   1  25
TORSDOF 6
ENDMDL
MODEL 2
REMARK VINA RESULT:      -8.1      2.908      6.532
REMARK  6 active torsions:
REMARK  status: ('A' for Active; 'I' for Inactive)
REMARK    1  A    between atoms: C_2  and  O_3 
REMARK    2  A    between atoms: O_3  and  C_4 
REMARK    3  A    between atoms: C_9  and  S_10 
REMARK    4  A    between atoms: S_10  and  C_11 
REMARK    5  A    between atoms: C_11  and  C_12 
REMARK       I    between atoms: C_12  and  N_13 
REMARK    6  A    between atoms: N_13  and  C_14 
ROOT
HETATM    1  C   UNL     1      -5.627  -2.345 -34.552  1.00  0.00     0.069 A 
HETATM    2  C   UNL     1      -4.677  -1.527 -33.943  1.00  0.00     0.050 A 
HETATM    3  C   UNL     1      -5.077  -0.385 -33.221  1.00  0.00    -0.004 A 
HETATM    4  C   UNL     1      -6.440  -0.064 -33.090  1.00  0.00     0.068 A 
HETATM    5  N   UNL     1      -6.864   1.023 -32.427  1.00  0.00    -0.241 NA
HETATM    6  C   UNL     1      -5.948   1.876 -31.911  1.00  0.00     0.100 A 
HETATM    7  C   UNL     1      -4.576   1.634 -31.958  1.00  0.00    -0.026 A 
HETATM    8  C   UNL     1      -3.563   2.554 -31.344  1.00  0.00     0.051 C 
HETATM    9  C   UNL     1      -4.150   0.477 -32.622  1.00  0.00     0.023 A 
HETATM   10  C   UNL     1      -7.370  -0.907 -33.679  1.00  0.00     0.035 A 
HETATM   11  C   UNL     1      -6.976  -2.036 -34.403  1.00  0.00     0.039 A 
ENDROOT
BRANCH   6  12
HETATM   12  S   UNL     1      -6.627   3.370 -31.216  1.00  0.00    -0.096 SA
BRANCH  12  13
HETATM   13  C   UNL     1      -7.258   4.231 -32.709  1.00  0.00     0.142 C 
HETATM   14  C   UNL     1      -6.391   4.054 -33.949  1.00  0.00     0.031 C 
BRANCH  13  15
HETATM   15  C   UNL     1      -8.752   3.955 -32.908  1.00  0.00     0.236 C 
HETATM   16  N   UNL     1      -9.043   2.886 -33.737  1.00  0.00    -0.326 N 
HETATM   17  H   UNL     1      -8.256   2.329 -34.056  1.00  0.00     0.169 HD
HETATM   18  O   UNL     1      -9.582   4.644 -32.317  1.00  0.00    -0.272 OA
BRANCH  16  19
HETATM   19  C   UNL     1     -10.318   2.399 -34.096  1.00  0.00     0.034 A 
HETATM   20  C   UNL     1     -11.152   3.006 -35.036  1.00  0.00     0.029 A 
HETATM   21  C   UNL     1     -12.403   2.458 -35.335  1.00  0.00     0.002 A 
HETATM   22  C   UNL     1     -12.829   1.295 -34.701  1.00  0.00     0.000 A 
HETATM   23  C   UNL     1     -12.004   0.678 -33.764  1.00  0.00     0.002 A 
HETATM   24  C   UNL     1     -10.755   1.228 -33.463  1.00  0.00     0.029 A 
ENDBRANCH  16  19
ENDBRANCH  13  15
ENDBRANCH  12  13
ENDBRANCH   6  12
BRANCH   1  25
HETATM   25  O   UNL     1      -5.372  -3.458 -35.301  1.00  0.00    -0.351 OA
BRANCH  25  26
HETATM   26  C   UNL     1      -5.599  -4.724 -34.683  1.00  0.00     0.171 C 
HETATM   27  C   UNL     1      -4.316  -5.142 -33.987  1.00  0.00     0.034 C 
ENDBRANCH  25  26
ENDBRANCH   1  25
TORSDOF 6
ENDMDL
MODEL 3
REMARK VINA RESULT:      -8.0      2.103      6.632
REMARK  6 active torsions:
REMARK  status: ('A' for Active; 'I' for Inactive)
REMARK    1  A    between atoms: C_2  and  O_3 
REMARK    2  A    between atoms: O_3  and  C_4 
REMARK    3  A    between atoms: C_9  and  S_10 
REMARK    4  A    between atoms: S_10  and  C_11 
REMARK    5  A    between atoms: C_11  and  C_12 
REMARK       I    between atoms: C_12  and  N_13 
REMARK    6  A    between atoms: N_13  and  C_14 
ROOT
HETATM    1  C   UNL     1      -5.054  -2.212 -34.252  1.00  0.00     0.069 A 
HETATM    2  C   UNL     1      -6.404  -1.893 -34.390  1.00  0.00     0.050 A 
HETATM    3  C   UNL     1      -6.953  -0.798 -33.694  1.00  0.00    -0.004 A 
HETATM    4  C   UNL     1      -6.145  -0.002 -32.863  1.00  0.00     0.068 A 
HETATM    5  N   UNL     1      -6.630   1.038 -32.168  1.00  0.00    -0.241 NA
HETATM    6  C   UNL     1      -7.958   1.302 -32.221  1.00  0.00     0.100 A 
HETATM    7  C   UNL     1      -8.838   0.594 -33.039  1.00  0.00    -0.026 A 
HETATM    8  C   UNL     1     -10.300   0.916 -33.134  1.00  0.00     0.051 C 
HETATM    9  C   UNL     1      -8.311  -0.466 -33.786  1.00  0.00     0.023 A 
HETATM   10  C   UNL     1      -4.799  -0.319 -32.761  1.00  0.00     0.035 A 
HETATM   11  C   UNL     1      -4.253  -1.410 -33.444  1.00  0.00     0.039 A 
ENDROOT
BRANCH   6  12
HETATM   12  S   UNL     1      -8.509   2.587 -31.118  1.00  0.00    -0.096 SA
BRANCH  12  13
HETATM   13  C   UNL     1      -8.391   4.078 -32.181  1.00  0.00     0.142 C 
HETATM   14  C   UNL     1      -9.444   5.140 -31.894  1.00  0.00     0.031 C 
BRANCH  13  15
HETATM   15  C   UNL     1      -6.947   4.589 -32.249  1.00  0.00     0.236 C 
HETATM   16  N   UNL     1      -6.154   3.974 -33.202  1.00  0.00    -0.326 N 
HETATM   17  H   UNL     1      -6.617   3.319 -33.826  1.00  0.00     0.169 HD
HETATM   18  O   UNL     1      -6.592   5.507 -31.512  1.00  0.00    -0.272 OA
BRANCH  16  19
HETATM   19  C   UNL     1      -4.800   4.240 -33.494  1.00  0.00     0.034 A 
HETATM   20  C   UNL     1      -3.727   3.746 -32.749  1.00  0.00     0.029 A 
HETATM   21  C   UNL     1      -2.411   4.057 -33.107  1.00  0.00     0.002 A 
HETATM   22  C   UNL     1      -2.156   4.859 -34.215  1.00  0.00     0.000 A 
HETATM   23  C   UNL     1      -3.218   5.354 -34.968  1.00  0.00     0.002 A 
HETATM   24  C   UNL     1      -4.533   5.045 -34.609  1.00  0.00     0.029 A 
ENDBRANCH  16  19
ENDBRANCH  13  15
ENDBRANCH  12  13
ENDBRANCH   6  12
BRANCH   1  25
HETATM   25  O   UNL     1      -4.408  -3.259 -34.844  1.00  0.00    -0.351 OA
BRANCH  25  26
HETATM   26  C   UNL     1      -4.717  -4.568 -34.364  1.00  0.00     0.171 C 
HETATM   27  C   UNL     1      -3.611  -4.992 -33.415  1.00  0.00     0.034 C 
ENDBRANCH  25  26
ENDBRANCH   1  25
TORSDOF 6
ENDMDL
MODEL 4
REMARK VINA RESULT:      -7.9      1.981      6.588
REMARK  6 active torsions:
REMARK  status: ('A' for Active; 'I' for Inactive)
REMARK    1  A    between atoms: C_2  and  O_3 
REMARK    2  A    between atoms: O_3  and  C_4 
REMARK    3  A    between atoms: C_9  and  S_10 
REMARK    4  A    between atoms: S_10  and  C_11 
REMARK    5  A    between atoms: C_11  and  C_12 
REMARK       I    between atoms: C_12  and  N_13 
REMARK    6  A    between atoms: N_13  and  C_14 
ROOT
HETATM    1  C   UNL     1      -5.200  -2.176 -34.370  1.00  0.00     0.069 A 
HETATM    2  C   UNL     1      -4.872  -1.347 -33.298  1.00  0.00     0.050 A 
HETATM    3  C   UNL     1      -5.710  -0.271 -32.946  1.00  0.00    -0.004 A 
HETATM    4  C   UNL     1      -6.898  -0.028 -33.659  1.00  0.00     0.068 A 
HETATM    5  N   UNL     1      -7.716   0.996 -33.369  1.00  0.00    -0.241 NA
HETATM    6  C   UNL     1      -7.361   1.863 -32.392  1.00  0.00     0.100 A 
HETATM    7  C   UNL     1      -6.223   1.694 -31.605  1.00  0.00    -0.026 A 
HETATM    8  C   UNL     1      -5.855   2.628 -30.490  1.00  0.00     0.051 C 
HETATM    9  C   UNL     1      -5.397   0.601 -31.895  1.00  0.00     0.023 A 
HETATM   10  C   UNL     1      -7.220  -0.881 -34.704  1.00  0.00     0.035 A 
HETATM   11  C   UNL     1      -6.386  -1.945 -35.061  1.00  0.00     0.039 A 
ENDROOT
BRANCH   6  12
HETATM   12  S   UNL     1      -8.432   3.278 -32.224  1.00  0.00    -0.096 SA
BRANCH  12  13
HETATM   13  C   UNL     1      -7.902   4.325 -33.634  1.00  0.00     0.142 C 
HETATM   14  C   UNL     1      -8.965   5.298 -34.128  1.00  0.00     0.031 C 
BRANCH  13  15
HETATM   15  C   UNL     1      -6.522   4.939 -33.373  1.00  0.00     0.236 C 
HETATM   16  N   UNL     1      -5.467   4.287 -33.986  1.00  0.00    -0.326 N 
HETATM   17  H   UNL     1      -5.705   3.531 -34.621  1.00  0.00     0.169 HD
HETATM   18  O   UNL     1      -6.430   5.960 -32.692  1.00  0.00    -0.272 OA
BRANCH  16  19
HETATM   19  C   UNL     1      -4.099   4.625 -33.930  1.00  0.00     0.034 A 
HETATM   20  C   UNL     1      -3.436   5.370 -34.908  1.00  0.00     0.029 A 
HETATM   21  C   UNL     1      -2.075   5.664 -34.777  1.00  0.00     0.002 A 
HETATM   22  C   UNL     1      -1.366   5.220 -33.665  1.00  0.00     0.000 A 
HETATM   23  C   UNL     1      -2.017   4.480 -32.681  1.00  0.00     0.002 A 
HETATM   24  C   UNL     1      -3.376   4.184 -32.814  1.00  0.00     0.029 A 
ENDBRANCH  16  19
ENDBRANCH  13  15
ENDBRANCH  12  13
ENDBRANCH   6  12
BRANCH   1  25
HETATM   25  O   UNL     1      -4.462  -3.229 -34.831  1.00  0.00    -0.351 OA
BRANCH  25  26
HETATM   26  C   UNL     1      -4.776  -4.520 -34.309  1.00  0.00     0.171 C 
HETATM   27  C   UNL     1      -3.678  -4.910 -33.336  1.00  0.00     0.034 C 
ENDBRANCH  25  26
ENDBRANCH   1  25
TORSDOF 6
ENDMDL
MODEL 5
REMARK VINA RESULT:      -7.7      3.039      6.539
REMARK  6 active torsions:
REMARK  status: ('A' for Active; 'I' for Inactive)
REMARK    1  A    between atoms: C_2  and  O_3 
REMARK    2  A    between atoms: O_3  and  C_4 
REMARK    3  A    between atoms: C_9  and  S_10 
REMARK    4  A    between atoms: S_10  and  C_11 
REMARK    5  A    between atoms: C_11  and  C_12 
REMARK       I    between atoms: C_12  and  N_13 
REMARK    6  A    between atoms: N_13  and  C_14 
ROOT
HETATM    1  C   UNL     1     -11.724   2.007 -33.442  1.00  0.00     0.069 A 
HETATM    2  C   UNL     1     -11.117   3.051 -32.744  1.00  0.00     0.050 A 
HETATM    3  C   UNL     1      -9.853   2.870 -32.148  1.00  0.00    -0.004 A 
HETATM    4  C   UNL     1      -9.179   1.642 -32.263  1.00  0.00     0.068 A 
HETATM    5  N   UNL     1      -7.982   1.421 -31.696  1.00  0.00    -0.241 NA
HETATM    6  C   UNL     1      -7.425   2.395 -30.937  1.00  0.00     0.100 A 
HETATM    7  C   UNL     1      -7.996   3.658 -30.787  1.00  0.00    -0.026 A 
HETATM    8  C   UNL     1      -7.356   4.752 -29.986  1.00  0.00     0.051 C 
HETATM    9  C   UNL     1      -9.228   3.886 -31.414  1.00  0.00     0.023 A 
HETATM   10  C   UNL     1      -9.787   0.626 -32.985  1.00  0.00     0.035 A 
HETATM   11  C   UNL     1     -11.044   0.799 -33.571  1.00  0.00     0.039 A 
ENDROOT
BRANCH   6  12
HETATM   12  S   UNL     1      -5.931   1.920 -30.092  1.00  0.00    -0.096 SA
BRANCH  12  13
HETATM   13  C   UNL     1      -4.748   1.738 -31.483  1.00  0.00     0.142 C 
HETATM   14  C   UNL     1      -3.420   2.456 -31.277  1.00  0.00     0.031 C 
BRANCH  13  15
HETATM   15  C   UNL     1      -4.639   0.273 -31.921  1.00  0.00     0.236 C 
HETATM   16  N   UNL     1      -5.384  -0.059 -33.039  1.00  0.00    -0.326 N 
HETATM   17  H   UNL     1      -5.852   0.704 -33.518  1.00  0.00     0.169 HD
HETATM   18  O   UNL     1      -3.896  -0.492 -31.307  1.00  0.00    -0.272 OA
BRANCH  16  19
HETATM   19  C   UNL     1      -5.473  -1.318 -33.668  1.00  0.00     0.034 A 
HETATM   20  C   UNL     1      -4.375  -2.133 -33.950  1.00  0.00     0.029 A 
HETATM   21  C   UNL     1      -4.550  -3.370 -34.577  1.00  0.00     0.002 A 
HETATM   22  C   UNL     1      -5.824  -3.807 -34.925  1.00  0.00     0.000 A 
HETATM   23  C   UNL     1      -6.928  -3.004 -34.646  1.00  0.00     0.002 A 
HETATM   24  C   UNL     1      -6.753  -1.767 -34.021  1.00  0.00     0.029 A 
ENDBRANCH  16  19
ENDBRANCH  13  15
ENDBRANCH  12  13
ENDBRANCH   6  12
BRANCH   1  25
HETATM   25  O   UNL     1     -12.953   2.042 -34.037  1.00  0.00    -0.351 OA
BRANCH  25  26
HETATM   26  C   UNL     1     -14.003   1.314 -33.400  1.00  0.00     0.171 C 
HETATM   27  C   UNL     1     -14.699   2.251 -32.429  1.00  0.00     0.034 C 
ENDBRANCH  25  26
ENDBRANCH   1  25
TORSDOF 6
ENDMDL
MODEL 6
REMARK VINA RESULT:      -7.6      3.088      8.969
REMARK  6 active torsions:
REMARK  status: ('A' for Active; 'I' for Inactive)
REMARK    1  A    between atoms: C_2  and  O_3 
REMARK    2  A    between atoms: O_3  and  C_4 
REMARK    3  A    between atoms: C_9  and  S_10 
REMARK    4  A    between atoms: S_10  and  C_11 
REMARK    5  A    between atoms: C_11  and  C_12 
REMARK       I    between atoms: C_12  and  N_13 
REMARK    6  A    between atoms: N_13  and  C_14 
ROOT
HETATM    1  C   UNL     1      -4.760  -1.799 -33.441  1.00  0.00     0.069 A 
HETATM    2  C   UNL     1      -5.496  -0.650 -33.727  1.00  0.00     0.050 A 
HETATM    3  C   UNL     1      -5.071   0.606 -33.248  1.00  0.00    -0.004 A 
HETATM    4  C   UNL     1      -3.892   0.720 -32.491  1.00  0.00     0.068 A 
HETATM    5  N   UNL     1      -3.461   1.893 -32.001  1.00  0.00    -0.241 NA
HETATM    6  C   UNL     1      -4.216   3.001 -32.192  1.00  0.00     0.100 A 
HETATM    7  C   UNL     1      -5.383   3.001 -32.955  1.00  0.00    -0.026 A 
HETATM    8  C   UNL     1      -6.193   4.238 -33.206  1.00  0.00     0.051 C 
HETATM    9  C   UNL     1      -5.801   1.777 -33.490  1.00  0.00     0.023 A 
HETATM   10  C   UNL     1      -3.160  -0.431 -32.242  1.00  0.00     0.035 A 
HETATM   11  C   UNL     1      -3.582  -1.679 -32.708  1.00  0.00     0.039 A 
ENDROOT
BRANCH   6  12
HETATM   12  S   UNL     1      -3.635   4.456 -31.342  1.00  0.00    -0.096 SA
BRANCH  12  13
HETATM   13  C   UNL     1      -2.015   4.748 -32.151  1.00  0.00     0.142 C 
HETATM   14  C   UNL     1      -2.065   4.755 -33.673  1.00  0.00     0.031 C 
BRANCH  13  15
HETATM   15  C   UNL     1      -1.291   5.940 -31.513  1.00  0.00     0.236 C 
HETATM   16  N   UNL     1      -1.395   6.017 -30.135  1.00  0.00    -0.326 N 
HETATM   17  H   UNL     1      -1.851   5.238 -29.669  1.00  0.00     0.169 HD
HETATM   18  O   UNL     1      -0.650   6.713 -32.224  1.00  0.00    -0.272 OA
BRANCH  16  19
HETATM   19  C   UNL     1      -0.833   6.992 -29.285  1.00  0.00     0.034 A 
HETATM   20  C   UNL     1       0.534   7.110 -29.025  1.00  0.00     0.029 A 
HETATM   21  C   UNL     1       1.011   8.107 -28.168  1.00  0.00     0.002 A 
HETATM   22  C   UNL     1       0.126   8.997 -27.567  1.00  0.00     0.000 A 
HETATM   23  C   UNL     1      -1.239   8.891 -27.821  1.00  0.00     0.002 A 
HETATM   24  C   UNL     1      -1.716   7.893 -28.676  1.00  0.00     0.029 A 
ENDBRANCH  16  19
ENDBRANCH  13  15
ENDBRANCH  12  13
ENDBRANCH   6  12
BRANCH   1  25
HETATM   25  O   UNL     1      -5.076  -3.073 -33.817  1.00  0.00    -0.351 OA
BRANCH  25  26
HETATM   26  C   UNL     1      -5.599  -3.251 -35.133  1.00  0.00     0.171 C 
HETATM   27  C   UNL     1      -6.653  -4.342 -35.074  1.00  0.00     0.034 C 
ENDBRANCH  25  26
ENDBRANCH   1  25
TORSDOF 6
ENDMDL
MODEL 7
REMARK VINA RESULT:      -7.5      3.096      4.747
REMARK  6 active torsions:
REMARK  status: ('A' for Active; 'I' for Inactive)
REMARK    1  A    between atoms: C_2  and  O_3 
REMARK    2  A    between atoms: O_3  and  C_4 
REMARK    3  A    between atoms: C_9  and  S_10 
REMARK    4  A    between atoms: S_10  and  C_11 
REMARK    5  A    between atoms: C_11  and  C_12 
REMARK       I    between atoms: C_12  and  N_13 
REMARK    6  A    between atoms: N_13  and  C_14 
ROOT
HETATM    1  C   UNL     1       0.056   7.482 -29.136  1.00  0.00     0.069 A 
HETATM    2  C   UNL     1       0.160   6.957 -30.423  1.00  0.00     0.050 A 
HETATM    3  C   UNL     1      -0.989   6.512 -31.106  1.00  0.00    -0.004 A 
HETATM    4  C   UNL     1      -2.258   6.606 -30.507  1.00  0.00     0.068 A 
HETATM    5  N   UNL     1      -3.375   6.178 -31.114  1.00  0.00    -0.241 NA
HETATM    6  C   UNL     1      -3.277   5.581 -32.326  1.00  0.00     0.100 A 
HETATM    7  C   UNL     1      -2.072   5.467 -33.019  1.00  0.00    -0.026 A 
HETATM    8  C   UNL     1      -1.970   4.849 -34.382  1.00  0.00     0.051 C 
HETATM    9  C   UNL     1      -0.919   5.951 -32.388  1.00  0.00     0.023 A 
HETATM   10  C   UNL     1      -2.343   7.157 -29.237  1.00  0.00     0.035 A 
HETATM   11  C   UNL     1      -1.204   7.592 -28.554  1.00  0.00     0.039 A 
ENDROOT
BRANCH   6  12
HETATM   12  S   UNL     1      -4.799   4.893 -32.946  1.00  0.00    -0.096 SA
BRANCH  12  13
HETATM   13  C   UNL     1      -4.870   3.279 -32.076  1.00  0.00     0.142 C 
HETATM   14  C   UNL     1      -5.534   3.333 -30.706  1.00  0.00     0.031 C 
BRANCH  13  15
HETATM   15  C   UNL     1      -5.381   2.176 -33.009  1.00  0.00     0.236 C 
HETATM   16  N   UNL     1      -5.130   0.885 -32.580  1.00  0.00    -0.326 N 
HETATM   17  H   UNL     1      -4.722   0.783 -31.655  1.00  0.00     0.169 HD
HETATM   18  O   UNL     1      -5.998   2.480 -34.029  1.00  0.00    -0.272 OA
BRANCH  16  19
HETATM   19  C   UNL     1      -5.486  -0.319 -33.223  1.00  0.00     0.034 A 
HETATM   20  C   UNL     1      -6.802  -0.725 -33.453  1.00  0.00     0.029 A 
HETATM   21  C   UNL     1      -7.070  -1.935 -34.099  1.00  0.00     0.002 A 
HETATM   22  C   UNL     1      -6.025  -2.749 -34.526  1.00  0.00     0.000 A 
HETATM   23  C   UNL     1      -4.708  -2.354 -34.305  1.00  0.00     0.002 A 
HETATM   24  C   UNL     1      -4.440  -1.145 -33.657  1.00  0.00     0.029 A 
ENDBRANCH  16  19
ENDBRANCH  13  15
ENDBRANCH  12  13
ENDBRANCH   6  12
BRANCH   1  25
HETATM   25  O   UNL     1       1.089   7.918 -28.357  1.00  0.00    -0.351 OA
BRANCH  25  26
HETATM   26  C   UNL     1       1.267   7.275 -27.095  1.00  0.00     0.171 C 
HETATM   27  C   UNL     1       1.985   8.244 -26.173  1.00  0.00     0.034 C 
ENDBRANCH  25  26
ENDBRANCH   1  25
TORSDOF 6
ENDMDL
MODEL 8
REMARK VINA RESULT:      -7.3      3.601      6.711
REMARK  6 active torsions:
REMARK  status: ('A' for Active; 'I' for Inactive)
REMARK    1  A    between atoms: C_2  and  O_3 
REMARK    2  A    between atoms: O_3  and  C_4 
REMARK    3  A    between atoms: C_9  and  S_10 
REMARK    4  A    between atoms: S_10  and  C_11 
REMARK    5  A    between atoms: C_11  and  C_12 
REMARK       I    between atoms: C_12  and  N_13 
REMARK    6  A    between atoms: N_13  and  C_14 
ROOT
HETATM    1  C   UNL     1     -12.270   2.372 -33.883  1.00  0.00     0.069 A 
HETATM    2  C   UNL     1     -11.314   1.566 -34.499  1.00  0.00     0.050 A 
HETATM    3  C   UNL     1      -9.955   1.673 -34.141  1.00  0.00    -0.004 A 
HETATM    4  C   UNL     1      -9.547   2.582 -33.149  1.00  0.00     0.068 A 
HETATM    5  N   UNL     1      -8.262   2.730 -32.791  1.00  0.00    -0.241 NA
HETATM    6  C   UNL     1      -7.312   2.020 -33.447  1.00  0.00     0.100 A 
HETATM    7  C   UNL     1      -7.614   1.071 -34.422  1.00  0.00    -0.026 A 
HETATM    8  C   UNL     1      -6.566   0.250 -35.114  1.00  0.00     0.051 C 
HETATM    9  C   UNL     1      -8.962   0.902 -34.760  1.00  0.00     0.023 A 
HETATM   10  C   UNL     1     -10.518   3.354 -32.530  1.00  0.00     0.035 A 
HETATM   11  C   UNL     1     -11.866   3.256 -32.887  1.00  0.00     0.039 A 
ENDROOT
BRANCH   6  12
HETATM   12  S   UNL     1      -5.635   2.436 -33.010  1.00  0.00    -0.096 SA
BRANCH  12  13
HETATM   13  C   UNL     1      -5.403   1.494 -31.453  1.00  0.00     0.142 C 
HETATM   14  C   UNL     1      -6.290   1.955 -30.302  1.00  0.00     0.031 C 
BRANCH  13  15
HETATM   15  C   UNL     1      -5.409  -0.015 -31.719  1.00  0.00     0.236 C 
HETATM   16  N   UNL     1      -4.253  -0.510 -32.299  1.00  0.00    -0.326 N 
HETATM   17  H   UNL     1      -3.482   0.142 -32.405  1.00  0.00     0.169 HD
HETATM   18  O   UNL     1      -6.382  -0.689 -31.383  1.00  0.00    -0.272 OA
BRANCH  16  19
HETATM   19  C   UNL     1      -3.972  -1.847 -32.649  1.00  0.00     0.034 A 
HETATM   20  C   UNL     1      -3.247  -2.731 -31.847  1.00  0.00     0.029 A 
HETATM   21  C   UNL     1      -3.013  -4.044 -32.269  1.00  0.00     0.002 A 
HETATM   22  C   UNL     1      -3.505  -4.486 -33.493  1.00  0.00     0.000 A 
HETATM   23  C   UNL     1      -4.232  -3.614 -34.300  1.00  0.00     0.002 A 
HETATM   24  C   UNL     1      -4.465  -2.302 -33.880  1.00  0.00     0.029 A 
ENDBRANCH  16  19
ENDBRANCH  13  15
ENDBRANCH  12  13
ENDBRANCH   6  12
BRANCH   1  25
HETATM   25  O   UNL     1     -13.608   2.388 -34.157  1.00  0.00    -0.351 OA
BRANCH  25  26
HETATM   26  C   UNL     1     -14.461   1.666 -33.269  1.00  0.00     0.171 C 
HETATM   27  C   UNL     1     -14.538   0.231 -33.756  1.00  0.00     0.034 C 
ENDBRANCH  25  26
ENDBRANCH   1  25
TORSDOF 6
ENDMDL
MODEL 9
REMARK VINA RESULT:      -7.3      3.162      6.524
REMARK  6 active torsions:
REMARK  status: ('A' for Active; 'I' for Inactive)
REMARK    1  A    between atoms: C_2  and  O_3 
REMARK    2  A    between atoms: O_3  and  C_4 
REMARK    3  A    between atoms: C_9  and  S_10 
REMARK    4  A    between atoms: S_10  and  C_11 
REMARK    5  A    between atoms: C_11  and  C_12 
REMARK       I    between atoms: C_12  and  N_13 
REMARK    6  A    between atoms: N_13  and  C_14 
ROOT
HETATM    1  C   UNL     1      -5.733  -1.339 -34.052  1.00  0.00     0.069 A 
HETATM    2  C   UNL     1      -5.271  -0.342 -33.194  1.00  0.00     0.050 A 
HETATM    3  C   UNL     1      -5.878   0.930 -33.186  1.00  0.00    -0.004 A 
HETATM    4  C   UNL     1      -6.969   1.205 -34.030  1.00  0.00     0.068 A 
HETATM    5  N   UNL     1      -7.565   2.407 -34.068  1.00  0.00    -0.241 NA
HETATM    6  C   UNL     1      -7.067   3.411 -33.308  1.00  0.00     0.100 A 
HETATM    7  C   UNL     1      -6.011   3.233 -32.415  1.00  0.00    -0.026 A 
HETATM    8  C   UNL     1      -5.490   4.334 -31.538  1.00  0.00     0.051 C 
HETATM    9  C   UNL     1      -5.422   1.965 -32.360  1.00  0.00     0.023 A 
HETATM   10  C   UNL     1      -7.431   0.191 -34.855  1.00  0.00     0.035 A 
HETATM   11  C   UNL     1      -6.825  -1.069 -34.872  1.00  0.00     0.039 A 
ENDROOT
BRANCH   6  12
HETATM   12  S   UNL     1      -7.826   5.000 -33.580  1.00  0.00    -0.096 SA
BRANCH  12  13
HETATM   13  C   UNL     1      -8.934   5.146 -32.125  1.00  0.00     0.142 C 
HETATM   14  C   UNL     1      -9.657   6.483 -32.018  1.00  0.00     0.031 C 
BRANCH  13  15
HETATM   15  C   UNL     1      -9.826   3.907 -31.990  1.00  0.00     0.236 C 
HETATM   16  N   UNL     1     -10.557   3.587 -33.121  1.00  0.00    -0.326 N 
HETATM   17  H   UNL     1     -10.367   4.134 -33.955  1.00  0.00     0.169 HD
HETATM   18  O   UNL     1      -9.819   3.264 -30.941  1.00  0.00    -0.272 OA
BRANCH  16  19
HETATM   19  C   UNL     1     -11.448   2.507 -33.290  1.00  0.00     0.034 A 
HETATM   20  C   UNL     1     -11.048   1.182 -33.470  1.00  0.00     0.029 A 
HETATM   21  C   UNL     1     -11.998   0.168 -33.630  1.00  0.00     0.002 A 
HETATM   22  C   UNL     1     -13.356   0.470 -33.609  1.00  0.00     0.000 A 
HETATM   23  C   UNL     1     -13.768   1.788 -33.427  1.00  0.00     0.002 A 
HETATM   24  C   UNL     1     -12.818   2.801 -33.269  1.00  0.00     0.029 A 
ENDBRANCH  16  19
ENDBRANCH  13  15
ENDBRANCH  12  13
ENDBRANCH   6  12
BRANCH   1  25
HETATM   25  O   UNL     1      -5.216  -2.597 -34.179  1.00  0.00    -0.351 OA
BRANCH  25  26
HETATM   26  C   UNL     1      -5.627  -3.356 -35.316  1.00  0.00     0.171 C 
HETATM   27  C   UNL     1      -6.403  -4.562 -34.817  1.00  0.00     0.034 C 
ENDBRANCH  25  26
ENDBRANCH   1  25
TORSDOF 6
ENDMDL
MODEL 10
REMARK VINA RESULT:      -7.3      2.764      3.831
REMARK  6 active torsions:
REMARK  status: ('A' for Active; 'I' for Inactive)
REMARK    1  A    between atoms: C_2  and  O_3 
REMARK    2  A    between atoms: O_3  and  C_4 
REMARK    3  A    between atoms: C_9  and  S_10 
REMARK    4  A    between atoms: S_10  and  C_11 
REMARK    5  A    between atoms: C_11  and  C_12 
REMARK       I    between atoms: C_12  and  N_13 
REMARK    6  A    between atoms: N_13  and  C_14 
ROOT
HETATM    1  C   UNL     1      -0.287   6.854 -29.994  1.00  0.00     0.069 A 
HETATM    2  C   UNL     1      -1.638   7.073 -29.730  1.00  0.00     0.050 A 
HETATM    3  C   UNL     1      -2.627   6.350 -30.426  1.00  0.00    -0.004 A 
HETATM    4  C   UNL     1      -2.266   5.387 -31.384  1.00  0.00     0.068 A 
HETATM    5  N   UNL     1      -3.175   4.689 -32.082  1.00  0.00    -0.241 NA
HETATM    6  C   UNL     1      -4.490   4.959 -31.903  1.00  0.00     0.100 A 
HETATM    7  C   UNL     1      -4.953   5.871 -30.955  1.00  0.00    -0.026 A 
HETATM    8  C   UNL     1      -6.412   6.135 -30.722  1.00  0.00     0.051 C 
HETATM    9  C   UNL     1      -3.994   6.566 -30.208  1.00  0.00     0.023 A 
HETATM   10  C   UNL     1      -0.916   5.164 -31.611  1.00  0.00     0.035 A 
HETATM   11  C   UNL     1       0.067   5.885 -30.928  1.00  0.00     0.039 A 
ENDROOT
BRANCH   6  12
HETATM   12  S   UNL     1      -5.588   4.101 -33.014  1.00  0.00    -0.096 SA
BRANCH  12  13
HETATM   13  C   UNL     1      -5.759   2.469 -32.194  1.00  0.00     0.142 C 
HETATM   14  C   UNL     1      -6.751   2.447 -31.038  1.00  0.00     0.031 C 
BRANCH  13  15
HETATM   15  C   UNL     1      -5.935   1.352 -33.230  1.00  0.00     0.236 C 
HETATM   16  N   UNL     1      -5.622   0.082 -32.778  1.00  0.00    -0.326 N 
HETATM   17  H   UNL     1      -5.400  -0.008 -31.791  1.00  0.00     0.169 HD
HETATM   18  O   UNL     1      -6.365   1.624 -34.350  1.00  0.00    -0.272 OA
BRANCH  16  19
HETATM   19  C   UNL     1      -5.693  -1.128 -33.499  1.00  0.00     0.034 A 
HETATM   20  C   UNL     1      -6.885  -1.714 -33.930  1.00  0.00     0.029 A 
HETATM   21  C   UNL     1      -6.869  -2.917 -34.641  1.00  0.00     0.002 A 
HETATM   22  C   UNL     1      -5.661  -3.544 -34.933  1.00  0.00     0.000 A 
HETATM   23  C   UNL     1      -4.465  -2.967 -34.512  1.00  0.00     0.002 A 
HETATM   24  C   UNL     1      -4.482  -1.765 -33.799  1.00  0.00     0.029 A 
ENDBRANCH  16  19
ENDBRANCH  13  15
ENDBRANCH  12  13
ENDBRANCH   6  12
BRANCH   1  25
HETATM   25  O   UNL     1       0.764   7.505 -29.414  1.00  0.00    -0.351 OA
BRANCH  25  26
HETATM   26  C   UNL     1       0.677   7.759 -28.012  1.00  0.00     0.171 C 
HETATM   27  C   UNL     1       1.710   8.816 -27.663  1.00  0.00     0.034 C 
ENDBRANCH  25  26
ENDBRANCH   1  25
TORSDOF 6
ENDMDL
