MODEL 1
REMARK VINA RESULT:      -8.3      0.000      0.000
REMARK  3 active torsions:
REMARK  status: ('A' for Active; 'I' for Inactive)
REMARK    1  A    between atoms: O_2  and  C_3 
REMARK    2  A    between atoms: C_7  and  C_8 
REMARK    3  A    between atoms: C_19  and  N_20 
ROOT
HETATM    1  C   UNL     1      -6.382   0.932 -31.224  1.00  0.00     0.244 A 
HETATM    2  N   UNL     1      -6.846   0.089 -32.302  1.00  0.00    -0.151 N 
HETATM    3  C   UNL     1      -8.161   0.109 -32.691  1.00  0.00     0.734 A 
HETATM    4  N   UNL     1      -8.349  -0.765 -33.655  1.00  0.00    -0.060 NA
HETATM    5  C   UNL     1      -7.139  -1.382 -33.861  1.00  0.00     0.103 A 
HETATM    6  C   UNL     1      -6.167  -0.868 -33.008  1.00  0.00     0.083 A 
HETATM    7  C   UNL     1      -6.800  -2.401 -34.762  1.00  0.00     0.034 A 
HETATM    8  C   UNL     1      -5.484  -2.876 -34.773  1.00  0.00     0.002 A 
HETATM    9  C   UNL     1      -4.525  -2.346 -33.907  1.00  0.00     0.002 A 
HETATM   10  C   UNL     1      -4.846  -1.327 -33.001  1.00  0.00     0.033 A 
HETATM   11  N   UNL     1      -9.079   0.925 -32.128  1.00  0.00    -0.033 NA
HETATM   12  C   UNL     1      -8.724   1.696 -31.165  1.00  0.00     0.193 A 
HETATM   13  N   UNL     1      -7.429   1.764 -30.639  1.00  0.00    -0.339 N 
HETATM   14  H   UNL     1      -7.228   2.350 -29.845  1.00  0.00     0.164 HD
ENDROOT
BRANCH   1  15
HETATM   15  C   UNL     1      -5.272   1.874 -31.652  1.00  0.00    -0.014 A 
HETATM   16  C   UNL     1      -5.473   2.833 -32.659  1.00  0.00     0.033 A 
HETATM   17  C   UNL     1      -4.453   3.728 -33.007  1.00  0.00     0.044 A 
HETATM   18  C   UNL     1      -3.212   3.695 -32.354  1.00  0.00     0.085 A 
HETATM   19 BR   UNL     1      -4.824   4.991 -34.376  1.00  0.00    -0.048 Br
HETATM   20  C   UNL     1      -3.010   2.740 -31.353  1.00  0.00     0.039 A 
HETATM   21  C   UNL     1      -4.028   1.844 -31.002  1.00  0.00     0.014 A 
BRANCH  18  22
HETATM   22  O   UNL     1      -2.279   4.613 -32.750  1.00  0.00    -0.355 OA
HETATM   23  C   UNL     1      -1.314   5.041 -31.797  1.00  0.00     0.210 C 
ENDBRANCH  18  22
ENDBRANCH   1  15
BRANCH  12  24
HETATM   24  N   UNL     1      -9.578   2.533 -30.544  1.00  0.00    -0.272 NA
HETATM   25  H   UNL     1      -9.629   3.425 -31.033  1.00  0.00     0.127 HD
HETATM   26  H   UNL     1      -9.422   2.680 -29.555  1.00  0.00     0.127 HD
ENDBRANCH  12  24
TORSDOF 3
ENDMDL
MODEL 2
REMARK VINA RESULT:      -7.9      3.485      5.235
REMARK  3 active torsions:
REMARK  status: ('A' for Active; 'I' for Inactive)
REMARK    1  A    between atoms: O_2  and  C_3 
REMARK    2  A    between atoms: C_7  and  C_8 
REMARK    3  A    between atoms: C_19  and  N_20 
ROOT
HETATM    1  C   UNL     1      -4.578   0.444 -33.530  1.00  0.00     0.244 A 
HETATM    2  N   UNL     1      -4.089  -0.806 -32.995  1.00  0.00    -0.151 N 
HETATM    3  C   UNL     1      -3.266  -0.824 -31.897  1.00  0.00     0.734 A 
HETATM    4  N   UNL     1      -2.924  -2.064 -31.624  1.00  0.00    -0.060 NA
HETATM    5  C   UNL     1      -3.508  -2.849 -32.587  1.00  0.00     0.103 A 
HETATM    6  C   UNL     1      -4.246  -2.077 -33.478  1.00  0.00     0.083 A 
HETATM    7  C   UNL     1      -3.443  -4.238 -32.764  1.00  0.00     0.034 A 
HETATM    8  C   UNL     1      -4.126  -4.810 -33.843  1.00  0.00     0.002 A 
HETATM    9  C   UNL     1      -4.860  -4.014 -34.726  1.00  0.00     0.002 A 
HETATM   10  C   UNL     1      -4.936  -2.626 -34.565  1.00  0.00     0.033 A 
HETATM   11  N   UNL     1      -2.897   0.297 -31.240  1.00  0.00    -0.033 NA
HETATM   12  C   UNL     1      -3.301   1.437 -31.671  1.00  0.00     0.193 A 
HETATM   13  N   UNL     1      -4.116   1.617 -32.794  1.00  0.00    -0.339 N 
HETATM   14  H   UNL     1      -4.352   2.543 -33.114  1.00  0.00     0.164 HD
ENDROOT
BRANCH   1  15
HETATM   15  C   UNL     1      -6.093   0.519 -33.554  1.00  0.00    -0.014 A 
HETATM   16  C   UNL     1      -6.814   1.100 -32.499  1.00  0.00     0.033 A 
HETATM   17  C   UNL     1      -8.210   1.207 -32.560  1.00  0.00     0.044 A 
HETATM   18  C   UNL     1      -8.919   0.745 -33.679  1.00  0.00     0.085 A 
HETATM   19 BR   UNL     1      -9.094   2.013 -31.085  1.00  0.00    -0.048 Br
HETATM   20  C   UNL     1      -8.203   0.165 -34.730  1.00  0.00     0.039 A 
HETATM   21  C   UNL     1      -6.807   0.058 -34.672  1.00  0.00     0.014 A 
BRANCH  18  22
HETATM   22  O   UNL     1     -10.277   0.900 -33.658  1.00  0.00    -0.355 OA
HETATM   23  C   UNL     1     -10.845   1.932 -34.455  1.00  0.00     0.210 C 
ENDBRANCH  18  22
ENDBRANCH   1  15
BRANCH  12  24
HETATM   24  N   UNL     1      -2.972   2.603 -31.079  1.00  0.00    -0.272 NA
HETATM   25  H   UNL     1      -2.011   2.858 -31.298  1.00  0.00     0.127 HD
HETATM   26  H   UNL     1      -3.137   2.661 -30.082  1.00  0.00     0.127 HD
ENDBRANCH  12  24
TORSDOF 3
ENDMDL
MODEL 3
REMARK VINA RESULT:      -7.8      1.405      1.803
REMARK  3 active torsions:
REMARK  status: ('A' for Active; 'I' for Inactive)
REMARK    1  A    between atoms: O_2  and  C_3 
REMARK    2  A    between atoms: C_7  and  C_8 
REMARK    3  A    between atoms: C_19  and  N_20 
ROOT
HETATM    1  C   UNL     1      -6.628   1.877 -31.423  1.00  0.00     0.244 A 
HETATM    2  N   UNL     1      -7.026   0.802 -32.303  1.00  0.00    -0.151 N 
HETATM    3  C   UNL     1      -8.353   0.538 -32.530  1.00  0.00     0.734 A 
HETATM    4  N   UNL     1      -8.465  -0.501 -33.328  1.00  0.00    -0.060 NA
HETATM    5  C   UNL     1      -7.187  -0.931 -33.586  1.00  0.00     0.103 A 
HETATM    6  C   UNL     1      -6.252  -0.130 -32.940  1.00  0.00     0.083 A 
HETATM    7  C   UNL     1      -6.751  -2.013 -34.364  1.00  0.00     0.034 A 
HETATM    8  C   UNL     1      -5.377  -2.257 -34.465  1.00  0.00     0.002 A 
HETATM    9  C   UNL     1      -4.457  -1.439 -33.806  1.00  0.00     0.002 A 
HETATM   10  C   UNL     1      -4.873  -0.354 -33.025  1.00  0.00     0.033 A 
HETATM   11  N   UNL     1      -9.349   1.270 -31.985  1.00  0.00    -0.033 NA
HETATM   12  C   UNL     1      -9.054   2.238 -31.194  1.00  0.00     0.193 A 
HETATM   13  N   UNL     1      -7.751   2.607 -30.843  1.00  0.00    -0.339 N 
HETATM   14  H   UNL     1      -7.588   3.339 -30.171  1.00  0.00     0.164 HD
ENDROOT
BRANCH   1  15
HETATM   15  C   UNL     1      -5.754   2.908 -32.113  1.00  0.00    -0.014 A 
HETATM   16  C   UNL     1      -4.518   3.299 -31.574  1.00  0.00     0.033 A 
HETATM   17  C   UNL     1      -3.702   4.216 -32.250  1.00  0.00     0.044 A 
HETATM   18  C   UNL     1      -4.094   4.757 -33.482  1.00  0.00     0.085 A 
HETATM   19 BR   UNL     1      -2.045   4.677 -31.442  1.00  0.00    -0.048 Br
HETATM   20  C   UNL     1      -5.325   4.370 -34.020  1.00  0.00     0.039 A 
HETATM   21  C   UNL     1      -6.143   3.453 -33.347  1.00  0.00     0.014 A 
BRANCH  18  22
HETATM   22  O   UNL     1      -3.230   5.635 -34.076  1.00  0.00    -0.355 OA
HETATM   23  C   UNL     1      -2.291   5.121 -35.012  1.00  0.00     0.210 C 
ENDBRANCH  18  22
ENDBRANCH   1  15
BRANCH  12  24
HETATM   24  N   UNL     1      -9.987   3.011 -30.602  1.00  0.00    -0.272 NA
HETATM   25  H   UNL     1      -9.554   3.659 -29.946  1.00  0.00     0.127 HD
HETATM   26  H   UNL     1     -10.759   2.525 -30.163  1.00  0.00     0.127 HD
ENDBRANCH  12  24
TORSDOF 3
ENDMDL
MODEL 4
REMARK VINA RESULT:      -7.5     15.397     17.644
REMARK  3 active torsions:
REMARK  status: ('A' for Active; 'I' for Inactive)
REMARK    1  A    between atoms: O_2  and  C_3 
REMARK    2  A    between atoms: C_7  and  C_8 
REMARK    3  A    between atoms: C_19  and  N_20 
ROOT
HETATM    1  C   UNL     1      -5.547 -12.624 -39.568  1.00  0.00     0.244 A 
HETATM    2  N   UNL     1      -4.554 -13.562 -40.040  1.00  0.00    -0.151 N 
HETATM    3  C   UNL     1      -3.564 -14.014 -39.204  1.00  0.00     0.734 A 
HETATM    4  N   UNL     1      -2.764 -14.821 -39.865  1.00  0.00    -0.060 NA
HETATM    5  C   UNL     1      -3.228 -14.855 -41.157  1.00  0.00     0.103 A 
HETATM    6  C   UNL     1      -4.358 -14.057 -41.301  1.00  0.00     0.083 A 
HETATM    7  C   UNL     1      -2.725 -15.548 -42.267  1.00  0.00     0.034 A 
HETATM    8  C   UNL     1      -3.378 -15.411 -43.496  1.00  0.00     0.002 A 
HETATM    9  C   UNL     1      -4.510 -14.602 -43.618  1.00  0.00     0.002 A 
HETATM   10  C   UNL     1      -5.028 -13.903 -42.520  1.00  0.00     0.033 A 
HETATM   11  N   UNL     1      -3.477 -13.648 -37.906  1.00  0.00    -0.033 NA
HETATM   12  C   UNL     1      -4.333 -12.816 -37.432  1.00  0.00     0.193 A 
HETATM   13  N   UNL     1      -5.377 -12.245 -38.168  1.00  0.00    -0.339 N 
HETATM   14  H   UNL     1      -5.981 -11.555 -37.753  1.00  0.00     0.164 HD
ENDROOT
BRANCH   1  15
HETATM   15  C   UNL     1      -6.963 -13.152 -39.703  1.00  0.00    -0.014 A 
HETATM   16  C   UNL     1      -8.044 -12.292 -39.957  1.00  0.00     0.033 A 
HETATM   17  C   UNL     1      -9.337 -12.801 -40.128  1.00  0.00     0.044 A 
HETATM   18  C   UNL     1      -9.583 -14.180 -40.058  1.00  0.00     0.085 A 
HETATM   19 BR   UNL     1     -10.731 -11.557 -40.474  1.00  0.00    -0.048 Br
HETATM   20  C   UNL     1      -8.509 -15.038 -39.804  1.00  0.00     0.039 A 
HETATM   21  C   UNL     1      -7.214 -14.531 -39.634  1.00  0.00     0.014 A 
BRANCH  18  22
HETATM   22  O   UNL     1     -10.874 -14.589 -40.249  1.00  0.00    -0.355 OA
HETATM   23  C   UNL     1     -11.204 -15.210 -41.485  1.00  0.00     0.210 C 
ENDBRANCH  18  22
ENDBRANCH   1  15
BRANCH  12  24
HETATM   24  N   UNL     1      -4.312 -12.393 -36.153  1.00  0.00    -0.272 NA
HETATM   25  H   UNL     1      -5.222 -12.524 -35.715  1.00  0.00     0.127 HD
HETATM   26  H   UNL     1      -3.976 -11.451 -35.998  1.00  0.00     0.127 HD
ENDBRANCH  12  24
TORSDOF 3
ENDMDL
MODEL 5
REMARK VINA RESULT:      -7.5      3.924      5.979
REMARK  3 active torsions:
REMARK  status: ('A' for Active; 'I' for Inactive)
REMARK    1  A    between atoms: O_2  and  C_3 
REMARK    2  A    between atoms: C_7  and  C_8 
REMARK    3  A    between atoms: C_19  and  N_20 
ROOT
HETATM    1  C   UNL     1      -8.245   2.515 -33.046  1.00  0.00     0.244 A 
HETATM    2  N   UNL     1      -9.467   2.794 -33.765  1.00  0.00    -0.151 N 
HETATM    3  C   UNL     1      -9.644   3.994 -34.407  1.00  0.00     0.734 A 
HETATM    4  N   UNL     1     -10.840   4.028 -34.953  1.00  0.00    -0.060 NA
HETATM    5  C   UNL     1     -11.452   2.844 -34.623  1.00  0.00     0.103 A 
HETATM    6  C   UNL     1     -10.608   2.044 -33.860  1.00  0.00     0.083 A 
HETATM    7  C   UNL     1     -12.739   2.388 -34.939  1.00  0.00     0.034 A 
HETATM    8  C   UNL     1     -13.140   1.132 -34.471  1.00  0.00     0.002 A 
HETATM    9  C   UNL     1     -12.276   0.346 -33.705  1.00  0.00     0.002 A 
HETATM   10  C   UNL     1     -10.987   0.785 -33.380  1.00  0.00     0.033 A 
HETATM   11  N   UNL     1      -8.697   4.956 -34.435  1.00  0.00    -0.033 NA
HETATM   12  C   UNL     1      -7.590   4.763 -33.812  1.00  0.00     0.193 A 
HETATM   13  N   UNL     1      -7.277   3.608 -33.089  1.00  0.00    -0.339 N 
HETATM   14  H   UNL     1      -6.414   3.542 -32.575  1.00  0.00     0.164 HD
ENDROOT
BRANCH   1  15
HETATM   15  C   UNL     1      -7.527   1.282 -33.563  1.00  0.00    -0.014 A 
HETATM   16  C   UNL     1      -6.493   0.677 -32.831  1.00  0.00     0.033 A 
HETATM   17  C   UNL     1      -5.875  -0.490 -33.299  1.00  0.00     0.044 A 
HETATM   18  C   UNL     1      -6.278  -1.085 -34.504  1.00  0.00     0.085 A 
HETATM   19 BR   UNL     1      -4.490  -1.237 -32.234  1.00  0.00    -0.048 Br
HETATM   20  C   UNL     1      -7.306  -0.482 -35.235  1.00  0.00     0.039 A 
HETATM   21  C   UNL     1      -7.927   0.684 -34.768  1.00  0.00     0.014 A 
BRANCH  18  22
HETATM   22  O   UNL     1      -5.626  -2.228 -34.878  1.00  0.00    -0.355 OA
HETATM   23  C   UNL     1      -6.342  -3.455 -34.820  1.00  0.00     0.210 C 
ENDBRANCH  18  22
ENDBRANCH   1  15
BRANCH  12  24
HETATM   24  N   UNL     1      -6.598   5.675 -33.784  1.00  0.00    -0.272 NA
HETATM   25  H   UNL     1      -6.508   6.080 -32.854  1.00  0.00     0.127 HD
HETATM   26  H   UNL     1      -6.637   6.403 -34.486  1.00  0.00     0.127 HD
ENDBRANCH  12  24
TORSDOF 3
ENDMDL
MODEL 6
REMARK VINA RESULT:      -7.3      4.687      8.329
REMARK  3 active torsions:
REMARK  status: ('A' for Active; 'I' for Inactive)
REMARK    1  A    between atoms: O_2  and  C_3 
REMARK    2  A    between atoms: C_7  and  C_8 
REMARK    3  A    between atoms: C_19  and  N_20 
ROOT
HETATM    1  C   UNL     1      -2.091   5.122 -32.213  1.00  0.00     0.244 A 
HETATM    2  N   UNL     1      -2.125   6.553 -32.018  1.00  0.00    -0.151 N 
HETATM    3  C   UNL     1      -1.711   7.405 -33.011  1.00  0.00     0.734 A 
HETATM    4  N   UNL     1      -1.797   8.647 -32.589  1.00  0.00    -0.060 NA
HETATM    5  C   UNL     1      -2.238   8.586 -31.290  1.00  0.00     0.103 A 
HETATM    6  C   UNL     1      -2.445   7.268 -30.896  1.00  0.00     0.083 A 
HETATM    7  C   UNL     1      -2.479   9.626 -30.381  1.00  0.00     0.034 A 
HETATM    8  C   UNL     1      -2.920   9.302 -29.093  1.00  0.00     0.002 A 
HETATM    9  C   UNL     1      -3.120   7.972 -28.720  1.00  0.00     0.002 A 
HETATM   10  C   UNL     1      -2.885   6.920 -29.614  1.00  0.00     0.033 A 
HETATM   11  N   UNL     1      -1.288   6.972 -34.219  1.00  0.00    -0.033 NA
HETATM   12  C   UNL     1      -1.236   5.710 -34.448  1.00  0.00     0.193 A 
HETATM   13  N   UNL     1      -1.594   4.720 -33.526  1.00  0.00    -0.339 N 
HETATM   14  H   UNL     1      -1.476   3.745 -33.748  1.00  0.00     0.164 HD
ENDROOT
BRANCH   1  15
HETATM   15  C   UNL     1      -3.454   4.475 -32.052  1.00  0.00    -0.014 A 
HETATM   16  C   UNL     1      -4.588   4.984 -32.706  1.00  0.00     0.033 A 
HETATM   17  C   UNL     1      -5.829   4.345 -32.587  1.00  0.00     0.044 A 
HETATM   18  C   UNL     1      -5.967   3.179 -31.820  1.00  0.00     0.085 A 
HETATM   19 BR   UNL     1      -7.301   5.108 -33.514  1.00  0.00    -0.048 Br
HETATM   20  C   UNL     1      -4.840   2.671 -31.167  1.00  0.00     0.039 A 
HETATM   21  C   UNL     1      -3.598   3.307 -31.286  1.00  0.00     0.014 A 
BRANCH  18  22
HETATM   22  O   UNL     1      -7.213   2.616 -31.769  1.00  0.00    -0.355 OA
HETATM   23  C   UNL     1      -7.341   1.327 -31.182  1.00  0.00     0.210 C 
ENDBRANCH  18  22
ENDBRANCH   1  15
BRANCH  12  24
HETATM   24  N   UNL     1      -0.818   5.195 -35.622  1.00  0.00    -0.272 NA
HETATM   25  H   UNL     1      -0.739   4.181 -35.563  1.00  0.00     0.127 HD
HETATM   26  H   UNL     1       0.026   5.595 -36.011  1.00  0.00     0.127 HD
ENDBRANCH  12  24
TORSDOF 3
ENDMDL
MODEL 7
REMARK VINA RESULT:      -7.2      3.098      4.741
REMARK  3 active torsions:
REMARK  status: ('A' for Active; 'I' for Inactive)
REMARK    1  A    between atoms: O_2  and  C_3 
REMARK    2  A    between atoms: C_7  and  C_8 
REMARK    3  A    between atoms: C_19  and  N_20 
ROOT
HETATM    1  C   UNL     1      -5.242   2.320 -33.219  1.00  0.00     0.244 A 
HETATM    2  N   UNL     1      -4.887   0.925 -33.094  1.00  0.00    -0.151 N 
HETATM    3  C   UNL     1      -3.808   0.543 -32.336  1.00  0.00     0.734 A 
HETATM    4  N   UNL     1      -3.662  -0.762 -32.406  1.00  0.00    -0.060 NA
HETATM    5  C   UNL     1      -4.642  -1.218 -33.253  1.00  0.00     0.103 A 
HETATM    6  C   UNL     1      -5.429  -0.167 -33.714  1.00  0.00     0.083 A 
HETATM    7  C   UNL     1      -4.914  -2.525 -33.680  1.00  0.00     0.034 A 
HETATM    8  C   UNL     1      -5.976  -2.734 -34.566  1.00  0.00     0.002 A 
HETATM    9  C   UNL     1      -6.751  -1.664 -35.018  1.00  0.00     0.002 A 
HETATM   10  C   UNL     1      -6.495  -0.352 -34.602  1.00  0.00     0.033 A 
HETATM   11  N   UNL     1      -3.049   1.422 -31.647  1.00  0.00    -0.033 NA
HETATM   12  C   UNL     1      -3.318   2.675 -31.722  1.00  0.00     0.193 A 
HETATM   13  N   UNL     1      -4.363   3.219 -32.477  1.00  0.00    -0.339 N 
HETATM   14  H   UNL     1      -4.487   4.217 -32.539  1.00  0.00     0.164 HD
ENDROOT
BRANCH   1  15
HETATM   15  C   UNL     1      -6.655   2.611 -32.745  1.00  0.00    -0.014 A 
HETATM   16  C   UNL     1      -7.658   3.015 -33.640  1.00  0.00     0.033 A 
HETATM   17  C   UNL     1      -8.969   3.231 -33.195  1.00  0.00     0.044 A 
HETATM   18  C   UNL     1      -9.311   3.041 -31.848  1.00  0.00     0.085 A 
HETATM   19 BR   UNL     1     -10.257   3.769 -34.483  1.00  0.00    -0.048 Br
HETATM   20  C   UNL     1      -8.313   2.641 -30.955  1.00  0.00     0.039 A 
HETATM   21  C   UNL     1      -7.002   2.423 -31.398  1.00  0.00     0.014 A 
BRANCH  18  22
HETATM   22  O   UNL     1     -10.616   3.264 -31.504  1.00  0.00    -0.355 OA
HETATM   23  C   UNL     1     -10.895   4.305 -30.576  1.00  0.00     0.210 C 
ENDBRANCH  18  22
ENDBRANCH   1  15
BRANCH  12  24
HETATM   24  N   UNL     1      -2.605   3.618 -31.073  1.00  0.00    -0.272 NA
HETATM   25  H   UNL     1      -1.607   3.425 -31.142  1.00  0.00     0.127 HD
HETATM   26  H   UNL     1      -2.867   3.795 -30.112  1.00  0.00     0.127 HD
ENDBRANCH  12  24
TORSDOF 3
ENDMDL
MODEL 8
REMARK VINA RESULT:      -7.1      3.281      5.196
REMARK  3 active torsions:
REMARK  status: ('A' for Active; 'I' for Inactive)
REMARK    1  A    between atoms: O_2  and  C_3 
REMARK    2  A    between atoms: C_7  and  C_8 
REMARK    3  A    between atoms: C_19  and  N_20 
ROOT
HETATM    1  C   UNL     1      -6.171   1.599 -33.167  1.00  0.00     0.244 A 
HETATM    2  N   UNL     1      -5.488   0.357 -32.889  1.00  0.00    -0.151 N 
HETATM    3  C   UNL     1      -4.646   0.246 -31.812  1.00  0.00     0.734 A 
HETATM    4  N   UNL     1      -4.116  -0.956 -31.789  1.00  0.00    -0.060 NA
HETATM    5  C   UNL     1      -4.598  -1.615 -32.893  1.00  0.00     0.103 A 
HETATM    6  C   UNL     1      -5.464  -0.802 -33.618  1.00  0.00     0.083 A 
HETATM    7  C   UNL     1      -4.330  -2.915 -33.344  1.00  0.00     0.034 A 
HETATM    8  C   UNL     1      -4.945  -3.358 -34.519  1.00  0.00     0.002 A 
HETATM    9  C   UNL     1      -5.810  -2.524 -35.231  1.00  0.00     0.002 A 
HETATM   10  C   UNL     1      -6.090  -1.223 -34.796  1.00  0.00     0.033 A 
HETATM   11  N   UNL     1      -4.434   1.258 -30.941  1.00  0.00    -0.033 NA
HETATM   12  C   UNL     1      -5.014   2.386 -31.139  1.00  0.00     0.193 A 
HETATM   13  N   UNL     1      -5.874   2.659 -32.209  1.00  0.00    -0.339 N 
HETATM   14  H   UNL     1      -6.253   3.583 -32.340  1.00  0.00     0.164 HD
ENDROOT
BRANCH   1  15
HETATM   15  C   UNL     1      -7.681   1.447 -33.186  1.00  0.00    -0.014 A 
HETATM   16  C   UNL     1      -8.499   2.349 -33.886  1.00  0.00     0.033 A 
HETATM   17  C   UNL     1      -9.887   2.166 -33.935  1.00  0.00     0.044 A 
HETATM   18  C   UNL     1     -10.492   1.075 -33.294  1.00  0.00     0.085 A 
HETATM   19 BR   UNL     1     -10.906   3.437 -34.912  1.00  0.00    -0.048 Br
HETATM   20  C   UNL     1      -9.680   0.176 -32.596  1.00  0.00     0.039 A 
HETATM   21  C   UNL     1      -8.291   0.356 -32.547  1.00  0.00     0.014 A 
BRANCH  18  22
HETATM   22  O   UNL     1     -11.851   0.968 -33.404  1.00  0.00    -0.355 OA
HETATM   23  C   UNL     1     -12.419  -0.335 -33.446  1.00  0.00     0.210 C 
ENDBRANCH  18  22
ENDBRANCH   1  15
BRANCH  12  24
HETATM   24  N   UNL     1      -4.850   3.447 -30.325  1.00  0.00    -0.272 NA
HETATM   25  H   UNL     1      -3.994   3.354 -29.781  1.00  0.00     0.127 HD
HETATM   26  H   UNL     1      -5.630   3.675 -29.722  1.00  0.00     0.127 HD
ENDBRANCH  12  24
TORSDOF 3
ENDMDL
MODEL 9
REMARK VINA RESULT:      -7.1      2.985      5.540
REMARK  3 active torsions:
REMARK  status: ('A' for Active; 'I' for Inactive)
REMARK    1  A    between atoms: O_2  and  C_3 
REMARK    2  A    between atoms: C_7  and  C_8 
REMARK    3  A    between atoms: C_19  and  N_20 
ROOT
HETATM    1  C   UNL     1      -8.213   1.447 -34.429  1.00  0.00     0.244 A 
HETATM    2  N   UNL     1      -8.072   2.645 -33.634  1.00  0.00    -0.151 N 
HETATM    3  C   UNL     1      -9.068   3.039 -32.777  1.00  0.00     0.734 A 
HETATM    4  N   UNL     1      -8.729   4.170 -32.199  1.00  0.00    -0.060 NA
HETATM    5  C   UNL     1      -7.512   4.526 -32.724  1.00  0.00     0.103 A 
HETATM    6  C   UNL     1      -7.073   3.581 -33.647  1.00  0.00     0.083 A 
HETATM    7  C   UNL     1      -6.722   5.653 -32.461  1.00  0.00     0.034 A 
HETATM    8  C   UNL     1      -5.508   5.797 -33.142  1.00  0.00     0.002 A 
HETATM    9  C   UNL     1      -5.089   4.837 -34.065  1.00  0.00     0.002 A 
HETATM   10  C   UNL     1      -5.864   3.704 -34.341  1.00  0.00     0.033 A 
HETATM   11  N   UNL     1     -10.203   2.329 -32.598  1.00  0.00    -0.033 NA
HETATM   12  C   UNL     1     -10.383   1.255 -33.278  1.00  0.00     0.193 A 
HETATM   13  N   UNL     1      -9.475   0.745 -34.212  1.00  0.00    -0.339 N 
HETATM   14  H   UNL     1      -9.701  -0.073 -34.755  1.00  0.00     0.164 HD
ENDROOT
BRANCH   1  15
HETATM   15  C   UNL     1      -7.109   0.437 -34.170  1.00  0.00    -0.014 A 
HETATM   16  C   UNL     1      -6.251   0.558 -33.066  1.00  0.00     0.033 A 
HETATM   17  C   UNL     1      -5.270  -0.409 -32.814  1.00  0.00     0.044 A 
HETATM   18  C   UNL     1      -5.127  -1.525 -33.652  1.00  0.00     0.085 A 
HETATM   19 BR   UNL     1      -4.162  -0.160 -31.291  1.00  0.00    -0.048 Br
HETATM   20  C   UNL     1      -5.979  -1.646 -34.754  1.00  0.00     0.039 A 
HETATM   21  C   UNL     1      -6.962  -0.680 -35.007  1.00  0.00     0.014 A 
BRANCH  18  22
HETATM   22  O   UNL     1      -4.150  -2.424 -33.325  1.00  0.00    -0.355 OA
HETATM   23  C   UNL     1      -4.120  -3.663 -34.022  1.00  0.00     0.210 C 
ENDBRANCH  18  22
ENDBRANCH   1  15
BRANCH  12  24
HETATM   24  N   UNL     1     -11.491   0.494 -33.166  1.00  0.00    -0.272 NA
HETATM   25  H   UNL     1     -11.351  -0.247 -32.481  1.00  0.00     0.127 HD
HETATM   26  H   UNL     1     -11.863   0.116 -34.028  1.00  0.00     0.127 HD
ENDBRANCH  12  24
TORSDOF 3
ENDMDL
MODEL 10
REMARK VINA RESULT:      -7.1      3.254      6.165
REMARK  3 active torsions:
REMARK  status: ('A' for Active; 'I' for Inactive)
REMARK    1  A    between atoms: O_2  and  C_3 
REMARK    2  A    between atoms: C_7  and  C_8 
REMARK    3  A    between atoms: C_19  and  N_20 
ROOT
HETATM    1  C   UNL     1      -5.405   3.963 -31.934  1.00  0.00     0.244 A 
HETATM    2  N   UNL     1      -4.255   4.836 -31.878  1.00  0.00    -0.151 N 
HETATM    3  C   UNL     1      -4.014   5.608 -30.770  1.00  0.00     0.734 A 
HETATM    4  N   UNL     1      -2.941   6.342 -30.969  1.00  0.00    -0.060 NA
HETATM    5  C   UNL     1      -2.511   6.062 -32.242  1.00  0.00     0.103 A 
HETATM    6  C   UNL     1      -3.332   5.117 -32.849  1.00  0.00     0.083 A 
HETATM    7  C   UNL     1      -1.421   6.588 -32.951  1.00  0.00     0.034 A 
HETATM    8  C   UNL     1      -1.193   6.145 -34.258  1.00  0.00     0.002 A 
HETATM    9  C   UNL     1      -2.032   5.197 -34.847  1.00  0.00     0.002 A 
HETATM   10  C   UNL     1      -3.124   4.659 -34.155  1.00  0.00     0.033 A 
HETATM   11  N   UNL     1      -4.798   5.575 -29.670  1.00  0.00    -0.033 NA
HETATM   12  C   UNL     1      -5.834   4.818 -29.663  1.00  0.00     0.193 A 
HETATM   13  N   UNL     1      -6.227   3.999 -30.728  1.00  0.00    -0.339 N 
HETATM   14  H   UNL     1      -7.084   3.471 -30.681  1.00  0.00     0.164 HD
ENDROOT
BRANCH   1  15
HETATM   15  C   UNL     1      -5.028   2.510 -32.154  1.00  0.00    -0.014 A 
HETATM   16  C   UNL     1      -5.757   1.690 -33.031  1.00  0.00     0.033 A 
HETATM   17  C   UNL     1      -5.365   0.365 -33.262  1.00  0.00     0.044 A 
HETATM   18  C   UNL     1      -4.234  -0.172 -32.630  1.00  0.00     0.085 A 
HETATM   19 BR   UNL     1      -6.412  -0.662 -34.470  1.00  0.00    -0.048 Br
HETATM   20  C   UNL     1      -3.509   0.642 -31.755  1.00  0.00     0.039 A 
HETATM   21  C   UNL     1      -3.897   1.968 -31.524  1.00  0.00     0.014 A 
BRANCH  18  22
HETATM   22  O   UNL     1      -3.920  -1.471 -32.922  1.00  0.00    -0.355 OA
HETATM   23  C   UNL     1      -3.149  -2.202 -31.976  1.00  0.00     0.210 C 
ENDBRANCH  18  22
ENDBRANCH   1  15
BRANCH  12  24
HETATM   24  N   UNL     1      -6.673   4.733 -28.611  1.00  0.00    -0.272 NA
HETATM   25  H   UNL     1      -6.156   4.549 -27.752  1.00  0.00     0.127 HD
HETATM   26  H   UNL     1      -7.447   4.088 -28.705  1.00  0.00     0.127 HD
ENDBRANCH  12  24
TORSDOF 3
ENDMDL
