MODEL 1
REMARK VINA RESULT:     -10.6      0.000      0.000
REMARK  6 active torsions:
REMARK  status: ('A' for Active; 'I' for Inactive)
REMARK       I    between atoms: C_2  and  N_3 
REMARK    1  A    between atoms: C_2  and  C_12 
REMARK    2  A    between atoms: N_3  and  C_4 
REMARK    3  A    between atoms: C_4  and  C_5 
REMARK    4  A    between atoms: C_5  and  C_6 
REMARK    5  A    between atoms: C_18  and  C_22 
REMARK    6  A    between atoms: C_28  and  C_34 
ROOT
HETATM    1  C   UNL     1      -4.468   6.272 -30.093  1.00  0.00     0.032 A 
HETATM    2  C   UNL     1      -5.376   5.798 -29.139  1.00  0.00     0.020 A 
HETATM    3  C   UNL     1      -6.586   5.235 -29.551  1.00  0.00     0.038 A 
HETATM    4  C   UNL     1      -6.888   5.138 -30.909  1.00  0.00     0.075 A 
HETATM    5  O   UNL     1      -8.055   4.489 -31.224  1.00  0.00    -0.350 OA
HETATM    6  C   UNL     1      -8.493   4.641 -32.581  1.00  0.00     0.188 C 
HETATM    7  C   UNL     1      -7.365   4.407 -33.582  1.00  0.00     0.082 C 
HETATM    8  C   UNL     1      -6.279   5.455 -33.339  1.00  0.00     0.056 C 
HETATM    9  C   UNL     1      -5.979   5.582 -31.874  1.00  0.00    -0.023 A 
HETATM   10  C   UNL     1      -4.774   6.162 -31.456  1.00  0.00     0.027 A 
ENDROOT
BRANCH   7  11
HETATM   11  C   UNL     1      -6.786   3.025 -33.512  1.00  0.00     0.091 A 
HETATM   12  N   UNL     1      -7.413   2.061 -34.179  1.00  0.00    -0.345 N 
HETATM   13  H   UNL     1      -8.259   2.272 -34.701  1.00  0.00     0.167 HD
HETATM   14  C   UNL     1      -6.903   0.793 -34.191  1.00  0.00     0.049 A 
HETATM   15  C   UNL     1      -7.556  -0.206 -34.915  1.00  0.00     0.031 A 
HETATM   16  C   UNL     1      -5.734   0.450 -33.510  1.00  0.00     0.059 A 
HETATM   17  C   UNL     1      -7.038  -1.508 -34.956  1.00  0.00     0.014 A 
HETATM   18  C   UNL     1      -5.855  -1.840 -34.276  1.00  0.00    -0.022 A 
HETATM   19  C   UNL     1      -5.204  -0.845 -33.540  1.00  0.00     0.031 A 
HETATM   20  C   UNL     1      -5.075   1.517 -32.762  1.00  0.00     0.259 A 
HETATM   21  O   UNL     1      -4.063   1.403 -32.101  1.00  0.00    -0.267 OA
HETATM   22  N   UNL     1      -5.685   2.787 -32.829  1.00  0.00    -0.312 N 
HETATM   23  H   UNL     1      -5.212   3.545 -32.339  1.00  0.00     0.170 HD
BRANCH  18  24
HETATM   24  C   UNL     1      -5.330  -3.192 -34.340  1.00  0.00     0.010 A 
HETATM   25  C   UNL     1      -5.918  -4.392 -34.802  1.00  0.00     0.152 A 
HETATM   26  N   UNL     1      -5.095  -5.438 -34.713  1.00  0.00    -0.187 NA
HETATM   27  N   UNL     1      -3.972  -4.917 -34.198  1.00  0.00    -0.289 N 
HETATM   28  H   UNL     1      -3.181  -5.535 -34.042  1.00  0.00     0.188 HD
HETATM   29  C   UNL     1      -4.061  -3.574 -33.956  1.00  0.00     0.123 A 
ENDBRANCH  18  24
ENDBRANCH   7  11
BRANCH   1  30
HETATM   30  C   UNL     1      -3.143   6.835 -29.717  1.00  0.00     0.251 C 
HETATM   31  O   UNL     1      -3.076   7.988 -29.307  1.00  0.00    -0.268 OA
HETATM   32  N   UNL     1      -2.059   5.992 -29.831  1.00  0.00    -0.357 N 
HETATM   33  H   UNL     1      -2.217   4.999 -29.942  1.00  0.00     0.162 HD
BRANCH  32  34
HETATM   34  C   UNL     1      -0.735   6.436 -29.422  1.00  0.00     0.129 C 
BRANCH  34  35
HETATM   35  C   UNL     1       0.162   6.736 -30.618  1.00  0.00     0.079 C 
BRANCH  35  36
HETATM   36  C   UNL     1      -0.566   6.519 -31.916  1.00  0.00     0.035 A 
HETATM   37  C   UNL     1      -1.085   7.597 -32.631  1.00  0.00     0.027 A 
HETATM   38  C   UNL     1      -1.765   7.348 -33.819  1.00  0.00     0.003 A 
HETATM   39  C   UNL     1      -1.912   6.039 -34.259  1.00  0.00     0.019 A 
HETATM   40  C   UNL     1      -1.372   5.026 -33.486  1.00  0.00     0.117 A 
HETATM   41  N   UNL     1      -0.708   5.237 -32.328  1.00  0.00    -0.266 NA
ENDBRANCH  35  36
ENDBRANCH  34  35
ENDBRANCH  32  34
ENDBRANCH   1  30
TORSDOF 6
ENDMDL
MODEL 2
REMARK VINA RESULT:     -10.1      1.499      2.112
REMARK  6 active torsions:
REMARK  status: ('A' for Active; 'I' for Inactive)
REMARK       I    between atoms: C_2  and  N_3 
REMARK    1  A    between atoms: C_2  and  C_12 
REMARK    2  A    between atoms: N_3  and  C_4 
REMARK    3  A    between atoms: C_4  and  C_5 
REMARK    4  A    between atoms: C_5  and  C_6 
REMARK    5  A    between atoms: C_18  and  C_22 
REMARK    6  A    between atoms: C_28  and  C_34 
ROOT
HETATM    1  C   UNL     1      -5.830   5.717 -28.869  1.00  0.00     0.032 A 
HETATM    2  C   UNL     1      -7.132   5.260 -28.637  1.00  0.00     0.020 A 
HETATM    3  C   UNL     1      -7.965   4.958 -29.717  1.00  0.00     0.038 A 
HETATM    4  C   UNL     1      -7.502   5.107 -31.024  1.00  0.00     0.075 A 
HETATM    5  O   UNL     1      -8.355   4.702 -32.018  1.00  0.00    -0.350 OA
HETATM    6  C   UNL     1      -7.992   5.115 -33.343  1.00  0.00     0.188 C 
HETATM    7  C   UNL     1      -6.520   4.854 -33.647  1.00  0.00     0.082 C 
HETATM    8  C   UNL     1      -5.674   5.672 -32.671  1.00  0.00     0.056 C 
HETATM    9  C   UNL     1      -6.194   5.538 -31.271  1.00  0.00    -0.023 A 
HETATM   10  C   UNL     1      -5.367   5.855 -30.185  1.00  0.00     0.027 A 
ENDROOT
BRANCH   7  11
HETATM   11  C   UNL     1      -6.147   3.402 -33.575  1.00  0.00     0.091 A 
HETATM   12  N   UNL     1      -6.883   2.544 -34.275  1.00  0.00    -0.345 N 
HETATM   13  H   UNL     1      -7.671   2.878 -34.822  1.00  0.00     0.167 HD
HETATM   14  C   UNL     1      -6.559   1.215 -34.286  1.00  0.00     0.049 A 
HETATM   15  C   UNL     1      -7.323   0.327 -35.044  1.00  0.00     0.031 A 
HETATM   16  C   UNL     1      -5.476   0.703 -33.571  1.00  0.00     0.059 A 
HETATM   17  C   UNL     1      -6.996  -1.036 -35.084  1.00  0.00     0.014 A 
HETATM   18  C   UNL     1      -5.897  -1.540 -34.370  1.00  0.00    -0.022 A 
HETATM   19  C   UNL     1      -5.136  -0.654 -33.600  1.00  0.00     0.031 A 
HETATM   20  C   UNL     1      -4.697   1.659 -32.788  1.00  0.00     0.259 A 
HETATM   21  O   UNL     1      -3.735   1.395 -32.096  1.00  0.00    -0.267 OA
HETATM   22  N   UNL     1      -5.116   3.004 -32.859  1.00  0.00    -0.312 N 
HETATM   23  H   UNL     1      -4.556   3.682 -32.345  1.00  0.00     0.170 HD
BRANCH  18  24
HETATM   24  C   UNL     1      -5.569  -2.952 -34.434  1.00  0.00     0.010 A 
HETATM   25  C   UNL     1      -6.319  -4.056 -34.903  1.00  0.00     0.152 A 
HETATM   26  N   UNL     1      -5.653  -5.209 -34.811  1.00  0.00    -0.187 NA
HETATM   27  N   UNL     1      -4.471  -4.853 -34.287  1.00  0.00    -0.289 N 
HETATM   28  H   UNL     1      -3.777  -5.578 -34.128  1.00  0.00     0.188 HD
HETATM   29  C   UNL     1      -4.370  -3.511 -34.043  1.00  0.00     0.123 A 
ENDBRANCH  18  24
ENDBRANCH   7  11
BRANCH   1  30
HETATM   30  C   UNL     1      -4.880   6.005 -27.760  1.00  0.00     0.251 C 
HETATM   31  O   UNL     1      -5.135   5.600 -26.632  1.00  0.00    -0.268 OA
HETATM   32  N   UNL     1      -3.738   6.699 -28.091  1.00  0.00    -0.357 N 
HETATM   33  H   UNL     1      -3.480   6.790 -29.065  1.00  0.00     0.162 HD
BRANCH  32  34
HETATM   34  C   UNL     1      -2.721   6.966 -27.084  1.00  0.00     0.129 C 
BRANCH  34  35
HETATM   35  C   UNL     1      -1.476   7.608 -27.686  1.00  0.00     0.079 C 
BRANCH  35  36
HETATM   36  C   UNL     1      -0.896   6.756 -28.781  1.00  0.00     0.035 A 
HETATM   37  C   UNL     1       0.210   5.944 -28.541  1.00  0.00     0.027 A 
HETATM   38  C   UNL     1       0.724   5.184 -29.588  1.00  0.00     0.003 A 
HETATM   39  C   UNL     1       0.126   5.256 -30.839  1.00  0.00     0.019 A 
HETATM   40  C   UNL     1      -0.966   6.093 -30.994  1.00  0.00     0.117 A 
HETATM   41  N   UNL     1      -1.485   6.843 -29.997  1.00  0.00    -0.266 NA
ENDBRANCH  35  36
ENDBRANCH  34  35
ENDBRANCH  32  34
ENDBRANCH   1  30
TORSDOF 6
ENDMDL
MODEL 3
REMARK VINA RESULT:     -10.0      1.965      3.030
REMARK  6 active torsions:
REMARK  status: ('A' for Active; 'I' for Inactive)
REMARK       I    between atoms: C_2  and  N_3 
REMARK    1  A    between atoms: C_2  and  C_12 
REMARK    2  A    between atoms: N_3  and  C_4 
REMARK    3  A    between atoms: C_4  and  C_5 
REMARK    4  A    between atoms: C_5  and  C_6 
REMARK    5  A    between atoms: C_18  and  C_22 
REMARK    6  A    between atoms: C_28  and  C_34 
ROOT
HETATM    1  C   UNL     1      -5.025   5.696 -31.948  1.00  0.00     0.032 A 
HETATM    2  C   UNL     1      -4.840   5.162 -30.668  1.00  0.00     0.020 A 
HETATM    3  C   UNL     1      -5.917   4.582 -29.994  1.00  0.00     0.038 A 
HETATM    4  C   UNL     1      -7.174   4.528 -30.596  1.00  0.00     0.075 A 
HETATM    5  O   UNL     1      -8.150   3.860 -29.900  1.00  0.00    -0.350 OA
HETATM    6  C   UNL     1      -9.486   4.052 -30.383  1.00  0.00     0.188 C 
HETATM    7  C   UNL     1      -9.583   3.886 -31.897  1.00  0.00     0.082 C 
HETATM    8  C   UNL     1      -8.708   4.953 -32.555  1.00  0.00     0.056 C 
HETATM    9  C   UNL     1      -7.368   5.033 -31.885  1.00  0.00    -0.023 A 
HETATM   10  C   UNL     1      -6.289   5.629 -32.551  1.00  0.00     0.027 A 
ENDROOT
BRANCH   7  11
HETATM   11  C   UNL     1      -9.188   2.518 -32.371  1.00  0.00     0.091 A 
HETATM   12  N   UNL     1      -7.937   2.350 -32.788  1.00  0.00    -0.345 N 
HETATM   13  H   UNL     1      -7.292   3.135 -32.788  1.00  0.00     0.167 HD
HETATM   14  C   UNL     1      -7.508   1.114 -33.185  1.00  0.00     0.049 A 
HETATM   15  C   UNL     1      -6.185   0.943 -33.596  1.00  0.00     0.031 A 
HETATM   16  C   UNL     1      -8.344  -0.003 -33.185  1.00  0.00     0.059 A 
HETATM   17  C   UNL     1      -5.720  -0.320 -33.988  1.00  0.00     0.014 A 
HETATM   18  C   UNL     1      -6.567  -1.441 -33.974  1.00  0.00    -0.022 A 
HETATM   19  C   UNL     1      -7.896  -1.272 -33.573  1.00  0.00     0.031 A 
HETATM   20  C   UNL     1      -9.721   0.208 -32.748  1.00  0.00     0.259 A 
HETATM   21  O   UNL     1     -10.590  -0.638 -32.697  1.00  0.00    -0.267 OA
HETATM   22  N   UNL     1     -10.049   1.521 -32.353  1.00  0.00    -0.312 N 
HETATM   23  H   UNL     1     -10.998   1.670 -32.013  1.00  0.00     0.170 HD
BRANCH  18  24
HETATM   24  C   UNL     1      -6.062  -2.742 -34.374  1.00  0.00     0.010 A 
HETATM   25  C   UNL     1      -6.736  -3.888 -34.857  1.00  0.00     0.152 A 
HETATM   26  N   UNL     1      -5.907  -4.895 -35.136  1.00  0.00    -0.187 NA
HETATM   27  N   UNL     1      -4.695  -4.402 -34.837  1.00  0.00    -0.289 N 
HETATM   28  H   UNL     1      -3.885  -4.999 -34.978  1.00  0.00     0.188 HD
HETATM   29  C   UNL     1      -4.734  -3.115 -34.377  1.00  0.00     0.123 A 
ENDBRANCH  18  24
ENDBRANCH   7  11
BRANCH   1  30
HETATM   30  C   UNL     1      -3.906   6.279 -32.735  1.00  0.00     0.251 C 
HETATM   31  O   UNL     1      -3.859   6.087 -33.945  1.00  0.00    -0.268 OA
HETATM   32  N   UNL     1      -2.992   7.038 -32.039  1.00  0.00    -0.357 N 
HETATM   33  H   UNL     1      -3.220   7.351 -31.104  1.00  0.00     0.162 HD
BRANCH  32  34
HETATM   34  C   UNL     1      -1.902   7.704 -32.738  1.00  0.00     0.129 C 
BRANCH  34  35
HETATM   35  C   UNL     1      -0.618   6.882 -32.708  1.00  0.00     0.079 C 
BRANCH  35  36
HETATM   36  C   UNL     1      -0.247   6.499 -31.302  1.00  0.00     0.035 A 
HETATM   37  C   UNL     1       0.385   5.286 -31.038  1.00  0.00     0.027 A 
HETATM   38  C   UNL     1       0.697   4.965 -29.719  1.00  0.00     0.003 A 
HETATM   39  C   UNL     1       0.369   5.856 -28.706  1.00  0.00     0.019 A 
HETATM   40  C   UNL     1      -0.264   7.037 -29.054  1.00  0.00     0.117 A 
HETATM   41  N   UNL     1      -0.580   7.374 -30.324  1.00  0.00    -0.266 NA
ENDBRANCH  35  36
ENDBRANCH  34  35
ENDBRANCH  32  34
ENDBRANCH   1  30
TORSDOF 6
ENDMDL
MODEL 4
REMARK VINA RESULT:      -9.8      2.926     10.051
REMARK  6 active torsions:
REMARK  status: ('A' for Active; 'I' for Inactive)
REMARK       I    between atoms: C_2  and  N_3 
REMARK    1  A    between atoms: C_2  and  C_12 
REMARK    2  A    between atoms: N_3  and  C_4 
REMARK    3  A    between atoms: C_4  and  C_5 
REMARK    4  A    between atoms: C_5  and  C_6 
REMARK    5  A    between atoms: C_18  and  C_22 
REMARK    6  A    between atoms: C_28  and  C_34 
ROOT
HETATM    1  C   UNL     1      -5.471   4.197 -33.473  1.00  0.00     0.032 A 
HETATM    2  C   UNL     1      -4.844   3.148 -32.791  1.00  0.00     0.020 A 
HETATM    3  C   UNL     1      -3.486   3.235 -32.477  1.00  0.00     0.038 A 
HETATM    4  C   UNL     1      -2.754   4.368 -32.836  1.00  0.00     0.075 A 
HETATM    5  O   UNL     1      -1.452   4.407 -32.408  1.00  0.00    -0.350 OA
HETATM    6  C   UNL     1      -0.639   5.422 -33.012  1.00  0.00     0.188 C 
HETATM    7  C   UNL     1      -1.328   6.784 -33.023  1.00  0.00     0.082 C 
HETATM    8  C   UNL     1      -2.604   6.671 -33.857  1.00  0.00     0.056 C 
HETATM    9  C   UNL     1      -3.373   5.435 -33.494  1.00  0.00    -0.023 A 
HETATM   10  C   UNL     1      -4.731   5.336 -33.822  1.00  0.00     0.027 A 
ENDROOT
BRANCH   7  11
HETATM   11  C   UNL     1      -1.643   7.301 -31.650  1.00  0.00     0.091 A 
HETATM   12  N   UNL     1      -1.023   6.730 -30.622  1.00  0.00    -0.345 N 
HETATM   13  H   UNL     1      -0.374   5.965 -30.781  1.00  0.00     0.167 HD
HETATM   14  C   UNL     1      -1.234   7.193 -29.353  1.00  0.00     0.049 A 
HETATM   15  C   UNL     1      -0.559   6.604 -28.283  1.00  0.00     0.031 A 
HETATM   16  C   UNL     1      -2.098   8.254 -29.078  1.00  0.00     0.059 A 
HETATM   17  C   UNL     1      -0.747   7.077 -26.976  1.00  0.00     0.014 A 
HETATM   18  C   UNL     1      -1.610   8.152 -26.712  1.00  0.00    -0.022 A 
HETATM   19  C   UNL     1      -2.297   8.739 -27.779  1.00  0.00     0.031 A 
HETATM   20  C   UNL     1      -2.788   8.850 -30.218  1.00  0.00     0.259 A 
HETATM   21  O   UNL     1      -3.584   9.766 -30.170  1.00  0.00    -0.267 OA
HETATM   22  N   UNL     1      -2.487   8.298 -31.481  1.00  0.00    -0.312 N 
HETATM   23  H   UNL     1      -2.937   8.731 -32.285  1.00  0.00     0.170 HD
BRANCH  18  24
HETATM   24  C   UNL     1      -1.782   8.633 -25.353  1.00  0.00     0.010 A 
HETATM   25  C   UNL     1      -1.044   9.582 -24.607  1.00  0.00     0.152 A 
HETATM   26  N   UNL     1      -1.534   9.768 -23.380  1.00  0.00    -0.187 NA
HETATM   27  N   UNL     1      -2.591   8.944 -23.331  1.00  0.00    -0.289 N 
HETATM   28  H   UNL     1      -3.141   8.916 -22.476  1.00  0.00     0.188 HD
HETATM   29  C   UNL     1      -2.782   8.241 -24.488  1.00  0.00     0.123 A 
ENDBRANCH  18  24
ENDBRANCH   7  11
BRANCH   1  30
HETATM   30  C   UNL     1      -6.924   4.183 -33.789  1.00  0.00     0.251 C 
HETATM   31  O   UNL     1      -7.448   5.193 -34.246  1.00  0.00    -0.268 OA
HETATM   32  N   UNL     1      -7.593   3.000 -33.569  1.00  0.00    -0.357 N 
HETATM   33  H   UNL     1      -7.060   2.153 -33.422  1.00  0.00     0.162 HD
BRANCH  32  34
HETATM   34  C   UNL     1      -9.001   2.875 -33.913  1.00  0.00     0.129 C 
BRANCH  34  35
HETATM   35  C   UNL     1      -9.425   1.418 -34.065  1.00  0.00     0.079 C 
BRANCH  35  36
HETATM   36  C   UNL     1      -8.242   0.493 -33.993  1.00  0.00     0.035 A 
HETATM   37  C   UNL     1      -7.704  -0.065 -35.150  1.00  0.00     0.027 A 
HETATM   38  C   UNL     1      -6.617  -0.928 -35.036  1.00  0.00     0.003 A 
HETATM   39  C   UNL     1      -6.102  -1.212 -33.778  1.00  0.00     0.019 A 
HETATM   40  C   UNL     1      -6.700  -0.620 -32.679  1.00  0.00     0.117 A 
HETATM   41  N   UNL     1      -7.755   0.220 -32.759  1.00  0.00    -0.266 NA
ENDBRANCH  35  36
ENDBRANCH  34  35
ENDBRANCH  32  34
ENDBRANCH   1  30
TORSDOF 6
ENDMDL
MODEL 5
REMARK VINA RESULT:      -9.7      4.199      6.903
REMARK  6 active torsions:
REMARK  status: ('A' for Active; 'I' for Inactive)
REMARK       I    between atoms: C_2  and  N_3 
REMARK    1  A    between atoms: C_2  and  C_12 
REMARK    2  A    between atoms: N_3  and  C_4 
REMARK    3  A    between atoms: C_4  and  C_5 
REMARK    4  A    between atoms: C_5  and  C_6 
REMARK    5  A    between atoms: C_18  and  C_22 
REMARK    6  A    between atoms: C_28  and  C_34 
ROOT
HETATM    1  C   UNL     1      -0.498   7.689 -28.879  1.00  0.00     0.032 A 
HETATM    2  C   UNL     1      -1.522   8.621 -29.076  1.00  0.00     0.020 A 
HETATM    3  C   UNL     1      -2.111   8.751 -30.336  1.00  0.00     0.038 A 
HETATM    4  C   UNL     1      -1.684   7.951 -31.396  1.00  0.00     0.075 A 
HETATM    5  O   UNL     1      -2.378   8.082 -32.572  1.00  0.00    -0.350 OA
HETATM    6  C   UNL     1      -1.764   7.477 -33.717  1.00  0.00     0.188 C 
HETATM    7  C   UNL     1      -1.290   6.054 -33.434  1.00  0.00     0.082 C 
HETATM    8  C   UNL     1      -0.234   6.108 -32.331  1.00  0.00     0.056 C 
HETATM    9  C   UNL     1      -0.680   6.996 -31.207  1.00  0.00    -0.023 A 
HETATM   10  C   UNL     1      -0.081   6.881 -29.946  1.00  0.00     0.027 A 
ENDROOT
BRANCH   7  11
HETATM   11  C   UNL     1      -2.403   5.123 -33.050  1.00  0.00     0.091 A 
HETATM   12  N   UNL     1      -3.608   5.364 -33.556  1.00  0.00    -0.345 N 
HETATM   13  H   UNL     1      -3.751   6.162 -34.170  1.00  0.00     0.167 HD
HETATM   14  C   UNL     1      -4.648   4.521 -33.280  1.00  0.00     0.049 A 
HETATM   15  C   UNL     1      -5.903   4.768 -33.838  1.00  0.00     0.031 A 
HETATM   16  C   UNL     1      -4.505   3.399 -32.462  1.00  0.00     0.059 A 
HETATM   17  C   UNL     1      -6.978   3.905 -33.582  1.00  0.00     0.014 A 
HETATM   18  C   UNL     1      -6.820   2.773 -32.766  1.00  0.00    -0.022 A 
HETATM   19  C   UNL     1      -5.567   2.527 -32.196  1.00  0.00     0.031 A 
HETATM   20  C   UNL     1      -3.179   3.167 -31.894  1.00  0.00     0.259 A 
HETATM   21  O   UNL     1      -2.871   2.257 -31.153  1.00  0.00    -0.267 OA
HETATM   22  N   UNL     1      -2.181   4.096 -32.256  1.00  0.00    -0.312 N 
HETATM   23  H   UNL     1      -1.245   3.922 -31.893  1.00  0.00     0.170 HD
BRANCH  18  24
HETATM   24  C   UNL     1      -7.942   1.886 -32.523  1.00  0.00     0.010 A 
HETATM   25  C   UNL     1      -8.854   1.279 -33.419  1.00  0.00     0.152 A 
HETATM   26  N   UNL     1      -9.747   0.504 -32.801  1.00  0.00    -0.187 NA
HETATM   27  N   UNL     1      -9.413   0.603 -31.506  1.00  0.00    -0.289 N 
HETATM   28  H   UNL     1      -9.960   0.082 -30.826  1.00  0.00     0.188 HD
HETATM   29  C   UNL     1      -8.338   1.420 -31.286  1.00  0.00     0.123 A 
ENDBRANCH  18  24
ENDBRANCH   7  11
BRANCH   1  30
HETATM   30  C   UNL     1       0.131   7.470 -27.549  1.00  0.00     0.251 C 
HETATM   31  O   UNL     1      -0.377   6.672 -26.770  1.00  0.00    -0.268 OA
HETATM   32  N   UNL     1       1.286   8.174 -27.288  1.00  0.00    -0.357 N 
HETATM   33  H   UNL     1       1.773   8.622 -28.052  1.00  0.00     0.162 HD
BRANCH  32  34
HETATM   34  C   UNL     1       2.005   7.971 -26.039  1.00  0.00     0.129 C 
BRANCH  34  35
HETATM   35  C   UNL     1       2.172   9.270 -25.258  1.00  0.00     0.079 C 
BRANCH  35  36
HETATM   36  C   UNL     1       3.128   9.100 -24.111  1.00  0.00     0.035 A 
HETATM   37  C   UNL     1       2.712   8.513 -22.918  1.00  0.00     0.027 A 
HETATM   38  C   UNL     1       3.627   8.389 -21.876  1.00  0.00     0.003 A 
HETATM   39  C   UNL     1       4.924   8.855 -22.049  1.00  0.00     0.019 A 
HETATM   40  C   UNL     1       5.253   9.432 -23.264  1.00  0.00     0.117 A 
HETATM   41  N   UNL     1       4.386   9.566 -24.292  1.00  0.00    -0.266 NA
ENDBRANCH  35  36
ENDBRANCH  34  35
ENDBRANCH  32  34
ENDBRANCH   1  30
TORSDOF 6
ENDMDL
MODEL 6
REMARK VINA RESULT:      -9.7      1.923      2.560
REMARK  6 active torsions:
REMARK  status: ('A' for Active; 'I' for Inactive)
REMARK       I    between atoms: C_2  and  N_3 
REMARK    1  A    between atoms: C_2  and  C_12 
REMARK    2  A    between atoms: N_3  and  C_4 
REMARK    3  A    between atoms: C_4  and  C_5 
REMARK    4  A    between atoms: C_5  and  C_6 
REMARK    5  A    between atoms: C_18  and  C_22 
REMARK    6  A    between atoms: C_28  and  C_34 
ROOT
HETATM    1  C   UNL     1      -6.363   5.701 -30.928  1.00  0.00     0.032 A 
HETATM    2  C   UNL     1      -6.837   5.203 -29.709  1.00  0.00     0.020 A 
HETATM    3  C   UNL     1      -8.113   4.641 -29.636  1.00  0.00     0.038 A 
HETATM    4  C   UNL     1      -8.915   4.571 -30.775  1.00  0.00     0.075 A 
HETATM    5  O   UNL     1     -10.115   3.922 -30.632  1.00  0.00    -0.350 OA
HETATM    6  C   UNL     1     -11.040   4.100 -31.713  1.00  0.00     0.188 C 
HETATM    7  C   UNL     1     -10.385   3.892 -33.075  1.00  0.00     0.082 C 
HETATM    8  C   UNL     1      -9.285   4.940 -33.245  1.00  0.00     0.056 C 
HETATM    9  C   UNL     1      -8.445   5.039 -32.006  1.00  0.00    -0.023 A 
HETATM   10  C   UNL     1      -7.170   5.617 -32.071  1.00  0.00     0.027 A 
ENDROOT
BRANCH   7  11
HETATM   11  C   UNL     1      -9.826   2.511 -33.261  1.00  0.00     0.091 A 
HETATM   12  N   UNL     1      -8.650   2.402 -33.872  1.00  0.00    -0.345 N 
HETATM   13  H   UNL     1      -8.170   3.234 -34.203  1.00  0.00     0.167 HD
HETATM   14  C   UNL     1      -8.071   1.174 -34.025  1.00  0.00     0.049 A 
HETATM   15  C   UNL     1      -6.824   1.073 -34.645  1.00  0.00     0.031 A 
HETATM   16  C   UNL     1      -8.674  -0.000 -33.572  1.00  0.00     0.059 A 
HETATM   17  C   UNL     1      -6.204  -0.176 -34.794  1.00  0.00     0.014 A 
HETATM   18  C   UNL     1      -6.814  -1.350 -34.324  1.00  0.00    -0.022 A 
HETATM   19  C   UNL     1      -8.068  -1.255 -33.712  1.00  0.00     0.031 A 
HETATM   20  C   UNL     1      -9.977   0.139 -32.927  1.00  0.00     0.259 A 
HETATM   21  O   UNL     1     -10.654  -0.767 -32.486  1.00  0.00    -0.267 OA
HETATM   22  N   UNL     1     -10.473   1.455 -32.815  1.00  0.00    -0.312 N 
HETATM   23  H   UNL     1     -11.365   1.565 -32.335  1.00  0.00     0.170 HD
BRANCH  18  24
HETATM   24  C   UNL     1      -6.150  -2.631 -34.479  1.00  0.00     0.010 A 
HETATM   25  C   UNL     1      -6.642  -3.883 -34.916  1.00  0.00     0.152 A 
HETATM   26  N   UNL     1      -5.702  -4.829 -34.939  1.00  0.00    -0.187 NA
HETATM   27  N   UNL     1      -4.598  -4.191 -34.521  1.00  0.00    -0.289 N 
HETATM   28  H   UNL     1      -3.731  -4.717 -34.462  1.00  0.00     0.188 HD
HETATM   29  C   UNL     1      -4.814  -2.871 -34.233  1.00  0.00     0.123 A 
ENDBRANCH  18  24
ENDBRANCH   7  11
BRANCH   1  30
HETATM   30  C   UNL     1      -4.994   6.263 -31.078  1.00  0.00     0.251 C 
HETATM   31  O   UNL     1      -4.753   7.010 -32.019  1.00  0.00    -0.268 OA
HETATM   32  N   UNL     1      -4.076   5.920 -30.111  1.00  0.00    -0.357 N 
HETATM   33  H   UNL     1      -4.401   5.504 -29.248  1.00  0.00     0.162 HD
BRANCH  32  34
HETATM   34  C   UNL     1      -2.732   6.477 -30.141  1.00  0.00     0.129 C 
BRANCH  34  35
HETATM   35  C   UNL     1      -1.706   5.468 -30.644  1.00  0.00     0.079 C 
BRANCH  35  36
HETATM   36  C   UNL     1      -1.726   5.369 -32.145  1.00  0.00     0.035 A 
HETATM   37  C   UNL     1      -1.076   6.318 -32.930  1.00  0.00     0.027 A 
HETATM   38  C   UNL     1      -1.134   6.196 -34.315  1.00  0.00     0.003 A 
HETATM   39  C   UNL     1      -1.837   5.139 -34.877  1.00  0.00     0.019 A 
HETATM   40  C   UNL     1      -2.461   4.243 -34.025  1.00  0.00     0.117 A 
HETATM   41  N   UNL     1      -2.423   4.337 -32.678  1.00  0.00    -0.266 NA
ENDBRANCH  35  36
ENDBRANCH  34  35
ENDBRANCH  32  34
ENDBRANCH   1  30
TORSDOF 6
ENDMDL
MODEL 7
REMARK VINA RESULT:      -9.7      3.072      6.945
REMARK  6 active torsions:
REMARK  status: ('A' for Active; 'I' for Inactive)
REMARK       I    between atoms: C_2  and  N_3 
REMARK    1  A    between atoms: C_2  and  C_12 
REMARK    2  A    between atoms: N_3  and  C_4 
REMARK    3  A    between atoms: C_4  and  C_5 
REMARK    4  A    between atoms: C_5  and  C_6 
REMARK    5  A    between atoms: C_18  and  C_22 
REMARK    6  A    between atoms: C_28  and  C_34 
ROOT
HETATM    1  C   UNL     1      -9.708   4.999 -31.979  1.00  0.00     0.032 A 
HETATM    2  C   UNL     1      -9.727   5.055 -33.377  1.00  0.00     0.020 A 
HETATM    3  C   UNL     1      -8.525   5.096 -34.088  1.00  0.00     0.038 A 
HETATM    4  C   UNL     1      -7.307   5.077 -33.408  1.00  0.00     0.075 A 
HETATM    5  O   UNL     1      -6.180   5.029 -34.188  1.00  0.00    -0.350 OA
HETATM    6  C   UNL     1      -4.948   5.292 -33.502  1.00  0.00     0.188 C 
HETATM    7  C   UNL     1      -4.833   4.506 -32.199  1.00  0.00     0.082 C 
HETATM    8  C   UNL     1      -5.968   4.941 -31.272  1.00  0.00     0.056 C 
HETATM    9  C   UNL     1      -7.272   4.994 -32.013  1.00  0.00    -0.023 A 
HETATM   10  C   UNL     1      -8.480   4.969 -31.303  1.00  0.00     0.027 A 
ENDROOT
BRANCH   7  11
HETATM   11  C   UNL     1      -4.859   3.019 -32.398  1.00  0.00     0.091 A 
HETATM   12  N   UNL     1      -5.702   2.536 -33.305  1.00  0.00    -0.345 N 
HETATM   13  H   UNL     1      -6.307   3.166 -33.824  1.00  0.00     0.167 HD
HETATM   14  C   UNL     1      -5.734   1.194 -33.563  1.00  0.00     0.049 A 
HETATM   15  C   UNL     1      -6.605   0.699 -34.535  1.00  0.00     0.031 A 
HETATM   16  C   UNL     1      -4.911   0.284 -32.897  1.00  0.00     0.059 A 
HETATM   17  C   UNL     1      -6.638  -0.672 -34.829  1.00  0.00     0.014 A 
HETATM   18  C   UNL     1      -5.799  -1.577 -34.160  1.00  0.00    -0.022 A 
HETATM   19  C   UNL     1      -4.932  -1.087 -33.178  1.00  0.00     0.031 A 
HETATM   20  C   UNL     1      -4.011   0.833 -31.887  1.00  0.00     0.259 A 
HETATM   21  O   UNL     1      -3.238   0.196 -31.200  1.00  0.00    -0.267 OA
HETATM   22  N   UNL     1      -4.057   2.231 -31.712  1.00  0.00    -0.312 N 
HETATM   23  H   UNL     1      -3.407   2.627 -31.034  1.00  0.00     0.170 HD
BRANCH  18  24
HETATM   24  C   UNL     1      -5.841  -2.990 -34.487  1.00  0.00     0.010 A 
HETATM   25  C   UNL     1      -4.851  -3.995 -34.385  1.00  0.00     0.152 A 
HETATM   26  N   UNL     1      -5.289  -5.194 -34.773  1.00  0.00    -0.187 NA
HETATM   27  N   UNL     1      -6.563  -4.969 -35.124  1.00  0.00    -0.289 N 
HETATM   28  H   UNL     1      -7.118  -5.754 -35.454  1.00  0.00     0.188 HD
HETATM   29  C   UNL     1      -6.944  -3.664 -34.971  1.00  0.00     0.123 A 
ENDBRANCH  18  24
ENDBRANCH   7  11
BRANCH   1  30
HETATM   30  C   UNL     1     -10.953   4.901 -31.171  1.00  0.00     0.251 C 
HETATM   31  O   UNL     1     -11.222   5.793 -30.375  1.00  0.00    -0.268 OA
HETATM   32  N   UNL     1     -11.752   3.803 -31.399  1.00  0.00    -0.357 N 
HETATM   33  H   UNL     1     -11.595   3.242 -32.225  1.00  0.00     0.162 HD
BRANCH  32  34
HETATM   34  C   UNL     1     -13.022   3.659 -30.702  1.00  0.00     0.129 C 
BRANCH  34  35
HETATM   35  C   UNL     1     -14.152   3.272 -31.649  1.00  0.00     0.079 C 
BRANCH  35  36
HETATM   36  C   UNL     1     -13.626   2.910 -33.010  1.00  0.00     0.035 A 
HETATM   37  C   UNL     1     -13.467   1.576 -33.381  1.00  0.00     0.027 A 
HETATM   38  C   UNL     1     -12.962   1.288 -34.646  1.00  0.00     0.003 A 
HETATM   39  C   UNL     1     -12.627   2.330 -35.500  1.00  0.00     0.019 A 
HETATM   40  C   UNL     1     -12.810   3.627 -35.051  1.00  0.00     0.117 A 
HETATM   41  N   UNL     1     -13.297   3.937 -33.829  1.00  0.00    -0.266 NA
ENDBRANCH  35  36
ENDBRANCH  34  35
ENDBRANCH  32  34
ENDBRANCH   1  30
TORSDOF 6
ENDMDL
MODEL 8
REMARK VINA RESULT:      -9.6      3.672      6.385
REMARK  6 active torsions:
REMARK  status: ('A' for Active; 'I' for Inactive)
REMARK       I    between atoms: C_2  and  N_3 
REMARK    1  A    between atoms: C_2  and  C_12 
REMARK    2  A    between atoms: N_3  and  C_4 
REMARK    3  A    between atoms: C_4  and  C_5 
REMARK    4  A    between atoms: C_5  and  C_6 
REMARK    5  A    between atoms: C_18  and  C_22 
REMARK    6  A    between atoms: C_28  and  C_34 
ROOT
HETATM    1  C   UNL     1      -1.574   7.855 -28.926  1.00  0.00     0.032 A 
HETATM    2  C   UNL     1      -2.231   8.902 -29.583  1.00  0.00     0.020 A 
HETATM    3  C   UNL     1      -2.285   8.922 -30.979  1.00  0.00     0.038 A 
HETATM    4  C   UNL     1      -1.691   7.899 -31.719  1.00  0.00     0.075 A 
HETATM    5  O   UNL     1      -1.872   7.952 -33.077  1.00  0.00    -0.350 OA
HETATM    6  C   UNL     1      -1.035   7.072 -33.841  1.00  0.00     0.188 C 
HETATM    7  C   UNL     1      -1.016   5.656 -33.274  1.00  0.00     0.082 C 
HETATM    8  C   UNL     1      -0.440   5.711 -31.859  1.00  0.00     0.056 C 
HETATM    9  C   UNL     1      -1.055   6.833 -31.076  1.00  0.00    -0.023 A 
HETATM   10  C   UNL     1      -0.988   6.825 -29.676  1.00  0.00     0.027 A 
ENDROOT
BRANCH   7  11
HETATM   11  C   UNL     1      -2.366   5.001 -33.266  1.00  0.00     0.091 A 
HETATM   12  N   UNL     1      -2.483   3.843 -32.623  1.00  0.00    -0.345 N 
HETATM   13  H   UNL     1      -1.673   3.429 -32.171  1.00  0.00     0.167 HD
HETATM   14  C   UNL     1      -3.700   3.226 -32.541  1.00  0.00     0.049 A 
HETATM   15  C   UNL     1      -3.817   2.024 -31.842  1.00  0.00     0.031 A 
HETATM   16  C   UNL     1      -4.850   3.759 -33.124  1.00  0.00     0.059 A 
HETATM   17  C   UNL     1      -5.060   1.385 -31.729  1.00  0.00     0.014 A 
HETATM   18  C   UNL     1      -6.214   1.935 -32.311  1.00  0.00    -0.022 A 
HETATM   19  C   UNL     1      -6.099   3.134 -33.022  1.00  0.00     0.031 A 
HETATM   20  C   UNL     1      -4.695   5.018 -33.848  1.00  0.00     0.259 A 
HETATM   21  O   UNL     1      -5.575   5.619 -34.429  1.00  0.00    -0.267 OA
HETATM   22  N   UNL     1      -3.396   5.568 -33.859  1.00  0.00    -0.312 N 
HETATM   23  H   UNL     1      -3.286   6.464 -34.332  1.00  0.00     0.170 HD
BRANCH  18  24
HETATM   24  C   UNL     1      -7.493   1.263 -32.173  1.00  0.00     0.010 A 
HETATM   25  C   UNL     1      -8.222   0.465 -33.085  1.00  0.00     0.152 A 
HETATM   26  N   UNL     1      -9.364   0.005 -32.570  1.00  0.00    -0.187 NA
HETATM   27  N   UNL     1      -9.374   0.501 -31.323  1.00  0.00    -0.289 N 
HETATM   28  H   UNL     1     -10.160   0.274 -30.721  1.00  0.00     0.188 HD
HETATM   29  C   UNL     1      -8.274   1.262 -31.036  1.00  0.00     0.123 A 
ENDBRANCH  18  24
ENDBRANCH   7  11
BRANCH   1  30
HETATM   30  C   UNL     1      -1.528   7.753 -27.443  1.00  0.00     0.251 C 
HETATM   31  O   UNL     1      -1.155   6.706 -26.926  1.00  0.00    -0.268 OA
HETATM   32  N   UNL     1      -1.888   8.878 -26.735  1.00  0.00    -0.357 N 
HETATM   33  H   UNL     1      -1.951   9.765 -27.218  1.00  0.00     0.162 HD
BRANCH  32  34
HETATM   34  C   UNL     1      -1.808   8.890 -25.282  1.00  0.00     0.129 C 
BRANCH  34  35
HETATM   35  C   UNL     1      -1.009  10.081 -24.764  1.00  0.00     0.079 C 
BRANCH  35  36
HETATM   36  C   UNL     1       0.409   9.692 -24.447  1.00  0.00     0.035 A 
HETATM   37  C   UNL     1       1.006  10.088 -23.253  1.00  0.00     0.027 A 
HETATM   38  C   UNL     1       2.325   9.719 -23.008  1.00  0.00     0.003 A 
HETATM   39  C   UNL     1       3.011   8.972 -23.956  1.00  0.00     0.019 A 
HETATM   40  C   UNL     1       2.346   8.625 -25.120  1.00  0.00     0.117 A 
HETATM   41  N   UNL     1       1.067   8.970 -25.385  1.00  0.00    -0.266 NA
ENDBRANCH  35  36
ENDBRANCH  34  35
ENDBRANCH  32  34
ENDBRANCH   1  30
TORSDOF 6
ENDMDL
MODEL 9
REMARK VINA RESULT:      -9.6      1.965      3.019
REMARK  6 active torsions:
REMARK  status: ('A' for Active; 'I' for Inactive)
REMARK       I    between atoms: C_2  and  N_3 
REMARK    1  A    between atoms: C_2  and  C_12 
REMARK    2  A    between atoms: N_3  and  C_4 
REMARK    3  A    between atoms: C_4  and  C_5 
REMARK    4  A    between atoms: C_5  and  C_6 
REMARK    5  A    between atoms: C_18  and  C_22 
REMARK    6  A    between atoms: C_28  and  C_34 
ROOT
HETATM    1  C   UNL     1      -4.158   6.012 -31.259  1.00  0.00     0.032 A 
HETATM    2  C   UNL     1      -4.488   5.701 -29.936  1.00  0.00     0.020 A 
HETATM    3  C   UNL     1      -5.771   5.241 -29.628  1.00  0.00     0.038 A 
HETATM    4  C   UNL     1      -6.721   5.085 -30.637  1.00  0.00     0.075 A 
HETATM    5  O   UNL     1      -7.922   4.543 -30.258  1.00  0.00    -0.350 OA
HETATM    6  C   UNL     1      -8.975   4.649 -31.226  1.00  0.00     0.188 C 
HETATM    7  C   UNL     1      -8.520   4.230 -32.622  1.00  0.00     0.082 C 
HETATM    8  C   UNL     1      -7.401   5.172 -33.066  1.00  0.00     0.056 C 
HETATM    9  C   UNL     1      -6.398   5.366 -31.968  1.00  0.00    -0.023 A 
HETATM   10  C   UNL     1      -5.116   5.843 -32.270  1.00  0.00     0.027 A 
ENDROOT
BRANCH   7  11
HETATM   11  C   UNL     1      -8.064   2.803 -32.695  1.00  0.00     0.091 A 
HETATM   12  N   UNL     1      -7.954   2.254 -33.901  1.00  0.00    -0.345 N 
HETATM   13  H   UNL     1      -8.187   2.796 -34.729  1.00  0.00     0.167 HD
HETATM   14  C   UNL     1      -7.496   0.973 -34.031  1.00  0.00     0.049 A 
HETATM   15  C   UNL     1      -7.360   0.415 -35.303  1.00  0.00     0.031 A 
HETATM   16  C   UNL     1      -7.141   0.190 -32.931  1.00  0.00     0.059 A 
HETATM   17  C   UNL     1      -6.873  -0.891 -35.459  1.00  0.00     0.014 A 
HETATM   18  C   UNL     1      -6.509  -1.666 -34.346  1.00  0.00    -0.022 A 
HETATM   19  C   UNL     1      -6.654  -1.115 -33.069  1.00  0.00     0.031 A 
HETATM   20  C   UNL     1      -7.294   0.802 -31.614  1.00  0.00     0.259 A 
HETATM   21  O   UNL     1      -7.051   0.272 -30.550  1.00  0.00    -0.267 OA
HETATM   22  N   UNL     1      -7.765   2.132 -31.602  1.00  0.00    -0.312 N 
HETATM   23  H   UNL     1      -7.841   2.579 -30.689  1.00  0.00     0.170 HD
BRANCH  18  24
HETATM   24  C   UNL     1      -5.997  -3.011 -34.530  1.00  0.00     0.010 A 
HETATM   25  C   UNL     1      -6.628  -4.186 -35.003  1.00  0.00     0.152 A 
HETATM   26  N   UNL     1      -5.803  -5.234 -35.044  1.00  0.00    -0.187 NA
HETATM   27  N   UNL     1      -4.637  -4.740 -34.603  1.00  0.00    -0.289 N 
HETATM   28  H   UNL     1      -3.838  -5.365 -34.552  1.00  0.00     0.188 HD
HETATM   29  C   UNL     1      -4.700  -3.412 -34.282  1.00  0.00     0.123 A 
ENDBRANCH  18  24
ENDBRANCH   7  11
BRANCH   1  30
HETATM   30  C   UNL     1      -2.795   6.456 -31.655  1.00  0.00     0.251 C 
HETATM   31  O   UNL     1      -2.484   6.452 -32.841  1.00  0.00    -0.268 OA
HETATM   32  N   UNL     1      -1.965   6.879 -30.641  1.00  0.00    -0.357 N 
HETATM   33  H   UNL     1      -2.360   7.081 -29.732  1.00  0.00     0.162 HD
BRANCH  32  34
HETATM   34  C   UNL     1      -0.638   7.394 -30.943  1.00  0.00     0.129 C 
BRANCH  34  35
HETATM   35  C   UNL     1       0.375   7.033 -29.862  1.00  0.00     0.079 C 
BRANCH  35  36
HETATM   36  C   UNL     1       0.344   8.023 -28.730  1.00  0.00     0.035 A 
HETATM   37  C   UNL     1       1.466   8.225 -27.930  1.00  0.00     0.027 A 
HETATM   38  C   UNL     1       1.387   9.140 -26.884  1.00  0.00     0.003 A 
HETATM   39  C   UNL     1       0.198   9.821 -26.662  1.00  0.00     0.019 A 
HETATM   40  C   UNL     1      -0.872   9.557 -27.500  1.00  0.00     0.117 A 
HETATM   41  N   UNL     1      -0.825   8.674 -28.522  1.00  0.00    -0.266 NA
ENDBRANCH  35  36
ENDBRANCH  34  35
ENDBRANCH  32  34
ENDBRANCH   1  30
TORSDOF 6
ENDMDL
MODEL 10
REMARK VINA RESULT:      -9.6      2.172      3.082
REMARK  6 active torsions:
REMARK  status: ('A' for Active; 'I' for Inactive)
REMARK       I    between atoms: C_2  and  N_3 
REMARK    1  A    between atoms: C_2  and  C_12 
REMARK    2  A    between atoms: N_3  and  C_4 
REMARK    3  A    between atoms: C_4  and  C_5 
REMARK    4  A    between atoms: C_5  and  C_6 
REMARK    5  A    between atoms: C_18  and  C_22 
REMARK    6  A    between atoms: C_28  and  C_34 
ROOT
HETATM    1  C   UNL     1      -6.107   5.799 -28.977  1.00  0.00     0.032 A 
HETATM    2  C   UNL     1      -7.365   5.262 -28.683  1.00  0.00     0.020 A 
HETATM    3  C   UNL     1      -8.220   4.883 -29.720  1.00  0.00     0.038 A 
HETATM    4  C   UNL     1      -7.820   5.032 -31.049  1.00  0.00     0.075 A 
HETATM    5  O   UNL     1      -8.684   4.550 -31.998  1.00  0.00    -0.350 OA
HETATM    6  C   UNL     1      -8.404   4.956 -33.344  1.00  0.00     0.188 C 
HETATM    7  C   UNL     1      -6.931   4.784 -33.705  1.00  0.00     0.082 C 
HETATM    8  C   UNL     1      -6.102   5.677 -32.781  1.00  0.00     0.056 C 
HETATM    9  C   UNL     1      -6.555   5.541 -31.358  1.00  0.00    -0.023 A 
HETATM   10  C   UNL     1      -5.708   5.936 -30.315  1.00  0.00     0.027 A 
ENDROOT
BRANCH   7  11
HETATM   11  C   UNL     1      -6.460   3.362 -33.619  1.00  0.00     0.091 A 
HETATM   12  N   UNL     1      -7.150   2.445 -34.291  1.00  0.00    -0.345 N 
HETATM   13  H   UNL     1      -7.970   2.718 -34.827  1.00  0.00     0.167 HD
HETATM   14  C   UNL     1      -6.738   1.142 -34.290  1.00  0.00     0.049 A 
HETATM   15  C   UNL     1      -7.455   0.192 -35.019  1.00  0.00     0.031 A 
HETATM   16  C   UNL     1      -5.609   0.714 -33.590  1.00  0.00     0.059 A 
HETATM   17  C   UNL     1      -7.038  -1.147 -35.047  1.00  0.00     0.014 A 
HETATM   18  C   UNL     1      -5.894  -1.564 -34.348  1.00  0.00    -0.022 A 
HETATM   19  C   UNL     1      -5.179  -0.618 -33.606  1.00  0.00     0.031 A 
HETATM   20  C   UNL     1      -4.881   1.732 -32.837  1.00  0.00     0.259 A 
HETATM   21  O   UNL     1      -3.890   1.545 -32.161  1.00  0.00    -0.267 OA
HETATM   22  N   UNL     1      -5.390   3.045 -32.919  1.00  0.00    -0.312 N 
HETATM   23  H   UNL     1      -4.868   3.767 -32.426  1.00  0.00     0.170 HD
BRANCH  18  24
HETATM   24  C   UNL     1      -5.473  -2.952 -34.398  1.00  0.00     0.010 A 
HETATM   25  C   UNL     1      -6.140  -4.105 -34.877  1.00  0.00     0.152 A 
HETATM   26  N   UNL     1      -5.402  -5.211 -34.766  1.00  0.00    -0.187 NA
HETATM   27  N   UNL     1      -4.256  -4.777 -34.220  1.00  0.00    -0.289 N 
HETATM   28  H   UNL     1      -3.520  -5.454 -34.043  1.00  0.00     0.188 HD
HETATM   29  C   UNL     1      -4.248  -3.430 -33.980  1.00  0.00     0.123 A 
ENDBRANCH  18  24
ENDBRANCH   7  11
BRANCH   1  30
HETATM   30  C   UNL     1      -5.134   6.173 -27.916  1.00  0.00     0.251 C 
HETATM   31  O   UNL     1      -5.512   6.236 -26.752  1.00  0.00    -0.268 OA
HETATM   32  N   UNL     1      -3.838   6.401 -28.319  1.00  0.00    -0.357 N 
HETATM   33  H   UNL     1      -3.548   6.101 -29.241  1.00  0.00     0.162 HD
BRANCH  32  34
HETATM   34  C   UNL     1      -2.805   6.706 -27.340  1.00  0.00     0.129 C 
BRANCH  34  35
HETATM   35  C   UNL     1      -2.493   8.198 -27.285  1.00  0.00     0.079 C 
BRANCH  35  36
HETATM   36  C   UNL     1      -1.014   8.451 -27.381  1.00  0.00     0.035 A 
HETATM   37  C   UNL     1      -0.235   7.773 -28.316  1.00  0.00     0.027 A 
HETATM   38  C   UNL     1       1.133   8.028 -28.360  1.00  0.00     0.003 A 
HETATM   39  C   UNL     1       1.684   8.944 -27.474  1.00  0.00     0.019 A 
HETATM   40  C   UNL     1       0.841   9.569 -26.572  1.00  0.00     0.117 A 
HETATM   41  N   UNL     1      -0.490   9.341 -26.505  1.00  0.00    -0.266 NA
ENDBRANCH  35  36
ENDBRANCH  34  35
ENDBRANCH  32  34
ENDBRANCH   1  30
TORSDOF 6
ENDMDL
