MODEL 1
REMARK VINA RESULT:      -8.7      0.000      0.000
REMARK  6 active torsions:
REMARK  status: ('A' for Active; 'I' for Inactive)
REMARK    1  A    between atoms: C_3  and  C_4 
REMARK    2  A    between atoms: C_4  and  C_5 
REMARK       I    between atoms: C_5  and  N_6 
REMARK    3  A    between atoms: N_6  and  N_7 
REMARK       I    between atoms: N_7  and  C_8 
REMARK    4  A    between atoms: C_8  and  C_9 
REMARK    5  A    between atoms: C_13  and  C_14 
REMARK    6  A    between atoms: C_17  and  O_18 
ROOT
HETATM    1  N   UNL     1      -2.469   4.327 -30.936  1.00  0.00    -0.262 N 
HETATM    2  C   UNL     1      -3.839   4.305 -31.102  1.00  0.00     0.288 C 
HETATM    3  O   UNL     1      -4.530   5.317 -30.995  1.00  0.00    -0.264 OA
HETATM    4  H   UNL     1      -1.882   3.565 -31.267  1.00  0.00     0.190 HD
ENDROOT
BRANCH   2   5
HETATM    5  C   UNL     1      -4.389   3.010 -31.398  1.00  0.00     0.121 A 
HETATM    6  N   UNL     1      -5.082   2.280 -30.476  1.00  0.00    -0.272 N 
HETATM    7  H   UNL     1      -5.302   2.550 -29.521  1.00  0.00     0.189 HD
HETATM    8  N   UNL     1      -5.484   1.079 -30.916  1.00  0.00    -0.174 NA
HETATM    9  C   UNL     1      -5.032   1.004 -32.178  1.00  0.00     0.089 A 
HETATM   10  C   UNL     1      -4.354   2.209 -32.522  1.00  0.00     0.071 A 
BRANCH   9  11
HETATM   11  C   UNL     1      -5.223  -0.196 -33.005  1.00  0.00    -0.005 A 
HETATM   12  C   UNL     1      -4.241  -1.194 -33.053  1.00  0.00     0.016 A 
HETATM   13  C   UNL     1      -4.402  -2.318 -33.871  1.00  0.00     0.037 A 
HETATM   14  C   UNL     1      -5.544  -2.470 -34.656  1.00  0.00     0.068 A 
HETATM   15  C   UNL     1      -6.536  -1.494 -34.605  1.00  0.00     0.037 A 
HETATM   16  C   UNL     1      -6.376  -0.366 -33.786  1.00  0.00     0.016 A 
BRANCH  14  17
HETATM   17  O   UNL     1      -5.572  -3.604 -35.419  1.00  0.00    -0.356 OA
HETATM   18  C   UNL     1      -6.675  -4.481 -35.227  1.00  0.00     0.210 C 
ENDBRANCH  14  17
ENDBRANCH   9  11
ENDBRANCH   2   5
BRANCH   1  19
HETATM   19  N   UNL     1      -1.818   5.552 -30.750  1.00  0.00    -0.267 N 
HETATM   20  C   UNL     1      -0.473   5.515 -30.438  1.00  0.00     0.240 C 
HETATM   21  O   UNL     1       0.127   4.452 -30.280  1.00  0.00    -0.272 OA
HETATM   22  H   UNL     1      -2.296   6.387 -31.087  1.00  0.00     0.190 HD
BRANCH  20  23
HETATM   23  C   UNL     1       0.174   6.875 -30.254  1.00  0.00     0.143 C 
BRANCH  23  24
HETATM   24  C   UNL     1       0.133   7.432 -28.840  1.00  0.00    -0.043 A 
HETATM   25  C   UNL     1      -0.770   8.464 -28.495  1.00  0.00    -0.055 A 
HETATM   26  C   UNL     1      -1.759   9.029 -29.481  1.00  0.00     0.049 C 
HETATM   27  C   UNL     1      -0.785   8.964 -27.181  1.00  0.00     0.007 A 
HETATM   28  C   UNL     1       0.104   8.487 -26.222  1.00  0.00     0.001 A 
HETATM   29  C   UNL     1       1.021   7.503 -26.563  1.00  0.00     0.001 A 
HETATM   30  C   UNL     1       1.041   6.986 -27.859  1.00  0.00     0.008 A 
ENDBRANCH  23  24
ENDBRANCH  20  23
ENDBRANCH   1  19
TORSDOF 6
ENDMDL
MODEL 2
REMARK VINA RESULT:      -8.6      1.237      2.066
REMARK  6 active torsions:
REMARK  status: ('A' for Active; 'I' for Inactive)
REMARK    1  A    between atoms: C_3  and  C_4 
REMARK    2  A    between atoms: C_4  and  C_5 
REMARK       I    between atoms: C_5  and  N_6 
REMARK    3  A    between atoms: N_6  and  N_7 
REMARK       I    between atoms: N_7  and  C_8 
REMARK    4  A    between atoms: C_8  and  C_9 
REMARK    5  A    between atoms: C_13  and  C_14 
REMARK    6  A    between atoms: C_17  and  O_18 
ROOT
HETATM    1  N   UNL     1      -2.565   3.787 -31.166  1.00  0.00    -0.262 N 
HETATM    2  C   UNL     1      -3.924   3.978 -31.312  1.00  0.00     0.288 C 
HETATM    3  O   UNL     1      -4.464   5.058 -31.082  1.00  0.00    -0.264 OA
HETATM    4  H   UNL     1      -2.092   2.992 -31.590  1.00  0.00     0.190 HD
ENDROOT
BRANCH   2   5
HETATM    5  C   UNL     1      -4.652   2.815 -31.744  1.00  0.00     0.121 A 
HETATM    6  N   UNL     1      -5.919   2.543 -31.314  1.00  0.00    -0.272 N 
HETATM    7  H   UNL     1      -6.485   3.104 -30.684  1.00  0.00     0.189 HD
HETATM    8  N   UNL     1      -6.426   1.395 -31.788  1.00  0.00    -0.174 NA
HETATM    9  C   UNL     1      -5.452   0.879 -32.556  1.00  0.00     0.089 A 
HETATM   10  C   UNL     1      -4.329   1.755 -32.567  1.00  0.00     0.071 A 
BRANCH   9  11
HETATM   11  C   UNL     1      -5.594  -0.420 -33.226  1.00  0.00    -0.005 A 
HETATM   12  C   UNL     1      -4.524  -1.324 -33.267  1.00  0.00     0.016 A 
HETATM   13  C   UNL     1      -4.644  -2.545 -33.940  1.00  0.00     0.037 A 
HETATM   14  C   UNL     1      -5.831  -2.890 -34.585  1.00  0.00     0.068 A 
HETATM   15  C   UNL     1      -6.909  -2.009 -34.537  1.00  0.00     0.037 A 
HETATM   16  C   UNL     1      -6.790  -0.784 -33.864  1.00  0.00     0.016 A 
BRANCH  14  17
HETATM   17  O   UNL     1      -5.813  -4.103 -35.216  1.00  0.00    -0.356 OA
HETATM   18  C   UNL     1      -5.042  -5.132 -34.608  1.00  0.00     0.210 C 
ENDBRANCH  14  17
ENDBRANCH   9  11
ENDBRANCH   2   5
BRANCH   1  19
HETATM   19  N   UNL     1      -1.747   4.878 -30.855  1.00  0.00    -0.267 N 
HETATM   20  C   UNL     1      -1.043   5.460 -31.892  1.00  0.00     0.240 C 
HETATM   21  O   UNL     1      -1.091   5.015 -33.038  1.00  0.00    -0.272 OA
HETATM   22  H   UNL     1      -1.897   5.329 -29.954  1.00  0.00     0.190 HD
BRANCH  20  23
HETATM   23  C   UNL     1      -0.178   6.640 -31.489  1.00  0.00     0.143 C 
BRANCH  23  24
HETATM   24  C   UNL     1      -0.895   7.749 -30.737  1.00  0.00    -0.043 A 
HETATM   25  C   UNL     1      -0.574   8.033 -29.388  1.00  0.00    -0.055 A 
HETATM   26  C   UNL     1       0.510   7.295 -28.648  1.00  0.00     0.049 C 
HETATM   27  C   UNL     1      -1.255   9.062 -28.714  1.00  0.00     0.007 A 
HETATM   28  C   UNL     1      -2.270   9.780 -29.340  1.00  0.00     0.001 A 
HETATM   29  C   UNL     1      -2.619   9.481 -30.649  1.00  0.00     0.001 A 
HETATM   30  C   UNL     1      -1.944   8.472 -31.338  1.00  0.00     0.008 A 
ENDBRANCH  23  24
ENDBRANCH  20  23
ENDBRANCH   1  19
TORSDOF 6
ENDMDL
MODEL 3
REMARK VINA RESULT:      -8.5      2.336     10.619
REMARK  6 active torsions:
REMARK  status: ('A' for Active; 'I' for Inactive)
REMARK    1  A    between atoms: C_3  and  C_4 
REMARK    2  A    between atoms: C_4  and  C_5 
REMARK       I    between atoms: C_5  and  N_6 
REMARK    3  A    between atoms: N_6  and  N_7 
REMARK       I    between atoms: N_7  and  C_8 
REMARK    4  A    between atoms: C_8  and  C_9 
REMARK    5  A    between atoms: C_13  and  C_14 
REMARK    6  A    between atoms: C_17  and  O_18 
ROOT
HETATM    1  N   UNL     1      -3.189   3.725 -32.057  1.00  0.00    -0.262 N 
HETATM    2  C   UNL     1      -2.218   4.454 -32.712  1.00  0.00     0.288 C 
HETATM    3  O   UNL     1      -2.033   4.363 -33.924  1.00  0.00    -0.264 OA
HETATM    4  H   UNL     1      -3.507   3.982 -31.124  1.00  0.00     0.190 HD
ENDROOT
BRANCH   2   5
HETATM    5  C   UNL     1      -1.438   5.316 -31.865  1.00  0.00     0.121 A 
HETATM    6  N   UNL     1      -0.574   6.247 -32.364  1.00  0.00    -0.272 N 
HETATM    7  H   UNL     1      -0.392   6.451 -33.343  1.00  0.00     0.189 HD
HETATM    8  N   UNL     1       0.098   6.932 -31.427  1.00  0.00    -0.174 NA
HETATM    9  C   UNL     1      -0.331   6.429 -30.257  1.00  0.00     0.089 A 
HETATM   10  C   UNL     1      -1.312   5.424 -30.494  1.00  0.00     0.071 A 
BRANCH   9  11
HETATM   11  C   UNL     1       0.209   6.883 -28.969  1.00  0.00    -0.005 A 
HETATM   12  C   UNL     1      -0.139   6.231 -27.779  1.00  0.00     0.016 A 
HETATM   13  C   UNL     1       0.341   6.686 -26.546  1.00  0.00     0.037 A 
HETATM   14  C   UNL     1       1.176   7.800 -26.474  1.00  0.00     0.068 A 
HETATM   15  C   UNL     1       1.544   8.448 -27.651  1.00  0.00     0.037 A 
HETATM   16  C   UNL     1       1.063   7.993 -28.888  1.00  0.00     0.016 A 
BRANCH  14  17
HETATM   17  O   UNL     1       1.563   8.150 -25.210  1.00  0.00    -0.356 OA
HETATM   18  C   UNL     1       2.712   8.980 -25.096  1.00  0.00     0.210 C 
ENDBRANCH  14  17
ENDBRANCH   9  11
ENDBRANCH   2   5
BRANCH   1  19
HETATM   19  N   UNL     1      -4.075   2.936 -32.799  1.00  0.00    -0.267 N 
HETATM   20  C   UNL     1      -5.021   2.213 -32.098  1.00  0.00     0.240 C 
HETATM   21  O   UNL     1      -5.061   2.220 -30.867  1.00  0.00    -0.272 OA
HETATM   22  H   UNL     1      -4.134   3.120 -33.799  1.00  0.00     0.190 HD
BRANCH  20  23
HETATM   23  C   UNL     1      -5.952   1.382 -32.960  1.00  0.00     0.143 C 
BRANCH  23  24
HETATM   24  C   UNL     1      -5.453  -0.011 -33.306  1.00  0.00    -0.043 A 
HETATM   25  C   UNL     1      -6.078  -0.772 -34.322  1.00  0.00    -0.055 A 
HETATM   26  C   UNL     1      -7.226  -0.236 -35.136  1.00  0.00     0.049 C 
HETATM   27  C   UNL     1      -5.598  -2.059 -34.620  1.00  0.00     0.007 A 
HETATM   28  C   UNL     1      -4.541  -2.615 -33.904  1.00  0.00     0.001 A 
HETATM   29  C   UNL     1      -3.949  -1.891 -32.879  1.00  0.00     0.001 A 
HETATM   30  C   UNL     1      -4.404  -0.607 -32.578  1.00  0.00     0.008 A 
ENDBRANCH  23  24
ENDBRANCH  20  23
ENDBRANCH   1  19
TORSDOF 6
ENDMDL
MODEL 4
REMARK VINA RESULT:      -8.3      1.402      2.040
REMARK  6 active torsions:
REMARK  status: ('A' for Active; 'I' for Inactive)
REMARK    1  A    between atoms: C_3  and  C_4 
REMARK    2  A    between atoms: C_4  and  C_5 
REMARK       I    between atoms: C_5  and  N_6 
REMARK    3  A    between atoms: N_6  and  N_7 
REMARK       I    between atoms: N_7  and  C_8 
REMARK    4  A    between atoms: C_8  and  C_9 
REMARK    5  A    between atoms: C_13  and  C_14 
REMARK    6  A    between atoms: C_17  and  O_18 
ROOT
HETATM    1  N   UNL     1      -3.954   4.893 -30.873  1.00  0.00    -0.262 N 
HETATM    2  C   UNL     1      -3.245   3.850 -31.433  1.00  0.00     0.288 C 
HETATM    3  O   UNL     1      -2.017   3.809 -31.420  1.00  0.00    -0.264 OA
HETATM    4  H   UNL     1      -4.946   4.808 -30.660  1.00  0.00     0.190 HD
ENDROOT
BRANCH   2   5
HETATM    5  C   UNL     1      -4.056   2.827 -32.036  1.00  0.00     0.121 A 
HETATM    6  N   UNL     1      -5.397   2.979 -32.238  1.00  0.00    -0.272 N 
HETATM    7  H   UNL     1      -5.961   3.795 -32.015  1.00  0.00     0.189 HD
HETATM    8  N   UNL     1      -5.998   1.906 -32.774  1.00  0.00    -0.174 NA
HETATM    9  C   UNL     1      -5.016   1.001 -32.926  1.00  0.00     0.089 A 
HETATM   10  C   UNL     1      -3.778   1.553 -32.491  1.00  0.00     0.071 A 
BRANCH   9  11
HETATM   11  C   UNL     1      -5.275  -0.349 -33.445  1.00  0.00    -0.005 A 
HETATM   12  C   UNL     1      -4.266  -1.321 -33.439  1.00  0.00     0.016 A 
HETATM   13  C   UNL     1      -4.497  -2.595 -33.970  1.00  0.00     0.037 A 
HETATM   14  C   UNL     1      -5.737  -2.926 -34.516  1.00  0.00     0.068 A 
HETATM   15  C   UNL     1      -6.754  -1.974 -34.512  1.00  0.00     0.037 A 
HETATM   16  C   UNL     1      -6.524  -0.696 -33.982  1.00  0.00     0.016 A 
BRANCH  14  17
HETATM   17  O   UNL     1      -5.827  -4.197 -35.013  1.00  0.00    -0.356 OA
HETATM   18  C   UNL     1      -4.889  -5.146 -34.521  1.00  0.00     0.210 C 
ENDBRANCH  14  17
ENDBRANCH   9  11
ENDBRANCH   2   5
BRANCH   1  19
HETATM   19  N   UNL     1      -3.270   5.889 -30.166  1.00  0.00    -0.267 N 
HETATM   20  C   UNL     1      -3.034   7.083 -30.819  1.00  0.00     0.240 C 
HETATM   21  O   UNL     1      -3.367   7.258 -31.992  1.00  0.00    -0.272 OA
HETATM   22  H   UNL     1      -3.200   5.776 -29.156  1.00  0.00     0.190 HD
BRANCH  20  23
HETATM   23  C   UNL     1      -2.293   8.121 -29.997  1.00  0.00     0.143 C 
BRANCH  23  24
HETATM   24  C   UNL     1      -1.383   7.568 -28.913  1.00  0.00    -0.043 A 
HETATM   25  C   UNL     1      -0.124   7.013 -29.240  1.00  0.00    -0.055 A 
HETATM   26  C   UNL     1       0.399   6.981 -30.652  1.00  0.00     0.049 C 
HETATM   27  C   UNL     1       0.697   6.504 -28.218  1.00  0.00     0.007 A 
HETATM   28  C   UNL     1       0.274   6.501 -26.892  1.00  0.00     0.001 A 
HETATM   29  C   UNL     1      -0.978   7.006 -26.568  1.00  0.00     0.001 A 
HETATM   30  C   UNL     1      -1.800   7.527 -27.568  1.00  0.00     0.008 A 
ENDBRANCH  23  24
ENDBRANCH  20  23
ENDBRANCH   1  19
TORSDOF 6
ENDMDL
MODEL 5
REMARK VINA RESULT:      -8.2      1.321      1.900
REMARK  6 active torsions:
REMARK  status: ('A' for Active; 'I' for Inactive)
REMARK    1  A    between atoms: C_3  and  C_4 
REMARK    2  A    between atoms: C_4  and  C_5 
REMARK       I    between atoms: C_5  and  N_6 
REMARK    3  A    between atoms: N_6  and  N_7 
REMARK       I    between atoms: N_7  and  C_8 
REMARK    4  A    between atoms: C_8  and  C_9 
REMARK    5  A    between atoms: C_13  and  C_14 
REMARK    6  A    between atoms: C_17  and  O_18 
ROOT
HETATM    1  N   UNL     1      -2.073   5.678 -30.141  1.00  0.00    -0.262 N 
HETATM    2  C   UNL     1      -2.437   5.360 -31.433  1.00  0.00     0.288 C 
HETATM    3  O   UNL     1      -2.155   6.079 -32.390  1.00  0.00    -0.264 OA
HETATM    4  H   UNL     1      -2.080   4.979 -29.400  1.00  0.00     0.190 HD
ENDROOT
BRANCH   2   5
HETATM    5  C   UNL     1      -3.174   4.134 -31.567  1.00  0.00     0.121 A 
HETATM    6  N   UNL     1      -4.106   3.736 -30.652  1.00  0.00    -0.272 N 
HETATM    7  H   UNL     1      -4.394   4.235 -29.815  1.00  0.00     0.189 HD
HETATM    8  N   UNL     1      -4.664   2.546 -30.918  1.00  0.00    -0.174 NA
HETATM    9  C   UNL     1      -4.073   2.132 -32.051  1.00  0.00     0.089 A 
HETATM   10  C   UNL     1      -3.144   3.115 -32.498  1.00  0.00     0.071 A 
BRANCH   9  11
HETATM   11  C   UNL     1      -4.375   0.828 -32.656  1.00  0.00    -0.005 A 
HETATM   12  C   UNL     1      -5.602   0.604 -33.294  1.00  0.00     0.016 A 
HETATM   13  C   UNL     1      -5.910  -0.649 -33.836  1.00  0.00     0.037 A 
HETATM   14  C   UNL     1      -5.000  -1.703 -33.754  1.00  0.00     0.068 A 
HETATM   15  C   UNL     1      -3.770  -1.489 -33.138  1.00  0.00     0.037 A 
HETATM   16  C   UNL     1      -3.460  -0.234 -32.593  1.00  0.00     0.016 A 
BRANCH  14  17
HETATM   17  O   UNL     1      -5.428  -2.877 -34.310  1.00  0.00    -0.356 OA
HETATM   18  C   UNL     1      -6.812  -2.974 -34.620  1.00  0.00     0.210 C 
ENDBRANCH  14  17
ENDBRANCH   9  11
ENDBRANCH   2   5
BRANCH   1  19
HETATM   19  N   UNL     1      -1.261   6.794 -29.908  1.00  0.00    -0.267 N 
HETATM   20  C   UNL     1      -0.080   6.587 -29.222  1.00  0.00     0.240 C 
HETATM   21  O   UNL     1       0.232   5.478 -28.788  1.00  0.00    -0.272 OA
HETATM   22  H   UNL     1      -1.457   7.632 -30.453  1.00  0.00     0.190 HD
BRANCH  20  23
HETATM   23  C   UNL     1       0.756   7.835 -29.006  1.00  0.00     0.143 C 
BRANCH  23  24
HETATM   24  C   UNL     1       0.793   8.358 -27.580  1.00  0.00    -0.043 A 
HETATM   25  C   UNL     1      -0.128   9.340 -27.146  1.00  0.00    -0.055 A 
HETATM   26  C   UNL     1      -1.209   9.881 -28.044  1.00  0.00     0.049 C 
HETATM   27  C   UNL     1      -0.070   9.809 -25.822  1.00  0.00     0.007 A 
HETATM   28  C   UNL     1       0.906   9.352 -24.940  1.00  0.00     0.001 A 
HETATM   29  C   UNL     1       1.839   8.419 -25.370  1.00  0.00     0.001 A 
HETATM   30  C   UNL     1       1.788   7.932 -26.677  1.00  0.00     0.008 A 
ENDBRANCH  23  24
ENDBRANCH  20  23
ENDBRANCH   1  19
TORSDOF 6
ENDMDL
MODEL 6
REMARK VINA RESULT:      -8.2      1.369      2.045
REMARK  6 active torsions:
REMARK  status: ('A' for Active; 'I' for Inactive)
REMARK    1  A    between atoms: C_3  and  C_4 
REMARK    2  A    between atoms: C_4  and  C_5 
REMARK       I    between atoms: C_5  and  N_6 
REMARK    3  A    between atoms: N_6  and  N_7 
REMARK       I    between atoms: N_7  and  C_8 
REMARK    4  A    between atoms: C_8  and  C_9 
REMARK    5  A    between atoms: C_13  and  C_14 
REMARK    6  A    between atoms: C_17  and  O_18 
ROOT
HETATM    1  N   UNL     1      -4.094   4.292 -30.441  1.00  0.00    -0.262 N 
HETATM    2  C   UNL     1      -5.336   3.824 -30.066  1.00  0.00     0.288 C 
HETATM    3  O   UNL     1      -6.047   4.420 -29.259  1.00  0.00    -0.264 OA
HETATM    4  H   UNL     1      -3.626   3.946 -31.277  1.00  0.00     0.190 HD
ENDROOT
BRANCH   2   5
HETATM    5  C   UNL     1      -5.724   2.584 -30.683  1.00  0.00     0.121 A 
HETATM    6  N   UNL     1      -6.686   1.772 -30.154  1.00  0.00    -0.272 N 
HETATM    7  H   UNL     1      -7.233   1.938 -29.314  1.00  0.00     0.189 HD
HETATM    8  N   UNL     1      -6.886   0.638 -30.842  1.00  0.00    -0.174 NA
HETATM    9  C   UNL     1      -6.015   0.695 -31.863  1.00  0.00     0.089 A 
HETATM   10  C   UNL     1      -5.281   1.914 -31.806  1.00  0.00     0.071 A 
BRANCH   9  11
HETATM   11  C   UNL     1      -5.882  -0.399 -32.835  1.00  0.00    -0.005 A 
HETATM   12  C   UNL     1      -6.935  -0.713 -33.704  1.00  0.00     0.016 A 
HETATM   13  C   UNL     1      -6.827  -1.780 -34.604  1.00  0.00     0.037 A 
HETATM   14  C   UNL     1      -5.668  -2.555 -34.654  1.00  0.00     0.068 A 
HETATM   15  C   UNL     1      -4.608  -2.242 -33.807  1.00  0.00     0.037 A 
HETATM   16  C   UNL     1      -4.715  -1.174 -32.905  1.00  0.00     0.016 A 
BRANCH  14  17
HETATM   17  O   UNL     1      -5.696  -3.574 -35.565  1.00  0.00    -0.356 OA
HETATM   18  C   UNL     1      -6.449  -4.728 -35.214  1.00  0.00     0.210 C 
ENDBRANCH  14  17
ENDBRANCH   9  11
ENDBRANCH   2   5
BRANCH   1  19
HETATM   19  N   UNL     1      -3.663   5.543 -29.984  1.00  0.00    -0.267 N 
HETATM   20  C   UNL     1      -2.835   6.272 -30.816  1.00  0.00     0.240 C 
HETATM   21  O   UNL     1      -2.448   5.827 -31.897  1.00  0.00    -0.272 OA
HETATM   22  H   UNL     1      -4.164   5.946 -29.194  1.00  0.00     0.190 HD
BRANCH  20  23
HETATM   23  C   UNL     1      -2.407   7.619 -30.264  1.00  0.00     0.143 C 
BRANCH  23  24
HETATM   24  C   UNL     1      -1.434   7.568 -29.097  1.00  0.00    -0.043 A 
HETATM   25  C   UNL     1      -0.067   7.269 -29.309  1.00  0.00    -0.055 A 
HETATM   26  C   UNL     1       0.501   7.034 -30.683  1.00  0.00     0.049 C 
HETATM   27  C   UNL     1       0.811   7.225 -28.212  1.00  0.00     0.007 A 
HETATM   28  C   UNL     1       0.350   7.430 -26.914  1.00  0.00     0.001 A 
HETATM   29  C   UNL     1      -0.997   7.683 -26.695  1.00  0.00     0.001 A 
HETATM   30  C   UNL     1      -1.880   7.744 -27.773  1.00  0.00     0.008 A 
ENDBRANCH  23  24
ENDBRANCH  20  23
ENDBRANCH   1  19
TORSDOF 6
ENDMDL
MODEL 7
REMARK VINA RESULT:      -7.9      7.972     11.752
REMARK  6 active torsions:
REMARK  status: ('A' for Active; 'I' for Inactive)
REMARK    1  A    between atoms: C_3  and  C_4 
REMARK    2  A    between atoms: C_4  and  C_5 
REMARK       I    between atoms: C_5  and  N_6 
REMARK    3  A    between atoms: N_6  and  N_7 
REMARK       I    between atoms: N_7  and  C_8 
REMARK    4  A    between atoms: C_8  and  C_9 
REMARK    5  A    between atoms: C_13  and  C_14 
REMARK    6  A    between atoms: C_17  and  O_18 
ROOT
HETATM    1  N   UNL     1     -10.013   1.443 -33.223  1.00  0.00    -0.262 N 
HETATM    2  C   UNL     1     -10.876   2.270 -33.911  1.00  0.00     0.288 C 
HETATM    3  O   UNL     1     -10.508   2.960 -34.860  1.00  0.00    -0.264 OA
HETATM    4  H   UNL     1     -10.358   0.699 -32.619  1.00  0.00     0.190 HD
ENDROOT
BRANCH   2   5
HETATM    5  C   UNL     1     -12.230   2.267 -33.425  1.00  0.00     0.121 A 
HETATM    6  N   UNL     1     -12.997   1.138 -33.405  1.00  0.00    -0.272 N 
HETATM    7  H   UNL     1     -12.722   0.205 -33.698  1.00  0.00     0.189 HD
HETATM    8  N   UNL     1     -14.247   1.332 -32.958  1.00  0.00    -0.174 NA
HETATM    9  C   UNL     1     -14.315   2.644 -32.678  1.00  0.00     0.089 A 
HETATM   10  C   UNL     1     -13.058   3.260 -32.942  1.00  0.00     0.071 A 
BRANCH   9  11
HETATM   11  C   UNL     1     -15.552   3.276 -32.203  1.00  0.00    -0.005 A 
HETATM   12  C   UNL     1     -16.748   2.549 -32.144  1.00  0.00     0.016 A 
HETATM   13  C   UNL     1     -17.938   3.160 -31.731  1.00  0.00     0.037 A 
HETATM   14  C   UNL     1     -17.959   4.506 -31.368  1.00  0.00     0.068 A 
HETATM   15  C   UNL     1     -16.774   5.236 -31.406  1.00  0.00     0.037 A 
HETATM   16  C   UNL     1     -15.581   4.626 -31.820  1.00  0.00     0.016 A 
BRANCH  14  17
HETATM   17  O   UNL     1     -19.186   4.984 -30.998  1.00  0.00    -0.356 OA
HETATM   18  C   UNL     1     -19.244   6.338 -30.566  1.00  0.00     0.210 C 
ENDBRANCH  14  17
ENDBRANCH   9  11
ENDBRANCH   2   5
BRANCH   1  19
HETATM   19  N   UNL     1      -8.699   1.289 -33.677  1.00  0.00    -0.267 N 
HETATM   20  C   UNL     1      -7.821   0.603 -32.860  1.00  0.00     0.240 C 
HETATM   21  O   UNL     1      -8.159   0.182 -31.754  1.00  0.00    -0.272 OA
HETATM   22  H   UNL     1      -8.525   1.469 -34.665  1.00  0.00     0.190 HD
BRANCH  20  23
HETATM   23  C   UNL     1      -6.414   0.467 -33.412  1.00  0.00     0.143 C 
BRANCH  23  24
HETATM   24  C   UNL     1      -6.010  -0.937 -33.831  1.00  0.00    -0.043 A 
HETATM   25  C   UNL     1      -4.675  -1.381 -33.681  1.00  0.00    -0.055 A 
HETATM   26  C   UNL     1      -3.606  -0.518 -33.066  1.00  0.00     0.049 C 
HETATM   27  C   UNL     1      -4.328  -2.683 -34.081  1.00  0.00     0.007 A 
HETATM   28  C   UNL     1      -5.268  -3.532 -34.660  1.00  0.00     0.001 A 
HETATM   29  C   UNL     1      -6.570  -3.089 -34.848  1.00  0.00     0.001 A 
HETATM   30  C   UNL     1      -6.935  -1.805 -34.445  1.00  0.00     0.008 A 
ENDBRANCH  23  24
ENDBRANCH  20  23
ENDBRANCH   1  19
TORSDOF 6
ENDMDL
MODEL 8
REMARK VINA RESULT:      -7.9      4.658     10.668
REMARK  6 active torsions:
REMARK  status: ('A' for Active; 'I' for Inactive)
REMARK    1  A    between atoms: C_3  and  C_4 
REMARK    2  A    between atoms: C_4  and  C_5 
REMARK       I    between atoms: C_5  and  N_6 
REMARK    3  A    between atoms: N_6  and  N_7 
REMARK       I    between atoms: N_7  and  C_8 
REMARK    4  A    between atoms: C_8  and  C_9 
REMARK    5  A    between atoms: C_13  and  C_14 
REMARK    6  A    between atoms: C_17  and  O_18 
ROOT
HETATM    1  N   UNL     1      -8.010   0.427 -32.575  1.00  0.00    -0.262 N 
HETATM    2  C   UNL     1      -7.389   0.654 -31.364  1.00  0.00     0.288 C 
HETATM    3  O   UNL     1      -6.612  -0.155 -30.862  1.00  0.00    -0.264 OA
HETATM    4  H   UNL     1      -8.442   1.184 -33.101  1.00  0.00     0.190 HD
ENDROOT
BRANCH   2   5
HETATM    5  C   UNL     1      -7.731   1.903 -30.737  1.00  0.00     0.121 A 
HETATM    6  N   UNL     1      -9.006   2.390 -30.723  1.00  0.00    -0.272 N 
HETATM    7  H   UNL     1      -9.834   1.951 -31.117  1.00  0.00     0.189 HD
HETATM    8  N   UNL     1      -9.131   3.586 -30.131  1.00  0.00    -0.174 NA
HETATM    9  C   UNL     1      -7.886   3.911 -29.743  1.00  0.00     0.089 A 
HETATM   10  C   UNL     1      -6.983   2.866 -30.091  1.00  0.00     0.071 A 
BRANCH   9  11
HETATM   11  C   UNL     1      -7.583   5.191 -29.089  1.00  0.00    -0.005 A 
HETATM   12  C   UNL     1      -6.348   5.396 -28.459  1.00  0.00     0.016 A 
HETATM   13  C   UNL     1      -6.071   6.600 -27.800  1.00  0.00     0.037 A 
HETATM   14  C   UNL     1      -7.019   7.622 -27.757  1.00  0.00     0.068 A 
HETATM   15  C   UNL     1      -8.243   7.438 -28.394  1.00  0.00     0.037 A 
HETATM   16  C   UNL     1      -8.522   6.233 -29.055  1.00  0.00     0.016 A 
BRANCH  14  17
HETATM   17  O   UNL     1      -6.629   8.739 -27.071  1.00  0.00    -0.356 OA
HETATM   18  C   UNL     1      -5.235   9.013 -27.028  1.00  0.00     0.210 C 
ENDBRANCH  14  17
ENDBRANCH   9  11
ENDBRANCH   2   5
BRANCH   1  19
HETATM   19  N   UNL     1      -7.668  -0.706 -33.322  1.00  0.00    -0.267 N 
HETATM   20  C   UNL     1      -6.753  -0.541 -34.343  1.00  0.00     0.240 C 
HETATM   21  O   UNL     1      -6.286   0.564 -34.623  1.00  0.00    -0.272 OA
HETATM   22  H   UNL     1      -7.916  -1.613 -32.929  1.00  0.00     0.190 HD
BRANCH  20  23
HETATM   23  C   UNL     1      -6.422  -1.807 -35.111  1.00  0.00     0.143 C 
BRANCH  23  24
HETATM   24  C   UNL     1      -5.398  -2.720 -34.456  1.00  0.00    -0.043 A 
HETATM   25  C   UNL     1      -5.421  -4.115 -34.687  1.00  0.00    -0.055 A 
HETATM   26  C   UNL     1      -6.415  -4.760 -35.616  1.00  0.00     0.049 C 
HETATM   27  C   UNL     1      -4.465  -4.937 -34.066  1.00  0.00     0.007 A 
HETATM   28  C   UNL     1      -3.519  -4.405 -33.193  1.00  0.00     0.001 A 
HETATM   29  C   UNL     1      -3.515  -3.043 -32.930  1.00  0.00     0.001 A 
HETATM   30  C   UNL     1      -4.449  -2.210 -33.548  1.00  0.00     0.008 A 
ENDBRANCH  23  24
ENDBRANCH  20  23
ENDBRANCH   1  19
TORSDOF 6
ENDMDL
MODEL 9
REMARK VINA RESULT:      -7.7      7.490      9.966
REMARK  6 active torsions:
REMARK  status: ('A' for Active; 'I' for Inactive)
REMARK    1  A    between atoms: C_3  and  C_4 
REMARK    2  A    between atoms: C_4  and  C_5 
REMARK       I    between atoms: C_5  and  N_6 
REMARK    3  A    between atoms: N_6  and  N_7 
REMARK       I    between atoms: N_7  and  C_8 
REMARK    4  A    between atoms: C_8  and  C_9 
REMARK    5  A    between atoms: C_13  and  C_14 
REMARK    6  A    between atoms: C_17  and  O_18 
ROOT
HETATM    1  N   UNL     1     -10.248   4.729 -33.817  1.00  0.00    -0.262 N 
HETATM    2  C   UNL     1     -11.004   3.632 -33.457  1.00  0.00     0.288 C 
HETATM    3  O   UNL     1     -12.206   3.715 -33.214  1.00  0.00    -0.264 OA
HETATM    4  H   UNL     1      -9.336   4.624 -34.257  1.00  0.00     0.190 HD
ENDROOT
BRANCH   2   5
HETATM    5  C   UNL     1     -10.273   2.396 -33.382  1.00  0.00     0.121 A 
HETATM    6  N   UNL     1     -10.842   1.235 -32.945  1.00  0.00    -0.272 N 
HETATM    7  H   UNL     1     -11.804   1.098 -32.648  1.00  0.00     0.189 HD
HETATM    8  N   UNL     1      -9.999   0.192 -32.903  1.00  0.00    -0.174 NA
HETATM    9  C   UNL     1      -8.821   0.683 -33.320  1.00  0.00     0.089 A 
HETATM   10  C   UNL     1      -8.960   2.062 -33.649  1.00  0.00     0.071 A 
BRANCH   9  11
HETATM   11  C   UNL     1      -7.606  -0.142 -33.371  1.00  0.00    -0.005 A 
HETATM   12  C   UNL     1      -6.703  -0.148 -32.300  1.00  0.00     0.016 A 
HETATM   13  C   UNL     1      -5.525  -0.902 -32.362  1.00  0.00     0.037 A 
HETATM   14  C   UNL     1      -5.225  -1.664 -33.491  1.00  0.00     0.068 A 
HETATM   15  C   UNL     1      -6.123  -1.680 -34.555  1.00  0.00     0.037 A 
HETATM   16  C   UNL     1      -7.303  -0.925 -34.495  1.00  0.00     0.016 A 
BRANCH  14  17
HETATM   17  O   UNL     1      -4.038  -2.341 -33.430  1.00  0.00    -0.356 OA
HETATM   18  C   UNL     1      -3.360  -2.337 -32.180  1.00  0.00     0.210 C 
ENDBRANCH  14  17
ENDBRANCH   9  11
ENDBRANCH   2   5
BRANCH   1  19
HETATM   19  N   UNL     1     -10.878   5.961 -34.025  1.00  0.00    -0.267 N 
HETATM   20  C   UNL     1     -10.570   6.645 -35.185  1.00  0.00     0.240 C 
HETATM   21  O   UNL     1      -9.740   6.217 -35.988  1.00  0.00    -0.272 OA
HETATM   22  H   UNL     1     -11.692   6.169 -33.448  1.00  0.00     0.190 HD
BRANCH  20  23
HETATM   23  C   UNL     1     -11.288   7.971 -35.352  1.00  0.00     0.143 C 
BRANCH  23  24
HETATM   24  C   UNL     1     -11.910   8.209 -36.718  1.00  0.00    -0.043 A 
HETATM   25  C   UNL     1     -11.223   8.954 -37.705  1.00  0.00    -0.055 A 
HETATM   26  C   UNL     1      -9.840   9.506 -37.477  1.00  0.00     0.049 C 
HETATM   27  C   UNL     1     -11.822   9.163 -38.960  1.00  0.00     0.007 A 
HETATM   28  C   UNL     1     -13.099   8.682 -39.234  1.00  0.00     0.001 A 
HETATM   29  C   UNL     1     -13.796   7.985 -38.258  1.00  0.00     0.001 A 
HETATM   30  C   UNL     1     -13.212   7.757 -37.011  1.00  0.00     0.008 A 
ENDBRANCH  23  24
ENDBRANCH  20  23
ENDBRANCH   1  19
TORSDOF 6
ENDMDL
MODEL 10
REMARK VINA RESULT:      -7.7      2.772     10.823
REMARK  6 active torsions:
REMARK  status: ('A' for Active; 'I' for Inactive)
REMARK    1  A    between atoms: C_3  and  C_4 
REMARK    2  A    between atoms: C_4  and  C_5 
REMARK       I    between atoms: C_5  and  N_6 
REMARK    3  A    between atoms: N_6  and  N_7 
REMARK       I    between atoms: N_7  and  C_8 
REMARK    4  A    between atoms: C_8  and  C_9 
REMARK    5  A    between atoms: C_13  and  C_14 
REMARK    6  A    between atoms: C_17  and  O_18 
ROOT
HETATM    1  N   UNL     1      -2.691   3.897 -31.104  1.00  0.00    -0.262 N 
HETATM    2  C   UNL     1      -1.697   4.714 -31.601  1.00  0.00     0.288 C 
HETATM    3  O   UNL     1      -1.455   4.796 -32.803  1.00  0.00    -0.264 OA
HETATM    4  H   UNL     1      -3.055   4.016 -30.160  1.00  0.00     0.190 HD
ENDROOT
BRANCH   2   5
HETATM    5  C   UNL     1      -0.966   5.448 -30.603  1.00  0.00     0.121 A 
HETATM    6  N   UNL     1      -0.032   4.861 -29.799  1.00  0.00    -0.272 N 
HETATM    7  H   UNL     1       0.263   3.889 -29.812  1.00  0.00     0.189 HD
HETATM    8  N   UNL     1       0.518   5.690 -28.900  1.00  0.00    -0.174 NA
HETATM    9  C   UNL     1      -0.082   6.874 -29.110  1.00  0.00     0.089 A 
HETATM   10  C   UNL     1      -1.007   6.764 -30.186  1.00  0.00     0.071 A 
BRANCH   9  11
HETATM   11  C   UNL     1       0.210   8.053 -28.282  1.00  0.00    -0.005 A 
HETATM   12  C   UNL     1      -0.785   9.002 -28.016  1.00  0.00     0.016 A 
HETATM   13  C   UNL     1      -0.500  10.146 -27.262  1.00  0.00     0.037 A 
HETATM   14  C   UNL     1       0.782  10.367 -26.760  1.00  0.00     0.068 A 
HETATM   15  C   UNL     1       1.777   9.423 -27.003  1.00  0.00     0.037 A 
HETATM   16  C   UNL     1       1.493   8.276 -27.758  1.00  0.00     0.016 A 
BRANCH  14  17
HETATM   17  O   UNL     1       0.932  11.528 -26.053  1.00  0.00    -0.356 OA
HETATM   18  C   UNL     1       1.715  11.462 -24.867  1.00  0.00     0.210 C 
ENDBRANCH  14  17
ENDBRANCH   9  11
ENDBRANCH   2   5
BRANCH   1  19
HETATM   19  N   UNL     1      -3.533   3.219 -31.992  1.00  0.00    -0.267 N 
HETATM   20  C   UNL     1      -3.595   1.843 -31.884  1.00  0.00     0.240 C 
HETATM   21  O   UNL     1      -2.905   1.225 -31.073  1.00  0.00    -0.272 OA
HETATM   22  H   UNL     1      -4.223   3.776 -32.494  1.00  0.00     0.190 HD
BRANCH  20  23
HETATM   23  C   UNL     1      -4.529   1.169 -32.873  1.00  0.00     0.143 C 
BRANCH  23  24
HETATM   24  C   UNL     1      -6.002   1.511 -32.717  1.00  0.00    -0.043 A 
HETATM   25  C   UNL     1      -6.810   0.817 -31.785  1.00  0.00    -0.055 A 
HETATM   26  C   UNL     1      -6.256  -0.249 -30.878  1.00  0.00     0.049 C 
HETATM   27  C   UNL     1      -8.170   1.150 -31.663  1.00  0.00     0.007 A 
HETATM   28  C   UNL     1      -8.746   2.125 -32.474  1.00  0.00     0.001 A 
HETATM   29  C   UNL     1      -7.969   2.781 -33.419  1.00  0.00     0.001 A 
HETATM   30  C   UNL     1      -6.615   2.473 -33.544  1.00  0.00     0.008 A 
ENDBRANCH  23  24
ENDBRANCH  20  23
ENDBRANCH   1  19
TORSDOF 6
ENDMDL
