MODEL 1
REMARK VINA RESULT:     -11.1      0.000      0.000
REMARK  8 active torsions:
REMARK  status: ('A' for Active; 'I' for Inactive)
REMARK    1  A    between atoms: C_4  and  C_5 
REMARK    2  A    between atoms: C_5  and  C_6 
REMARK    3  A    between atoms: C_6  and  C_7 
REMARK    4  A    between atoms: C_7  and  N_8 
REMARK       I    between atoms: N_8  and  C_9 
REMARK    5  A    between atoms: C_9  and  C_10 
REMARK    6  A    between atoms: C_11  and  N_12 
REMARK    7  A    between atoms: N_13  and  N_14 
REMARK    8  A    between atoms: C_15  and  C_16 
ROOT
HETATM    1  C   UNL     1      -8.279   3.486 -32.813  1.00  0.00     0.104 C 
HETATM    2  C   UNL     1      -7.564   2.697 -31.920  1.00  0.00     0.123 C 
HETATM    3  N   UNL     1      -7.935   1.381 -32.197  1.00  0.00    -0.202 N 
HETATM    4  C   UNL     1      -9.242   1.425 -32.644  1.00  0.00     0.183 A 
HETATM    5  C   UNL     1      -9.447   2.721 -33.115  1.00  0.00     0.124 A 
HETATM    6  N   UNL     1     -10.585   3.046 -33.779  1.00  0.00    -0.242 NA
HETATM    7  C   UNL     1     -11.491   2.057 -33.866  1.00  0.00     0.086 A 
HETATM    8  C   UNL     1     -11.262   0.753 -33.352  1.00  0.00     0.088 A 
HETATM    9  N   UNL     1     -10.112   0.396 -32.757  1.00  0.00    -0.225 NA
HETATM   10  C   UNL     1     -12.708   2.329 -34.479  1.00  0.00     0.034 A 
HETATM   11  C   UNL     1     -13.708   1.362 -34.585  1.00  0.00     0.002 A 
HETATM   12  C   UNL     1     -13.488   0.092 -34.070  1.00  0.00     0.002 A 
HETATM   13  C   UNL     1     -12.265  -0.200 -33.465  1.00  0.00     0.034 A 
ENDROOT
BRANCH   1  14
HETATM   14  C   UNL     1      -7.851   4.763 -33.378  1.00  0.00     0.257 C 
HETATM   15  N   UNL     1      -6.762   5.318 -32.716  1.00  0.00    -0.357 N 
HETATM   16  H   UNL     1      -6.499   4.796 -31.887  1.00  0.00     0.162 HD
HETATM   17  O   UNL     1      -8.296   5.223 -34.422  1.00  0.00    -0.267 OA
BRANCH  15  18
HETATM   18  C   UNL     1      -5.599   5.759 -33.459  1.00  0.00     0.123 C 
BRANCH  18  19
HETATM   19  C   UNL     1      -4.958   4.775 -34.426  1.00  0.00     0.024 C 
BRANCH  19  20
HETATM   20  C   UNL     1      -3.649   5.288 -35.034  1.00  0.00     0.040 C 
BRANCH  20  21
HETATM   21  C   UNL     1      -2.584   5.644 -34.018  1.00  0.00    -0.058 A 
HETATM   22  C   UNL     1      -2.036   4.704 -33.132  1.00  0.00     0.007 A 
HETATM   23  C   UNL     1      -1.080   5.085 -32.189  1.00  0.00     0.001 A 
HETATM   24  C   UNL     1      -0.634   6.403 -32.136  1.00  0.00     0.000 A 
HETATM   25  C   UNL     1      -1.139   7.340 -33.034  1.00  0.00     0.001 A 
HETATM   26  C   UNL     1      -2.104   6.962 -33.971  1.00  0.00     0.007 A 
ENDBRANCH  20  21
ENDBRANCH  19  20
ENDBRANCH  18  19
ENDBRANCH  15  18
ENDBRANCH   1  14
BRANCH   2  27
HETATM   27  N   UNL     1      -6.537   2.996 -31.060  1.00  0.00    -0.286 NA
HETATM   28  H   UNL     1      -6.759   3.664 -30.315  1.00  0.00     0.125 HD
HETATM   29  H   UNL     1      -6.084   2.185 -30.619  1.00  0.00     0.125 HD
ENDBRANCH   2  27
BRANCH   3  30
HETATM   30  N   UNL     1      -7.126   0.266 -32.177  1.00  0.00    -0.176 NA
HETATM   31  C   UNL     1      -6.230   0.307 -33.112  1.00  0.00     0.153 C 
BRANCH  31  32
HETATM   32  C   UNL     1      -5.327  -0.789 -33.369  1.00  0.00     0.011 A 
HETATM   33  C   UNL     1      -5.685  -2.045 -33.957  1.00  0.00     0.004 A 
HETATM   34  C   UNL     1      -4.560  -2.866 -33.902  1.00  0.00     0.043 A 
HETATM   35  C   UNL     1      -6.873  -2.565 -34.517  1.00  0.00     0.014 A 
HETATM   36  C   UNL     1      -4.570  -4.190 -34.358  1.00  0.00     0.030 A 
HETATM   37  N   UNL     1      -3.547  -2.126 -33.336  1.00  0.00    -0.364 N 
HETATM   38  C   UNL     1      -5.761  -4.682 -34.905  1.00  0.00     0.002 A 
HETATM   39  C   UNL     1      -6.897  -3.880 -34.990  1.00  0.00     0.001 A 
HETATM   40  H   UNL     1      -2.615  -2.473 -33.156  1.00  0.00     0.165 HD
HETATM   41  C   UNL     1      -3.993  -0.867 -33.027  1.00  0.00     0.102 A 
ENDBRANCH  31  32
ENDBRANCH   3  30
TORSDOF 8
ENDMDL
MODEL 2
REMARK VINA RESULT:     -10.9      1.797      2.807
REMARK  8 active torsions:
REMARK  status: ('A' for Active; 'I' for Inactive)
REMARK    1  A    between atoms: C_4  and  C_5 
REMARK    2  A    between atoms: C_5  and  C_6 
REMARK    3  A    between atoms: C_6  and  C_7 
REMARK    4  A    between atoms: C_7  and  N_8 
REMARK       I    between atoms: N_8  and  C_9 
REMARK    5  A    between atoms: C_9  and  C_10 
REMARK    6  A    between atoms: C_11  and  N_12 
REMARK    7  A    between atoms: N_13  and  N_14 
REMARK    8  A    between atoms: C_15  and  C_16 
ROOT
HETATM    1  C   UNL     1      -5.548   3.776 -32.919  1.00  0.00     0.104 C 
HETATM    2  C   UNL     1      -4.967   3.096 -31.854  1.00  0.00     0.123 C 
HETATM    3  N   UNL     1      -5.532   1.820 -31.867  1.00  0.00    -0.202 N 
HETATM    4  C   UNL     1      -6.815   1.962 -32.363  1.00  0.00     0.183 A 
HETATM    5  C   UNL     1      -6.817   3.145 -33.100  1.00  0.00     0.124 A 
HETATM    6  N   UNL     1      -7.888   3.487 -33.861  1.00  0.00    -0.242 NA
HETATM    7  C   UNL     1      -8.933   2.647 -33.775  1.00  0.00     0.086 A 
HETATM    8  C   UNL     1      -8.909   1.461 -32.993  1.00  0.00     0.088 A 
HETATM    9  N   UNL     1      -7.831   1.073 -32.293  1.00  0.00    -0.225 NA
HETATM   10  C   UNL     1     -10.090   2.960 -34.478  1.00  0.00     0.034 A 
HETATM   11  C   UNL     1     -11.226   2.151 -34.419  1.00  0.00     0.002 A 
HETATM   12  C   UNL     1     -11.205   0.999 -33.644  1.00  0.00     0.002 A 
HETATM   13  C   UNL     1     -10.045   0.665 -32.944  1.00  0.00     0.034 A 
ENDROOT
BRANCH   1  14
HETATM   14  C   UNL     1      -4.927   4.828 -33.719  1.00  0.00     0.257 C 
HETATM   15  N   UNL     1      -4.203   5.740 -32.960  1.00  0.00    -0.357 N 
HETATM   16  H   UNL     1      -4.302   5.585 -31.962  1.00  0.00     0.162 HD
HETATM   17  O   UNL     1      -4.906   4.822 -34.944  1.00  0.00    -0.267 OA
BRANCH  15  18
HETATM   18  C   UNL     1      -2.838   6.071 -33.315  1.00  0.00     0.123 C 
BRANCH  18  19
HETATM   19  C   UNL     1      -2.233   7.333 -32.718  1.00  0.00     0.024 C 
BRANCH  19  20
HETATM   20  C   UNL     1      -0.712   7.257 -32.555  1.00  0.00     0.040 C 
BRANCH  20  21
HETATM   21  C   UNL     1      -0.252   6.716 -31.218  1.00  0.00    -0.058 A 
HETATM   22  C   UNL     1      -0.300   7.472 -30.037  1.00  0.00     0.007 A 
HETATM   23  C   UNL     1       0.167   6.944 -28.831  1.00  0.00     0.001 A 
HETATM   24  C   UNL     1       0.660   5.643 -28.782  1.00  0.00     0.000 A 
HETATM   25  C   UNL     1       0.680   4.866 -29.938  1.00  0.00     0.001 A 
HETATM   26  C   UNL     1       0.223   5.397 -31.146  1.00  0.00     0.007 A 
ENDBRANCH  20  21
ENDBRANCH  19  20
ENDBRANCH  18  19
ENDBRANCH  15  18
ENDBRANCH   1  14
BRANCH   2  27
HETATM   27  N   UNL     1      -3.912   3.414 -31.037  1.00  0.00    -0.286 NA
HETATM   28  H   UNL     1      -3.078   3.781 -31.508  1.00  0.00     0.125 HD
HETATM   29  H   UNL     1      -4.134   4.054 -30.264  1.00  0.00     0.125 HD
ENDBRANCH   2  27
BRANCH   3  30
HETATM   30  N   UNL     1      -4.904   0.628 -31.585  1.00  0.00    -0.176 NA
HETATM   31  C   UNL     1      -4.577  -0.008 -32.665  1.00  0.00     0.153 C 
BRANCH  31  32
HETATM   32  C   UNL     1      -3.999  -1.331 -32.641  1.00  0.00     0.011 A 
HETATM   33  C   UNL     1      -4.435  -2.446 -33.427  1.00  0.00     0.004 A 
HETATM   34  C   UNL     1      -3.710  -3.560 -33.008  1.00  0.00     0.043 A 
HETATM   35  C   UNL     1      -5.397  -2.612 -34.448  1.00  0.00     0.014 A 
HETATM   36  C   UNL     1      -3.915  -4.838 -33.542  1.00  0.00     0.030 A 
HETATM   37  N   UNL     1      -2.841  -3.131 -32.030  1.00  0.00    -0.364 N 
HETATM   38  C   UNL     1      -4.875  -4.976 -34.551  1.00  0.00     0.002 A 
HETATM   39  C   UNL     1      -5.604  -3.879 -35.004  1.00  0.00     0.001 A 
HETATM   40  H   UNL     1      -2.199  -3.731 -31.531  1.00  0.00     0.165 HD
HETATM   41  C   UNL     1      -2.994  -1.786 -31.814  1.00  0.00     0.102 A 
ENDBRANCH  31  32
ENDBRANCH   3  30
TORSDOF 8
ENDMDL
MODEL 3
REMARK VINA RESULT:     -10.6      2.142      6.300
REMARK  8 active torsions:
REMARK  status: ('A' for Active; 'I' for Inactive)
REMARK    1  A    between atoms: C_4  and  C_5 
REMARK    2  A    between atoms: C_5  and  C_6 
REMARK    3  A    between atoms: C_6  and  C_7 
REMARK    4  A    between atoms: C_7  and  N_8 
REMARK       I    between atoms: N_8  and  C_9 
REMARK    5  A    between atoms: C_9  and  C_10 
REMARK    6  A    between atoms: C_11  and  N_12 
REMARK    7  A    between atoms: N_13  and  N_14 
REMARK    8  A    between atoms: C_15  and  C_16 
ROOT
HETATM    1  C   UNL     1      -4.788   1.216 -32.817  1.00  0.00     0.104 C 
HETATM    2  C   UNL     1      -5.875   2.005 -33.174  1.00  0.00     0.123 C 
HETATM    3  N   UNL     1      -6.969   1.140 -33.229  1.00  0.00    -0.202 N 
HETATM    4  C   UNL     1      -6.478  -0.092 -33.616  1.00  0.00     0.183 A 
HETATM    5  C   UNL     1      -5.124  -0.092 -33.283  1.00  0.00     0.124 A 
HETATM    6  N   UNL     1      -4.385  -1.226 -33.381  1.00  0.00    -0.242 NA
HETATM    7  C   UNL     1      -5.041  -2.287 -33.883  1.00  0.00     0.086 A 
HETATM    8  C   UNL     1      -6.416  -2.247 -34.237  1.00  0.00     0.088 A 
HETATM    9  N   UNL     1      -7.177  -1.153 -34.078  1.00  0.00    -0.225 NA
HETATM   10  C   UNL     1      -4.336  -3.470 -34.070  1.00  0.00     0.034 A 
HETATM   11  C   UNL     1      -4.940  -4.605 -34.611  1.00  0.00     0.002 A 
HETATM   12  C   UNL     1      -6.281  -4.561 -34.968  1.00  0.00     0.002 A 
HETATM   13  C   UNL     1      -7.005  -3.385 -34.772  1.00  0.00     0.034 A 
ENDROOT
BRANCH   1  14
HETATM   14  C   UNL     1      -3.624   1.640 -32.045  1.00  0.00     0.257 C 
HETATM   15  N   UNL     1      -3.021   2.788 -32.547  1.00  0.00    -0.357 N 
HETATM   16  H   UNL     1      -3.427   3.092 -33.426  1.00  0.00     0.162 HD
HETATM   17  O   UNL     1      -3.303   1.139 -30.974  1.00  0.00    -0.267 OA
BRANCH  15  18
HETATM   18  C   UNL     1      -2.737   3.909 -31.675  1.00  0.00     0.123 C 
BRANCH  18  19
HETATM   19  C   UNL     1      -2.229   5.195 -32.311  1.00  0.00     0.024 C 
BRANCH  19  20
HETATM   20  C   UNL     1      -0.709   5.356 -32.222  1.00  0.00     0.040 C 
BRANCH  20  21
HETATM   21  C   UNL     1      -0.207   5.827 -30.872  1.00  0.00    -0.058 A 
HETATM   22  C   UNL     1       0.402   4.965 -29.948  1.00  0.00     0.007 A 
HETATM   23  C   UNL     1       0.821   5.435 -28.701  1.00  0.00     0.001 A 
HETATM   24  C   UNL     1       0.665   6.779 -28.372  1.00  0.00     0.000 A 
HETATM   25  C   UNL     1       0.097   7.656 -29.294  1.00  0.00     0.001 A 
HETATM   26  C   UNL     1      -0.331   7.184 -30.537  1.00  0.00     0.007 A 
ENDBRANCH  20  21
ENDBRANCH  19  20
ENDBRANCH  18  19
ENDBRANCH  15  18
ENDBRANCH   1  14
BRANCH   2  27
HETATM   27  N   UNL     1      -6.022   3.367 -33.267  1.00  0.00    -0.286 NA
HETATM   28  H   UNL     1      -6.948   3.733 -33.022  1.00  0.00     0.125 HD
HETATM   29  H   UNL     1      -5.327   3.919 -32.750  1.00  0.00     0.125 HD
ENDBRANCH   2  27
BRANCH   3  30
HETATM   30  N   UNL     1      -8.262   1.406 -32.836  1.00  0.00    -0.176 NA
HETATM   31  C   UNL     1      -8.964   1.904 -33.805  1.00  0.00     0.153 C 
BRANCH  31  32
HETATM   32  C   UNL     1     -10.320   2.364 -33.624  1.00  0.00     0.011 A 
HETATM   33  C   UNL     1     -11.484   1.532 -33.574  1.00  0.00     0.004 A 
HETATM   34  C   UNL     1     -12.595   2.372 -33.526  1.00  0.00     0.043 A 
HETATM   35  C   UNL     1     -11.694   0.135 -33.584  1.00  0.00     0.014 A 
HETATM   36  C   UNL     1     -13.908   1.885 -33.511  1.00  0.00     0.030 A 
HETATM   37  N   UNL     1     -12.122   3.665 -33.511  1.00  0.00    -0.364 N 
HETATM   38  C   UNL     1     -14.089   0.498 -33.524  1.00  0.00     0.002 A 
HETATM   39  C   UNL     1     -12.998  -0.368 -33.554  1.00  0.00     0.001 A 
HETATM   40  H   UNL     1     -12.708   4.489 -33.494  1.00  0.00     0.165 HD
HETATM   41  C   UNL     1     -10.752   3.672 -33.551  1.00  0.00     0.102 A 
ENDBRANCH  31  32
ENDBRANCH   3  30
TORSDOF 8
ENDMDL
MODEL 4
REMARK VINA RESULT:     -10.5      3.815      6.273
REMARK  8 active torsions:
REMARK  status: ('A' for Active; 'I' for Inactive)
REMARK    1  A    between atoms: C_4  and  C_5 
REMARK    2  A    between atoms: C_5  and  C_6 
REMARK    3  A    between atoms: C_6  and  C_7 
REMARK    4  A    between atoms: C_7  and  N_8 
REMARK       I    between atoms: N_8  and  C_9 
REMARK    5  A    between atoms: C_9  and  C_10 
REMARK    6  A    between atoms: C_11  and  N_12 
REMARK    7  A    between atoms: N_13  and  N_14 
REMARK    8  A    between atoms: C_15  and  C_16 
ROOT
HETATM    1  C   UNL     1      -5.639   3.881 -30.163  1.00  0.00     0.104 C 
HETATM    2  C   UNL     1      -5.881   2.592 -30.623  1.00  0.00     0.123 C 
HETATM    3  N   UNL     1      -4.709   2.193 -31.266  1.00  0.00    -0.202 N 
HETATM    4  C   UNL     1      -4.141   3.337 -31.795  1.00  0.00     0.183 A 
HETATM    5  C   UNL     1      -4.650   4.402 -31.053  1.00  0.00     0.124 A 
HETATM    6  N   UNL     1      -4.159   5.657 -31.212  1.00  0.00    -0.242 NA
HETATM    7  C   UNL     1      -3.226   5.781 -32.172  1.00  0.00     0.086 A 
HETATM    8  C   UNL     1      -2.746   4.679 -32.928  1.00  0.00     0.088 A 
HETATM    9  N   UNL     1      -3.169   3.420 -32.732  1.00  0.00    -0.225 NA
HETATM   10  C   UNL     1      -2.716   7.046 -32.436  1.00  0.00     0.034 A 
HETATM   11  C   UNL     1      -1.764   7.259 -33.434  1.00  0.00     0.002 A 
HETATM   12  C   UNL     1      -1.305   6.183 -34.182  1.00  0.00     0.002 A 
HETATM   13  C   UNL     1      -1.797   4.905 -33.917  1.00  0.00     0.034 A 
ENDROOT
BRANCH   1  14
HETATM   14  C   UNL     1      -6.209   4.498 -28.968  1.00  0.00     0.257 C 
HETATM   15  N   UNL     1      -5.248   4.926 -28.059  1.00  0.00    -0.357 N 
HETATM   16  H   UNL     1      -4.308   4.654 -28.325  1.00  0.00     0.162 HD
HETATM   17  O   UNL     1      -7.399   4.761 -28.846  1.00  0.00    -0.267 OA
BRANCH  15  18
HETATM   18  C   UNL     1      -5.285   6.275 -27.534  1.00  0.00     0.123 C 
BRANCH  18  19
HETATM   19  C   UNL     1      -3.975   6.895 -27.070  1.00  0.00     0.024 C 
BRANCH  19  20
HETATM   20  C   UNL     1      -3.133   7.462 -28.216  1.00  0.00     0.040 C 
BRANCH  20  21
HETATM   21  C   UNL     1      -1.638   7.424 -27.975  1.00  0.00    -0.058 A 
HETATM   22  C   UNL     1      -1.079   7.079 -26.735  1.00  0.00     0.007 A 
HETATM   23  C   UNL     1       0.304   7.089 -26.548  1.00  0.00     0.001 A 
HETATM   24  C   UNL     1       1.151   7.413 -27.605  1.00  0.00     0.000 A 
HETATM   25  C   UNL     1       0.614   7.720 -28.853  1.00  0.00     0.001 A 
HETATM   26  C   UNL     1      -0.771   7.721 -29.037  1.00  0.00     0.007 A 
ENDBRANCH  20  21
ENDBRANCH  19  20
ENDBRANCH  18  19
ENDBRANCH  15  18
ENDBRANCH   1  14
BRANCH   2  27
HETATM   27  N   UNL     1      -6.910   1.716 -30.381  1.00  0.00    -0.286 NA
HETATM   28  H   UNL     1      -7.576   2.001 -29.655  1.00  0.00     0.125 HD
HETATM   29  H   UNL     1      -7.455   1.441 -31.207  1.00  0.00     0.125 HD
ENDBRANCH   2  27
BRANCH   3  30
HETATM   30  N   UNL     1      -4.140   0.939 -31.259  1.00  0.00    -0.176 NA
HETATM   31  C   UNL     1      -4.400   0.288 -32.349  1.00  0.00     0.153 C 
BRANCH  31  32
HETATM   32  C   UNL     1      -4.006  -1.086 -32.545  1.00  0.00     0.011 A 
HETATM   33  C   UNL     1      -4.632  -2.014 -33.438  1.00  0.00     0.004 A 
HETATM   34  C   UNL     1      -4.042  -3.259 -33.226  1.00  0.00     0.043 A 
HETATM   35  C   UNL     1      -5.664  -1.911 -34.397  1.00  0.00     0.014 A 
HETATM   36  C   UNL     1      -4.448  -4.412 -33.909  1.00  0.00     0.030 A 
HETATM   37  N   UNL     1      -3.069  -3.086 -32.267  1.00  0.00    -0.364 N 
HETATM   38  C   UNL     1      -5.473  -4.283 -34.853  1.00  0.00     0.002 A 
HETATM   39  C   UNL     1      -6.071  -3.050 -35.100  1.00  0.00     0.001 A 
HETATM   40  H   UNL     1      -2.487  -3.827 -31.901  1.00  0.00     0.165 HD
HETATM   41  C   UNL     1      -3.027  -1.777 -31.862  1.00  0.00     0.102 A 
ENDBRANCH  31  32
ENDBRANCH   3  30
TORSDOF 8
ENDMDL
MODEL 5
REMARK VINA RESULT:     -10.4      2.615      7.785
REMARK  8 active torsions:
REMARK  status: ('A' for Active; 'I' for Inactive)
REMARK    1  A    between atoms: C_4  and  C_5 
REMARK    2  A    between atoms: C_5  and  C_6 
REMARK    3  A    between atoms: C_6  and  C_7 
REMARK    4  A    between atoms: C_7  and  N_8 
REMARK       I    between atoms: N_8  and  C_9 
REMARK    5  A    between atoms: C_9  and  C_10 
REMARK    6  A    between atoms: C_11  and  N_12 
REMARK    7  A    between atoms: N_13  and  N_14 
REMARK    8  A    between atoms: C_15  and  C_16 
ROOT
HETATM    1  C   UNL     1      -4.899   6.469 -32.009  1.00  0.00     0.104 C 
HETATM    2  C   UNL     1      -4.763   5.611 -33.094  1.00  0.00     0.123 C 
HETATM    3  N   UNL     1      -3.829   4.650 -32.703  1.00  0.00    -0.202 N 
HETATM    4  C   UNL     1      -2.962   5.278 -31.829  1.00  0.00     0.183 A 
HETATM    5  C   UNL     1      -3.652   6.375 -31.318  1.00  0.00     0.124 A 
HETATM    6  N   UNL     1      -3.135   7.108 -30.299  1.00  0.00    -0.242 NA
HETATM    7  C   UNL     1      -1.907   6.734 -29.900  1.00  0.00     0.086 A 
HETATM    8  C   UNL     1      -1.218   5.624 -30.460  1.00  0.00     0.088 A 
HETATM    9  N   UNL     1      -1.747   4.846 -31.417  1.00  0.00    -0.225 NA
HETATM   10  C   UNL     1      -1.284   7.473 -28.902  1.00  0.00     0.034 A 
HETATM   11  C   UNL     1       0.000   7.162 -28.453  1.00  0.00     0.002 A 
HETATM   12  C   UNL     1       0.677   6.085 -29.009  1.00  0.00     0.002 A 
HETATM   13  C   UNL     1       0.058   5.325 -30.002  1.00  0.00     0.034 A 
ENDROOT
BRANCH   1  14
HETATM   14  C   UNL     1      -6.101   7.206 -31.631  1.00  0.00     0.257 C 
HETATM   15  N   UNL     1      -7.094   7.173 -32.605  1.00  0.00    -0.357 N 
HETATM   16  H   UNL     1      -6.788   6.724 -33.461  1.00  0.00     0.162 HD
HETATM   17  O   UNL     1      -6.286   7.671 -30.513  1.00  0.00    -0.267 OA
BRANCH  15  18
HETATM   18  C   UNL     1      -8.448   6.795 -32.257  1.00  0.00     0.123 C 
BRANCH  18  19
HETATM   19  C   UNL     1      -8.937   5.421 -32.694  1.00  0.00     0.024 C 
BRANCH  19  20
HETATM   20  C   UNL     1      -8.188   4.268 -32.021  1.00  0.00     0.040 C 
BRANCH  20  21
HETATM   21  C   UNL     1      -8.781   2.899 -32.281  1.00  0.00    -0.058 A 
HETATM   22  C   UNL     1      -8.538   1.797 -31.448  1.00  0.00     0.007 A 
HETATM   23  C   UNL     1      -9.078   0.544 -31.745  1.00  0.00     0.001 A 
HETATM   24  C   UNL     1      -9.895   0.381 -32.861  1.00  0.00     0.000 A 
HETATM   25  C   UNL     1     -10.179   1.474 -33.677  1.00  0.00     0.001 A 
HETATM   26  C   UNL     1      -9.629   2.725 -33.386  1.00  0.00     0.007 A 
ENDBRANCH  20  21
ENDBRANCH  19  20
ENDBRANCH  18  19
ENDBRANCH  15  18
ENDBRANCH   1  14
BRANCH   2  27
HETATM   27  N   UNL     1      -5.480   5.493 -34.258  1.00  0.00    -0.286 NA
HETATM   28  H   UNL     1      -6.410   5.070 -34.168  1.00  0.00     0.125 HD
HETATM   29  H   UNL     1      -5.589   6.362 -34.796  1.00  0.00     0.125 HD
ENDBRANCH   2  27
BRANCH   3  30
HETATM   30  N   UNL     1      -3.842   3.306 -33.001  1.00  0.00    -0.176 NA
HETATM   31  C   UNL     1      -4.834   2.698 -32.430  1.00  0.00     0.153 C 
BRANCH  31  32
HETATM   32  C   UNL     1      -5.011   1.267 -32.501  1.00  0.00     0.011 A 
HETATM   33  C   UNL     1      -5.804   0.571 -33.470  1.00  0.00     0.004 A 
HETATM   34  C   UNL     1      -5.820  -0.774 -33.106  1.00  0.00     0.043 A 
HETATM   35  C   UNL     1      -6.526   0.969 -34.617  1.00  0.00     0.014 A 
HETATM   36  C   UNL     1      -6.542  -1.739 -33.819  1.00  0.00     0.030 A 
HETATM   37  N   UNL     1      -5.037  -0.897 -31.980  1.00  0.00    -0.364 N 
HETATM   38  C   UNL     1      -7.251  -1.319 -34.950  1.00  0.00     0.002 A 
HETATM   39  C   UNL     1      -7.240   0.016 -35.349  1.00  0.00     0.001 A 
HETATM   40  H   UNL     1      -4.880  -1.763 -31.484  1.00  0.00     0.165 HD
HETATM   41  C   UNL     1      -4.530   0.324 -31.617  1.00  0.00     0.102 A 
ENDBRANCH  31  32
ENDBRANCH   3  30
TORSDOF 8
ENDMDL
MODEL 6
REMARK VINA RESULT:     -10.4      2.120      8.291
REMARK  8 active torsions:
REMARK  status: ('A' for Active; 'I' for Inactive)
REMARK    1  A    between atoms: C_4  and  C_5 
REMARK    2  A    between atoms: C_5  and  C_6 
REMARK    3  A    between atoms: C_6  and  C_7 
REMARK    4  A    between atoms: C_7  and  N_8 
REMARK       I    between atoms: N_8  and  C_9 
REMARK    5  A    between atoms: C_9  and  C_10 
REMARK    6  A    between atoms: C_11  and  N_12 
REMARK    7  A    between atoms: N_13  and  N_14 
REMARK    8  A    between atoms: C_15  and  C_16 
ROOT
HETATM    1  C   UNL     1      -7.980   1.789 -31.368  1.00  0.00     0.104 C 
HETATM    2  C   UNL     1      -7.122   2.297 -30.399  1.00  0.00     0.123 C 
HETATM    3  N   UNL     1      -5.833   2.123 -30.906  1.00  0.00    -0.202 N 
HETATM    4  C   UNL     1      -5.870   0.986 -31.691  1.00  0.00     0.183 A 
HETATM    5  C   UNL     1      -7.203   0.812 -32.062  1.00  0.00     0.124 A 
HETATM    6  N   UNL     1      -7.552  -0.126 -32.978  1.00  0.00    -0.242 NA
HETATM    7  C   UNL     1      -6.538  -0.892 -33.417  1.00  0.00     0.086 A 
HETATM    8  C   UNL     1      -5.193  -0.706 -33.001  1.00  0.00     0.088 A 
HETATM    9  N   UNL     1      -4.822   0.264 -32.151  1.00  0.00    -0.225 NA
HETATM   10  C   UNL     1      -6.825  -1.915 -34.313  1.00  0.00     0.034 A 
HETATM   11  C   UNL     1      -5.831  -2.769 -34.794  1.00  0.00     0.002 A 
HETATM   12  C   UNL     1      -4.519  -2.593 -34.376  1.00  0.00     0.002 A 
HETATM   13  C   UNL     1      -4.214  -1.561 -33.489  1.00  0.00     0.034 A 
ENDROOT
BRANCH   1  14
HETATM   14  C   UNL     1      -9.336   2.249 -31.652  1.00  0.00     0.257 C 
HETATM   15  N   UNL     1      -9.998   2.735 -30.530  1.00  0.00    -0.357 N 
HETATM   16  H   UNL     1      -9.469   2.602 -29.675  1.00  0.00     0.162 HD
HETATM   17  O   UNL     1      -9.792   2.351 -32.785  1.00  0.00    -0.267 OA
BRANCH  15  18
HETATM   18  C   UNL     1     -10.643   4.031 -30.563  1.00  0.00     0.123 C 
BRANCH  18  19
HETATM   19  C   UNL     1     -12.161   4.074 -30.470  1.00  0.00     0.024 C 
BRANCH  19  20
HETATM   20  C   UNL     1     -12.837   4.485 -31.781  1.00  0.00     0.040 C 
BRANCH  20  21
HETATM   21  C   UNL     1     -13.481   3.343 -32.539  1.00  0.00    -0.058 A 
HETATM   22  C   UNL     1     -14.608   2.657 -32.064  1.00  0.00     0.007 A 
HETATM   23  C   UNL     1     -15.149   1.587 -32.780  1.00  0.00     0.001 A 
HETATM   24  C   UNL     1     -14.590   1.207 -33.997  1.00  0.00     0.000 A 
HETATM   25  C   UNL     1     -13.493   1.903 -34.503  1.00  0.00     0.001 A 
HETATM   26  C   UNL     1     -12.946   2.966 -33.781  1.00  0.00     0.007 A 
ENDBRANCH  20  21
ENDBRANCH  19  20
ENDBRANCH  18  19
ENDBRANCH  15  18
ENDBRANCH   1  14
BRANCH   2  27
HETATM   27  N   UNL     1      -7.361   3.026 -29.261  1.00  0.00    -0.286 NA
HETATM   28  H   UNL     1      -6.730   3.818 -29.099  1.00  0.00     0.125 HD
HETATM   29  H   UNL     1      -8.322   3.373 -29.157  1.00  0.00     0.125 HD
ENDBRANCH   2  27
BRANCH   3  30
HETATM   30  N   UNL     1      -4.765   2.983 -30.780  1.00  0.00    -0.176 NA
HETATM   31  C   UNL     1      -4.941   4.069 -31.465  1.00  0.00     0.153 C 
BRANCH  31  32
HETATM   32  C   UNL     1      -3.923   5.085 -31.582  1.00  0.00     0.011 A 
HETATM   33  C   UNL     1      -3.056   5.271 -32.706  1.00  0.00     0.004 A 
HETATM   34  C   UNL     1      -2.137   6.261 -32.365  1.00  0.00     0.043 A 
HETATM   35  C   UNL     1      -2.957   4.671 -33.981  1.00  0.00     0.014 A 
HETATM   36  C   UNL     1      -1.109   6.666 -33.225  1.00  0.00     0.030 A 
HETATM   37  N   UNL     1      -2.456   6.687 -31.095  1.00  0.00    -0.364 N 
HETATM   38  C   UNL     1      -1.032   6.054 -34.481  1.00  0.00     0.002 A 
HETATM   39  C   UNL     1      -1.946   5.073 -34.859  1.00  0.00     0.001 A 
HETATM   40  H   UNL     1      -1.946   7.392 -30.581  1.00  0.00     0.165 HD
HETATM   41  C   UNL     1      -3.542   5.998 -30.621  1.00  0.00     0.102 A 
ENDBRANCH  31  32
ENDBRANCH   3  30
TORSDOF 8
ENDMDL
MODEL 7
REMARK VINA RESULT:     -10.4      2.261      8.596
REMARK  8 active torsions:
REMARK  status: ('A' for Active; 'I' for Inactive)
REMARK    1  A    between atoms: C_4  and  C_5 
REMARK    2  A    between atoms: C_5  and  C_6 
REMARK    3  A    between atoms: C_6  and  C_7 
REMARK    4  A    between atoms: C_7  and  N_8 
REMARK       I    between atoms: N_8  and  C_9 
REMARK    5  A    between atoms: C_9  and  C_10 
REMARK    6  A    between atoms: C_11  and  N_12 
REMARK    7  A    between atoms: N_13  and  N_14 
REMARK    8  A    between atoms: C_15  and  C_16 
ROOT
HETATM    1  C   UNL     1      -4.877   2.584 -30.842  1.00  0.00     0.104 C 
HETATM    2  C   UNL     1      -6.114   3.099 -30.473  1.00  0.00     0.123 C 
HETATM    3  N   UNL     1      -6.272   4.271 -31.215  1.00  0.00    -0.202 N 
HETATM    4  C   UNL     1      -5.006   4.790 -31.406  1.00  0.00     0.183 A 
HETATM    5  C   UNL     1      -4.122   3.722 -31.260  1.00  0.00     0.124 A 
HETATM    6  N   UNL     1      -2.805   3.866 -31.554  1.00  0.00    -0.242 NA
HETATM    7  C   UNL     1      -2.438   5.109 -31.910  1.00  0.00     0.086 A 
HETATM    8  C   UNL     1      -3.360   6.184 -32.025  1.00  0.00     0.088 A 
HETATM    9  N   UNL     1      -4.677   6.039 -31.808  1.00  0.00    -0.225 NA
HETATM   10  C   UNL     1      -1.094   5.351 -32.169  1.00  0.00     0.034 A 
HETATM   11  C   UNL     1      -0.632   6.621 -32.519  1.00  0.00     0.002 A 
HETATM   12  C   UNL     1      -1.533   7.672 -32.619  1.00  0.00     0.002 A 
HETATM   13  C   UNL     1      -2.887   7.441 -32.376  1.00  0.00     0.034 A 
ENDROOT
BRANCH   1  14
HETATM   14  C   UNL     1      -4.501   1.174 -30.880  1.00  0.00     0.257 C 
HETATM   15  N   UNL     1      -5.574   0.314 -30.674  1.00  0.00    -0.357 N 
HETATM   16  H   UNL     1      -6.429   0.804 -30.433  1.00  0.00     0.162 HD
HETATM   17  O   UNL     1      -3.392   0.778 -31.217  1.00  0.00    -0.267 OA
BRANCH  15  18
HETATM   18  C   UNL     1      -5.826  -0.778 -31.592  1.00  0.00     0.123 C 
BRANCH  18  19
HETATM   19  C   UNL     1      -6.632  -0.480 -32.848  1.00  0.00     0.024 C 
BRANCH  19  20
HETATM   20  C   UNL     1      -5.900  -0.850 -34.140  1.00  0.00     0.040 C 
BRANCH  20  21
HETATM   21  C   UNL     1      -5.644  -2.333 -34.313  1.00  0.00    -0.058 A 
HETATM   22  C   UNL     1      -4.406  -2.927 -34.027  1.00  0.00     0.007 A 
HETATM   23  C   UNL     1      -4.204  -4.293 -34.233  1.00  0.00     0.001 A 
HETATM   24  C   UNL     1      -5.245  -5.091 -34.699  1.00  0.00     0.000 A 
HETATM   25  C   UNL     1      -6.492  -4.524 -34.952  1.00  0.00     0.001 A 
HETATM   26  C   UNL     1      -6.691  -3.155 -34.756  1.00  0.00     0.007 A 
ENDBRANCH  20  21
ENDBRANCH  19  20
ENDBRANCH  18  19
ENDBRANCH  15  18
ENDBRANCH   1  14
BRANCH   2  27
HETATM   27  N   UNL     1      -7.137   2.569 -29.728  1.00  0.00    -0.286 NA
HETATM   28  H   UNL     1      -7.619   1.764 -30.142  1.00  0.00     0.125 HD
HETATM   29  H   UNL     1      -6.892   2.316 -28.763  1.00  0.00     0.125 HD
ENDBRANCH   2  27
BRANCH   3  30
HETATM   30  N   UNL     1      -7.434   4.748 -31.779  1.00  0.00    -0.176 NA
HETATM   31  C   UNL     1      -7.784   4.054 -32.816  1.00  0.00     0.153 C 
BRANCH  31  32
HETATM   32  C   UNL     1      -8.909   4.413 -33.646  1.00  0.00     0.011 A 
HETATM   33  C   UNL     1      -9.937   3.520 -34.090  1.00  0.00     0.004 A 
HETATM   34  C   UNL     1     -10.749   4.227 -34.975  1.00  0.00     0.043 A 
HETATM   35  C   UNL     1     -10.241   2.165 -33.831  1.00  0.00     0.014 A 
HETATM   36  C   UNL     1     -11.837   3.640 -35.633  1.00  0.00     0.030 A 
HETATM   37  N   UNL     1     -10.255   5.510 -35.039  1.00  0.00    -0.364 N 
HETATM   38  C   UNL     1     -12.114   2.295 -35.361  1.00  0.00     0.002 A 
HETATM   39  C   UNL     1     -11.332   1.567 -34.468  1.00  0.00     0.001 A 
HETATM   40  H   UNL     1     -10.638   6.244 -35.619  1.00  0.00     0.165 HD
HETATM   41  C   UNL     1      -9.157   5.639 -34.229  1.00  0.00     0.102 A 
ENDBRANCH  31  32
ENDBRANCH   3  30
TORSDOF 8
ENDMDL
MODEL 8
REMARK VINA RESULT:     -10.4      1.948      8.689
REMARK  8 active torsions:
REMARK  status: ('A' for Active; 'I' for Inactive)
REMARK    1  A    between atoms: C_4  and  C_5 
REMARK    2  A    between atoms: C_5  and  C_6 
REMARK    3  A    between atoms: C_6  and  C_7 
REMARK    4  A    between atoms: C_7  and  N_8 
REMARK       I    between atoms: N_8  and  C_9 
REMARK    5  A    between atoms: C_9  and  C_10 
REMARK    6  A    between atoms: C_11  and  N_12 
REMARK    7  A    between atoms: N_13  and  N_14 
REMARK    8  A    between atoms: C_15  and  C_16 
ROOT
HETATM    1  C   UNL     1      -7.597   1.426 -32.189  1.00  0.00     0.104 C 
HETATM    2  C   UNL     1      -6.588   2.082 -31.494  1.00  0.00     0.123 C 
HETATM    3  N   UNL     1      -5.403   1.766 -32.159  1.00  0.00    -0.202 N 
HETATM    4  C   UNL     1      -5.573   0.499 -32.687  1.00  0.00     0.183 A 
HETATM    5  C   UNL     1      -6.950   0.305 -32.793  1.00  0.00     0.124 A 
HETATM    6  N   UNL     1      -7.450  -0.781 -33.435  1.00  0.00    -0.242 NA
HETATM    7  C   UNL     1      -6.527  -1.654 -33.873  1.00  0.00     0.086 A 
HETATM    8  C   UNL     1      -5.130  -1.439 -33.727  1.00  0.00     0.088 A 
HETATM    9  N   UNL     1      -4.619  -0.335 -33.158  1.00  0.00    -0.225 NA
HETATM   10  C   UNL     1      -6.963  -2.821 -34.489  1.00  0.00     0.034 A 
HETATM   11  C   UNL     1      -6.066  -3.787 -34.947  1.00  0.00     0.002 A 
HETATM   12  C   UNL     1      -4.702  -3.581 -34.792  1.00  0.00     0.002 A 
HETATM   13  C   UNL     1      -4.249  -2.407 -34.188  1.00  0.00     0.034 A 
ENDROOT
BRANCH   1  14
HETATM   14  C   UNL     1      -8.981   1.870 -32.334  1.00  0.00     0.257 C 
HETATM   15  N   UNL     1      -9.601   1.371 -33.474  1.00  0.00    -0.357 N 
HETATM   16  H   UNL     1      -8.964   0.857 -34.074  1.00  0.00     0.162 HD
HETATM   17  O   UNL     1      -9.588   2.485 -31.466  1.00  0.00    -0.267 OA
BRANCH  15  18
HETATM   18  C   UNL     1     -10.890   0.718 -33.381  1.00  0.00     0.123 C 
BRANCH  18  19
HETATM   19  C   UNL     1     -12.053   1.325 -34.153  1.00  0.00     0.024 C 
BRANCH  19  20
HETATM   20  C   UNL     1     -13.423   0.853 -33.657  1.00  0.00     0.040 C 
BRANCH  20  21
HETATM   21  C   UNL     1     -14.280   1.945 -33.050  1.00  0.00    -0.058 A 
HETATM   22  C   UNL     1     -13.779   3.218 -32.742  1.00  0.00     0.007 A 
HETATM   23  C   UNL     1     -14.597   4.184 -32.153  1.00  0.00     0.001 A 
HETATM   24  C   UNL     1     -15.935   3.902 -31.891  1.00  0.00     0.000 A 
HETATM   25  C   UNL     1     -16.459   2.655 -32.227  1.00  0.00     0.001 A 
HETATM   26  C   UNL     1     -15.637   1.685 -32.807  1.00  0.00     0.007 A 
ENDBRANCH  20  21
ENDBRANCH  19  20
ENDBRANCH  18  19
ENDBRANCH  15  18
ENDBRANCH   1  14
BRANCH   2  27
HETATM   27  N   UNL     1      -6.631   3.027 -30.499  1.00  0.00    -0.286 NA
HETATM   28  H   UNL     1      -5.722   3.343 -30.146  1.00  0.00     0.125 HD
HETATM   29  H   UNL     1      -7.185   3.865 -30.715  1.00  0.00     0.125 HD
ENDBRANCH   2  27
BRANCH   3  30
HETATM   30  N   UNL     1      -4.326   2.594 -32.382  1.00  0.00    -0.176 NA
HETATM   31  C   UNL     1      -4.649   3.613 -33.114  1.00  0.00     0.153 C 
BRANCH  31  32
HETATM   32  C   UNL     1      -3.677   4.575 -33.577  1.00  0.00     0.011 A 
HETATM   33  C   UNL     1      -2.553   5.052 -32.828  1.00  0.00     0.004 A 
HETATM   34  C   UNL     1      -1.953   6.062 -33.576  1.00  0.00     0.043 A 
HETATM   35  C   UNL     1      -2.001   4.725 -31.569  1.00  0.00     0.014 A 
HETATM   36  C   UNL     1      -0.841   6.781 -33.118  1.00  0.00     0.030 A 
HETATM   37  N   UNL     1      -2.663   6.172 -34.750  1.00  0.00    -0.364 N 
HETATM   38  C   UNL     1      -0.315   6.439 -31.867  1.00  0.00     0.002 A 
HETATM   39  C   UNL     1      -0.882   5.422 -31.103  1.00  0.00     0.001 A 
HETATM   40  H   UNL     1      -2.462   6.840 -35.482  1.00  0.00     0.165 HD
HETATM   41  C   UNL     1      -3.693   5.268 -34.769  1.00  0.00     0.102 A 
ENDBRANCH  31  32
ENDBRANCH   3  30
TORSDOF 8
ENDMDL
MODEL 9
REMARK VINA RESULT:     -10.2      3.022      7.427
REMARK  8 active torsions:
REMARK  status: ('A' for Active; 'I' for Inactive)
REMARK    1  A    between atoms: C_4  and  C_5 
REMARK    2  A    between atoms: C_5  and  C_6 
REMARK    3  A    between atoms: C_6  and  C_7 
REMARK    4  A    between atoms: C_7  and  N_8 
REMARK       I    between atoms: N_8  and  C_9 
REMARK    5  A    between atoms: C_9  and  C_10 
REMARK    6  A    between atoms: C_11  and  N_12 
REMARK    7  A    between atoms: N_13  and  N_14 
REMARK    8  A    between atoms: C_15  and  C_16 
ROOT
HETATM    1  C   UNL     1      -4.980   1.166 -32.939  1.00  0.00     0.104 C 
HETATM    2  C   UNL     1      -5.785   1.814 -33.869  1.00  0.00     0.123 C 
HETATM    3  N   UNL     1      -6.683   0.850 -34.329  1.00  0.00    -0.202 N 
HETATM    4  C   UNL     1      -6.022  -0.362 -34.273  1.00  0.00     0.183 A 
HETATM    5  C   UNL     1      -5.001  -0.205 -33.337  1.00  0.00     0.124 A 
HETATM    6  N   UNL     1      -4.267  -1.270 -32.925  1.00  0.00    -0.242 NA
HETATM    7  C   UNL     1      -4.559  -2.429 -33.539  1.00  0.00     0.086 A 
HETATM    8  C   UNL     1      -5.590  -2.551 -34.508  1.00  0.00     0.088 A 
HETATM    9  N   UNL     1      -6.372  -1.523 -34.873  1.00  0.00    -0.225 NA
HETATM   10  C   UNL     1      -3.810  -3.554 -33.214  1.00  0.00     0.034 A 
HETATM   11  C   UNL     1      -4.036  -4.787 -33.827  1.00  0.00     0.002 A 
HETATM   12  C   UNL     1      -5.035  -4.902 -34.783  1.00  0.00     0.002 A 
HETATM   13  C   UNL     1      -5.805  -3.785 -35.109  1.00  0.00     0.034 A 
ENDROOT
BRANCH   1  14
HETATM   14  C   UNL     1      -4.353   1.769 -31.766  1.00  0.00     0.257 C 
HETATM   15  N   UNL     1      -4.955   2.959 -31.371  1.00  0.00    -0.357 N 
HETATM   16  H   UNL     1      -5.672   3.269 -32.019  1.00  0.00     0.162 HD
HETATM   17  O   UNL     1      -3.492   1.210 -31.098  1.00  0.00    -0.267 OA
BRANCH  15  18
HETATM   18  C   UNL     1      -5.359   3.155 -29.995  1.00  0.00     0.123 C 
BRANCH  18  19
HETATM   19  C   UNL     1      -6.849   3.192 -29.688  1.00  0.00     0.024 C 
BRANCH  19  20
HETATM   20  C   UNL     1      -7.725   2.849 -30.896  1.00  0.00     0.040 C 
BRANCH  20  21
HETATM   21  C   UNL     1      -8.937   3.741 -31.066  1.00  0.00    -0.058 A 
HETATM   22  C   UNL     1     -10.210   3.389 -30.595  1.00  0.00     0.007 A 
HETATM   23  C   UNL     1     -11.306   4.228 -30.803  1.00  0.00     0.001 A 
HETATM   24  C   UNL     1     -11.141   5.446 -31.458  1.00  0.00     0.000 A 
HETATM   25  C   UNL     1      -9.876   5.828 -31.898  1.00  0.00     0.001 A 
HETATM   26  C   UNL     1      -8.781   4.984 -31.699  1.00  0.00     0.007 A 
ENDBRANCH  20  21
ENDBRANCH  19  20
ENDBRANCH  18  19
ENDBRANCH  15  18
ENDBRANCH   1  14
BRANCH   2  27
HETATM   27  N   UNL     1      -5.916   3.141 -34.194  1.00  0.00    -0.286 NA
HETATM   28  H   UNL     1      -5.532   3.806 -33.515  1.00  0.00     0.125 HD
HETATM   29  H   UNL     1      -5.554   3.404 -35.119  1.00  0.00     0.125 HD
ENDBRANCH   2  27
BRANCH   3  30
HETATM   30  N   UNL     1      -8.013   1.031 -34.639  1.00  0.00    -0.176 NA
HETATM   31  C   UNL     1      -8.751   1.075 -33.575  1.00  0.00     0.153 C 
BRANCH  31  32
HETATM   32  C   UNL     1     -10.192   1.154 -33.633  1.00  0.00     0.011 A 
HETATM   33  C   UNL     1     -10.948   2.280 -34.093  1.00  0.00     0.004 A 
HETATM   34  C   UNL     1     -12.293   2.001 -33.859  1.00  0.00     0.043 A 
HETATM   35  C   UNL     1     -10.607   3.521 -34.674  1.00  0.00     0.014 A 
HETATM   36  C   UNL     1     -13.314   2.913 -34.154  1.00  0.00     0.030 A 
HETATM   37  N   UNL     1     -12.354   0.740 -33.311  1.00  0.00    -0.364 N 
HETATM   38  C   UNL     1     -12.949   4.137 -34.726  1.00  0.00     0.002 A 
HETATM   39  C   UNL     1     -11.615   4.438 -34.989  1.00  0.00     0.001 A 
HETATM   40  H   UNL     1     -13.208   0.281 -33.022  1.00  0.00     0.165 HD
HETATM   41  C   UNL     1     -11.095   0.213 -33.187  1.00  0.00     0.102 A 
ENDBRANCH  31  32
ENDBRANCH   3  30
TORSDOF 8
ENDMDL
MODEL 10
REMARK VINA RESULT:     -10.2      1.896      6.488
REMARK  8 active torsions:
REMARK  status: ('A' for Active; 'I' for Inactive)
REMARK    1  A    between atoms: C_4  and  C_5 
REMARK    2  A    between atoms: C_5  and  C_6 
REMARK    3  A    between atoms: C_6  and  C_7 
REMARK    4  A    between atoms: C_7  and  N_8 
REMARK       I    between atoms: N_8  and  C_9 
REMARK    5  A    between atoms: C_9  and  C_10 
REMARK    6  A    between atoms: C_11  and  N_12 
REMARK    7  A    between atoms: N_13  and  N_14 
REMARK    8  A    between atoms: C_15  and  C_16 
ROOT
HETATM    1  C   UNL     1      -6.388   1.831 -32.240  1.00  0.00     0.104 C 
HETATM    2  C   UNL     1      -7.659   2.242 -32.627  1.00  0.00     0.123 C 
HETATM    3  N   UNL     1      -8.388   1.070 -32.834  1.00  0.00    -0.202 N 
HETATM    4  C   UNL     1      -7.486   0.117 -33.269  1.00  0.00     0.183 A 
HETATM    5  C   UNL     1      -6.233   0.538 -32.827  1.00  0.00     0.124 A 
HETATM    6  N   UNL     1      -5.147  -0.268 -32.946  1.00  0.00    -0.242 NA
HETATM    7  C   UNL     1      -5.375  -1.433 -33.577  1.00  0.00     0.086 A 
HETATM    8  C   UNL     1      -6.661  -1.822 -34.039  1.00  0.00     0.088 A 
HETATM    9  N   UNL     1      -7.757  -1.067 -33.864  1.00  0.00    -0.225 NA
HETATM   10  C   UNL     1      -4.301  -2.287 -33.791  1.00  0.00     0.034 A 
HETATM   11  C   UNL     1      -4.453  -3.502 -34.462  1.00  0.00     0.002 A 
HETATM   12  C   UNL     1      -5.707  -3.875 -34.924  1.00  0.00     0.002 A 
HETATM   13  C   UNL     1      -6.798  -3.034 -34.703  1.00  0.00     0.034 A 
ENDROOT
BRANCH   1  14
HETATM   14  C   UNL     1      -5.481   2.545 -31.346  1.00  0.00     0.257 C 
HETATM   15  N   UNL     1      -4.147   2.193 -31.522  1.00  0.00    -0.357 N 
HETATM   16  H   UNL     1      -4.026   1.426 -32.175  1.00  0.00     0.162 HD
HETATM   17  O   UNL     1      -5.830   3.473 -30.628  1.00  0.00    -0.267 OA
BRANCH  15  18
HETATM   18  C   UNL     1      -3.137   3.214 -31.707  1.00  0.00     0.123 C 
BRANCH  18  19
HETATM   19  C   UNL     1      -3.165   4.017 -32.999  1.00  0.00     0.024 C 
BRANCH  19  20
HETATM   20  C   UNL     1      -1.818   4.655 -33.347  1.00  0.00     0.040 C 
BRANCH  20  21
HETATM   21  C   UNL     1      -1.272   5.587 -32.284  1.00  0.00    -0.058 A 
HETATM   22  C   UNL     1      -1.890   6.802 -31.952  1.00  0.00     0.007 A 
HETATM   23  C   UNL     1      -1.333   7.646 -30.989  1.00  0.00     0.001 A 
HETATM   24  C   UNL     1      -0.169   7.274 -30.322  1.00  0.00     0.000 A 
HETATM   25  C   UNL     1       0.436   6.053 -30.613  1.00  0.00     0.001 A 
HETATM   26  C   UNL     1      -0.115   5.214 -31.584  1.00  0.00     0.007 A 
ENDBRANCH  20  21
ENDBRANCH  19  20
ENDBRANCH  18  19
ENDBRANCH  15  18
ENDBRANCH   1  14
BRANCH   2  27
HETATM   27  N   UNL     1      -8.255   3.478 -32.632  1.00  0.00    -0.286 NA
HETATM   28  H   UNL     1      -7.619   4.279 -32.698  1.00  0.00     0.125 HD
HETATM   29  H   UNL     1      -8.987   3.609 -33.341  1.00  0.00     0.125 HD
ENDBRANCH   2  27
BRANCH   3  30
HETATM   30  N   UNL     1      -9.713   0.849 -32.531  1.00  0.00    -0.176 NA
HETATM   31  C   UNL     1     -10.476   1.021 -33.564  1.00  0.00     0.153 C 
BRANCH  31  32
HETATM   32  C   UNL     1     -11.915   0.950 -33.486  1.00  0.00     0.011 A 
HETATM   33  C   UNL     1     -12.782   2.017 -33.085  1.00  0.00     0.004 A 
HETATM   34  C   UNL     1     -14.074   1.500 -33.013  1.00  0.00     0.043 A 
HETATM   35  C   UNL     1     -12.581   3.377 -32.759  1.00  0.00     0.014 A 
HETATM   36  C   UNL     1     -15.173   2.267 -32.608  1.00  0.00     0.030 A 
HETATM   37  N   UNL     1     -14.000   0.177 -33.391  1.00  0.00    -0.364 N 
HETATM   38  C   UNL     1     -14.946   3.611 -32.288  1.00  0.00     0.002 A 
HETATM   39  C   UNL     1     -13.670   4.162 -32.367  1.00  0.00     0.001 A 
HETATM   40  H   UNL     1     -14.788  -0.456 -33.417  1.00  0.00     0.165 HD
HETATM   41  C   UNL     1     -12.707  -0.160 -33.695  1.00  0.00     0.102 A 
ENDBRANCH  31  32
ENDBRANCH   3  30
TORSDOF 8
ENDMDL
