MODEL 1
REMARK VINA RESULT:      -9.3      0.000      0.000
REMARK  2 active torsions:
REMARK  status: ('A' for Active; 'I' for Inactive)
REMARK    1  A    between atoms: C_2  and  C_3 
REMARK    2  A    between atoms: N_9  and  C_10 
ROOT
HETATM    1  C   UNL     1      -7.390   0.040 -33.842  1.00  0.00     0.047 A 
HETATM    2  N   UNL     1      -8.720  -0.289 -33.653  1.00  0.00    -0.344 N 
HETATM    3  C   UNL     1      -9.684   0.674 -33.509  1.00  0.00     0.119 A 
HETATM    4  C   UNL     1      -9.385   1.978 -33.630  1.00  0.00     0.123 A 
HETATM    5  C   UNL     1     -10.649   2.722 -33.511  1.00  0.00     0.280 A 
HETATM    6  O   UNL     1     -10.760   3.931 -33.590  1.00  0.00    -0.265 OA
HETATM    7  N   UNL     1     -11.635   1.742 -33.308  1.00  0.00    -0.236 N 
HETATM    8  N   UNL     1     -11.030   0.467 -33.272  1.00  0.00    -0.179 NA
HETATM    9  C   UNL     1      -8.009   2.406 -33.893  1.00  0.00     0.193 A 
HETATM   10  O   UNL     1      -7.672   3.574 -34.036  1.00  0.00    -0.287 OA
HETATM   11  C   UNL     1      -6.990   1.318 -33.979  1.00  0.00     0.086 A 
HETATM   12  H   UNL     1      -8.939  -1.225 -33.328  1.00  0.00     0.167 HD
HETATM   13  H   UNL     1     -11.419  -0.167 -33.970  1.00  0.00     0.155 HD
ENDROOT
BRANCH   1  14
HETATM   14  C   UNL     1      -6.415  -1.064 -33.914  1.00  0.00    -0.009 A 
HETATM   15  C   UNL     1      -5.174  -0.982 -33.263  1.00  0.00     0.015 A 
HETATM   16  C   UNL     1      -4.262  -2.039 -33.333  1.00  0.00     0.024 A 
HETATM   17  C   UNL     1      -4.585  -3.187 -34.052  1.00  0.00     0.034 A 
HETATM   18  C   UNL     1      -5.814  -3.289 -34.700  1.00  0.00     0.024 A 
HETATM   19 CL   UNL     1      -3.464  -4.487 -34.138  1.00  0.00    -0.084 Cl
HETATM   20  C   UNL     1      -6.725  -2.231 -34.631  1.00  0.00     0.015 A 
ENDBRANCH   1  14
BRANCH   7  21
HETATM   21  C   UNL     1     -13.025   1.888 -33.111  1.00  0.00     0.055 A 
HETATM   22  C   UNL     1     -13.946   1.100 -33.818  1.00  0.00     0.034 A 
HETATM   23  C   UNL     1     -15.323   1.239 -33.607  1.00  0.00     0.044 A 
HETATM   24  C   UNL     1     -15.786   2.169 -32.689  1.00  0.00     0.116 A 
HETATM   25  F   UNL     1     -17.103   2.302 -32.486  1.00  0.00    -0.206 F 
HETATM   26  C   UNL     1     -14.900   2.968 -31.981  1.00  0.00     0.044 A 
HETATM   27  C   UNL     1     -13.524   2.827 -32.192  1.00  0.00     0.034 A 
ENDBRANCH   7  21
TORSDOF 2
ENDMDL
MODEL 2
REMARK VINA RESULT:      -9.3      6.545      9.084
REMARK  2 active torsions:
REMARK  status: ('A' for Active; 'I' for Inactive)
REMARK    1  A    between atoms: C_2  and  C_3 
REMARK    2  A    between atoms: N_9  and  C_10 
ROOT
HETATM    1  C   UNL     1      -5.278   1.122 -33.239  1.00  0.00     0.047 A 
HETATM    2  N   UNL     1      -4.060   1.507 -32.710  1.00  0.00    -0.344 N 
HETATM    3  C   UNL     1      -3.808   2.807 -32.362  1.00  0.00     0.119 A 
HETATM    4  C   UNL     1      -4.766   3.745 -32.442  1.00  0.00     0.123 A 
HETATM    5  C   UNL     1      -4.193   4.992 -31.912  1.00  0.00     0.280 A 
HETATM    6  O   UNL     1      -4.786   6.050 -31.815  1.00  0.00    -0.265 OA
HETATM    7  N   UNL     1      -2.873   4.669 -31.557  1.00  0.00    -0.236 N 
HETATM    8  N   UNL     1      -2.620   3.315 -31.869  1.00  0.00    -0.179 NA
HETATM    9  C   UNL     1      -6.103   3.404 -32.932  1.00  0.00     0.193 A 
HETATM   10  O   UNL     1      -7.028   4.202 -33.009  1.00  0.00    -0.287 OA
HETATM   11  C   UNL     1      -6.304   1.986 -33.356  1.00  0.00     0.086 A 
HETATM   12  H   UNL     1      -3.262   0.895 -32.855  1.00  0.00     0.167 HD
HETATM   13  H   UNL     1      -2.316   2.780 -31.056  1.00  0.00     0.155 HD
ENDROOT
BRANCH   1  14
HETATM   14  C   UNL     1      -5.432  -0.286 -33.652  1.00  0.00    -0.009 A 
HETATM   15  C   UNL     1      -6.640  -0.757 -34.191  1.00  0.00     0.015 A 
HETATM   16  C   UNL     1      -6.770  -2.092 -34.586  1.00  0.00     0.024 A 
HETATM   17  C   UNL     1      -5.693  -2.964 -34.448  1.00  0.00     0.034 A 
HETATM   18  C   UNL     1      -4.485  -2.513 -33.920  1.00  0.00     0.024 A 
HETATM   19 CL   UNL     1      -5.853  -4.606 -34.933  1.00  0.00    -0.084 Cl
HETATM   20  C   UNL     1      -4.356  -1.178 -33.523  1.00  0.00     0.015 A 
ENDBRANCH   1  14
BRANCH   7  21
HETATM   21  C   UNL     1      -1.857   5.486 -31.016  1.00  0.00     0.055 A 
HETATM   22  C   UNL     1      -2.144   6.454 -30.041  1.00  0.00     0.034 A 
HETATM   23  C   UNL     1      -1.130   7.251 -29.498  1.00  0.00     0.044 A 
HETATM   24  C   UNL     1       0.177   7.087 -29.930  1.00  0.00     0.116 A 
HETATM   25  F   UNL     1       1.148   7.849 -29.411  1.00  0.00    -0.206 F 
HETATM   26  C   UNL     1       0.491   6.144 -30.899  1.00  0.00     0.044 A 
HETATM   27  C   UNL     1      -0.524   5.347 -31.440  1.00  0.00     0.034 A 
ENDBRANCH   7  21
TORSDOF 2
ENDMDL
MODEL 3
REMARK VINA RESULT:      -9.3      8.806     10.850
REMARK  2 active torsions:
REMARK  status: ('A' for Active; 'I' for Inactive)
REMARK    1  A    between atoms: C_2  and  C_3 
REMARK    2  A    between atoms: N_9  and  C_10 
ROOT
HETATM    1  C   UNL     1      -0.362   6.442 -30.136  1.00  0.00     0.047 A 
HETATM    2  N   UNL     1      -1.107   5.286 -29.993  1.00  0.00    -0.344 N 
HETATM    3  C   UNL     1      -1.806   4.749 -31.042  1.00  0.00     0.119 A 
HETATM    4  C   UNL     1      -1.727   5.280 -32.273  1.00  0.00     0.123 A 
HETATM    5  C   UNL     1      -2.516   4.418 -33.166  1.00  0.00     0.280 A 
HETATM    6  O   UNL     1      -2.652   4.588 -34.364  1.00  0.00    -0.265 OA
HETATM    7  N   UNL     1      -3.030   3.405 -32.340  1.00  0.00    -0.236 N 
HETATM    8  N   UNL     1      -2.617   3.630 -31.008  1.00  0.00    -0.179 NA
HETATM    9  C   UNL     1      -0.908   6.469 -32.520  1.00  0.00     0.193 A 
HETATM   10  O   UNL     1      -0.772   6.991 -33.619  1.00  0.00    -0.287 OA
HETATM   11  C   UNL     1      -0.217   7.048 -31.329  1.00  0.00     0.086 A 
HETATM   12  H   UNL     1      -1.375   5.002 -29.056  1.00  0.00     0.167 HD
HETATM   13  H   UNL     1      -2.107   2.835 -30.621  1.00  0.00     0.155 HD
ENDROOT
BRANCH   1  14
HETATM   14  C   UNL     1       0.298   6.984 -28.933  1.00  0.00    -0.009 A 
HETATM   15  C   UNL     1       0.216   6.321 -27.698  1.00  0.00     0.015 A 
HETATM   16  C   UNL     1       0.853   6.842 -26.568  1.00  0.00     0.024 A 
HETATM   17  C   UNL     1       1.578   8.027 -26.664  1.00  0.00     0.034 A 
HETATM   18  C   UNL     1       1.675   8.696 -27.883  1.00  0.00     0.024 A 
HETATM   19 CL   UNL     1       2.362   8.667 -25.275  1.00  0.00    -0.084 Cl
HETATM   20  C   UNL     1       1.037   8.175 -29.013  1.00  0.00     0.015 A 
ENDBRANCH   1  14
BRANCH   7  21
HETATM   21  C   UNL     1      -3.871   2.318 -32.661  1.00  0.00     0.055 A 
HETATM   22  C   UNL     1      -5.189   2.521 -33.096  1.00  0.00     0.034 A 
HETATM   23  C   UNL     1      -6.013   1.439 -33.426  1.00  0.00     0.044 A 
HETATM   24  C   UNL     1      -5.524   0.146 -33.320  1.00  0.00     0.116 A 
HETATM   25  F   UNL     1      -6.312  -0.889 -33.637  1.00  0.00    -0.206 F 
HETATM   26  C   UNL     1      -4.227  -0.087 -32.885  1.00  0.00     0.044 A 
HETATM   27  C   UNL     1      -3.404   0.995 -32.556  1.00  0.00     0.034 A 
ENDBRANCH   7  21
TORSDOF 2
ENDMDL
MODEL 4
REMARK VINA RESULT:      -9.2      4.399      8.593
REMARK  2 active torsions:
REMARK  status: ('A' for Active; 'I' for Inactive)
REMARK    1  A    between atoms: C_2  and  C_3 
REMARK    2  A    between atoms: N_9  and  C_10 
ROOT
HETATM    1  C   UNL     1     -11.474   2.262 -33.282  1.00  0.00     0.047 A 
HETATM    2  N   UNL     1     -10.860   1.025 -33.203  1.00  0.00    -0.344 N 
HETATM    3  C   UNL     1      -9.546   0.853 -33.548  1.00  0.00     0.119 A 
HETATM    4  C   UNL     1      -8.778   1.898 -33.898  1.00  0.00     0.123 A 
HETATM    5  C   UNL     1      -7.419   1.380 -34.115  1.00  0.00     0.280 A 
HETATM    6  O   UNL     1      -6.454   2.053 -34.427  1.00  0.00    -0.265 OA
HETATM    7  N   UNL     1      -7.508  -0.001 -33.873  1.00  0.00    -0.236 N 
HETATM    8  N   UNL     1      -8.842  -0.337 -33.554  1.00  0.00    -0.179 NA
HETATM    9  C   UNL     1      -9.337   3.251 -33.945  1.00  0.00     0.193 A 
HETATM   10  O   UNL     1      -8.690   4.249 -34.232  1.00  0.00    -0.287 OA
HETATM   11  C   UNL     1     -10.789   3.371 -33.618  1.00  0.00     0.086 A 
HETATM   12  H   UNL     1     -11.451   0.200 -33.175  1.00  0.00     0.167 HD
HETATM   13  H   UNL     1      -8.920  -0.798 -32.647  1.00  0.00     0.155 HD
ENDROOT
BRANCH   1  14
HETATM   14  C   UNL     1     -12.911   2.336 -32.958  1.00  0.00    -0.009 A 
HETATM   15  C   UNL     1     -13.819   1.391 -33.463  1.00  0.00     0.015 A 
HETATM   16  C   UNL     1     -15.178   1.468 -33.141  1.00  0.00     0.024 A 
HETATM   17  C   UNL     1     -15.637   2.487 -32.311  1.00  0.00     0.034 A 
HETATM   18  C   UNL     1     -14.750   3.429 -31.795  1.00  0.00     0.024 A 
HETATM   19 CL   UNL     1     -17.308   2.581 -31.915  1.00  0.00    -0.084 Cl
HETATM   20  C   UNL     1     -13.392   3.353 -32.119  1.00  0.00     0.015 A 
ENDBRANCH   1  14
BRANCH   7  21
HETATM   21  C   UNL     1      -6.512  -0.998 -33.952  1.00  0.00     0.055 A 
HETATM   22  C   UNL     1      -5.287  -0.857 -33.282  1.00  0.00     0.034 A 
HETATM   23  C   UNL     1      -4.310  -1.856 -33.353  1.00  0.00     0.044 A 
HETATM   24  C   UNL     1      -4.551  -3.001 -34.097  1.00  0.00     0.116 A 
HETATM   25  F   UNL     1      -3.616  -3.958 -34.164  1.00  0.00    -0.206 F 
HETATM   26  C   UNL     1      -5.749  -3.165 -34.776  1.00  0.00     0.044 A 
HETATM   27  C   UNL     1      -6.726  -2.166 -34.704  1.00  0.00     0.034 A 
ENDBRANCH   7  21
TORSDOF 2
ENDMDL
MODEL 5
REMARK VINA RESULT:      -8.6      6.203      8.650
REMARK  2 active torsions:
REMARK  status: ('A' for Active; 'I' for Inactive)
REMARK    1  A    between atoms: C_2  and  C_3 
REMARK    2  A    between atoms: N_9  and  C_10 
ROOT
HETATM    1  C   UNL     1      -3.525   4.379 -31.750  1.00  0.00     0.047 A 
HETATM    2  N   UNL     1      -3.259   3.041 -31.974  1.00  0.00    -0.344 N 
HETATM    3  C   UNL     1      -4.194   2.206 -32.524  1.00  0.00     0.119 A 
HETATM    4  C   UNL     1      -5.381   2.674 -32.945  1.00  0.00     0.123 A 
HETATM    5  C   UNL     1      -6.097   1.545 -33.557  1.00  0.00     0.280 A 
HETATM    6  O   UNL     1      -7.202   1.608 -34.064  1.00  0.00    -0.265 OA
HETATM    7  N   UNL     1      -5.232   0.446 -33.428  1.00  0.00    -0.236 N 
HETATM    8  N   UNL     1      -4.059   0.849 -32.752  1.00  0.00    -0.179 NA
HETATM    9  C   UNL     1      -5.715   4.093 -32.802  1.00  0.00     0.193 A 
HETATM   10  O   UNL     1      -6.766   4.591 -33.183  1.00  0.00    -0.287 OA
HETATM   11  C   UNL     1      -4.683   4.946 -32.140  1.00  0.00     0.086 A 
HETATM   12  H   UNL     1      -2.489   2.616 -31.466  1.00  0.00     0.167 HD
HETATM   13  H   UNL     1      -3.216   0.664 -33.295  1.00  0.00     0.155 HD
ENDROOT
BRANCH   1  14
HETATM   14  C   UNL     1      -2.481   5.184 -31.087  1.00  0.00    -0.009 A 
HETATM   15  C   UNL     1      -1.127   4.822 -31.164  1.00  0.00     0.015 A 
HETATM   16  C   UNL     1      -0.147   5.599 -30.537  1.00  0.00     0.024 A 
HETATM   17  C   UNL     1      -0.514   6.743 -29.834  1.00  0.00     0.034 A 
HETATM   18  C   UNL     1      -1.852   7.121 -29.752  1.00  0.00     0.024 A 
HETATM   19 CL   UNL     1       0.691   7.698 -29.064  1.00  0.00    -0.084 Cl
HETATM   20  C   UNL     1      -2.832   6.343 -30.377  1.00  0.00     0.015 A 
ENDBRANCH   1  14
BRANCH   7  21
HETATM   21  C   UNL     1      -5.412  -0.897 -33.822  1.00  0.00     0.055 A 
HETATM   22  C   UNL     1      -4.340  -1.803 -33.832  1.00  0.00     0.034 A 
HETATM   23  C   UNL     1      -4.528  -3.136 -34.210  1.00  0.00     0.044 A 
HETATM   24  C   UNL     1      -5.790  -3.572 -34.584  1.00  0.00     0.116 A 
HETATM   25  F   UNL     1      -5.971  -4.849 -34.945  1.00  0.00    -0.206 F 
HETATM   26  C   UNL     1      -6.868  -2.699 -34.592  1.00  0.00     0.044 A 
HETATM   27  C   UNL     1      -6.679  -1.366 -34.213  1.00  0.00     0.034 A 
ENDBRANCH   7  21
TORSDOF 2
ENDMDL
MODEL 6
REMARK VINA RESULT:      -8.6      4.936      8.576
REMARK  2 active torsions:
REMARK  status: ('A' for Active; 'I' for Inactive)
REMARK    1  A    between atoms: C_2  and  C_3 
REMARK    2  A    between atoms: N_9  and  C_10 
ROOT
HETATM    1  C   UNL     1      -9.609   2.932 -33.868  1.00  0.00     0.047 A 
HETATM    2  N   UNL     1      -9.249   1.795 -34.568  1.00  0.00    -0.344 N 
HETATM    3  C   UNL     1      -8.328   0.910 -34.074  1.00  0.00     0.119 A 
HETATM    4  C   UNL     1      -7.799   1.070 -32.850  1.00  0.00     0.123 A 
HETATM    5  C   UNL     1      -6.929  -0.090 -32.602  1.00  0.00     0.280 A 
HETATM    6  O   UNL     1      -6.298  -0.286 -31.579  1.00  0.00    -0.265 OA
HETATM    7  N   UNL     1      -7.013  -0.870 -33.767  1.00  0.00    -0.236 N 
HETATM    8  N   UNL     1      -7.858  -0.230 -34.700  1.00  0.00    -0.179 NA
HETATM    9  C   UNL     1      -8.177   2.215 -32.019  1.00  0.00     0.193 A 
HETATM   10  O   UNL     1      -7.752   2.410 -30.888  1.00  0.00    -0.287 OA
HETATM   11  C   UNL     1      -9.138   3.181 -32.632  1.00  0.00     0.086 A 
HETATM   12  H   UNL     1      -9.441   1.767 -35.565  1.00  0.00     0.167 HD
HETATM   13  H   UNL     1      -8.638  -0.822 -34.987  1.00  0.00     0.155 HD
ENDROOT
BRANCH   1  14
HETATM   14  C   UNL     1     -10.556   3.862 -34.513  1.00  0.00    -0.009 A 
HETATM   15  C   UNL     1     -11.850   3.450 -34.870  1.00  0.00     0.015 A 
HETATM   16  C   UNL     1     -12.739   4.345 -35.473  1.00  0.00     0.024 A 
HETATM   17  C   UNL     1     -12.343   5.657 -35.719  1.00  0.00     0.034 A 
HETATM   18  C   UNL     1     -11.065   6.085 -35.366  1.00  0.00     0.024 A 
HETATM   19 CL   UNL     1     -13.438   6.757 -36.459  1.00  0.00    -0.084 Cl
HETATM   20  C   UNL     1     -10.175   5.189 -34.764  1.00  0.00     0.015 A 
ENDBRANCH   1  14
BRANCH   7  21
HETATM   21  C   UNL     1      -6.371  -2.084 -34.089  1.00  0.00     0.055 A 
HETATM   22  C   UNL     1      -4.981  -2.229 -33.957  1.00  0.00     0.034 A 
HETATM   23  C   UNL     1      -4.351  -3.440 -34.265  1.00  0.00     0.044 A 
HETATM   24  C   UNL     1      -5.108  -4.513 -34.711  1.00  0.00     0.116 A 
HETATM   25  F   UNL     1      -4.506  -5.673 -35.005  1.00  0.00    -0.206 F 
HETATM   26  C   UNL     1      -6.483  -4.398 -34.859  1.00  0.00     0.044 A 
HETATM   27  C   UNL     1      -7.111  -3.187 -34.550  1.00  0.00     0.034 A 
ENDBRANCH   7  21
TORSDOF 2
ENDMDL
MODEL 7
REMARK VINA RESULT:      -8.5      6.024      9.105
REMARK  2 active torsions:
REMARK  status: ('A' for Active; 'I' for Inactive)
REMARK    1  A    between atoms: C_2  and  C_3 
REMARK    2  A    between atoms: N_9  and  C_10 
ROOT
HETATM    1  C   UNL     1      -8.024   1.191 -33.043  1.00  0.00     0.047 A 
HETATM    2  N   UNL     1      -7.326   2.376 -33.184  1.00  0.00    -0.344 N 
HETATM    3  C   UNL     1      -6.017   2.489 -32.799  1.00  0.00     0.119 A 
HETATM    4  C   UNL     1      -5.333   1.425 -32.344  1.00  0.00     0.123 A 
HETATM    5  C   UNL     1      -3.951   1.870 -32.110  1.00  0.00     0.280 A 
HETATM    6  O   UNL     1      -3.045   1.161 -31.712  1.00  0.00    -0.265 OA
HETATM    7  N   UNL     1      -3.939   3.232 -32.453  1.00  0.00    -0.236 N 
HETATM    8  N   UNL     1      -5.236   3.628 -32.849  1.00  0.00    -0.179 NA
HETATM    9  C   UNL     1      -5.983   0.118 -32.225  1.00  0.00     0.193 A 
HETATM   10  O   UNL     1      -5.415  -0.896 -31.841  1.00  0.00    -0.287 OA
HETATM   11  C   UNL     1      -7.427   0.067 -32.600  1.00  0.00     0.086 A 
HETATM   12  H   UNL     1      -7.859   3.233 -33.295  1.00  0.00     0.167 HD
HETATM   13  H   UNL     1      -5.249   4.025 -33.789  1.00  0.00     0.155 HD
ENDROOT
BRANCH   1  14
HETATM   14  C   UNL     1      -9.450   1.185 -33.419  1.00  0.00    -0.009 A 
HETATM   15  C   UNL     1      -9.987   2.184 -34.247  1.00  0.00     0.015 A 
HETATM   16  C   UNL     1     -11.339   2.162 -34.603  1.00  0.00     0.024 A 
HETATM   17  C   UNL     1     -12.163   1.142 -34.135  1.00  0.00     0.034 A 
HETATM   18  C   UNL     1     -11.647   0.139 -33.317  1.00  0.00     0.024 A 
HETATM   19 CL   UNL     1     -13.825   1.115 -34.573  1.00  0.00    -0.084 Cl
HETATM   20  C   UNL     1     -10.294   0.162 -32.960  1.00  0.00     0.015 A 
ENDBRANCH   1  14
BRANCH   7  21
HETATM   21  C   UNL     1      -2.883   4.166 -32.405  1.00  0.00     0.055 A 
HETATM   22  C   UNL     1      -2.234   4.592 -33.574  1.00  0.00     0.034 A 
HETATM   23  C   UNL     1      -1.196   5.530 -33.520  1.00  0.00     0.044 A 
HETATM   24  C   UNL     1      -0.799   6.045 -32.296  1.00  0.00     0.116 A 
HETATM   25  F   UNL     1       0.193   6.943 -32.244  1.00  0.00    -0.206 F 
HETATM   26  C   UNL     1      -1.416   5.637 -31.122  1.00  0.00     0.044 A 
HETATM   27  C   UNL     1      -2.454   4.700 -31.177  1.00  0.00     0.034 A 
ENDBRANCH   7  21
TORSDOF 2
ENDMDL
MODEL 8
REMARK VINA RESULT:      -8.5      8.900     11.123
REMARK  2 active torsions:
REMARK  status: ('A' for Active; 'I' for Inactive)
REMARK    1  A    between atoms: C_2  and  C_3 
REMARK    2  A    between atoms: N_9  and  C_10 
ROOT
HETATM    1  C   UNL     1      -3.500   3.967 -32.480  1.00  0.00     0.047 A 
HETATM    2  N   UNL     1      -3.005   4.326 -31.240  1.00  0.00    -0.344 N 
HETATM    3  C   UNL     1      -2.329   5.502 -31.050  1.00  0.00     0.119 A 
HETATM    4  C   UNL     1      -2.193   6.393 -32.046  1.00  0.00     0.123 A 
HETATM    5  C   UNL     1      -1.505   7.565 -31.483  1.00  0.00     0.280 A 
HETATM    6  O   UNL     1      -1.231   8.579 -32.100  1.00  0.00    -0.265 OA
HETATM    7  N   UNL     1      -1.271   7.244 -30.137  1.00  0.00    -0.236 N 
HETATM    8  N   UNL     1      -1.752   5.943 -29.873  1.00  0.00    -0.179 NA
HETATM    9  C   UNL     1      -2.745   6.116 -33.374  1.00  0.00     0.193 A 
HETATM   10  O   UNL     1      -2.678   6.892 -34.318  1.00  0.00    -0.287 OA
HETATM   11  C   UNL     1      -3.418   4.793 -33.541  1.00  0.00     0.086 A 
HETATM   12  H   UNL     1      -2.882   3.596 -30.546  1.00  0.00     0.167 HD
HETATM   13  H   UNL     1      -2.437   5.928 -29.117  1.00  0.00     0.155 HD
ENDROOT
BRANCH   1  14
HETATM   14  C   UNL     1      -4.151   2.649 -32.604  1.00  0.00    -0.009 A 
HETATM   15  C   UNL     1      -3.473   1.469 -32.257  1.00  0.00     0.015 A 
HETATM   16  C   UNL     1      -4.105   0.227 -32.372  1.00  0.00     0.024 A 
HETATM   17  C   UNL     1      -5.418   0.156 -32.829  1.00  0.00     0.034 A 
HETATM   18  C   UNL     1      -6.108   1.317 -33.172  1.00  0.00     0.024 A 
HETATM   19 CL   UNL     1      -6.195  -1.371 -32.969  1.00  0.00    -0.084 Cl
HETATM   20  C   UNL     1      -5.475   2.559 -33.059  1.00  0.00     0.015 A 
ENDBRANCH   1  14
BRANCH   7  21
HETATM   21  C   UNL     1      -0.627   7.992 -29.128  1.00  0.00     0.055 A 
HETATM   22  C   UNL     1       0.722   7.774 -28.809  1.00  0.00     0.034 A 
HETATM   23  C   UNL     1       1.359   8.529 -27.818  1.00  0.00     0.044 A 
HETATM   24  C   UNL     1       0.649   9.507 -27.138  1.00  0.00     0.116 A 
HETATM   25  F   UNL     1       1.258  10.231 -26.190  1.00  0.00    -0.206 F 
HETATM   26  C   UNL     1      -0.688   9.741 -27.426  1.00  0.00     0.044 A 
HETATM   27  C   UNL     1      -1.323   8.986 -28.418  1.00  0.00     0.034 A 
ENDBRANCH   7  21
TORSDOF 2
ENDMDL
MODEL 9
REMARK VINA RESULT:      -8.4      6.807      8.842
REMARK  2 active torsions:
REMARK  status: ('A' for Active; 'I' for Inactive)
REMARK    1  A    between atoms: C_2  and  C_3 
REMARK    2  A    between atoms: N_9  and  C_10 
ROOT
HETATM    1  C   UNL     1      -3.198   5.918 -31.127  1.00  0.00     0.047 A 
HETATM    2  N   UNL     1      -3.164   4.559 -31.380  1.00  0.00    -0.344 N 
HETATM    3  C   UNL     1      -4.203   3.919 -32.002  1.00  0.00     0.119 A 
HETATM    4  C   UNL     1      -5.262   4.604 -32.466  1.00  0.00     0.123 A 
HETATM    5  C   UNL     1      -6.135   3.636 -33.148  1.00  0.00     0.280 A 
HETATM    6  O   UNL     1      -7.182   3.909 -33.706  1.00  0.00    -0.265 OA
HETATM    7  N   UNL     1      -5.489   2.397 -33.011  1.00  0.00    -0.236 N 
HETATM    8  N   UNL     1      -4.301   2.566 -32.266  1.00  0.00    -0.179 NA
HETATM    9  C   UNL     1      -5.344   6.056 -32.294  1.00  0.00     0.193 A 
HETATM   10  O   UNL     1      -6.266   6.743 -32.711  1.00  0.00    -0.287 OA
HETATM   11  C   UNL     1      -4.213   6.693 -31.555  1.00  0.00     0.086 A 
HETATM   12  H   UNL     1      -2.512   3.990 -30.849  1.00  0.00     0.167 HD
HETATM   13  H   UNL     1      -3.477   2.243 -32.773  1.00  0.00     0.155 HD
ENDROOT
BRANCH   1  14
HETATM   14  C   UNL     1      -2.064   6.506 -30.388  1.00  0.00    -0.009 A 
HETATM   15  C   UNL     1      -2.274   7.347 -29.284  1.00  0.00     0.015 A 
HETATM   16  C   UNL     1      -1.191   7.891 -28.588  1.00  0.00     0.024 A 
HETATM   17  C   UNL     1       0.109   7.595 -28.988  1.00  0.00     0.034 A 
HETATM   18  C   UNL     1       0.338   6.758 -30.078  1.00  0.00     0.024 A 
HETATM   19 CL   UNL     1       1.442   8.264 -28.132  1.00  0.00    -0.084 Cl
HETATM   20  C   UNL     1      -0.747   6.215 -30.775  1.00  0.00     0.015 A 
ENDBRANCH   1  14
BRANCH   7  21
HETATM   21  C   UNL     1      -5.885   1.118 -33.456  1.00  0.00     0.055 A 
HETATM   22  C   UNL     1      -6.681   0.960 -34.602  1.00  0.00     0.034 A 
HETATM   23  C   UNL     1      -7.058  -0.312 -35.046  1.00  0.00     0.044 A 
HETATM   24  C   UNL     1      -6.645  -1.435 -34.346  1.00  0.00     0.116 A 
HETATM   25  F   UNL     1      -7.005  -2.653 -34.771  1.00  0.00    -0.206 F 
HETATM   26  C   UNL     1      -5.865  -1.311 -33.205  1.00  0.00     0.044 A 
HETATM   27  C   UNL     1      -5.487  -0.039 -32.762  1.00  0.00     0.034 A 
ENDBRANCH   7  21
TORSDOF 2
ENDMDL
MODEL 10
REMARK VINA RESULT:      -8.4      7.491     10.159
REMARK  2 active torsions:
REMARK  status: ('A' for Active; 'I' for Inactive)
REMARK    1  A    between atoms: C_2  and  C_3 
REMARK    2  A    between atoms: N_9  and  C_10 
ROOT
HETATM    1  C   UNL     1      -5.847   3.354 -33.127  1.00  0.00     0.047 A 
HETATM    2  N   UNL     1      -5.159   3.630 -31.960  1.00  0.00    -0.344 N 
HETATM    3  C   UNL     1      -4.048   4.429 -31.954  1.00  0.00     0.119 A 
HETATM    4  C   UNL     1      -3.630   5.046 -33.072  1.00  0.00     0.123 A 
HETATM    5  C   UNL     1      -2.482   5.885 -32.698  1.00  0.00     0.280 A 
HETATM    6  O   UNL     1      -1.860   6.602 -33.460  1.00  0.00    -0.265 OA
HETATM    7  N   UNL     1      -2.303   5.672 -31.321  1.00  0.00    -0.236 N 
HETATM    8  N   UNL     1      -3.257   4.737 -30.863  1.00  0.00    -0.179 NA
HETATM    9  C   UNL     1      -4.342   4.856 -34.338  1.00  0.00     0.193 A 
HETATM   10  O   UNL     1      -4.031   5.404 -35.387  1.00  0.00    -0.287 OA
HETATM   11  C   UNL     1      -5.510   3.926 -34.299  1.00  0.00     0.086 A 
HETATM   12  H   UNL     1      -5.298   3.012 -31.167  1.00  0.00     0.167 HD
HETATM   13  H   UNL     1      -3.829   5.108 -30.104  1.00  0.00     0.155 HD
ENDROOT
BRANCH   1  14
HETATM   14  C   UNL     1      -6.990   2.425 -33.046  1.00  0.00    -0.009 A 
HETATM   15  C   UNL     1      -7.592   1.911 -34.206  1.00  0.00     0.015 A 
HETATM   16  C   UNL     1      -8.669   1.024 -34.115  1.00  0.00     0.024 A 
HETATM   17  C   UNL     1      -9.150   0.643 -32.865  1.00  0.00     0.034 A 
HETATM   18  C   UNL     1      -8.562   1.139 -31.703  1.00  0.00     0.024 A 
HETATM   19 CL   UNL     1     -10.475  -0.447 -32.753  1.00  0.00    -0.084 Cl
HETATM   20  C   UNL     1      -7.485   2.027 -31.795  1.00  0.00     0.015 A 
ENDBRANCH   1  14
BRANCH   7  21
HETATM   21  C   UNL     1      -1.336   6.206 -30.443  1.00  0.00     0.055 A 
HETATM   22  C   UNL     1      -1.443   7.517 -29.953  1.00  0.00     0.034 A 
HETATM   23  C   UNL     1      -0.488   8.036 -29.071  1.00  0.00     0.044 A 
HETATM   24  C   UNL     1       0.581   7.247 -28.675  1.00  0.00     0.116 A 
HETATM   25  F   UNL     1       1.494   7.743 -27.830  1.00  0.00    -0.206 F 
HETATM   26  C   UNL     1       0.718   5.950 -29.149  1.00  0.00     0.044 A 
HETATM   27  C   UNL     1      -0.237   5.433 -30.030  1.00  0.00     0.034 A 
ENDBRANCH   7  21
TORSDOF 2
ENDMDL
