MODEL 1
REMARK VINA RESULT:      -9.6      0.000      0.000
REMARK  7 active torsions:
REMARK  status: ('A' for Active; 'I' for Inactive)
REMARK    1  A    between atoms: C_12  and  S_13 
REMARK    2  A    between atoms: S_13  and  C_14 
REMARK    3  A    between atoms: C_14  and  C_15 
REMARK       I    between atoms: C_15  and  N_16 
REMARK    4  A    between atoms: N_16  and  C_17 
REMARK    5  A    between atoms: C_17  and  C_18 
REMARK    6  A    between atoms: C_18  and  C_19 
REMARK    7  A    between atoms: C_22  and  O_23 
ROOT
HETATM    1  S   UNL     1      -5.200   2.801 -32.543  1.00  0.00    -0.080 SA
ENDROOT
BRANCH   1   2
HETATM    2  C   UNL     1      -4.172   1.485 -32.087  1.00  0.00     0.197 A 
HETATM    3  N   UNL     1      -4.254   0.165 -32.503  1.00  0.00    -0.271 N 
HETATM    4  C   UNL     1      -5.110  -0.554 -33.390  1.00  0.00     0.054 A 
HETATM    5  C   UNL     1      -3.210  -0.451 -31.821  1.00  0.00     0.159 A 
HETATM    6  C   UNL     1      -4.852  -1.940 -33.543  1.00  0.00    -0.003 A 
HETATM    7  C   UNL     1      -6.163   0.039 -34.097  1.00  0.00     0.031 A 
HETATM    8  C   UNL     1      -3.733  -2.579 -32.803  1.00  0.00    -0.046 A 
HETATM    9  C   UNL     1      -5.671  -2.687 -34.406  1.00  0.00     0.014 A 
HETATM   10  C   UNL     1      -3.458  -4.048 -32.967  1.00  0.00     0.049 C 
HETATM   11  C   UNL     1      -2.971  -1.831 -31.988  1.00  0.00     0.060 A 
HETATM   12  C   UNL     1      -6.718  -2.086 -35.103  1.00  0.00     0.001 A 
HETATM   13  C   UNL     1      -6.961  -0.727 -34.949  1.00  0.00     0.002 A 
HETATM   14  N   UNL     1      -2.570   0.423 -31.075  1.00  0.00    -0.129 NA
HETATM   15  N   UNL     1      -3.173   1.635 -31.244  1.00  0.00    -0.122 NA
ENDBRANCH   1   2
BRANCH   1  16
HETATM   16  C   UNL     1      -3.964   4.085 -32.903  1.00  0.00     0.185 C 
BRANCH  16  17
HETATM   17  C   UNL     1      -4.327   4.824 -34.184  1.00  0.00     0.227 C 
HETATM   18  N   UNL     1      -3.334   5.442 -34.893  1.00  0.00    -0.360 N 
HETATM   19  H   UNL     1      -3.676   5.918 -35.721  1.00  0.00     0.162 HD
HETATM   20  O   UNL     1      -5.471   4.865 -34.639  1.00  0.00    -0.273 OA
BRANCH  18  21
HETATM   21  C   UNL     1      -1.920   5.514 -34.564  1.00  0.00     0.127 C 
BRANCH  21  22
HETATM   22  C   UNL     1      -1.572   6.804 -33.824  1.00  0.00     0.058 C 
BRANCH  22  23
HETATM   23  C   UNL     1      -1.043   6.530 -32.441  1.00  0.00    -0.057 A 
HETATM   24  C   UNL     1      -0.644   5.239 -32.077  1.00  0.00     0.010 A 
HETATM   25  C   UNL     1      -0.172   4.984 -30.787  1.00  0.00     0.037 A 
HETATM   26  C   UNL     1      -0.095   6.008 -29.840  1.00  0.00     0.068 A 
HETATM   27  C   UNL     1      -0.498   7.294 -30.196  1.00  0.00     0.037 A 
HETATM   28  C   UNL     1      -0.970   7.553 -31.487  1.00  0.00     0.010 A 
BRANCH  26  29
HETATM   29  O   UNL     1       0.385   5.621 -28.619  1.00  0.00    -0.356 OA
HETATM   30  C   UNL     1      -0.121   6.310 -27.483  1.00  0.00     0.210 C 
ENDBRANCH  26  29
ENDBRANCH  22  23
ENDBRANCH  21  22
ENDBRANCH  18  21
ENDBRANCH  16  17
ENDBRANCH   1  16
TORSDOF 7
ENDMDL
MODEL 2
REMARK VINA RESULT:      -8.9      1.355      2.825
REMARK  7 active torsions:
REMARK  status: ('A' for Active; 'I' for Inactive)
REMARK    1  A    between atoms: C_12  and  S_13 
REMARK    2  A    between atoms: S_13  and  C_14 
REMARK    3  A    between atoms: C_14  and  C_15 
REMARK       I    between atoms: C_15  and  N_16 
REMARK    4  A    between atoms: N_16  and  C_17 
REMARK    5  A    between atoms: C_17  and  C_18 
REMARK    6  A    between atoms: C_18  and  C_19 
REMARK    7  A    between atoms: C_22  and  O_23 
ROOT
HETATM    1  S   UNL     1      -5.153   3.480 -32.237  1.00  0.00    -0.080 SA
ENDROOT
BRANCH   1   2
HETATM    2  C   UNL     1      -6.006   2.360 -33.245  1.00  0.00     0.197 A 
HETATM    3  N   UNL     1      -5.742   1.010 -33.422  1.00  0.00    -0.271 N 
HETATM    4  C   UNL     1      -4.781   0.100 -32.888  1.00  0.00     0.054 A 
HETATM    5  C   UNL     1      -6.708   0.613 -34.340  1.00  0.00     0.159 A 
HETATM    6  C   UNL     1      -4.851  -1.240 -33.345  1.00  0.00    -0.003 A 
HETATM    7  C   UNL     1      -3.803   0.468 -31.957  1.00  0.00     0.031 A 
HETATM    8  C   UNL     1      -5.888  -1.644 -34.328  1.00  0.00    -0.046 A 
HETATM    9  C   UNL     1      -3.923  -2.171 -32.846  1.00  0.00     0.014 A 
HETATM   10  C   UNL     1      -5.963  -3.066 -34.810  1.00  0.00     0.049 C 
HETATM   11  C   UNL     1      -6.758  -0.725 -34.780  1.00  0.00     0.060 A 
HETATM   12  C   UNL     1      -2.952  -1.793 -31.920  1.00  0.00     0.001 A 
HETATM   13  C   UNL     1      -2.894  -0.478 -31.477  1.00  0.00     0.002 A 
HETATM   14  N   UNL     1      -7.473   1.631 -34.672  1.00  0.00    -0.129 NA
HETATM   15  N   UNL     1      -7.033   2.723 -33.984  1.00  0.00    -0.122 NA
ENDBRANCH   1   2
BRANCH   1  16
HETATM   16  C   UNL     1      -3.734   3.879 -33.301  1.00  0.00     0.185 C 
BRANCH  16  17
HETATM   17  C   UNL     1      -4.035   5.111 -34.143  1.00  0.00     0.227 C 
HETATM   18  N   UNL     1      -3.002   5.929 -34.510  1.00  0.00    -0.360 N 
HETATM   19  H   UNL     1      -3.305   6.729 -35.055  1.00  0.00     0.162 HD
HETATM   20  O   UNL     1      -5.165   5.394 -34.547  1.00  0.00    -0.273 OA
BRANCH  18  21
HETATM   21  C   UNL     1      -1.597   5.791 -34.169  1.00  0.00     0.127 C 
BRANCH  21  22
HETATM   22  C   UNL     1      -1.078   6.996 -33.386  1.00  0.00     0.058 C 
BRANCH  22  23
HETATM   23  C   UNL     1      -0.666   6.618 -31.987  1.00  0.00    -0.057 A 
HETATM   24  C   UNL     1      -0.513   7.601 -31.002  1.00  0.00     0.010 A 
HETATM   25  C   UNL     1      -0.111   7.249 -29.712  1.00  0.00     0.037 A 
HETATM   26  C   UNL     1       0.148   5.916 -29.384  1.00  0.00     0.068 A 
HETATM   27  C   UNL     1       0.004   4.935 -30.363  1.00  0.00     0.037 A 
HETATM   28  C   UNL     1      -0.400   5.284 -31.657  1.00  0.00     0.010 A 
BRANCH  26  29
HETATM   29  O   UNL     1       0.533   5.712 -28.087  1.00  0.00    -0.356 OA
HETATM   30  C   UNL     1      -0.297   6.270 -27.076  1.00  0.00     0.210 C 
ENDBRANCH  26  29
ENDBRANCH  22  23
ENDBRANCH  21  22
ENDBRANCH  18  21
ENDBRANCH  16  17
ENDBRANCH   1  16
TORSDOF 7
ENDMDL
MODEL 3
REMARK VINA RESULT:      -8.8      1.814      2.486
REMARK  7 active torsions:
REMARK  status: ('A' for Active; 'I' for Inactive)
REMARK    1  A    between atoms: C_12  and  S_13 
REMARK    2  A    between atoms: S_13  and  C_14 
REMARK    3  A    between atoms: C_14  and  C_15 
REMARK       I    between atoms: C_15  and  N_16 
REMARK    4  A    between atoms: N_16  and  C_17 
REMARK    5  A    between atoms: C_17  and  C_18 
REMARK    6  A    between atoms: C_18  and  C_19 
REMARK    7  A    between atoms: C_22  and  O_23 
ROOT
HETATM    1  S   UNL     1      -4.589   3.224 -31.756  1.00  0.00    -0.080 SA
ENDROOT
BRANCH   1   2
HETATM    2  C   UNL     1      -3.949   1.617 -31.823  1.00  0.00     0.197 A 
HETATM    3  N   UNL     1      -4.429   0.546 -32.561  1.00  0.00    -0.271 N 
HETATM    4  C   UNL     1      -5.510   0.365 -33.475  1.00  0.00     0.054 A 
HETATM    5  C   UNL     1      -3.561  -0.488 -32.226  1.00  0.00     0.159 A 
HETATM    6  C   UNL     1      -5.665  -0.932 -34.029  1.00  0.00    -0.003 A 
HETATM    7  C   UNL     1      -6.394   1.386 -33.837  1.00  0.00     0.031 A 
HETATM    8  C   UNL     1      -4.729  -2.023 -33.656  1.00  0.00    -0.046 A 
HETATM    9  C   UNL     1      -6.717  -1.156 -34.933  1.00  0.00     0.014 A 
HETATM   10  C   UNL     1      -4.893  -3.396 -34.246  1.00  0.00     0.049 C 
HETATM   11  C   UNL     1      -3.734  -1.769 -32.789  1.00  0.00     0.060 A 
HETATM   12  C   UNL     1      -7.594  -0.130 -35.285  1.00  0.00     0.001 A 
HETATM   13  C   UNL     1      -7.431   1.136 -34.739  1.00  0.00     0.002 A 
HETATM   14  N   UNL     1      -2.651  -0.067 -31.374  1.00  0.00    -0.129 NA
HETATM   15  N   UNL     1      -2.896   1.252 -31.123  1.00  0.00    -0.122 NA
ENDBRANCH   1   2
BRANCH   1  16
HETATM   16  C   UNL     1      -3.091   4.166 -31.336  1.00  0.00     0.185 C 
BRANCH  16  17
HETATM   17  C   UNL     1      -2.341   4.558 -32.601  1.00  0.00     0.227 C 
HETATM   18  N   UNL     1      -1.066   5.042 -32.490  1.00  0.00    -0.360 N 
HETATM   19  H   UNL     1      -0.657   5.289 -33.385  1.00  0.00     0.162 HD
HETATM   20  O   UNL     1      -2.811   4.429 -33.733  1.00  0.00    -0.273 OA
BRANCH  18  21
HETATM   21  C   UNL     1      -0.305   5.266 -31.273  1.00  0.00     0.127 C 
BRANCH  21  22
HETATM   22  C   UNL     1       0.346   6.648 -31.254  1.00  0.00     0.058 C 
BRANCH  22  23
HETATM   23  C   UNL     1      -0.059   7.440 -30.038  1.00  0.00    -0.057 A 
HETATM   24  C   UNL     1       0.813   7.571 -28.953  1.00  0.00     0.010 A 
HETATM   25  C   UNL     1       0.426   8.289 -27.819  1.00  0.00     0.037 A 
HETATM   26  C   UNL     1      -0.836   8.883 -27.748  1.00  0.00     0.068 A 
HETATM   27  C   UNL     1      -1.712   8.749 -28.824  1.00  0.00     0.037 A 
HETATM   28  C   UNL     1      -1.326   8.031 -29.961  1.00  0.00     0.010 A 
BRANCH  26  29
HETATM   29  O   UNL     1      -1.086   9.556 -26.583  1.00  0.00    -0.356 OA
HETATM   30  C   UNL     1      -1.276   8.768 -25.414  1.00  0.00     0.210 C 
ENDBRANCH  26  29
ENDBRANCH  22  23
ENDBRANCH  21  22
ENDBRANCH  18  21
ENDBRANCH  16  17
ENDBRANCH   1  16
TORSDOF 7
ENDMDL
MODEL 4
REMARK VINA RESULT:      -8.8      1.911      3.276
REMARK  7 active torsions:
REMARK  status: ('A' for Active; 'I' for Inactive)
REMARK    1  A    between atoms: C_12  and  S_13 
REMARK    2  A    between atoms: S_13  and  C_14 
REMARK    3  A    between atoms: C_14  and  C_15 
REMARK       I    between atoms: C_15  and  N_16 
REMARK    4  A    between atoms: N_16  and  C_17 
REMARK    5  A    between atoms: C_17  and  C_18 
REMARK    6  A    between atoms: C_18  and  C_19 
REMARK    7  A    between atoms: C_22  and  O_23 
ROOT
HETATM    1  S   UNL     1      -4.275   1.420 -32.076  1.00  0.00    -0.080 SA
ENDROOT
BRANCH   1   2
HETATM    2  C   UNL     1      -5.322   0.646 -33.217  1.00  0.00     0.197 A 
HETATM    3  N   UNL     1      -5.329  -0.690 -33.588  1.00  0.00    -0.271 N 
HETATM    4  C   UNL     1      -4.573  -1.838 -33.206  1.00  0.00     0.054 A 
HETATM    5  C   UNL     1      -6.345  -0.754 -34.536  1.00  0.00     0.159 A 
HETATM    6  C   UNL     1      -4.901  -3.060 -33.847  1.00  0.00    -0.003 A 
HETATM    7  C   UNL     1      -3.551  -1.808 -32.250  1.00  0.00     0.031 A 
HETATM    8  C   UNL     1      -5.988  -3.107 -34.859  1.00  0.00    -0.046 A 
HETATM    9  C   UNL     1      -4.182  -4.216 -33.501  1.00  0.00     0.014 A 
HETATM   10  C   UNL     1      -6.338  -4.402 -35.536  1.00  0.00     0.049 C 
HETATM   11  C   UNL     1      -6.654  -1.979 -35.160  1.00  0.00     0.060 A 
HETATM   12  C   UNL     1      -3.165  -4.173 -32.549  1.00  0.00     0.001 A 
HETATM   13  C   UNL     1      -2.852  -2.972 -31.926  1.00  0.00     0.002 A 
HETATM   14  N   UNL     1      -6.889   0.431 -34.706  1.00  0.00    -0.129 NA
HETATM   15  N   UNL     1      -6.249   1.307 -33.879  1.00  0.00    -0.122 NA
ENDBRANCH   1   2
BRANCH   1  16
HETATM   16  C   UNL     1      -4.654   3.168 -32.403  1.00  0.00     0.185 C 
BRANCH  16  17
HETATM   17  C   UNL     1      -4.334   4.016 -31.179  1.00  0.00     0.227 C 
HETATM   18  N   UNL     1      -3.088   4.568 -31.065  1.00  0.00    -0.360 N 
HETATM   19  H   UNL     1      -2.968   5.101 -30.211  1.00  0.00     0.162 HD
HETATM   20  O   UNL     1      -5.156   4.263 -30.295  1.00  0.00    -0.273 OA
BRANCH  18  21
HETATM   21  C   UNL     1      -1.969   4.430 -31.982  1.00  0.00     0.127 C 
BRANCH  21  22
HETATM   22  C   UNL     1      -1.128   5.704 -32.051  1.00  0.00     0.058 C 
BRANCH  22  23
HETATM   23  C   UNL     1      -0.499   6.030 -30.721  1.00  0.00    -0.057 A 
HETATM   24  C   UNL     1      -0.608   7.317 -30.181  1.00  0.00     0.010 A 
HETATM   25  C   UNL     1      -0.006   7.621 -28.959  1.00  0.00     0.037 A 
HETATM   26  C   UNL     1       0.716   6.653 -28.258  1.00  0.00     0.068 A 
HETATM   27  C   UNL     1       0.833   5.372 -28.795  1.00  0.00     0.037 A 
HETATM   28  C   UNL     1       0.231   5.063 -30.020  1.00  0.00     0.010 A 
BRANCH  26  29
HETATM   29  O   UNL     1       1.251   7.084 -27.075  1.00  0.00    -0.356 OA
HETATM   30  C   UNL     1       0.540   8.101 -26.381  1.00  0.00     0.210 C 
ENDBRANCH  26  29
ENDBRANCH  22  23
ENDBRANCH  21  22
ENDBRANCH  18  21
ENDBRANCH  16  17
ENDBRANCH   1  16
TORSDOF 7
ENDMDL
MODEL 5
REMARK VINA RESULT:      -8.7      2.490      3.929
REMARK  7 active torsions:
REMARK  status: ('A' for Active; 'I' for Inactive)
REMARK    1  A    between atoms: C_12  and  S_13 
REMARK    2  A    between atoms: S_13  and  C_14 
REMARK    3  A    between atoms: C_14  and  C_15 
REMARK       I    between atoms: C_15  and  N_16 
REMARK    4  A    between atoms: N_16  and  C_17 
REMARK    5  A    between atoms: C_17  and  C_18 
REMARK    6  A    between atoms: C_18  and  C_19 
REMARK    7  A    between atoms: C_22  and  O_23 
ROOT
HETATM    1  S   UNL     1      -7.875   2.538 -30.536  1.00  0.00    -0.080 SA
ENDROOT
BRANCH   1   2
HETATM    2  C   UNL     1      -8.162   1.438 -31.842  1.00  0.00     0.197 A 
HETATM    3  N   UNL     1      -7.274   0.526 -32.391  1.00  0.00    -0.271 N 
HETATM    4  C   UNL     1      -5.923   0.155 -32.116  1.00  0.00     0.054 A 
HETATM    5  C   UNL     1      -8.013  -0.069 -33.408  1.00  0.00     0.159 A 
HETATM    6  C   UNL     1      -5.360  -0.854 -32.939  1.00  0.00    -0.003 A 
HETATM    7  C   UNL     1      -5.157   0.729 -31.096  1.00  0.00     0.031 A 
HETATM    8  C   UNL     1      -6.166  -1.475 -34.021  1.00  0.00    -0.046 A 
HETATM    9  C   UNL     1      -4.033  -1.250 -32.704  1.00  0.00     0.014 A 
HETATM   10  C   UNL     1      -5.569  -2.546 -34.890  1.00  0.00     0.049 C 
HETATM   11  C   UNL     1      -7.433  -1.070 -34.212  1.00  0.00     0.060 A 
HETATM   12  C   UNL     1      -3.278  -0.670 -31.686  1.00  0.00     0.001 A 
HETATM   13  C   UNL     1      -3.839   0.316 -30.885  1.00  0.00     0.002 A 
HETATM   14  N   UNL     1      -9.225   0.441 -33.453  1.00  0.00    -0.129 NA
HETATM   15  N   UNL     1      -9.317   1.384 -32.472  1.00  0.00    -0.122 NA
ENDBRANCH   1   2
BRANCH   1  16
HETATM   16  C   UNL     1      -6.913   3.827 -31.385  1.00  0.00     0.185 C 
BRANCH  16  17
HETATM   17  C   UNL     1      -7.684   4.356 -32.587  1.00  0.00     0.227 C 
HETATM   18  N   UNL     1      -7.118   4.260 -33.829  1.00  0.00    -0.360 N 
HETATM   19  H   UNL     1      -7.700   4.652 -34.561  1.00  0.00     0.162 HD
HETATM   20  O   UNL     1      -8.815   4.838 -32.506  1.00  0.00    -0.273 OA
BRANCH  18  21
HETATM   21  C   UNL     1      -5.813   3.719 -34.170  1.00  0.00     0.127 C 
BRANCH  21  22
HETATM   22  C   UNL     1      -4.847   4.810 -34.632  1.00  0.00     0.058 C 
BRANCH  22  23
HETATM   23  C   UNL     1      -3.586   4.825 -33.808  1.00  0.00    -0.057 A 
HETATM   24  C   UNL     1      -3.499   4.078 -32.629  1.00  0.00     0.010 A 
HETATM   25  C   UNL     1      -2.336   4.111 -31.858  1.00  0.00     0.037 A 
HETATM   26  C   UNL     1      -1.244   4.890 -32.246  1.00  0.00     0.068 A 
HETATM   27  C   UNL     1      -1.328   5.642 -33.417  1.00  0.00     0.037 A 
HETATM   28  C   UNL     1      -2.492   5.610 -34.192  1.00  0.00     0.010 A 
BRANCH  26  29
HETATM   29  O   UNL     1      -0.170   4.830 -31.401  1.00  0.00    -0.356 OA
HETATM   30  C   UNL     1       0.391   6.069 -30.985  1.00  0.00     0.210 C 
ENDBRANCH  26  29
ENDBRANCH  22  23
ENDBRANCH  21  22
ENDBRANCH  18  21
ENDBRANCH  16  17
ENDBRANCH   1  16
TORSDOF 7
ENDMDL
MODEL 6
REMARK VINA RESULT:      -8.7      2.686      5.306
REMARK  7 active torsions:
REMARK  status: ('A' for Active; 'I' for Inactive)
REMARK    1  A    between atoms: C_12  and  S_13 
REMARK    2  A    between atoms: S_13  and  C_14 
REMARK    3  A    between atoms: C_14  and  C_15 
REMARK       I    between atoms: C_15  and  N_16 
REMARK    4  A    between atoms: N_16  and  C_17 
REMARK    5  A    between atoms: C_17  and  C_18 
REMARK    6  A    between atoms: C_18  and  C_19 
REMARK    7  A    between atoms: C_22  and  O_23 
ROOT
HETATM    1  S   UNL     1      -3.970   2.319 -31.279  1.00  0.00    -0.080 SA
ENDROOT
BRANCH   1   2
HETATM    2  C   UNL     1      -3.643   0.678 -31.721  1.00  0.00     0.197 A 
HETATM    3  N   UNL     1      -4.350  -0.115 -32.611  1.00  0.00    -0.271 N 
HETATM    4  C   UNL     1      -5.493   0.087 -33.442  1.00  0.00     0.054 A 
HETATM    5  C   UNL     1      -3.671  -1.328 -32.568  1.00  0.00     0.159 A 
HETATM    6  C   UNL     1      -5.914  -1.017 -34.226  1.00  0.00    -0.003 A 
HETATM    7  C   UNL     1      -6.192   1.297 -33.513  1.00  0.00     0.031 A 
HETATM    8  C   UNL     1      -5.176  -2.306 -34.164  1.00  0.00    -0.046 A 
HETATM    9  C   UNL     1      -7.035  -0.863 -35.059  1.00  0.00     0.014 A 
HETATM   10  C   UNL     1      -5.621  -3.474 -34.997  1.00  0.00     0.049 C 
HETATM   11  C   UNL     1      -4.107  -2.412 -33.357  1.00  0.00     0.060 A 
HETATM   12  C   UNL     1      -7.725   0.347 -35.119  1.00  0.00     0.001 A 
HETATM   13  C   UNL     1      -7.303   1.423 -34.349  1.00  0.00     0.002 A 
HETATM   14  N   UNL     1      -2.656  -1.257 -31.735  1.00  0.00    -0.129 NA
HETATM   15  N   UNL     1      -2.639  -0.000 -31.206  1.00  0.00    -0.122 NA
ENDBRANCH   1   2
BRANCH   1  16
HETATM   16  C   UNL     1      -3.084   3.207 -32.595  1.00  0.00     0.185 C 
BRANCH  16  17
HETATM   17  C   UNL     1      -2.388   4.437 -32.027  1.00  0.00     0.227 C 
HETATM   18  N   UNL     1      -3.049   5.634 -32.038  1.00  0.00    -0.360 N 
HETATM   19  H   UNL     1      -2.498   6.394 -31.653  1.00  0.00     0.162 HD
HETATM   20  O   UNL     1      -1.265   4.404 -31.520  1.00  0.00    -0.273 OA
BRANCH  18  21
HETATM   21  C   UNL     1      -4.375   5.911 -32.563  1.00  0.00     0.127 C 
BRANCH  21  22
HETATM   22  C   UNL     1      -5.449   5.809 -31.482  1.00  0.00     0.058 C 
BRANCH  22  23
HETATM   23  C   UNL     1      -6.730   5.226 -32.020  1.00  0.00    -0.057 A 
HETATM   24  C   UNL     1      -7.119   5.465 -33.342  1.00  0.00     0.010 A 
HETATM   25  C   UNL     1      -8.316   4.939 -33.831  1.00  0.00     0.037 A 
HETATM   26  C   UNL     1      -9.146   4.171 -33.011  1.00  0.00     0.068 A 
HETATM   27  C   UNL     1      -8.766   3.935 -31.690  1.00  0.00     0.037 A 
HETATM   28  C   UNL     1      -7.567   4.461 -31.198  1.00  0.00     0.010 A 
BRANCH  26  29
HETATM   29  O   UNL     1     -10.286   3.718 -33.616  1.00  0.00    -0.356 OA
HETATM   30  C   UNL     1     -10.733   2.417 -33.253  1.00  0.00     0.210 C 
ENDBRANCH  26  29
ENDBRANCH  22  23
ENDBRANCH  21  22
ENDBRANCH  18  21
ENDBRANCH  16  17
ENDBRANCH   1  16
TORSDOF 7
ENDMDL
MODEL 7
REMARK VINA RESULT:      -8.4      2.858      9.322
REMARK  7 active torsions:
REMARK  status: ('A' for Active; 'I' for Inactive)
REMARK    1  A    between atoms: C_12  and  S_13 
REMARK    2  A    between atoms: S_13  and  C_14 
REMARK    3  A    between atoms: C_14  and  C_15 
REMARK       I    between atoms: C_15  and  N_16 
REMARK    4  A    between atoms: N_16  and  C_17 
REMARK    5  A    between atoms: C_17  and  C_18 
REMARK    6  A    between atoms: C_18  and  C_19 
REMARK    7  A    between atoms: C_22  and  O_23 
ROOT
HETATM    1  S   UNL     1      -2.346   6.087 -32.501  1.00  0.00    -0.080 SA
ENDROOT
BRANCH   1   2
HETATM    2  C   UNL     1      -1.196   5.671 -31.276  1.00  0.00     0.197 A 
HETATM    3  N   UNL     1      -0.807   6.436 -30.187  1.00  0.00    -0.271 N 
HETATM    4  C   UNL     1      -1.171   7.720 -29.684  1.00  0.00     0.054 A 
HETATM    5  C   UNL     1       0.141   5.635 -29.557  1.00  0.00     0.159 A 
HETATM    6  C   UNL     1      -0.514   8.153 -28.505  1.00  0.00    -0.003 A 
HETATM    7  C   UNL     1      -2.126   8.544 -30.290  1.00  0.00     0.031 A 
HETATM    8  C   UNL     1       0.497   7.285 -27.848  1.00  0.00    -0.046 A 
HETATM    9  C   UNL     1      -0.842   9.412 -27.974  1.00  0.00     0.014 A 
HETATM   10  C   UNL     1       1.191   7.743 -26.596  1.00  0.00     0.049 C 
HETATM   11  C   UNL     1       0.782   6.086 -28.385  1.00  0.00     0.060 A 
HETATM   12  C   UNL     1      -1.793  10.226 -28.588  1.00  0.00     0.001 A 
HETATM   13  C   UNL     1      -2.433   9.792 -29.742  1.00  0.00     0.002 A 
HETATM   14  N   UNL     1       0.294   4.504 -30.209  1.00  0.00    -0.129 NA
HETATM   15  N   UNL     1      -0.545   4.527 -31.285  1.00  0.00    -0.122 NA
ENDBRANCH   1   2
BRANCH   1  16
HETATM   16  C   UNL     1      -3.589   4.783 -32.254  1.00  0.00     0.185 C 
BRANCH  16  17
HETATM   17  C   UNL     1      -4.685   4.891 -33.306  1.00  0.00     0.227 C 
HETATM   18  N   UNL     1      -5.447   3.789 -33.582  1.00  0.00    -0.360 N 
HETATM   19  H   UNL     1      -6.138   3.956 -34.305  1.00  0.00     0.162 HD
HETATM   20  O   UNL     1      -4.948   5.937 -33.903  1.00  0.00    -0.273 OA
BRANCH  18  21
HETATM   21  C   UNL     1      -5.333   2.463 -32.998  1.00  0.00     0.127 C 
BRANCH  21  22
HETATM   22  C   UNL     1      -6.374   1.499 -33.566  1.00  0.00     0.058 C 
BRANCH  22  23
HETATM   23  C   UNL     1      -5.821   0.107 -33.722  1.00  0.00    -0.057 A 
HETATM   24  C   UNL     1      -4.636  -0.262 -33.076  1.00  0.00     0.010 A 
HETATM   25  C   UNL     1      -4.115  -1.548 -33.239  1.00  0.00     0.037 A 
HETATM   26  C   UNL     1      -4.762  -2.482 -34.051  1.00  0.00     0.068 A 
HETATM   27  C   UNL     1      -5.939  -2.117 -34.702  1.00  0.00     0.037 A 
HETATM   28  C   UNL     1      -6.464  -0.830 -34.540  1.00  0.00     0.010 A 
BRANCH  26  29
HETATM   29  O   UNL     1      -4.146  -3.701 -34.122  1.00  0.00    -0.356 OA
HETATM   30  C   UNL     1      -4.961  -4.814 -34.465  1.00  0.00     0.210 C 
ENDBRANCH  26  29
ENDBRANCH  22  23
ENDBRANCH  21  22
ENDBRANCH  18  21
ENDBRANCH  16  17
ENDBRANCH   1  16
TORSDOF 7
ENDMDL
MODEL 8
REMARK VINA RESULT:      -8.2      3.614      6.038
REMARK  7 active torsions:
REMARK  status: ('A' for Active; 'I' for Inactive)
REMARK    1  A    between atoms: C_12  and  S_13 
REMARK    2  A    between atoms: S_13  and  C_14 
REMARK    3  A    between atoms: C_14  and  C_15 
REMARK       I    between atoms: C_15  and  N_16 
REMARK    4  A    between atoms: N_16  and  C_17 
REMARK    5  A    between atoms: C_17  and  C_18 
REMARK    6  A    between atoms: C_18  and  C_19 
REMARK    7  A    between atoms: C_22  and  O_23 
ROOT
HETATM    1  S   UNL     1      -5.880   3.176 -33.330  1.00  0.00    -0.080 SA
ENDROOT
BRANCH   1   2
HETATM    2  C   UNL     1      -4.702   2.171 -32.556  1.00  0.00     0.197 A 
HETATM    3  N   UNL     1      -4.564   0.795 -32.660  1.00  0.00    -0.271 N 
HETATM    4  C   UNL     1      -5.249  -0.227 -33.382  1.00  0.00     0.054 A 
HETATM    5  C   UNL     1      -3.487   0.518 -31.825  1.00  0.00     0.159 A 
HETATM    6  C   UNL     1      -4.782  -1.554 -33.204  1.00  0.00    -0.003 A 
HETATM    7  C   UNL     1      -6.330   0.021 -34.235  1.00  0.00     0.031 A 
HETATM    8  C   UNL     1      -3.631  -1.830 -32.306  1.00  0.00    -0.046 A 
HETATM    9  C   UNL     1      -5.427  -2.593 -33.896  1.00  0.00     0.014 A 
HETATM   10  C   UNL     1      -3.135  -3.237 -32.121  1.00  0.00     0.049 C 
HETATM   11  C   UNL     1      -3.039  -0.809 -31.664  1.00  0.00     0.060 A 
HETATM   12  C   UNL     1      -6.504  -2.334 -34.742  1.00  0.00     0.001 A 
HETATM   13  C   UNL     1      -6.953  -1.031 -34.911  1.00  0.00     0.002 A 
HETATM   14  N   UNL     1      -3.029   1.625 -31.282  1.00  0.00    -0.129 NA
HETATM   15  N   UNL     1      -3.791   2.660 -31.741  1.00  0.00    -0.122 NA
ENDBRANCH   1   2
BRANCH   1  16
HETATM   16  C   UNL     1      -5.960   4.566 -32.160  1.00  0.00     0.185 C 
BRANCH  16  17
HETATM   17  C   UNL     1      -5.841   5.889 -32.903  1.00  0.00     0.227 C 
HETATM   18  N   UNL     1      -6.828   6.824 -32.749  1.00  0.00    -0.360 N 
HETATM   19  H   UNL     1      -6.667   7.664 -33.295  1.00  0.00     0.162 HD
HETATM   20  O   UNL     1      -4.878   6.181 -33.615  1.00  0.00    -0.273 OA
BRANCH  18  21
HETATM   21  C   UNL     1      -8.041   6.711 -31.956  1.00  0.00     0.127 C 
BRANCH  21  22
HETATM   22  C   UNL     1      -9.262   6.407 -32.823  1.00  0.00     0.058 C 
BRANCH  22  23
HETATM   23  C   UNL     1      -9.436   4.927 -33.043  1.00  0.00    -0.057 A 
HETATM   24  C   UNL     1      -9.642   4.420 -34.331  1.00  0.00     0.010 A 
HETATM   25  C   UNL     1      -9.823   3.050 -34.528  1.00  0.00     0.037 A 
HETATM   26  C   UNL     1      -9.806   2.164 -33.448  1.00  0.00     0.068 A 
HETATM   27  C   UNL     1      -9.607   2.665 -32.162  1.00  0.00     0.037 A 
HETATM   28  C   UNL     1      -9.425   4.038 -31.961  1.00  0.00     0.010 A 
BRANCH  26  29
HETATM   29  O   UNL     1      -9.994   0.851 -33.783  1.00  0.00    -0.356 OA
HETATM   30  C   UNL     1      -9.970  -0.092 -32.720  1.00  0.00     0.210 C 
ENDBRANCH  26  29
ENDBRANCH  22  23
ENDBRANCH  21  22
ENDBRANCH  18  21
ENDBRANCH  16  17
ENDBRANCH   1  16
TORSDOF 7
ENDMDL
MODEL 9
REMARK VINA RESULT:      -8.2      4.397      8.239
REMARK  7 active torsions:
REMARK  status: ('A' for Active; 'I' for Inactive)
REMARK    1  A    between atoms: C_12  and  S_13 
REMARK    2  A    between atoms: S_13  and  C_14 
REMARK    3  A    between atoms: C_14  and  C_15 
REMARK       I    between atoms: C_15  and  N_16 
REMARK    4  A    between atoms: N_16  and  C_17 
REMARK    5  A    between atoms: C_17  and  C_18 
REMARK    6  A    between atoms: C_18  and  C_19 
REMARK    7  A    between atoms: C_22  and  O_23 
ROOT
HETATM    1  S   UNL     1      -5.300   3.252 -32.113  1.00  0.00    -0.080 SA
ENDROOT
BRANCH   1   2
HETATM    2  C   UNL     1      -6.098   2.165 -33.200  1.00  0.00     0.197 A 
HETATM    3  N   UNL     1      -5.804   0.829 -33.427  1.00  0.00    -0.271 N 
HETATM    4  C   UNL     1      -4.846  -0.088 -32.902  1.00  0.00     0.054 A 
HETATM    5  C   UNL     1      -6.731   0.459 -34.396  1.00  0.00     0.159 A 
HETATM    6  C   UNL     1      -4.876  -1.408 -33.420  1.00  0.00    -0.003 A 
HETATM    7  C   UNL     1      -3.907   0.252 -31.922  1.00  0.00     0.031 A 
HETATM    8  C   UNL     1      -5.873  -1.783 -34.456  1.00  0.00    -0.046 A 
HETATM    9  C   UNL     1      -3.951  -2.345 -32.931  1.00  0.00     0.014 A 
HETATM   10  C   UNL     1      -5.906  -3.183 -35.003  1.00  0.00     0.049 C 
HETATM   11  C   UNL     1      -6.743  -0.859 -34.897  1.00  0.00     0.060 A 
HETATM   12  C   UNL     1      -3.018  -1.993 -31.956  1.00  0.00     0.001 A 
HETATM   13  C   UNL     1      -2.998  -0.699 -31.453  1.00  0.00     0.002 A 
HETATM   14  N   UNL     1      -7.502   1.478 -34.708  1.00  0.00    -0.129 NA
HETATM   15  N   UNL     1      -7.105   2.545 -33.958  1.00  0.00    -0.122 NA
ENDBRANCH   1   2
BRANCH   1  16
HETATM   16  C   UNL     1      -6.063   2.772 -30.534  1.00  0.00     0.185 C 
BRANCH  16  17
HETATM   17  C   UNL     1      -6.878   3.927 -29.968  1.00  0.00     0.227 C 
HETATM   18  N   UNL     1      -8.226   3.959 -30.197  1.00  0.00    -0.360 N 
HETATM   19  H   UNL     1      -8.677   4.774 -29.794  1.00  0.00     0.162 HD
HETATM   20  O   UNL     1      -6.389   4.824 -29.279  1.00  0.00    -0.273 OA
BRANCH  18  21
HETATM   21  C   UNL     1      -9.019   3.012 -30.961  1.00  0.00     0.127 C 
BRANCH  21  22
HETATM   22  C   UNL     1      -9.921   3.712 -31.977  1.00  0.00     0.058 C 
BRANCH  22  23
HETATM   23  C   UNL     1     -10.898   2.755 -32.610  1.00  0.00    -0.057 A 
HETATM   24  C   UNL     1     -12.231   3.130 -32.811  1.00  0.00     0.010 A 
HETATM   25  C   UNL     1     -13.137   2.233 -33.379  1.00  0.00     0.037 A 
HETATM   26  C   UNL     1     -12.733   0.949 -33.752  1.00  0.00     0.068 A 
HETATM   27  C   UNL     1     -11.407   0.568 -33.548  1.00  0.00     0.037 A 
HETATM   28  C   UNL     1     -10.496   1.465 -32.979  1.00  0.00     0.010 A 
BRANCH  26  29
HETATM   29  O   UNL     1     -13.720   0.175 -34.297  1.00  0.00    -0.356 OA
HETATM   30  C   UNL     1     -15.032   0.725 -34.314  1.00  0.00     0.210 C 
ENDBRANCH  26  29
ENDBRANCH  22  23
ENDBRANCH  21  22
ENDBRANCH  18  21
ENDBRANCH  16  17
ENDBRANCH   1  16
TORSDOF 7
ENDMDL
MODEL 10
REMARK VINA RESULT:      -8.2      2.405      3.633
REMARK  7 active torsions:
REMARK  status: ('A' for Active; 'I' for Inactive)
REMARK    1  A    between atoms: C_12  and  S_13 
REMARK    2  A    between atoms: S_13  and  C_14 
REMARK    3  A    between atoms: C_14  and  C_15 
REMARK       I    between atoms: C_15  and  N_16 
REMARK    4  A    between atoms: N_16  and  C_17 
REMARK    5  A    between atoms: C_17  and  C_18 
REMARK    6  A    between atoms: C_18  and  C_19 
REMARK    7  A    between atoms: C_22  and  O_23 
ROOT
HETATM    1  S   UNL     1      -3.397   2.227 -31.948  1.00  0.00    -0.080 SA
ENDROOT
BRANCH   1   2
HETATM    2  C   UNL     1      -5.098   2.433 -31.705  1.00  0.00     0.197 A 
HETATM    3  N   UNL     1      -6.121   1.601 -32.135  1.00  0.00    -0.271 N 
HETATM    4  C   UNL     1      -6.174   0.369 -32.853  1.00  0.00     0.054 A 
HETATM    5  C   UNL     1      -7.269   2.248 -31.689  1.00  0.00     0.159 A 
HETATM    6  C   UNL     1      -7.462  -0.169 -33.101  1.00  0.00    -0.003 A 
HETATM    7  C   UNL     1      -5.037  -0.309 -33.307  1.00  0.00     0.031 A 
HETATM    8  C   UNL     1      -8.676   0.539 -32.618  1.00  0.00    -0.046 A 
HETATM    9  C   UNL     1      -7.561  -1.381 -33.805  1.00  0.00     0.014 A 
HETATM   10  C   UNL     1     -10.041  -0.034 -32.879  1.00  0.00     0.049 C 
HETATM   11  C   UNL     1      -8.539   1.694 -31.946  1.00  0.00     0.060 A 
HETATM   12  C   UNL     1      -6.422  -2.047 -34.255  1.00  0.00     0.001 A 
HETATM   13  C   UNL     1      -5.165  -1.513 -34.005  1.00  0.00     0.002 A 
HETATM   14  N   UNL     1      -6.954   3.355 -31.052  1.00  0.00    -0.129 NA
HETATM   15  N   UNL     1      -5.595   3.469 -31.062  1.00  0.00    -0.122 NA
ENDBRANCH   1   2
BRANCH   1  16
HETATM   16  C   UNL     1      -2.786   3.871 -31.466  1.00  0.00     0.185 C 
BRANCH  16  17
HETATM   17  C   UNL     1      -2.237   4.607 -32.680  1.00  0.00     0.227 C 
HETATM   18  N   UNL     1      -1.015   5.215 -32.588  1.00  0.00    -0.360 N 
HETATM   19  H   UNL     1      -0.743   5.691 -33.441  1.00  0.00     0.162 HD
HETATM   20  O   UNL     1      -2.823   4.657 -33.763  1.00  0.00    -0.273 OA
BRANCH  18  21
HETATM   21  C   UNL     1      -0.140   5.276 -31.429  1.00  0.00     0.127 C 
BRANCH  21  22
HETATM   22  C   UNL     1       0.336   6.701 -31.148  1.00  0.00     0.058 C 
BRANCH  22  23
HETATM   23  C   UNL     1      -0.102   7.179 -29.789  1.00  0.00    -0.057 A 
HETATM   24  C   UNL     1      -1.445   7.095 -29.406  1.00  0.00     0.010 A 
HETATM   25  C   UNL     1      -1.851   7.558 -28.152  1.00  0.00     0.037 A 
HETATM   26  C   UNL     1      -0.927   8.115 -27.264  1.00  0.00     0.068 A 
HETATM   27  C   UNL     1       0.411   8.206 -27.644  1.00  0.00     0.037 A 
HETATM   28  C   UNL     1       0.820   7.742 -28.899  1.00  0.00     0.010 A 
BRANCH  26  29
HETATM   29  O   UNL     1      -1.458   8.526 -26.072  1.00  0.00    -0.356 OA
HETATM   30  C   UNL     1      -2.340   7.625 -25.416  1.00  0.00     0.210 C 
ENDBRANCH  26  29
ENDBRANCH  22  23
ENDBRANCH  21  22
ENDBRANCH  18  21
ENDBRANCH  16  17
ENDBRANCH   1  16
TORSDOF 7
ENDMDL
