MODEL 1
REMARK VINA RESULT:     -10.1      0.000      0.000
REMARK  7 active torsions:
REMARK  status: ('A' for Active; 'I' for Inactive)
REMARK    1  A    between atoms: N_7  and  C_8 
REMARK    2  A    between atoms: C_8  and  C_9 
REMARK       I    between atoms: C_9  and  N_10 
REMARK    3  A    between atoms: N_10  and  C_11 
REMARK    4  A    between atoms: C_11  and  C_12 
REMARK    5  A    between atoms: C_12  and  C_13 
REMARK    6  A    between atoms: C_12  and  C_23 
REMARK    7  A    between atoms: C_26  and  O_27 
ROOT
HETATM    1  C   UNL     1      -7.415   2.755 -32.418  1.00  0.00     0.136 C 
ENDROOT
BRANCH   1   2
HETATM    2  N   UNL     1      -6.092   3.005 -32.963  1.00  0.00    -0.359 N 
HETATM    3  C   UNL     1      -4.999   3.140 -32.127  1.00  0.00     0.236 C 
HETATM    4  O   UNL     1      -5.089   3.126 -30.902  1.00  0.00    -0.272 OA
HETATM    5  H   UNL     1      -5.922   2.789 -33.942  1.00  0.00     0.162 HD
BRANCH   3   6
HETATM    6  C   UNL     1      -3.671   3.386 -32.840  1.00  0.00     0.239 C 
BRANCH   6   7
HETATM    7  N   UNL     1      -3.164   4.708 -32.542  1.00  0.00    -0.259 N 
HETATM    8  C   UNL     1      -3.683   5.853 -33.040  1.00  0.00     0.326 A 
HETATM    9  N   UNL     1      -2.974   6.914 -32.545  1.00  0.00    -0.324 N 
HETATM   10  O   UNL     1      -4.607   5.950 -33.831  1.00  0.00    -0.247 OA
HETATM   11  C   UNL     1      -1.919   6.518 -31.627  1.00  0.00     0.119 A 
HETATM   12  H   UNL     1      -3.193   7.862 -32.820  1.00  0.00     0.165 HD
HETATM   13  C   UNL     1      -2.195   7.021 -30.189  1.00  0.00     0.019 C 
HETATM   14  C   UNL     1      -2.111   4.979 -31.714  1.00  0.00     0.257 A 
HETATM   15  C   UNL     1      -0.550   6.931 -32.183  1.00  0.00     0.041 C 
HETATM   16  C   UNL     1      -2.563   8.513 -30.148  1.00  0.00     0.013 C 
HETATM   17  C   UNL     1      -0.999   6.750 -29.258  1.00  0.00     0.007 C 
HETATM   18  C   UNL     1       0.324   7.255 -29.826  1.00  0.00     0.001 C 
HETATM   19  C   UNL     1       0.600   6.676 -31.209  1.00  0.00     0.003 C 
HETATM   20  O   UNL     1      -1.446   4.146 -31.114  1.00  0.00    -0.270 OA
ENDBRANCH   6   7
ENDBRANCH   3   6
ENDBRANCH   1   2
BRANCH   1  21
HETATM   21  C   UNL     1      -8.066   1.379 -32.692  1.00  0.00     0.071 C 
BRANCH  21  22
HETATM   22  C   UNL     1      -7.246   0.406 -33.511  1.00  0.00    -0.020 A 
HETATM   23  C   UNL     1      -6.100  -0.330 -33.032  1.00  0.00    -0.001 A 
HETATM   24  C   UNL     1      -5.624  -1.112 -34.085  1.00  0.00     0.042 A 
HETATM   25  C   UNL     1      -5.430  -0.408 -31.792  1.00  0.00     0.014 A 
HETATM   26  C   UNL     1      -4.516  -1.958 -33.966  1.00  0.00     0.030 A 
HETATM   27  N   UNL     1      -6.443  -0.876 -35.162  1.00  0.00    -0.365 N 
HETATM   28  C   UNL     1      -3.873  -2.016 -32.728  1.00  0.00     0.002 A 
HETATM   29  C   UNL     1      -4.322  -1.253 -31.654  1.00  0.00     0.001 A 
HETATM   30  H   UNL     1      -6.347  -1.323 -36.062  1.00  0.00     0.165 HD
HETATM   31  C   UNL     1      -7.418   0.024 -34.830  1.00  0.00     0.097 A 
ENDBRANCH  21  22
BRANCH  21  32
HETATM   32  C   UNL     1      -9.473   1.363 -33.271  1.00  0.00    -0.048 A 
HETATM   33  C   UNL     1      -9.884   2.423 -34.097  1.00  0.00     0.011 A 
HETATM   34  C   UNL     1     -11.168   2.451 -34.651  1.00  0.00     0.037 A 
HETATM   35  C   UNL     1     -12.076   1.425 -34.394  1.00  0.00     0.068 A 
HETATM   36  C   UNL     1     -11.689   0.372 -33.569  1.00  0.00     0.037 A 
HETATM   37  C   UNL     1     -10.402   0.343 -33.014  1.00  0.00     0.011 A 
BRANCH  35  38
HETATM   38  O   UNL     1     -13.295   1.573 -34.996  1.00  0.00    -0.356 OA
HETATM   39  C   UNL     1     -14.411   0.992 -34.334  1.00  0.00     0.210 C 
ENDBRANCH  35  38
ENDBRANCH  21  32
ENDBRANCH   1  21
TORSDOF 7
ENDMDL
MODEL 2
REMARK VINA RESULT:     -10.0      2.491      4.738
REMARK  7 active torsions:
REMARK  status: ('A' for Active; 'I' for Inactive)
REMARK    1  A    between atoms: N_7  and  C_8 
REMARK    2  A    between atoms: C_8  and  C_9 
REMARK       I    between atoms: C_9  and  N_10 
REMARK    3  A    between atoms: N_10  and  C_11 
REMARK    4  A    between atoms: C_11  and  C_12 
REMARK    5  A    between atoms: C_12  and  C_13 
REMARK    6  A    between atoms: C_12  and  C_23 
REMARK    7  A    between atoms: C_26  and  O_27 
ROOT
HETATM    1  C   UNL     1      -4.515   1.892 -31.917  1.00  0.00     0.136 C 
ENDROOT
BRANCH   1   2
HETATM    2  N   UNL     1      -3.395   2.577 -32.537  1.00  0.00    -0.359 N 
HETATM    3  C   UNL     1      -3.521   3.883 -32.973  1.00  0.00     0.236 C 
HETATM    4  O   UNL     1      -4.580   4.504 -32.926  1.00  0.00    -0.272 OA
HETATM    5  H   UNL     1      -2.458   2.212 -32.385  1.00  0.00     0.162 HD
BRANCH   3   6
HETATM    6  C   UNL     1      -2.258   4.479 -33.591  1.00  0.00     0.239 C 
BRANCH   6   7
HETATM    7  N   UNL     1      -1.791   5.610 -32.819  1.00  0.00    -0.259 N 
HETATM    8  C   UNL     1      -1.699   6.873 -33.295  1.00  0.00     0.326 A 
HETATM    9  N   UNL     1      -1.236   7.690 -32.300  1.00  0.00    -0.324 N 
HETATM   10  O   UNL     1      -1.946   7.242 -34.431  1.00  0.00    -0.247 OA
HETATM   11  C   UNL     1      -1.014   6.992 -31.044  1.00  0.00     0.119 A 
HETATM   12  H   UNL     1      -1.074   8.673 -32.466  1.00  0.00     0.165 HD
HETATM   13  C   UNL     1      -1.984   7.482 -29.941  1.00  0.00     0.019 C 
HETATM   14  C   UNL     1      -1.397   5.561 -31.512  1.00  0.00     0.257 A 
HETATM   15  C   UNL     1       0.467   7.063 -30.652  1.00  0.00     0.041 C 
HETATM   16  C   UNL     1      -2.025   9.015 -29.831  1.00  0.00     0.013 C 
HETATM   17  C   UNL     1      -1.636   6.868 -28.572  1.00  0.00     0.007 C 
HETATM   18  C   UNL     1      -0.166   7.039 -28.199  1.00  0.00     0.001 C 
HETATM   19  C   UNL     1       0.756   6.474 -29.272  1.00  0.00     0.003 C 
HETATM   20  O   UNL     1      -1.376   4.557 -30.812  1.00  0.00    -0.270 OA
ENDBRANCH   6   7
ENDBRANCH   3   6
ENDBRANCH   1   2
BRANCH   1  21
HETATM   21  C   UNL     1      -5.622   1.326 -32.837  1.00  0.00     0.071 C 
BRANCH  21  22
HETATM   22  C   UNL     1      -7.040   1.443 -32.323  1.00  0.00    -0.020 A 
HETATM   23  C   UNL     1      -8.023   2.390 -32.793  1.00  0.00    -0.001 A 
HETATM   24  C   UNL     1      -9.197   2.181 -32.070  1.00  0.00     0.042 A 
HETATM   25  C   UNL     1      -8.021   3.402 -33.777  1.00  0.00     0.014 A 
HETATM   26  C   UNL     1     -10.361   2.931 -32.274  1.00  0.00     0.030 A 
HETATM   27  N   UNL     1      -8.954   1.148 -31.200  1.00  0.00    -0.365 N 
HETATM   28  C   UNL     1     -10.331   3.924 -33.255  1.00  0.00     0.002 A 
HETATM   29  C   UNL     1      -9.178   4.159 -33.998  1.00  0.00     0.001 A 
HETATM   30  H   UNL     1      -9.636   0.767 -30.560  1.00  0.00     0.165 HD
HETATM   31  C   UNL     1      -7.671   0.696 -31.345  1.00  0.00     0.097 A 
ENDBRANCH  21  22
BRANCH  21  32
HETATM   32  C   UNL     1      -5.458  -0.097 -33.350  1.00  0.00    -0.048 A 
HETATM   33  C   UNL     1      -6.417  -0.620 -34.234  1.00  0.00     0.011 A 
HETATM   34  C   UNL     1      -6.307  -1.923 -34.731  1.00  0.00     0.037 A 
HETATM   35  C   UNL     1      -5.241  -2.739 -34.357  1.00  0.00     0.068 A 
HETATM   36  C   UNL     1      -4.287  -2.241 -33.473  1.00  0.00     0.037 A 
HETATM   37  C   UNL     1      -4.395  -0.935 -32.976  1.00  0.00     0.011 A 
BRANCH  35  38
HETATM   38  O   UNL     1      -5.252  -3.988 -34.913  1.00  0.00    -0.356 OA
HETATM   39  C   UNL     1      -6.504  -4.470 -35.384  1.00  0.00     0.210 C 
ENDBRANCH  35  38
ENDBRANCH  21  32
ENDBRANCH   1  21
TORSDOF 7
ENDMDL
MODEL 3
REMARK VINA RESULT:      -9.9      2.370      4.968
REMARK  7 active torsions:
REMARK  status: ('A' for Active; 'I' for Inactive)
REMARK    1  A    between atoms: N_7  and  C_8 
REMARK    2  A    between atoms: C_8  and  C_9 
REMARK       I    between atoms: C_9  and  N_10 
REMARK    3  A    between atoms: N_10  and  C_11 
REMARK    4  A    between atoms: C_11  and  C_12 
REMARK    5  A    between atoms: C_12  and  C_13 
REMARK    6  A    between atoms: C_12  and  C_23 
REMARK    7  A    between atoms: C_26  and  O_27 
ROOT
HETATM    1  C   UNL     1      -8.490   2.471 -31.581  1.00  0.00     0.136 C 
ENDROOT
BRANCH   1   2
HETATM    2  N   UNL     1      -7.282   2.795 -30.842  1.00  0.00    -0.359 N 
HETATM    3  C   UNL     1      -6.755   4.073 -30.876  1.00  0.00     0.236 C 
HETATM    4  O   UNL     1      -7.225   4.971 -31.570  1.00  0.00    -0.272 OA
HETATM    5  H   UNL     1      -6.999   2.181 -30.082  1.00  0.00     0.162 HD
BRANCH   3   6
HETATM    6  C   UNL     1      -5.493   4.271 -30.041  1.00  0.00     0.239 C 
BRANCH   6   7
HETATM    7  N   UNL     1      -4.316   4.284 -30.883  1.00  0.00    -0.259 N 
HETATM    8  C   UNL     1      -3.819   3.196 -31.515  1.00  0.00     0.326 A 
HETATM    9  N   UNL     1      -2.714   3.567 -32.232  1.00  0.00    -0.324 N 
HETATM   10  O   UNL     1      -4.246   2.056 -31.445  1.00  0.00    -0.247 OA
HETATM   11  C   UNL     1      -2.419   4.987 -32.137  1.00  0.00     0.119 A 
HETATM   12  H   UNL     1      -2.181   2.887 -32.758  1.00  0.00     0.165 HD
HETATM   13  C   UNL     1      -2.593   5.698 -33.501  1.00  0.00     0.019 C 
HETATM   14  C   UNL     1      -3.560   5.388 -31.163  1.00  0.00     0.257 A 
HETATM   15  C   UNL     1      -1.045   5.201 -31.490  1.00  0.00     0.041 C 
HETATM   16  C   UNL     1      -1.873   4.963 -34.644  1.00  0.00     0.013 C 
HETATM   17  C   UNL     1      -2.117   7.161 -33.438  1.00  0.00     0.007 C 
HETATM   18  C   UNL     1      -0.713   7.306 -32.860  1.00  0.00     0.001 C 
HETATM   19  C   UNL     1      -0.602   6.663 -31.483  1.00  0.00     0.003 C 
HETATM   20  O   UNL     1      -3.767   6.516 -30.738  1.00  0.00    -0.270 OA
ENDBRANCH   6   7
ENDBRANCH   3   6
ENDBRANCH   1   2
BRANCH   1  21
HETATM   21  C   UNL     1      -8.373   2.265 -33.109  1.00  0.00     0.071 C 
BRANCH  21  22
HETATM   22  C   UNL     1      -9.647   2.449 -33.904  1.00  0.00    -0.020 A 
HETATM   23  C   UNL     1     -10.785   1.562 -33.876  1.00  0.00    -0.001 A 
HETATM   24  C   UNL     1     -11.749   2.075 -34.745  1.00  0.00     0.042 A 
HETATM   25  C   UNL     1     -11.086   0.370 -33.181  1.00  0.00     0.014 A 
HETATM   26  C   UNL     1     -12.988   1.460 -34.957  1.00  0.00     0.030 A 
HETATM   27  N   UNL     1     -11.234   3.230 -35.278  1.00  0.00    -0.365 N 
HETATM   28  C   UNL     1     -13.259   0.283 -34.256  1.00  0.00     0.002 A 
HETATM   29  C   UNL     1     -12.323  -0.256 -33.378  1.00  0.00     0.001 A 
HETATM   30  H   UNL     1     -11.723   3.827 -35.929  1.00  0.00     0.165 HD
HETATM   31  C   UNL     1      -9.982   3.467 -34.780  1.00  0.00     0.097 A 
ENDBRANCH  21  22
BRANCH  21  32
HETATM   32  C   UNL     1      -7.731   0.977 -33.603  1.00  0.00    -0.048 A 
HETATM   33  C   UNL     1      -7.201   0.073 -32.666  1.00  0.00     0.011 A 
HETATM   34  C   UNL     1      -6.601  -1.122 -33.074  1.00  0.00     0.037 A 
HETATM   35  C   UNL     1      -6.509  -1.446 -34.427  1.00  0.00     0.068 A 
HETATM   36  C   UNL     1      -7.019  -0.557 -35.370  1.00  0.00     0.037 A 
HETATM   37  C   UNL     1      -7.622   0.640 -34.961  1.00  0.00     0.011 A 
BRANCH  35  38
HETATM   38  O   UNL     1      -5.901  -2.642 -34.690  1.00  0.00    -0.356 OA
HETATM   39  C   UNL     1      -6.750  -3.770 -34.856  1.00  0.00     0.210 C 
ENDBRANCH  35  38
ENDBRANCH  21  32
ENDBRANCH   1  21
TORSDOF 7
ENDMDL
MODEL 4
REMARK VINA RESULT:      -9.7      3.204      4.812
REMARK  7 active torsions:
REMARK  status: ('A' for Active; 'I' for Inactive)
REMARK    1  A    between atoms: N_7  and  C_8 
REMARK    2  A    between atoms: C_8  and  C_9 
REMARK       I    between atoms: C_9  and  N_10 
REMARK    3  A    between atoms: N_10  and  C_11 
REMARK    4  A    between atoms: C_11  and  C_12 
REMARK    5  A    between atoms: C_12  and  C_13 
REMARK    6  A    between atoms: C_12  and  C_23 
REMARK    7  A    between atoms: C_26  and  O_27 
ROOT
HETATM    1  C   UNL     1      -3.150   3.534 -32.724  1.00  0.00     0.136 C 
ENDROOT
BRANCH   1   2
HETATM    2  N   UNL     1      -1.952   4.289 -32.399  1.00  0.00    -0.359 N 
HETATM    3  C   UNL     1      -2.006   5.662 -32.239  1.00  0.00     0.236 C 
HETATM    4  O   UNL     1      -3.028   6.317 -32.425  1.00  0.00    -0.272 OA
HETATM    5  H   UNL     1      -1.158   3.792 -32.005  1.00  0.00     0.162 HD
BRANCH   3   6
HETATM    6  C   UNL     1      -0.674   6.320 -31.885  1.00  0.00     0.239 C 
BRANCH   6   7
HETATM    7  N   UNL     1      -0.482   6.354 -30.451  1.00  0.00    -0.259 N 
HETATM    8  C   UNL     1       0.090   5.359 -29.735  1.00  0.00     0.326 A 
HETATM    9  N   UNL     1       0.125   5.726 -28.417  1.00  0.00    -0.324 N 
HETATM   10  O   UNL     1       0.483   4.287 -30.164  1.00  0.00    -0.247 OA
HETATM   11  C   UNL     1      -0.417   7.053 -28.177  1.00  0.00     0.119 A 
HETATM   12  H   UNL     1       0.494   5.102 -27.712  1.00  0.00     0.165 HD
HETATM   13  C   UNL     1       0.675   8.033 -27.683  1.00  0.00     0.019 C 
HETATM   14  C   UNL     1      -0.834   7.391 -29.634  1.00  0.00     0.257 A 
HETATM   15  C   UNL     1      -1.643   6.968 -27.261  1.00  0.00     0.041 C 
HETATM   16  C   UNL     1       1.505   7.453 -26.525  1.00  0.00     0.013 C 
HETATM   17  C   UNL     1       0.070   9.387 -27.267  1.00  0.00     0.007 C 
HETATM   18  C   UNL     1      -1.095   9.244 -26.292  1.00  0.00     0.001 C 
HETATM   19  C   UNL     1      -2.185   8.336 -26.848  1.00  0.00     0.003 C 
HETATM   20  O   UNL     1      -1.367   8.432 -29.996  1.00  0.00    -0.270 OA
ENDBRANCH   6   7
ENDBRANCH   3   6
ENDBRANCH   1   2
BRANCH   1  21
HETATM   21  C   UNL     1      -3.820   2.713 -31.597  1.00  0.00     0.071 C 
BRANCH  21  22
HETATM   22  C   UNL     1      -3.908   1.220 -31.824  1.00  0.00    -0.020 A 
HETATM   23  C   UNL     1      -4.794   0.568 -32.758  1.00  0.00    -0.001 A 
HETATM   24  C   UNL     1      -4.575  -0.807 -32.666  1.00  0.00     0.042 A 
HETATM   25  C   UNL     1      -5.757   1.025 -33.683  1.00  0.00     0.014 A 
HETATM   26  C   UNL     1      -5.269  -1.743 -33.442  1.00  0.00     0.030 A 
HETATM   27  N   UNL     1      -3.594  -0.995 -31.725  1.00  0.00    -0.365 N 
HETATM   28  C   UNL     1      -6.215  -1.261 -34.348  1.00  0.00     0.002 A 
HETATM   29  C   UNL     1      -6.458   0.104 -34.470  1.00  0.00     0.001 A 
HETATM   30  H   UNL     1      -3.217  -1.894 -31.462  1.00  0.00     0.165 HD
HETATM   31  C   UNL     1      -3.184   0.208 -31.218  1.00  0.00     0.097 A 
ENDBRANCH  21  22
BRANCH  21  32
HETATM   32  C   UNL     1      -5.190   3.165 -31.110  1.00  0.00    -0.048 A 
HETATM   33  C   UNL     1      -5.813   4.256 -31.738  1.00  0.00     0.011 A 
HETATM   34  C   UNL     1      -7.071   4.706 -31.325  1.00  0.00     0.037 A 
HETATM   35  C   UNL     1      -7.738   4.082 -30.272  1.00  0.00     0.068 A 
HETATM   36  C   UNL     1      -7.131   3.005 -29.631  1.00  0.00     0.037 A 
HETATM   37  C   UNL     1      -5.871   2.553 -30.047  1.00  0.00     0.011 A 
BRANCH  35  38
HETATM   38  O   UNL     1      -8.959   4.618 -29.968  1.00  0.00    -0.356 OA
HETATM   39  C   UNL     1      -8.980   5.987 -29.585  1.00  0.00     0.210 C 
ENDBRANCH  35  38
ENDBRANCH  21  32
ENDBRANCH   1  21
TORSDOF 7
ENDMDL
MODEL 5
REMARK VINA RESULT:      -9.7      2.432      5.211
REMARK  7 active torsions:
REMARK  status: ('A' for Active; 'I' for Inactive)
REMARK    1  A    between atoms: N_7  and  C_8 
REMARK    2  A    between atoms: C_8  and  C_9 
REMARK       I    between atoms: C_9  and  N_10 
REMARK    3  A    between atoms: N_10  and  C_11 
REMARK    4  A    between atoms: C_11  and  C_12 
REMARK    5  A    between atoms: C_12  and  C_13 
REMARK    6  A    between atoms: C_12  and  C_23 
REMARK    7  A    between atoms: C_26  and  O_27 
ROOT
HETATM    1  C   UNL     1      -7.657   1.983 -31.430  1.00  0.00     0.136 C 
ENDROOT
BRANCH   1   2
HETATM    2  N   UNL     1      -7.428   3.415 -31.330  1.00  0.00    -0.359 N 
HETATM    3  C   UNL     1      -6.476   3.918 -30.463  1.00  0.00     0.236 C 
HETATM    4  O   UNL     1      -5.831   3.209 -29.694  1.00  0.00    -0.272 OA
HETATM    5  H   UNL     1      -7.747   4.010 -32.090  1.00  0.00     0.162 HD
BRANCH   3   6
HETATM    6  C   UNL     1      -6.336   5.438 -30.474  1.00  0.00     0.239 C 
BRANCH   6   7
HETATM    7  N   UNL     1      -4.948   5.826 -30.603  1.00  0.00    -0.259 N 
HETATM    8  C   UNL     1      -4.181   6.262 -29.578  1.00  0.00     0.326 A 
HETATM    9  N   UNL     1      -2.923   6.528 -30.048  1.00  0.00    -0.324 N 
HETATM   10  O   UNL     1      -4.536   6.435 -28.424  1.00  0.00    -0.247 OA
HETATM   11  C   UNL     1      -2.769   6.242 -31.464  1.00  0.00     0.119 A 
HETATM   12  H   UNL     1      -2.204   6.890 -29.436  1.00  0.00     0.165 HD
HETATM   13  C   UNL     1      -1.779   5.077 -31.706  1.00  0.00     0.019 C 
HETATM   14  C   UNL     1      -4.225   5.793 -31.762  1.00  0.00     0.257 A 
HETATM   15  C   UNL     1      -2.424   7.526 -32.230  1.00  0.00     0.041 C 
HETATM   16  C   UNL     1      -0.461   5.254 -30.935  1.00  0.00     0.013 C 
HETATM   17  C   UNL     1      -1.487   4.889 -33.207  1.00  0.00     0.007 C 
HETATM   18  C   UNL     1      -1.071   6.184 -33.900  1.00  0.00     0.001 C 
HETATM   19  C   UNL     1      -2.108   7.283 -33.705  1.00  0.00     0.003 C 
HETATM   20  O   UNL     1      -4.649   5.437 -32.853  1.00  0.00    -0.270 OA
ENDBRANCH   6   7
ENDBRANCH   3   6
ENDBRANCH   1   2
BRANCH   1  21
HETATM   21  C   UNL     1      -7.968   1.393 -32.824  1.00  0.00     0.071 C 
BRANCH  21  22
HETATM   22  C   UNL     1      -9.414   1.033 -33.086  1.00  0.00    -0.020 A 
HETATM   23  C   UNL     1     -10.339   1.810 -33.876  1.00  0.00    -0.001 A 
HETATM   24  C   UNL     1     -11.566   1.147 -33.874  1.00  0.00     0.042 A 
HETATM   25  C   UNL     1     -10.239   3.017 -34.602  1.00  0.00     0.014 A 
HETATM   26  C   UNL     1     -12.693   1.627 -34.550  1.00  0.00     0.030 A 
HETATM   27  N   UNL     1     -11.405   0.008 -33.125  1.00  0.00    -0.365 N 
HETATM   28  C   UNL     1     -12.565   2.823 -35.260  1.00  0.00     0.002 A 
HETATM   29  C   UNL     1     -11.355   3.510 -35.288  1.00  0.00     0.001 A 
HETATM   30  H   UNL     1     -12.128  -0.678 -32.964  1.00  0.00     0.165 HD
HETATM   31  C   UNL     1     -10.124  -0.074 -32.653  1.00  0.00     0.097 A 
ENDBRANCH  21  22
BRANCH  21  32
HETATM   32  C   UNL     1      -7.130   0.214 -33.298  1.00  0.00    -0.048 A 
HETATM   33  C   UNL     1      -7.397  -0.353 -34.556  1.00  0.00     0.011 A 
HETATM   34  C   UNL     1      -6.653  -1.436 -35.033  1.00  0.00     0.037 A 
HETATM   35  C   UNL     1      -5.626  -1.986 -34.267  1.00  0.00     0.068 A 
HETATM   36  C   UNL     1      -5.354  -1.443 -33.013  1.00  0.00     0.037 A 
HETATM   37  C   UNL     1      -6.099  -0.356 -32.536  1.00  0.00     0.011 A 
BRANCH  35  38
HETATM   38  O   UNL     1      -4.977  -3.040 -34.848  1.00  0.00    -0.356 OA
HETATM   39  C   UNL     1      -5.722  -4.240 -35.011  1.00  0.00     0.210 C 
ENDBRANCH  35  38
ENDBRANCH  21  32
ENDBRANCH   1  21
TORSDOF 7
ENDMDL
MODEL 6
REMARK VINA RESULT:      -9.6      3.404      5.471
REMARK  7 active torsions:
REMARK  status: ('A' for Active; 'I' for Inactive)
REMARK    1  A    between atoms: N_7  and  C_8 
REMARK    2  A    between atoms: C_8  and  C_9 
REMARK       I    between atoms: C_9  and  N_10 
REMARK    3  A    between atoms: N_10  and  C_11 
REMARK    4  A    between atoms: C_11  and  C_12 
REMARK    5  A    between atoms: C_12  and  C_13 
REMARK    6  A    between atoms: C_12  and  C_23 
REMARK    7  A    between atoms: C_26  and  O_27 
ROOT
HETATM    1  C   UNL     1      -5.368   2.297 -29.896  1.00  0.00     0.136 C 
ENDROOT
BRANCH   1   2
HETATM    2  N   UNL     1      -5.617   3.673 -29.500  1.00  0.00    -0.359 N 
HETATM    3  C   UNL     1      -6.905   4.173 -29.456  1.00  0.00     0.236 C 
HETATM    4  O   UNL     1      -7.886   3.522 -29.807  1.00  0.00    -0.272 OA
HETATM    5  H   UNL     1      -4.894   4.166 -28.982  1.00  0.00     0.162 HD
BRANCH   3   6
HETATM    6  C   UNL     1      -7.015   5.629 -29.010  1.00  0.00     0.239 C 
BRANCH   6   7
HETATM    7  N   UNL     1      -5.705   6.232 -28.893  1.00  0.00    -0.259 N 
HETATM    8  C   UNL     1      -4.932   6.167 -27.785  1.00  0.00     0.326 A 
HETATM    9  N   UNL     1      -3.759   6.829 -28.024  1.00  0.00    -0.324 N 
HETATM   10  O   UNL     1      -5.225   5.643 -26.723  1.00  0.00    -0.247 OA
HETATM   11  C   UNL     1      -3.670   7.368 -29.371  1.00  0.00     0.119 A 
HETATM   12  H   UNL     1      -3.054   6.916 -27.305  1.00  0.00     0.165 HD
HETATM   13  C   UNL     1      -2.551   6.677 -30.188  1.00  0.00     0.019 C 
HETATM   14  C   UNL     1      -5.069   6.930 -29.881  1.00  0.00     0.257 A 
HETATM   15  C   UNL     1      -3.557   8.897 -29.324  1.00  0.00     0.041 C 
HETATM   16  C   UNL     1      -1.217   6.615 -29.425  1.00  0.00     0.013 C 
HETATM   17  C   UNL     1      -2.344   7.363 -31.551  1.00  0.00     0.007 C 
HETATM   18  C   UNL     1      -2.157   8.873 -31.436  1.00  0.00     0.001 C 
HETATM   19  C   UNL     1      -3.317   9.528 -30.695  1.00  0.00     0.003 C 
HETATM   20  O   UNL     1      -5.518   7.150 -30.998  1.00  0.00    -0.270 OA
ENDBRANCH   6   7
ENDBRANCH   3   6
ENDBRANCH   1   2
BRANCH   1  21
HETATM   21  C   UNL     1      -5.350   1.967 -31.406  1.00  0.00     0.071 C 
BRANCH  21  22
HETATM   22  C   UNL     1      -4.801   0.609 -31.784  1.00  0.00    -0.020 A 
HETATM   23  C   UNL     1      -5.281  -0.213 -32.869  1.00  0.00    -0.001 A 
HETATM   24  C   UNL     1      -4.521  -1.384 -32.886  1.00  0.00     0.042 A 
HETATM   25  C   UNL     1      -6.288  -0.062 -33.846  1.00  0.00     0.014 A 
HETATM   26  C   UNL     1      -4.719  -2.407 -33.820  1.00  0.00     0.030 A 
HETATM   27  N   UNL     1      -3.610  -1.286 -31.865  1.00  0.00    -0.365 N 
HETATM   28  C   UNL     1      -5.723  -2.230 -34.775  1.00  0.00     0.002 A 
HETATM   29  C   UNL     1      -6.497  -1.074 -34.791  1.00  0.00     0.001 A 
HETATM   30  H   UNL     1      -2.914  -1.985 -31.650  1.00  0.00     0.165 HD
HETATM   31  C   UNL     1      -3.764  -0.099 -31.202  1.00  0.00     0.097 A 
ENDBRANCH  21  22
BRANCH  21  32
HETATM   32  C   UNL     1      -4.706   2.977 -32.345  1.00  0.00    -0.048 A 
HETATM   33  C   UNL     1      -3.310   3.144 -32.316  1.00  0.00     0.011 A 
HETATM   34  C   UNL     1      -2.675   4.060 -33.160  1.00  0.00     0.037 A 
HETATM   35  C   UNL     1      -3.413   4.837 -34.051  1.00  0.00     0.068 A 
HETATM   36  C   UNL     1      -4.798   4.692 -34.086  1.00  0.00     0.037 A 
HETATM   37  C   UNL     1      -5.435   3.773 -33.241  1.00  0.00     0.011 A 
BRANCH  35  38
HETATM   38  O   UNL     1      -2.672   5.691 -34.818  1.00  0.00    -0.356 OA
HETATM   39  C   UNL     1      -1.258   5.566 -34.734  1.00  0.00     0.210 C 
ENDBRANCH  35  38
ENDBRANCH  21  32
ENDBRANCH   1  21
TORSDOF 7
ENDMDL
MODEL 7
REMARK VINA RESULT:      -9.6      2.231      5.116
REMARK  7 active torsions:
REMARK  status: ('A' for Active; 'I' for Inactive)
REMARK    1  A    between atoms: N_7  and  C_8 
REMARK    2  A    between atoms: C_8  and  C_9 
REMARK       I    between atoms: C_9  and  N_10 
REMARK    3  A    between atoms: N_10  and  C_11 
REMARK    4  A    between atoms: C_11  and  C_12 
REMARK    5  A    between atoms: C_12  and  C_13 
REMARK    6  A    between atoms: C_12  and  C_23 
REMARK    7  A    between atoms: C_26  and  O_27 
ROOT
HETATM    1  C   UNL     1      -7.623   2.149 -31.458  1.00  0.00     0.136 C 
ENDROOT
BRANCH   1   2
HETATM    2  N   UNL     1      -6.984   3.454 -31.413  1.00  0.00    -0.359 N 
HETATM    3  C   UNL     1      -7.741   4.611 -31.429  1.00  0.00     0.236 C 
HETATM    4  O   UNL     1      -8.964   4.608 -31.548  1.00  0.00    -0.272 OA
HETATM    5  H   UNL     1      -6.026   3.513 -31.078  1.00  0.00     0.162 HD
BRANCH   3   6
HETATM    6  C   UNL     1      -6.936   5.906 -31.363  1.00  0.00     0.239 C 
BRANCH   6   7
HETATM    7  N   UNL     1      -5.668   5.760 -32.044  1.00  0.00    -0.259 N 
HETATM    8  C   UNL     1      -5.539   5.467 -33.358  1.00  0.00     0.326 A 
HETATM    9  N   UNL     1      -4.208   5.417 -33.672  1.00  0.00    -0.324 N 
HETATM   10  O   UNL     1      -6.442   5.243 -34.146  1.00  0.00    -0.247 OA
HETATM   11  C   UNL     1      -3.342   5.716 -32.544  1.00  0.00     0.119 A 
HETATM   12  H   UNL     1      -3.901   5.185 -34.607  1.00  0.00     0.165 HD
HETATM   13  C   UNL     1      -2.556   7.032 -32.762  1.00  0.00     0.019 C 
HETATM   14  C   UNL     1      -4.441   5.910 -31.463  1.00  0.00     0.257 A 
HETATM   15  C   UNL     1      -2.458   4.506 -32.217  1.00  0.00     0.041 C 
HETATM   16  C   UNL     1      -1.869   7.086 -34.137  1.00  0.00     0.013 C 
HETATM   17  C   UNL     1      -1.516   7.258 -31.649  1.00  0.00     0.007 C 
HETATM   18  C   UNL     1      -0.613   6.049 -31.422  1.00  0.00     0.001 C 
HETATM   19  C   UNL     1      -1.421   4.790 -31.132  1.00  0.00     0.003 C 
HETATM   20  O   UNL     1      -4.239   6.181 -30.287  1.00  0.00    -0.270 OA
ENDBRANCH   6   7
ENDBRANCH   3   6
ENDBRANCH   1   2
BRANCH   1  21
HETATM   21  C   UNL     1      -7.924   1.535 -32.845  1.00  0.00     0.071 C 
BRANCH  21  22
HETATM   22  C   UNL     1      -9.365   1.154 -33.105  1.00  0.00    -0.020 A 
HETATM   23  C   UNL     1     -10.298   1.912 -33.905  1.00  0.00    -0.001 A 
HETATM   24  C   UNL     1     -11.517   1.234 -33.897  1.00  0.00     0.042 A 
HETATM   25  C   UNL     1     -10.211   3.111 -34.645  1.00  0.00     0.014 A 
HETATM   26  C   UNL     1     -12.649   1.693 -34.581  1.00  0.00     0.030 A 
HETATM   27  N   UNL     1     -11.344   0.106 -33.135  1.00  0.00    -0.365 N 
HETATM   28  C   UNL     1     -12.533   2.882 -35.305  1.00  0.00     0.002 A 
HETATM   29  C   UNL     1     -11.331   3.583 -35.339  1.00  0.00     0.001 A 
HETATM   30  H   UNL     1     -12.059  -0.587 -32.968  1.00  0.00     0.165 HD
HETATM   31  C   UNL     1     -10.063   0.044 -32.661  1.00  0.00     0.097 A 
ENDBRANCH  21  22
BRANCH  21  32
HETATM   32  C   UNL     1      -7.071   0.359 -33.299  1.00  0.00    -0.048 A 
HETATM   33  C   UNL     1      -7.216  -0.123 -34.612  1.00  0.00     0.011 A 
HETATM   34  C   UNL     1      -6.453  -1.201 -35.073  1.00  0.00     0.037 A 
HETATM   35  C   UNL     1      -5.531  -1.828 -34.237  1.00  0.00     0.068 A 
HETATM   36  C   UNL     1      -5.382  -1.370 -32.930  1.00  0.00     0.037 A 
HETATM   37  C   UNL     1      -6.145  -0.289 -32.468  1.00  0.00     0.011 A 
BRANCH  35  38
HETATM   38  O   UNL     1      -4.851  -2.867 -34.810  1.00  0.00    -0.356 OA
HETATM   39  C   UNL     1      -5.466  -4.148 -34.749  1.00  0.00     0.210 C 
ENDBRANCH  35  38
ENDBRANCH  21  32
ENDBRANCH   1  21
TORSDOF 7
ENDMDL
MODEL 8
REMARK VINA RESULT:      -9.4      3.321      5.630
REMARK  7 active torsions:
REMARK  status: ('A' for Active; 'I' for Inactive)
REMARK    1  A    between atoms: N_7  and  C_8 
REMARK    2  A    between atoms: C_8  and  C_9 
REMARK       I    between atoms: C_9  and  N_10 
REMARK    3  A    between atoms: N_10  and  C_11 
REMARK    4  A    between atoms: C_11  and  C_12 
REMARK    5  A    between atoms: C_12  and  C_13 
REMARK    6  A    between atoms: C_12  and  C_23 
REMARK    7  A    between atoms: C_26  and  O_27 
ROOT
HETATM    1  C   UNL     1      -8.365   0.867 -31.786  1.00  0.00     0.136 C 
ENDROOT
BRANCH   1   2
HETATM    2  N   UNL     1      -8.817   1.939 -30.915  1.00  0.00    -0.359 N 
HETATM    3  C   UNL     1      -9.716   2.886 -31.370  1.00  0.00     0.236 C 
HETATM    4  O   UNL     1     -10.123   2.918 -32.529  1.00  0.00    -0.272 OA
HETATM    5  H   UNL     1      -8.710   1.825 -29.911  1.00  0.00     0.162 HD
BRANCH   3   6
HETATM    6  C   UNL     1     -10.112   3.943 -30.342  1.00  0.00     0.239 C 
BRANCH   6   7
HETATM    7  N   UNL     1      -9.193   5.060 -30.373  1.00  0.00    -0.259 N 
HETATM    8  C   UNL     1      -9.433   6.226 -31.015  1.00  0.00     0.326 A 
HETATM    9  N   UNL     1      -8.365   7.063 -30.828  1.00  0.00    -0.324 N 
HETATM   10  O   UNL     1     -10.414   6.499 -31.686  1.00  0.00    -0.247 OA
HETATM   11  C   UNL     1      -7.326   6.486 -29.992  1.00  0.00     0.119 A 
HETATM   12  H   UNL     1      -8.341   7.980 -31.253  1.00  0.00     0.165 HD
HETATM   13  C   UNL     1      -7.178   7.254 -28.656  1.00  0.00     0.019 C 
HETATM   14  C   UNL     1      -7.975   5.096 -29.753  1.00  0.00     0.257 A 
HETATM   15  C   UNL     1      -6.020   6.352 -30.785  1.00  0.00     0.041 C 
HETATM   16  C   UNL     1      -7.075   8.775 -28.859  1.00  0.00     0.013 C 
HETATM   17  C   UNL     1      -5.967   6.751 -27.848  1.00  0.00     0.007 C 
HETATM   18  C   UNL     1      -4.679   6.715 -28.666  1.00  0.00     0.001 C 
HETATM   19  C   UNL     1      -4.841   5.885 -29.934  1.00  0.00     0.003 C 
HETATM   20  O   UNL     1      -7.488   4.189 -29.092  1.00  0.00    -0.270 OA
ENDBRANCH   6   7
ENDBRANCH   3   6
ENDBRANCH   1   2
BRANCH   1  21
HETATM   21  C   UNL     1      -6.866   0.817 -32.160  1.00  0.00     0.071 C 
BRANCH  21  22
HETATM   22  C   UNL     1      -6.311   2.045 -32.849  1.00  0.00    -0.020 A 
HETATM   23  C   UNL     1      -5.049   2.675 -32.544  1.00  0.00    -0.001 A 
HETATM   24  C   UNL     1      -4.903   3.773 -33.392  1.00  0.00     0.042 A 
HETATM   25  C   UNL     1      -4.010   2.403 -31.627  1.00  0.00     0.014 A 
HETATM   26  C   UNL     1      -3.784   4.612 -33.368  1.00  0.00     0.030 A 
HETATM   27  N   UNL     1      -6.020   3.815 -34.189  1.00  0.00    -0.365 N 
HETATM   28  C   UNL     1      -2.772   4.319 -32.451  1.00  0.00     0.002 A 
HETATM   29  C   UNL     1      -2.880   3.229 -31.592  1.00  0.00     0.001 A 
HETATM   30  H   UNL     1      -6.180   4.499 -34.915  1.00  0.00     0.165 HD
HETATM   31  C   UNL     1      -6.865   2.786 -33.878  1.00  0.00     0.097 A 
ENDBRANCH  21  22
BRANCH  21  32
HETATM   32  C   UNL     1      -6.370  -0.388 -32.945  1.00  0.00    -0.048 A 
HETATM   33  C   UNL     1      -7.265  -1.070 -33.788  1.00  0.00     0.011 A 
HETATM   34  C   UNL     1      -6.854  -2.183 -34.528  1.00  0.00     0.037 A 
HETATM   35  C   UNL     1      -5.543  -2.647 -34.446  1.00  0.00     0.068 A 
HETATM   36  C   UNL     1      -4.645  -1.990 -33.608  1.00  0.00     0.037 A 
HETATM   37  C   UNL     1      -5.056  -0.874 -32.866  1.00  0.00     0.011 A 
BRANCH  35  38
HETATM   38  O   UNL     1      -5.272  -3.741 -35.220  1.00  0.00    -0.356 OA
HETATM   39  C   UNL     1      -6.351  -4.631 -35.473  1.00  0.00     0.210 C 
ENDBRANCH  35  38
ENDBRANCH  21  32
ENDBRANCH   1  21
TORSDOF 7
ENDMDL
MODEL 9
REMARK VINA RESULT:      -9.4      2.759      8.209
REMARK  7 active torsions:
REMARK  status: ('A' for Active; 'I' for Inactive)
REMARK    1  A    between atoms: N_7  and  C_8 
REMARK    2  A    between atoms: C_8  and  C_9 
REMARK       I    between atoms: C_9  and  N_10 
REMARK    3  A    between atoms: N_10  and  C_11 
REMARK    4  A    between atoms: C_11  and  C_12 
REMARK    5  A    between atoms: C_12  and  C_13 
REMARK    6  A    between atoms: C_12  and  C_23 
REMARK    7  A    between atoms: C_26  and  O_27 
ROOT
HETATM    1  C   UNL     1      -5.711   1.824 -30.218  1.00  0.00     0.136 C 
ENDROOT
BRANCH   1   2
HETATM    2  N   UNL     1      -7.161   1.892 -30.144  1.00  0.00    -0.359 N 
HETATM    3  C   UNL     1      -7.834   3.035 -30.533  1.00  0.00     0.236 C 
HETATM    4  O   UNL     1      -7.259   4.060 -30.891  1.00  0.00    -0.272 OA
HETATM    5  H   UNL     1      -7.685   1.022 -30.092  1.00  0.00     0.162 HD
BRANCH   3   6
HETATM    6  C   UNL     1      -9.354   2.958 -30.415  1.00  0.00     0.239 C 
BRANCH   6   7
HETATM    7  N   UNL     1      -9.959   2.709 -31.705  1.00  0.00    -0.259 N 
HETATM    8  C   UNL     1      -9.924   1.518 -32.346  1.00  0.00     0.326 A 
HETATM    9  N   UNL     1     -10.603   1.632 -33.529  1.00  0.00    -0.324 N 
HETATM   10  O   UNL     1      -9.357   0.506 -31.971  1.00  0.00    -0.247 OA
HETATM   11  C   UNL     1     -11.177   2.951 -33.736  1.00  0.00     0.119 A 
HETATM   12  H   UNL     1     -10.669   0.852 -34.169  1.00  0.00     0.165 HD
HETATM   13  C   UNL     1     -12.724   2.904 -33.740  1.00  0.00     0.019 C 
HETATM   14  C   UNL     1     -10.654   3.628 -32.440  1.00  0.00     0.257 A 
HETATM   15  C   UNL     1     -10.567   3.606 -34.981  1.00  0.00     0.041 C 
HETATM   16  C   UNL     1     -13.278   1.806 -34.663  1.00  0.00     0.013 C 
HETATM   17  C   UNL     1     -13.327   4.267 -34.128  1.00  0.00     0.007 C 
HETATM   18  C   UNL     1     -12.740   4.833 -35.418  1.00  0.00     0.001 C 
HETATM   19  C   UNL     1     -11.222   4.937 -35.346  1.00  0.00     0.003 C 
HETATM   20  O   UNL     1     -10.857   4.790 -32.115  1.00  0.00    -0.270 OA
ENDBRANCH   6   7
ENDBRANCH   3   6
ENDBRANCH   1   2
BRANCH   1  21
HETATM   21  C   UNL     1      -5.062   1.639 -31.609  1.00  0.00     0.071 C 
BRANCH  21  22
HETATM   22  C   UNL     1      -4.286   0.356 -31.815  1.00  0.00    -0.020 A 
HETATM   23  C   UNL     1      -4.658  -0.710 -32.714  1.00  0.00    -0.001 A 
HETATM   24  C   UNL     1      -3.691  -1.711 -32.613  1.00  0.00     0.042 A 
HETATM   25  C   UNL     1      -5.727  -0.909 -33.614  1.00  0.00     0.014 A 
HETATM   26  C   UNL     1      -3.741  -2.896 -33.356  1.00  0.00     0.030 A 
HETATM   27  N   UNL     1      -2.761  -1.280 -31.701  1.00  0.00    -0.365 N 
HETATM   28  C   UNL     1      -4.810  -3.066 -34.238  1.00  0.00     0.002 A 
HETATM   29  C   UNL     1      -5.791  -2.087 -34.369  1.00  0.00     0.001 A 
HETATM   30  H   UNL     1      -1.934  -1.796 -31.439  1.00  0.00     0.165 HD
HETATM   31  C   UNL     1      -3.102  -0.045 -31.221  1.00  0.00     0.097 A 
ENDBRANCH  21  22
BRANCH  21  32
HETATM   32  C   UNL     1      -4.193   2.768 -32.142  1.00  0.00    -0.048 A 
HETATM   33  C   UNL     1      -4.579   3.431 -33.320  1.00  0.00     0.011 A 
HETATM   34  C   UNL     1      -3.812   4.474 -33.846  1.00  0.00     0.037 A 
HETATM   35  C   UNL     1      -2.637   4.882 -33.215  1.00  0.00     0.068 A 
HETATM   36  C   UNL     1      -2.234   4.229 -32.053  1.00  0.00     0.037 A 
HETATM   37  C   UNL     1      -3.004   3.184 -31.524  1.00  0.00     0.011 A 
BRANCH  35  38
HETATM   38  O   UNL     1      -1.982   5.911 -33.832  1.00  0.00    -0.356 OA
HETATM   39  C   UNL     1      -2.000   7.170 -33.171  1.00  0.00     0.210 C 
ENDBRANCH  35  38
ENDBRANCH  21  32
ENDBRANCH   1  21
TORSDOF 7
ENDMDL
MODEL 10
REMARK VINA RESULT:      -9.4      1.983      5.185
REMARK  7 active torsions:
REMARK  status: ('A' for Active; 'I' for Inactive)
REMARK    1  A    between atoms: N_7  and  C_8 
REMARK    2  A    between atoms: C_8  and  C_9 
REMARK       I    between atoms: C_9  and  N_10 
REMARK    3  A    between atoms: N_10  and  C_11 
REMARK    4  A    between atoms: C_11  and  C_12 
REMARK    5  A    between atoms: C_12  and  C_13 
REMARK    6  A    between atoms: C_12  and  C_23 
REMARK    7  A    between atoms: C_26  and  O_27 
ROOT
HETATM    1  C   UNL     1      -7.005   2.507 -32.734  1.00  0.00     0.136 C 
ENDROOT
BRANCH   1   2
HETATM    2  N   UNL     1      -5.723   3.111 -33.054  1.00  0.00    -0.359 N 
HETATM    3  C   UNL     1      -5.659   4.299 -33.759  1.00  0.00     0.236 C 
HETATM    4  O   UNL     1      -6.654   4.865 -34.206  1.00  0.00    -0.272 OA
HETATM    5  H   UNL     1      -4.907   2.828 -32.518  1.00  0.00     0.162 HD
BRANCH   3   6
HETATM    6  C   UNL     1      -4.247   4.822 -34.011  1.00  0.00     0.239 C 
BRANCH   6   7
HETATM    7  N   UNL     1      -3.620   5.228 -32.772  1.00  0.00    -0.259 N 
HETATM    8  C   UNL     1      -2.830   4.429 -32.020  1.00  0.00     0.326 A 
HETATM    9  N   UNL     1      -2.397   5.134 -30.929  1.00  0.00    -0.324 N 
HETATM   10  O   UNL     1      -2.562   3.259 -32.236  1.00  0.00    -0.247 OA
HETATM   11  C   UNL     1      -2.871   6.507 -30.911  1.00  0.00     0.119 A 
HETATM   12  H   UNL     1      -1.811   4.701 -30.228  1.00  0.00     0.165 HD
HETATM   13  C   UNL     1      -1.704   7.514 -31.062  1.00  0.00     0.019 C 
HETATM   14  C   UNL     1      -3.728   6.467 -32.205  1.00  0.00     0.257 A 
HETATM   15  C   UNL     1      -3.750   6.749 -29.677  1.00  0.00     0.041 C 
HETATM   16  C   UNL     1      -0.542   7.218 -30.100  1.00  0.00     0.013 C 
HETATM   17  C   UNL     1      -2.185   8.965 -30.870  1.00  0.00     0.007 C 
HETATM   18  C   UNL     1      -2.986   9.163 -29.587  1.00  0.00     0.001 C 
HETATM   19  C   UNL     1      -4.171   8.208 -29.511  1.00  0.00     0.003 C 
HETATM   20  O   UNL     1      -4.373   7.403 -32.658  1.00  0.00    -0.270 OA
ENDBRANCH   6   7
ENDBRANCH   3   6
ENDBRANCH   1   2
BRANCH   1  21
HETATM   21  C   UNL     1      -7.558   1.424 -33.689  1.00  0.00     0.071 C 
BRANCH  21  22
HETATM   22  C   UNL     1      -9.008   1.040 -33.491  1.00  0.00    -0.020 A 
HETATM   23  C   UNL     1     -10.142   1.761 -34.018  1.00  0.00    -0.001 A 
HETATM   24  C   UNL     1     -11.298   1.093 -33.615  1.00  0.00     0.042 A 
HETATM   25  C   UNL     1     -10.288   2.920 -34.812  1.00  0.00     0.014 A 
HETATM   26  C   UNL     1     -12.586   1.523 -33.957  1.00  0.00     0.030 A 
HETATM   27  N   UNL     1     -10.898   0.005 -32.881  1.00  0.00    -0.365 N 
HETATM   28  C   UNL     1     -12.700   2.671 -34.743  1.00  0.00     0.002 A 
HETATM   29  C   UNL     1     -11.568   3.362 -35.167  1.00  0.00     0.001 A 
HETATM   30  H   UNL     1     -11.525  -0.674 -32.474  1.00  0.00     0.165 HD
HETATM   31  C   UNL     1      -9.533  -0.040 -32.804  1.00  0.00     0.097 A 
ENDBRANCH  21  22
BRANCH  21  32
HETATM   32  C   UNL     1      -6.774   0.126 -33.818  1.00  0.00    -0.048 A 
HETATM   33  C   UNL     1      -7.055  -0.739 -34.889  1.00  0.00     0.011 A 
HETATM   34  C   UNL     1      -6.361  -1.942 -35.047  1.00  0.00     0.037 A 
HETATM   35  C   UNL     1      -5.371  -2.317 -34.140  1.00  0.00     0.068 A 
HETATM   36  C   UNL     1      -5.086  -1.476 -33.066  1.00  0.00     0.037 A 
HETATM   37  C   UNL     1      -5.781  -0.269 -32.908  1.00  0.00     0.011 A 
BRANCH  35  38
HETATM   38  O   UNL     1      -4.769  -3.515 -34.409  1.00  0.00    -0.356 OA
HETATM   39  C   UNL     1      -5.615  -4.577 -34.829  1.00  0.00     0.210 C 
ENDBRANCH  35  38
ENDBRANCH  21  32
ENDBRANCH   1  21
TORSDOF 7
ENDMDL
