MODEL 1
REMARK VINA RESULT:      -8.6      0.000      0.000
REMARK  2 active torsions:
REMARK  status: ('A' for Active; 'I' for Inactive)
REMARK    1  A    between atoms: C_5  and  O_6 
REMARK    2  A    between atoms: C_5  and  C_7 
ROOT
HETATM    1  C   UNL     1      -5.828   5.016 -32.798  1.00  0.00     0.050 C 
HETATM    2  C   UNL     1      -6.008   3.676 -32.158  1.00  0.00    -0.034 A 
HETATM    3  C   UNL     1      -6.305   2.534 -32.887  1.00  0.00     0.052 A 
HETATM    4  C   UNL     1      -6.450   1.263 -32.306  1.00  0.00     0.039 A 
HETATM    5  C   UNL     1      -6.789   0.265 -33.382  1.00  0.00     0.200 A 
HETATM    6  C   UNL     1      -6.789   1.158 -34.663  1.00  0.00     0.266 A 
HETATM    7  O   UNL     1      -7.063   0.819 -35.805  1.00  0.00    -0.269 OA
HETATM    8  N   UNL     1      -6.491   2.457 -34.264  1.00  0.00    -0.323 N 
HETATM    9  C   UNL     1      -6.301   1.119 -30.938  1.00  0.00     0.046 A 
HETATM   10 CL   UNL     1      -6.494  -0.390 -30.138  1.00  0.00    -0.084 Cl
HETATM   11  C   UNL     1      -5.979   2.249 -30.176  1.00  0.00     0.025 A 
HETATM   12  C   UNL     1      -5.828   3.510 -30.778  1.00  0.00     0.011 A 
HETATM   13  H   UNL     1      -6.460   3.227 -34.914  1.00  0.00     0.169 HD
ENDROOT
BRANCH   5  14
HETATM   14  O   UNL     1      -8.099  -0.253 -33.169  1.00  0.00    -0.371 OA
HETATM   15  H   UNL     1      -8.563  -0.108 -34.012  1.00  0.00     0.212 HD
ENDBRANCH   5  14
BRANCH   5  16
HETATM   16  C   UNL     1      -5.724  -0.803 -33.441  1.00  0.00     0.018 A 
HETATM   17  C   UNL     1      -5.810  -2.148 -33.962  1.00  0.00     0.002 A 
HETATM   18  C   UNL     1      -4.562  -2.750 -33.782  1.00  0.00     0.043 A 
HETATM   19  C   UNL     1      -6.822  -2.915 -34.579  1.00  0.00     0.014 A 
HETATM   20  C   UNL     1      -4.278  -4.061 -34.185  1.00  0.00     0.030 A 
HETATM   21  N   UNL     1      -3.748  -1.829 -33.172  1.00  0.00    -0.365 N 
HETATM   22  C   UNL     1      -5.298  -4.788 -34.800  1.00  0.00     0.002 A 
HETATM   23  C   UNL     1      -6.554  -4.225 -34.996  1.00  0.00     0.001 A 
HETATM   24  H   UNL     1      -2.783  -1.994 -32.921  1.00  0.00     0.165 HD
HETATM   25  C   UNL     1      -4.428  -0.664 -32.963  1.00  0.00     0.100 A 
ENDBRANCH   5  16
TORSDOF 2
ENDMDL
MODEL 2
REMARK VINA RESULT:      -8.3      2.214      6.003
REMARK  2 active torsions:
REMARK  status: ('A' for Active; 'I' for Inactive)
REMARK    1  A    between atoms: C_5  and  O_6 
REMARK    2  A    between atoms: C_5  and  C_7 
ROOT
HETATM    1  C   UNL     1      -3.098  -2.500 -31.880  1.00  0.00     0.050 C 
HETATM    2  C   UNL     1      -4.195  -1.843 -32.659  1.00  0.00    -0.034 A 
HETATM    3  C   UNL     1      -4.895  -0.745 -32.181  1.00  0.00     0.052 A 
HETATM    4  C   UNL     1      -5.908  -0.099 -32.911  1.00  0.00     0.039 A 
HETATM    5  C   UNL     1      -6.462   1.033 -32.087  1.00  0.00     0.200 A 
HETATM    6  C   UNL     1      -5.592   0.948 -30.792  1.00  0.00     0.266 A 
HETATM    7  O   UNL     1      -5.693   1.631 -29.784  1.00  0.00    -0.269 OA
HETATM    8  N   UNL     1      -4.711  -0.115 -30.955  1.00  0.00    -0.323 N 
HETATM    9  C   UNL     1      -6.248  -0.570 -34.167  1.00  0.00     0.046 A 
HETATM   10 CL   UNL     1      -7.497   0.136 -35.113  1.00  0.00    -0.084 Cl
HETATM   11  C   UNL     1      -5.545  -1.664 -34.686  1.00  0.00     0.025 A 
HETATM   12  C   UNL     1      -4.528  -2.289 -33.944  1.00  0.00     0.011 A 
HETATM   13  H   UNL     1      -4.060  -0.391 -30.235  1.00  0.00     0.169 HD
ENDROOT
BRANCH   5  14
HETATM   14  O   UNL     1      -7.825   0.774 -31.757  1.00  0.00    -0.371 OA
HETATM   15  H   UNL     1      -8.329   1.072 -32.534  1.00  0.00     0.212 HD
ENDBRANCH   5  14
BRANCH   5  16
HETATM   16  C   UNL     1      -6.260   2.339 -32.815  1.00  0.00     0.018 A 
HETATM   17  C   UNL     1      -5.046   3.098 -33.007  1.00  0.00     0.002 A 
HETATM   18  C   UNL     1      -5.373   4.241 -33.740  1.00  0.00     0.043 A 
HETATM   19  C   UNL     1      -3.693   2.924 -32.638  1.00  0.00     0.014 A 
HETATM   20  C   UNL     1      -4.430   5.204 -34.120  1.00  0.00     0.030 A 
HETATM   21  N   UNL     1      -6.724   4.198 -33.981  1.00  0.00    -0.365 N 
HETATM   22  C   UNL     1      -3.101   4.997 -33.748  1.00  0.00     0.002 A 
HETATM   23  C   UNL     1      -2.735   3.872 -33.018  1.00  0.00     0.001 A 
HETATM   24  H   UNL     1      -7.236   4.902 -34.495  1.00  0.00     0.165 HD
HETATM   25  C   UNL     1      -7.265   3.070 -33.436  1.00  0.00     0.100 A 
ENDBRANCH   5  16
TORSDOF 2
ENDMDL
MODEL 3
REMARK VINA RESULT:      -8.2      2.428      6.130
REMARK  2 active torsions:
REMARK  status: ('A' for Active; 'I' for Inactive)
REMARK    1  A    between atoms: C_5  and  O_6 
REMARK    2  A    between atoms: C_5  and  C_7 
ROOT
HETATM    1  C   UNL     1      -4.485  -2.084 -33.709  1.00  0.00     0.050 C 
HETATM    2  C   UNL     1      -5.755  -1.298 -33.798  1.00  0.00    -0.034 A 
HETATM    3  C   UNL     1      -6.227  -0.521 -32.750  1.00  0.00     0.052 A 
HETATM    4  C   UNL     1      -7.402   0.245 -32.826  1.00  0.00     0.039 A 
HETATM    5  C   UNL     1      -7.623   0.941 -31.508  1.00  0.00     0.200 A 
HETATM    6  C   UNL     1      -6.381   0.472 -30.684  1.00  0.00     0.266 A 
HETATM    7  O   UNL     1      -6.127   0.727 -29.515  1.00  0.00    -0.269 OA
HETATM    8  N   UNL     1      -5.634  -0.369 -31.501  1.00  0.00    -0.323 N 
HETATM    9  C   UNL     1      -8.147   0.236 -33.992  1.00  0.00     0.046 A 
HETATM   10 CL   UNL     1      -9.614   1.115 -34.161  1.00  0.00    -0.084 Cl
HETATM   11  C   UNL     1      -7.686  -0.520 -35.076  1.00  0.00     0.025 A 
HETATM   12  C   UNL     1      -6.502  -1.272 -34.983  1.00  0.00     0.011 A 
HETATM   13  H   UNL     1      -4.793  -0.824 -31.180  1.00  0.00     0.169 HD
ENDROOT
BRANCH   5  14
HETATM   14  O   UNL     1      -8.810   0.449 -30.892  1.00  0.00    -0.371 OA
HETATM   15  H   UNL     1      -9.299   1.247 -30.626  1.00  0.00     0.212 HD
ENDBRANCH   5  14
BRANCH   5  16
HETATM   16  C   UNL     1      -7.629   2.435 -31.715  1.00  0.00     0.018 A 
HETATM   17  C   UNL     1      -6.650   3.268 -32.376  1.00  0.00     0.002 A 
HETATM   18  C   UNL     1      -7.100   4.588 -32.301  1.00  0.00     0.043 A 
HETATM   19  C   UNL     1      -5.427   3.032 -33.041  1.00  0.00     0.014 A 
HETATM   20  C   UNL     1      -6.401   5.669 -32.853  1.00  0.00     0.030 A 
HETATM   21  N   UNL     1      -8.292   4.576 -31.619  1.00  0.00    -0.365 N 
HETATM   22  C   UNL     1      -5.201   5.401 -33.511  1.00  0.00     0.002 A 
HETATM   23  C   UNL     1      -4.718   4.100 -33.607  1.00  0.00     0.001 A 
HETATM   24  H   UNL     1      -8.845   5.397 -31.418  1.00  0.00     0.165 HD
HETATM   25  C   UNL     1      -8.619   3.299 -31.265  1.00  0.00     0.100 A 
ENDBRANCH   5  16
TORSDOF 2
ENDMDL
MODEL 4
REMARK VINA RESULT:      -7.9      3.361      4.577
REMARK  2 active torsions:
REMARK  status: ('A' for Active; 'I' for Inactive)
REMARK    1  A    between atoms: C_5  and  O_6 
REMARK    2  A    between atoms: C_5  and  C_7 
ROOT
HETATM    1  C   UNL     1     -12.741   3.051 -35.342  1.00  0.00     0.050 C 
HETATM    2  C   UNL     1     -11.404   3.140 -34.677  1.00  0.00    -0.034 A 
HETATM    3  C   UNL     1     -10.849   2.081 -33.973  1.00  0.00     0.052 A 
HETATM    4  C   UNL     1      -9.582   2.137 -33.366  1.00  0.00     0.039 A 
HETATM    5  C   UNL     1      -9.308   0.827 -32.676  1.00  0.00     0.200 A 
HETATM    6  C   UNL     1     -10.599   0.012 -33.005  1.00  0.00     0.266 A 
HETATM    7  O   UNL     1     -10.886  -1.113 -32.620  1.00  0.00    -0.269 OA
HETATM    8  N   UNL     1     -11.425   0.831 -33.767  1.00  0.00    -0.323 N 
HETATM    9  C   UNL     1      -8.836   3.299 -33.455  1.00  0.00     0.046 A 
HETATM   10 CL   UNL     1      -7.294   3.468 -32.715  1.00  0.00    -0.084 Cl
HETATM   11  C   UNL     1      -9.359   4.378 -34.177  1.00  0.00     0.025 A 
HETATM   12  C   UNL     1     -10.623   4.298 -34.786  1.00  0.00     0.011 A 
HETATM   13  H   UNL     1     -12.337   0.536 -34.081  1.00  0.00     0.169 HD
ENDROOT
BRANCH   5  14
HETATM   14  O   UNL     1      -9.224   1.028 -31.267  1.00  0.00    -0.371 OA
HETATM   15  H   UNL     1     -10.014   0.588 -30.907  1.00  0.00     0.212 HD
ENDBRANCH   5  14
BRANCH   5  16
HETATM   16  C   UNL     1      -8.075   0.189 -33.265  1.00  0.00     0.018 A 
HETATM   17  C   UNL     1      -6.805  -0.094 -32.635  1.00  0.00     0.002 A 
HETATM   18  C   UNL     1      -5.979  -0.682 -33.596  1.00  0.00     0.043 A 
HETATM   19  C   UNL     1      -6.274   0.084 -31.339  1.00  0.00     0.014 A 
HETATM   20  C   UNL     1      -4.669  -1.100 -33.329  1.00  0.00     0.030 A 
HETATM   21  N   UNL     1      -6.697  -0.753 -34.764  1.00  0.00    -0.365 N 
HETATM   22  C   UNL     1      -4.179  -0.918 -32.036  1.00  0.00     0.002 A 
HETATM   23  C   UNL     1      -4.969  -0.335 -31.051  1.00  0.00     0.001 A 
HETATM   24  H   UNL     1      -6.346  -1.138 -35.630  1.00  0.00     0.165 HD
HETATM   25  C   UNL     1      -7.948  -0.238 -34.580  1.00  0.00     0.100 A 
ENDBRANCH   5  16
TORSDOF 2
ENDMDL
MODEL 5
REMARK VINA RESULT:      -7.8      2.294      5.794
REMARK  2 active torsions:
REMARK  status: ('A' for Active; 'I' for Inactive)
REMARK    1  A    between atoms: C_5  and  O_6 
REMARK    2  A    between atoms: C_5  and  C_7 
ROOT
HETATM    1  C   UNL     1      -4.123  -3.243 -33.842  1.00  0.00     0.050 C 
HETATM    2  C   UNL     1      -4.263  -1.917 -33.164  1.00  0.00    -0.034 A 
HETATM    3  C   UNL     1      -5.223  -0.986 -33.534  1.00  0.00     0.052 A 
HETATM    4  C   UNL     1      -5.387   0.252 -32.890  1.00  0.00     0.039 A 
HETATM    5  C   UNL     1      -6.500   1.013 -33.560  1.00  0.00     0.200 A 
HETATM    6  C   UNL     1      -6.959   0.007 -34.664  1.00  0.00     0.266 A 
HETATM    7  O   UNL     1      -7.816   0.184 -35.519  1.00  0.00    -0.269 OA
HETATM    8  N   UNL     1      -6.156  -1.122 -34.557  1.00  0.00    -0.323 N 
HETATM    9  C   UNL     1      -4.555   0.586 -31.836  1.00  0.00     0.046 A 
HETATM   10 CL   UNL     1      -4.661   2.092 -31.013  1.00  0.00    -0.084 Cl
HETATM   11  C   UNL     1      -3.590  -0.341 -31.423  1.00  0.00     0.025 A 
HETATM   12  C   UNL     1      -3.449  -1.578 -32.075  1.00  0.00     0.011 A 
HETATM   13  H   UNL     1      -6.241  -1.907 -35.185  1.00  0.00     0.169 HD
ENDROOT
BRANCH   5  14
HETATM   14  O   UNL     1      -5.983   2.188 -34.179  1.00  0.00    -0.371 OA
HETATM   15  H   UNL     1      -5.045   1.988 -34.344  1.00  0.00     0.212 HD
ENDBRANCH   5  14
BRANCH   5  16
HETATM   16  C   UNL     1      -7.598   1.293 -32.564  1.00  0.00     0.018 A 
HETATM   17  C   UNL     1      -8.004   2.554 -31.986  1.00  0.00     0.002 A 
HETATM   18  C   UNL     1      -9.061   2.295 -31.109  1.00  0.00     0.043 A 
HETATM   19  C   UNL     1      -7.584   3.895 -32.124  1.00  0.00     0.014 A 
HETATM   20  C   UNL     1      -9.713   3.296 -30.378  1.00  0.00     0.030 A 
HETATM   21  N   UNL     1      -9.292   0.942 -31.136  1.00  0.00    -0.365 N 
HETATM   22  C   UNL     1      -9.281   4.612 -30.546  1.00  0.00     0.002 A 
HETATM   23  C   UNL     1      -8.231   4.910 -31.408  1.00  0.00     0.001 A 
HETATM   24  H   UNL     1     -10.005   0.472 -30.596  1.00  0.00     0.165 HD
HETATM   25  C   UNL     1      -8.427   0.333 -31.999  1.00  0.00     0.100 A 
ENDBRANCH   5  16
TORSDOF 2
ENDMDL
MODEL 6
REMARK VINA RESULT:      -7.8     14.659     15.819
REMARK  2 active torsions:
REMARK  status: ('A' for Active; 'I' for Inactive)
REMARK    1  A    between atoms: C_5  and  O_6 
REMARK    2  A    between atoms: C_5  and  C_7 
ROOT
HETATM    1  C   UNL     1       0.158 -14.901 -40.244  1.00  0.00     0.050 C 
HETATM    2  C   UNL     1      -0.929 -14.310 -39.403  1.00  0.00    -0.034 A 
HETATM    3  C   UNL     1      -2.173 -13.975 -39.918  1.00  0.00     0.052 A 
HETATM    4  C   UNL     1      -3.214 -13.445 -39.136  1.00  0.00     0.039 A 
HETATM    5  C   UNL     1      -4.407 -13.181 -40.017  1.00  0.00     0.200 A 
HETATM    6  C   UNL     1      -3.892 -13.665 -41.411  1.00  0.00     0.266 A 
HETATM    7  O   UNL     1      -4.482 -13.610 -42.480  1.00  0.00    -0.269 OA
HETATM    8  N   UNL     1      -2.586 -14.112 -41.239  1.00  0.00    -0.323 N 
HETATM    9  C   UNL     1      -3.010 -13.231 -37.784  1.00  0.00     0.046 A 
HETATM   10 CL   UNL     1      -4.214 -12.556 -36.761  1.00  0.00    -0.084 Cl
HETATM   11  C   UNL     1      -1.772 -13.580 -37.230  1.00  0.00     0.025 A 
HETATM   12  C   UNL     1      -0.747 -14.118 -38.027  1.00  0.00     0.011 A 
HETATM   13  H   UNL     1      -2.026 -14.449 -42.007  1.00  0.00     0.169 HD
ENDROOT
BRANCH   5  14
HETATM   14  O   UNL     1      -4.670 -11.782 -40.073  1.00  0.00    -0.371 OA
HETATM   15  H   UNL     1      -5.141 -11.585 -39.244  1.00  0.00     0.212 HD
ENDBRANCH   5  14
BRANCH   5  16
HETATM   16  C   UNL     1      -5.584 -13.994 -39.539  1.00  0.00     0.018 A 
HETATM   17  C   UNL     1      -6.990 -13.664 -39.563  1.00  0.00     0.002 A 
HETATM   18  C   UNL     1      -7.686 -14.737 -39.000  1.00  0.00     0.043 A 
HETATM   19  C   UNL     1      -7.747 -12.560 -40.016  1.00  0.00     0.014 A 
HETATM   20  C   UNL     1      -9.080 -14.764 -38.872  1.00  0.00     0.030 A 
HETATM   21  N   UNL     1      -6.757 -15.680 -38.637  1.00  0.00    -0.365 N 
HETATM   22  C   UNL     1      -9.799 -13.662 -39.337  1.00  0.00     0.002 A 
HETATM   23  C   UNL     1      -9.143 -12.574 -39.903  1.00  0.00     0.001 A 
HETATM   24  H   UNL     1      -6.980 -16.566 -38.204  1.00  0.00     0.165 HD
HETATM   25  C   UNL     1      -5.501 -15.251 -38.954  1.00  0.00     0.100 A 
ENDBRANCH   5  16
TORSDOF 2
ENDMDL
MODEL 7
REMARK VINA RESULT:      -7.7      2.700      6.513
REMARK  2 active torsions:
REMARK  status: ('A' for Active; 'I' for Inactive)
REMARK    1  A    between atoms: C_5  and  O_6 
REMARK    2  A    between atoms: C_5  and  C_7 
ROOT
HETATM    1  C   UNL     1      -4.486  -2.278 -33.776  1.00  0.00     0.050 C 
HETATM    2  C   UNL     1      -5.702  -1.410 -33.837  1.00  0.00    -0.034 A 
HETATM    3  C   UNL     1      -6.143  -0.666 -32.752  1.00  0.00     0.052 A 
HETATM    4  C   UNL     1      -7.268   0.176 -32.799  1.00  0.00     0.039 A 
HETATM    5  C   UNL     1      -7.466   0.808 -31.446  1.00  0.00     0.200 A 
HETATM    6  C   UNL     1      -6.270   0.217 -30.634  1.00  0.00     0.266 A 
HETATM    7  O   UNL     1      -6.020   0.389 -29.450  1.00  0.00    -0.269 OA
HETATM    8  N   UNL     1      -5.563  -0.622 -31.488  1.00  0.00    -0.323 N 
HETATM    9  C   UNL     1      -7.992   0.279 -33.973  1.00  0.00     0.046 A 
HETATM   10 CL   UNL     1      -9.398   1.257 -34.111  1.00  0.00    -0.084 Cl
HETATM   11  C   UNL     1      -7.560  -0.442 -35.093  1.00  0.00     0.025 A 
HETATM   12  C   UNL     1      -6.426  -1.271 -35.028  1.00  0.00     0.011 A 
HETATM   13  H   UNL     1      -4.757  -1.147 -31.183  1.00  0.00     0.169 HD
ENDROOT
BRANCH   5  14
HETATM   14  O   UNL     1      -8.693   0.358 -30.875  1.00  0.00    -0.371 OA
HETATM   15  H   UNL     1      -8.517   0.309 -29.920  1.00  0.00     0.212 HD
ENDBRANCH   5  14
BRANCH   5  16
HETATM   16  C   UNL     1      -7.377   2.309 -31.567  1.00  0.00     0.018 A 
HETATM   17  C   UNL     1      -8.372   3.310 -31.257  1.00  0.00     0.002 A 
HETATM   18  C   UNL     1      -7.817   4.560 -31.545  1.00  0.00     0.043 A 
HETATM   19  C   UNL     1      -9.690   3.282 -30.751  1.00  0.00     0.014 A 
HETATM   20  C   UNL     1      -8.503   5.766 -31.351  1.00  0.00     0.030 A 
HETATM   21  N   UNL     1      -6.547   4.344 -32.018  1.00  0.00    -0.365 N 
HETATM   22  C   UNL     1      -9.800   5.703 -30.841  1.00  0.00     0.002 A 
HETATM   23  C   UNL     1     -10.388   4.478 -30.543  1.00  0.00     0.001 A 
HETATM   24  H   UNL     1      -5.911   5.075 -32.305  1.00  0.00     0.165 HD
HETATM   25  C   UNL     1      -6.271   3.007 -32.036  1.00  0.00     0.100 A 
ENDBRANCH   5  16
TORSDOF 2
ENDMDL
MODEL 8
REMARK VINA RESULT:      -7.7      2.327      6.345
REMARK  2 active torsions:
REMARK  status: ('A' for Active; 'I' for Inactive)
REMARK    1  A    between atoms: C_5  and  O_6 
REMARK    2  A    between atoms: C_5  and  C_7 
ROOT
HETATM    1  C   UNL     1      -4.494  -2.990 -34.633  1.00  0.00     0.050 C 
HETATM    2  C   UNL     1      -5.302  -1.942 -33.935  1.00  0.00    -0.034 A 
HETATM    3  C   UNL     1      -4.766  -1.111 -32.961  1.00  0.00     0.052 A 
HETATM    4  C   UNL     1      -5.503  -0.103 -32.316  1.00  0.00     0.039 A 
HETATM    5  C   UNL     1      -4.619   0.585 -31.310  1.00  0.00     0.200 A 
HETATM    6  C   UNL     1      -3.263  -0.168 -31.501  1.00  0.00     0.266 A 
HETATM    7  O   UNL     1      -2.230  -0.008 -30.868  1.00  0.00    -0.269 OA
HETATM    8  N   UNL     1      -3.458  -1.128 -32.487  1.00  0.00    -0.323 N 
HETATM    9  C   UNL     1      -6.833   0.084 -32.646  1.00  0.00     0.046 A 
HETATM   10 CL   UNL     1      -7.819   1.268 -31.884  1.00  0.00    -0.084 Cl
HETATM   11  C   UNL     1      -7.398  -0.723 -33.641  1.00  0.00     0.025 A 
HETATM   12  C   UNL     1      -6.641  -1.719 -34.281  1.00  0.00     0.011 A 
HETATM   13  H   UNL     1      -2.730  -1.766 -32.770  1.00  0.00     0.169 HD
ENDROOT
BRANCH   5  14
HETATM   14  O   UNL     1      -5.107   0.349 -29.992  1.00  0.00    -0.371 OA
HETATM   15  H   UNL     1      -4.758  -0.527 -29.752  1.00  0.00     0.212 HD
ENDBRANCH   5  14
BRANCH   5  16
HETATM   16  C   UNL     1      -4.502   2.050 -31.652  1.00  0.00     0.018 A 
HETATM   17  C   UNL     1      -5.040   3.195 -30.955  1.00  0.00     0.002 A 
HETATM   18  C   UNL     1      -4.668   4.337 -31.669  1.00  0.00     0.043 A 
HETATM   19  C   UNL     1      -5.802   3.379 -29.780  1.00  0.00     0.014 A 
HETATM   20  C   UNL     1      -5.011   5.636 -31.271  1.00  0.00     0.030 A 
HETATM   21  N   UNL     1      -3.944   3.920 -32.758  1.00  0.00    -0.365 N 
HETATM   22  C   UNL     1      -5.756   5.783 -30.100  1.00  0.00     0.002 A 
HETATM   23  C   UNL     1      -6.147   4.671 -29.362  1.00  0.00     0.001 A 
HETATM   24  H   UNL     1      -3.545   4.538 -33.451  1.00  0.00     0.165 HD
HETATM   25  C   UNL     1      -3.837   2.559 -32.760  1.00  0.00     0.100 A 
ENDBRANCH   5  16
TORSDOF 2
ENDMDL
MODEL 9
REMARK VINA RESULT:      -7.7      3.228      4.206
REMARK  2 active torsions:
REMARK  status: ('A' for Active; 'I' for Inactive)
REMARK    1  A    between atoms: C_5  and  O_6 
REMARK    2  A    between atoms: C_5  and  C_7 
ROOT
HETATM    1  C   UNL     1      -2.771   5.109 -34.777  1.00  0.00     0.050 C 
HETATM    2  C   UNL     1      -3.406   4.534 -33.551  1.00  0.00    -0.034 A 
HETATM    3  C   UNL     1      -4.781   4.514 -33.362  1.00  0.00     0.052 A 
HETATM    4  C   UNL     1      -5.396   3.954 -32.229  1.00  0.00     0.039 A 
HETATM    5  C   UNL     1      -6.888   4.124 -32.343  1.00  0.00     0.200 A 
HETATM    6  C   UNL     1      -7.026   4.843 -33.724  1.00  0.00     0.266 A 
HETATM    7  O   UNL     1      -8.052   5.249 -34.250  1.00  0.00    -0.269 OA
HETATM    8  N   UNL     1      -5.743   5.016 -34.232  1.00  0.00    -0.323 N 
HETATM    9  C   UNL     1      -4.612   3.394 -31.236  1.00  0.00     0.046 A 
HETATM   10 CL   UNL     1      -5.276   2.718 -29.802  1.00  0.00    -0.084 Cl
HETATM   11  C   UNL     1      -3.222   3.379 -31.407  1.00  0.00     0.025 A 
HETATM   12  C   UNL     1      -2.627   3.936 -32.552  1.00  0.00     0.011 A 
HETATM   13  H   UNL     1      -5.569   5.486 -35.107  1.00  0.00     0.169 HD
ENDROOT
BRANCH   5  14
HETATM   14  O   UNL     1      -7.359   4.989 -31.313  1.00  0.00    -0.371 OA
HETATM   15  H   UNL     1      -7.660   4.391 -30.607  1.00  0.00     0.212 HD
ENDBRANCH   5  14
BRANCH   5  16
HETATM   16  C   UNL     1      -7.556   2.772 -32.344  1.00  0.00     0.018 A 
HETATM   17  C   UNL     1      -7.423   1.689 -33.291  1.00  0.00     0.002 A 
HETATM   18  C   UNL     1      -8.252   0.649 -32.864  1.00  0.00     0.043 A 
HETATM   19  C   UNL     1      -6.672   1.483 -34.470  1.00  0.00     0.014 A 
HETATM   20  C   UNL     1      -8.364  -0.571 -33.542  1.00  0.00     0.030 A 
HETATM   21  N   UNL     1      -8.875   1.070 -31.715  1.00  0.00    -0.365 N 
HETATM   22  C   UNL     1      -7.602  -0.746 -34.698  1.00  0.00     0.002 A 
HETATM   23  C   UNL     1      -6.765   0.265 -35.157  1.00  0.00     0.001 A 
HETATM   24  H   UNL     1      -9.534   0.516 -31.185  1.00  0.00     0.165 HD
HETATM   25  C   UNL     1      -8.469   2.333 -31.394  1.00  0.00     0.100 A 
ENDBRANCH   5  16
TORSDOF 2
ENDMDL
MODEL 10
REMARK VINA RESULT:      -7.7      2.542      3.736
REMARK  2 active torsions:
REMARK  status: ('A' for Active; 'I' for Inactive)
REMARK    1  A    between atoms: C_5  and  O_6 
REMARK    2  A    between atoms: C_5  and  C_7 
ROOT
HETATM    1  C   UNL     1      -8.014   5.194 -28.923  1.00  0.00     0.050 C 
HETATM    2  C   UNL     1      -7.476   4.717 -30.236  1.00  0.00    -0.034 A 
HETATM    3  C   UNL     1      -6.893   3.468 -30.394  1.00  0.00     0.052 A 
HETATM    4  C   UNL     1      -6.408   2.994 -31.626  1.00  0.00     0.039 A 
HETATM    5  C   UNL     1      -5.826   1.619 -31.429  1.00  0.00     0.200 A 
HETATM    6  C   UNL     1      -6.078   1.376 -29.906  1.00  0.00     0.266 A 
HETATM    7  O   UNL     1      -5.734   0.409 -29.242  1.00  0.00    -0.269 OA
HETATM    8  N   UNL     1      -6.707   2.510 -29.404  1.00  0.00    -0.323 N 
HETATM    9  C   UNL     1      -6.499   3.798 -32.748  1.00  0.00     0.046 A 
HETATM   10 CL   UNL     1      -5.902   3.313 -34.285  1.00  0.00    -0.084 Cl
HETATM   11  C   UNL     1      -7.103   5.055 -32.625  1.00  0.00     0.025 A 
HETATM   12  C   UNL     1      -7.591   5.507 -31.387  1.00  0.00     0.011 A 
HETATM   13  H   UNL     1      -6.949   2.605 -28.429  1.00  0.00     0.169 HD
ENDROOT
BRANCH   5  14
HETATM   14  O   UNL     1      -4.422   1.645 -31.676  1.00  0.00    -0.371 OA
HETATM   15  H   UNL     1      -4.112   0.756 -31.433  1.00  0.00     0.212 HD
ENDBRANCH   5  14
BRANCH   5  16
HETATM   16  C   UNL     1      -6.567   0.624 -32.287  1.00  0.00     0.018 A 
HETATM   17  C   UNL     1      -6.047  -0.480 -33.059  1.00  0.00     0.002 A 
HETATM   18  C   UNL     1      -7.128  -1.101 -33.690  1.00  0.00     0.043 A 
HETATM   19  C   UNL     1      -4.762  -1.023 -33.282  1.00  0.00     0.014 A 
HETATM   20  C   UNL     1      -6.991  -2.224 -34.516  1.00  0.00     0.030 A 
HETATM   21  N   UNL     1      -8.260  -0.411 -33.333  1.00  0.00    -0.365 N 
HETATM   22  C   UNL     1      -5.710  -2.741 -34.707  1.00  0.00     0.002 A 
HETATM   23  C   UNL     1      -4.608  -2.150 -34.098  1.00  0.00     0.001 A 
HETATM   24  H   UNL     1      -9.193  -0.643 -33.645  1.00  0.00     0.165 HD
HETATM   25  C   UNL     1      -7.940   0.619 -32.497  1.00  0.00     0.100 A 
ENDBRANCH   5  16
TORSDOF 2
ENDMDL
