MODEL 1
REMARK VINA RESULT:      -9.1      0.000      0.000
REMARK  5 active torsions:
REMARK  status: ('A' for Active; 'I' for Inactive)
REMARK    1  A    between atoms: C_6  and  N_7 
REMARK       I    between atoms: N_7  and  C_8 
REMARK       I    between atoms: C_8  and  N_9 
REMARK    2  A    between atoms: N_9  and  C_10 
REMARK    3  A    between atoms: C_10  and  C_11 
REMARK    4  A    between atoms: C_13  and  N_14 
REMARK       I    between atoms: N_14  and  C_15 
REMARK    5  A    between atoms: C_15  and  C_16 
ROOT
HETATM    1  C   UNL     1      -7.146   2.369 -30.309  1.00  0.00    -0.038 A 
HETATM    2  C   UNL     1      -8.218   1.835 -31.049  1.00  0.00     0.038 A 
HETATM    3  C   UNL     1      -9.366   2.590 -31.303  1.00  0.00     0.035 A 
HETATM    4  C   UNL     1      -9.428   3.906 -30.834  1.00  0.00     0.029 A 
HETATM    5  C   UNL     1      -8.370   4.452 -30.105  1.00  0.00     0.003 A 
HETATM    6  C   UNL     1      -7.236   3.686 -29.841  1.00  0.00     0.009 A 
ENDROOT
BRANCH   1   7
HETATM    7  C   UNL     1      -5.893   1.565 -30.076  1.00  0.00     0.163 C 
BRANCH   7   8
HETATM    8  N   UNL     1      -5.545   0.727 -31.203  1.00  0.00    -0.339 N 
HETATM    9  C   UNL     1      -4.472   1.067 -31.967  1.00  0.00     0.320 C 
HETATM   10  N   UNL     1      -4.263   0.366 -33.115  1.00  0.00    -0.309 N 
HETATM   11  O   UNL     1      -3.732   2.011 -31.700  1.00  0.00    -0.247 OA
HETATM   12  H   UNL     1      -3.587   0.840 -33.701  1.00  0.00     0.170 HD
HETATM   13  H   UNL     1      -6.319   0.358 -31.736  1.00  0.00     0.164 HD
BRANCH  10  14
HETATM   14  C   UNL     1      -4.755  -0.861 -33.593  1.00  0.00     0.037 A 
HETATM   15  C   UNL     1      -4.080  -2.077 -33.495  1.00  0.00     0.049 A 
HETATM   16  C   UNL     1      -4.643  -3.247 -34.025  1.00  0.00     0.019 A 
HETATM   17  C   UNL     1      -5.890  -3.222 -34.669  1.00  0.00    -0.044 A 
HETATM   18 BR   UNL     1      -3.639  -4.853 -33.857  1.00  0.00    -0.051 Br
HETATM   19  C   UNL     1      -6.523  -4.450 -35.262  1.00  0.00     0.049 C 
HETATM   20  C   UNL     1      -6.547  -1.991 -34.790  1.00  0.00     0.010 A 
HETATM   21  C   UNL     1      -5.982  -0.826 -34.264  1.00  0.00     0.030 A 
ENDBRANCH  10  14
ENDBRANCH   7   8
ENDBRANCH   1   7
BRANCH   3  22
HETATM   22  N   UNL     1     -10.478   2.110 -32.017  1.00  0.00    -0.321 N 
HETATM   23  C   UNL     1     -10.645   2.016 -33.388  1.00  0.00     0.279 C 
HETATM   24  O   UNL     1      -9.815   2.342 -34.231  1.00  0.00    -0.265 OA
HETATM   25  H   UNL     1     -11.255   1.750 -31.474  1.00  0.00     0.169 HD
BRANCH  23  26
HETATM   26  C   UNL     1     -11.937   1.461 -33.753  1.00  0.00     0.142 A 
HETATM   27  O   UNL     1     -12.245   0.173 -33.394  1.00  0.00    -0.317 OA
HETATM   28  C   UNL     1     -13.498  -0.081 -33.851  1.00  0.00     0.143 A 
HETATM   29  C   UNL     1     -14.006   1.016 -34.504  1.00  0.00     0.027 A 
HETATM   30  C   UNL     1     -13.002   2.011 -34.441  1.00  0.00     0.045 A 
ENDBRANCH  23  26
ENDBRANCH   3  22
TORSDOF 5
ENDMDL
MODEL 2
REMARK VINA RESULT:      -9.0      5.110      8.729
REMARK  5 active torsions:
REMARK  status: ('A' for Active; 'I' for Inactive)
REMARK    1  A    between atoms: C_6  and  N_7 
REMARK       I    between atoms: N_7  and  C_8 
REMARK       I    between atoms: C_8  and  N_9 
REMARK    2  A    between atoms: N_9  and  C_10 
REMARK    3  A    between atoms: C_10  and  C_11 
REMARK    4  A    between atoms: C_13  and  N_14 
REMARK       I    between atoms: N_14  and  C_15 
REMARK    5  A    between atoms: C_15  and  C_16 
ROOT
HETATM    1  C   UNL     1      -3.950   5.331 -33.861  1.00  0.00    -0.038 A 
HETATM    2  C   UNL     1      -3.324   5.768 -32.679  1.00  0.00     0.038 A 
HETATM    3  C   UNL     1      -1.936   5.915 -32.609  1.00  0.00     0.035 A 
HETATM    4  C   UNL     1      -1.169   5.649 -33.749  1.00  0.00     0.029 A 
HETATM    5  C   UNL     1      -1.776   5.223 -34.931  1.00  0.00     0.003 A 
HETATM    6  C   UNL     1      -3.159   5.061 -34.986  1.00  0.00     0.009 A 
ENDROOT
BRANCH   1   7
HETATM    7  C   UNL     1      -5.451   5.216 -33.943  1.00  0.00     0.163 C 
BRANCH   7   8
HETATM    8  N   UNL     1      -5.918   3.854 -33.806  1.00  0.00    -0.339 N 
HETATM    9  C   UNL     1      -7.143   3.632 -33.258  1.00  0.00     0.320 C 
HETATM   10  N   UNL     1      -7.492   2.346 -32.984  1.00  0.00    -0.309 N 
HETATM   11  O   UNL     1      -7.910   4.540 -32.944  1.00  0.00    -0.247 OA
HETATM   12  H   UNL     1      -8.310   2.320 -32.388  1.00  0.00     0.170 HD
HETATM   13  H   UNL     1      -5.224   3.173 -33.532  1.00  0.00     0.164 HD
BRANCH  10  14
HETATM   14  C   UNL     1      -6.979   1.104 -33.397  1.00  0.00     0.037 A 
HETATM   15  C   UNL     1      -5.894   0.459 -32.805  1.00  0.00     0.049 A 
HETATM   16  C   UNL     1      -5.439  -0.771 -33.304  1.00  0.00     0.019 A 
HETATM   17  C   UNL     1      -6.058  -1.376 -34.408  1.00  0.00    -0.044 A 
HETATM   18 BR   UNL     1      -3.942  -1.564 -32.440  1.00  0.00    -0.051 Br
HETATM   19  C   UNL     1      -5.595  -2.686 -34.981  1.00  0.00     0.049 C 
HETATM   20  C   UNL     1      -7.128  -0.708 -35.015  1.00  0.00     0.010 A 
HETATM   21  C   UNL     1      -7.577   0.520 -34.519  1.00  0.00     0.030 A 
ENDBRANCH  10  14
ENDBRANCH   7   8
ENDBRANCH   1   7
BRANCH   3  22
HETATM   22  N   UNL     1      -1.248   6.327 -31.454  1.00  0.00    -0.321 N 
HETATM   23  C   UNL     1      -0.570   5.549 -30.533  1.00  0.00     0.279 C 
HETATM   24  O   UNL     1      -0.449   4.329 -30.582  1.00  0.00    -0.265 OA
HETATM   25  H   UNL     1      -1.203   7.325 -31.276  1.00  0.00     0.169 HD
BRANCH  23  26
HETATM   26  C   UNL     1       0.024   6.339 -29.468  1.00  0.00     0.142 A 
HETATM   27  O   UNL     1       0.183   5.785 -28.223  1.00  0.00    -0.317 OA
HETATM   28  C   UNL     1       0.759   6.729 -27.435  1.00  0.00     0.143 A 
HETATM   29  C   UNL     1       0.970   7.888 -28.144  1.00  0.00     0.027 A 
HETATM   30  C   UNL     1       0.497   7.638 -29.455  1.00  0.00     0.045 A 
ENDBRANCH  23  26
ENDBRANCH   3  22
TORSDOF 5
ENDMDL
MODEL 3
REMARK VINA RESULT:      -8.8      4.952      7.800
REMARK  5 active torsions:
REMARK  status: ('A' for Active; 'I' for Inactive)
REMARK    1  A    between atoms: C_6  and  N_7 
REMARK       I    between atoms: N_7  and  C_8 
REMARK       I    between atoms: C_8  and  N_9 
REMARK    2  A    between atoms: N_9  and  C_10 
REMARK    3  A    between atoms: C_10  and  C_11 
REMARK    4  A    between atoms: C_13  and  N_14 
REMARK       I    between atoms: N_14  and  C_15 
REMARK    5  A    between atoms: C_15  and  C_16 
ROOT
HETATM    1  C   UNL     1      -6.046   3.134 -32.972  1.00  0.00    -0.038 A 
HETATM    2  C   UNL     1      -6.025   1.856 -33.562  1.00  0.00     0.038 A 
HETATM    3  C   UNL     1      -6.293   0.710 -32.810  1.00  0.00     0.035 A 
HETATM    4  C   UNL     1      -6.614   0.848 -31.455  1.00  0.00     0.029 A 
HETATM    5  C   UNL     1      -6.647   2.109 -30.858  1.00  0.00     0.003 A 
HETATM    6  C   UNL     1      -6.360   3.246 -31.611  1.00  0.00     0.009 A 
ENDROOT
BRANCH   1   7
HETATM    7  C   UNL     1      -5.799   4.370 -33.798  1.00  0.00     0.163 C 
BRANCH   7   8
HETATM    8  N   UNL     1      -4.514   4.978 -33.529  1.00  0.00    -0.339 N 
HETATM    9  C   UNL     1      -3.718   5.322 -34.577  1.00  0.00     0.320 C 
HETATM   10  N   UNL     1      -2.451   5.735 -34.301  1.00  0.00    -0.309 N 
HETATM   11  O   UNL     1      -4.070   5.213 -35.749  1.00  0.00    -0.247 OA
HETATM   12  H   UNL     1      -1.891   5.749 -35.146  1.00  0.00     0.170 HD
HETATM   13  H   UNL     1      -4.005   4.607 -32.740  1.00  0.00     0.164 HD
BRANCH  10  14
HETATM   14  C   UNL     1      -1.817   6.171 -33.125  1.00  0.00     0.037 A 
HETATM   15  C   UNL     1      -0.970   5.387 -32.343  1.00  0.00     0.049 A 
HETATM   16  C   UNL     1      -0.403   5.905 -31.170  1.00  0.00     0.019 A 
HETATM   17  C   UNL     1      -0.676   7.216 -30.753  1.00  0.00    -0.044 A 
HETATM   18 BR   UNL     1       0.726   4.753 -30.163  1.00  0.00    -0.051 Br
HETATM   19  C   UNL     1      -0.100   7.806 -29.496  1.00  0.00     0.049 C 
HETATM   20  C   UNL     1      -1.552   7.988 -31.527  1.00  0.00     0.010 A 
HETATM   21  C   UNL     1      -2.120   7.468 -32.694  1.00  0.00     0.030 A 
ENDBRANCH  10  14
ENDBRANCH   7   8
ENDBRANCH   1   7
BRANCH   3  22
HETATM   22  N   UNL     1      -6.269  -0.595 -33.333  1.00  0.00    -0.321 N 
HETATM   23  C   UNL     1      -5.178  -1.331 -33.761  1.00  0.00     0.279 C 
HETATM   24  O   UNL     1      -4.011  -0.952 -33.743  1.00  0.00    -0.265 OA
HETATM   25  H   UNL     1      -7.154  -1.090 -33.380  1.00  0.00     0.169 HD
BRANCH  23  26
HETATM   26  C   UNL     1      -5.551  -2.652 -34.236  1.00  0.00     0.142 A 
HETATM   27  O   UNL     1      -4.635  -3.674 -34.182  1.00  0.00    -0.317 OA
HETATM   28  C   UNL     1      -5.243  -4.782 -34.678  1.00  0.00     0.143 A 
HETATM   29  C   UNL     1      -6.533  -4.498 -35.058  1.00  0.00     0.027 A 
HETATM   30  C   UNL     1      -6.733  -3.126 -34.773  1.00  0.00     0.045 A 
ENDBRANCH  23  26
ENDBRANCH   3  22
TORSDOF 5
ENDMDL
MODEL 4
REMARK VINA RESULT:      -8.7      5.413      8.282
REMARK  5 active torsions:
REMARK  status: ('A' for Active; 'I' for Inactive)
REMARK    1  A    between atoms: C_6  and  N_7 
REMARK       I    between atoms: N_7  and  C_8 
REMARK       I    between atoms: C_8  and  N_9 
REMARK    2  A    between atoms: N_9  and  C_10 
REMARK    3  A    between atoms: C_10  and  C_11 
REMARK    4  A    between atoms: C_13  and  N_14 
REMARK       I    between atoms: N_14  and  C_15 
REMARK    5  A    between atoms: C_15  and  C_16 
ROOT
HETATM    1  C   UNL     1      -5.460   3.044 -32.408  1.00  0.00    -0.038 A 
HETATM    2  C   UNL     1      -5.634   1.826 -33.093  1.00  0.00     0.038 A 
HETATM    3  C   UNL     1      -5.745   0.618 -32.400  1.00  0.00     0.035 A 
HETATM    4  C   UNL     1      -5.710   0.633 -31.002  1.00  0.00     0.029 A 
HETATM    5  C   UNL     1      -5.546   1.834 -30.308  1.00  0.00     0.003 A 
HETATM    6  C   UNL     1      -5.418   3.032 -31.007  1.00  0.00     0.009 A 
ENDROOT
BRANCH   1   7
HETATM    7  C   UNL     1      -5.385   4.348 -33.159  1.00  0.00     0.163 C 
BRANCH   7   8
HETATM    8  N   UNL     1      -4.183   5.097 -32.864  1.00  0.00    -0.339 N 
HETATM    9  C   UNL     1      -3.504   5.681 -33.888  1.00  0.00     0.320 C 
HETATM   10  N   UNL     1      -2.293   6.236 -33.611  1.00  0.00    -0.309 N 
HETATM   11  O   UNL     1      -3.906   5.669 -35.050  1.00  0.00    -0.247 OA
HETATM   12  H   UNL     1      -1.791   6.436 -34.468  1.00  0.00     0.170 HD
HETATM   13  H   UNL     1      -3.582   4.709 -32.151  1.00  0.00     0.164 HD
BRANCH  10  14
HETATM   14  C   UNL     1      -1.659   6.610 -32.414  1.00  0.00     0.037 A 
HETATM   15  C   UNL     1      -2.096   7.632 -31.572  1.00  0.00     0.049 A 
HETATM   16  C   UNL     1      -1.381   7.947 -30.407  1.00  0.00     0.019 A 
HETATM   17  C   UNL     1      -0.212   7.251 -30.066  1.00  0.00    -0.044 A 
HETATM   18 BR   UNL     1      -2.047   9.367 -29.332  1.00  0.00    -0.051 Br
HETATM   19  C   UNL     1       0.590   7.566 -28.834  1.00  0.00     0.049 C 
HETATM   20  C   UNL     1       0.236   6.246 -30.932  1.00  0.00     0.010 A 
HETATM   21  C   UNL     1      -0.475   5.936 -32.094  1.00  0.00     0.030 A 
ENDBRANCH  10  14
ENDBRANCH   7   8
ENDBRANCH   1   7
BRANCH   3  22
HETATM   22  N   UNL     1      -5.900  -0.633 -33.024  1.00  0.00    -0.321 N 
HETATM   23  C   UNL     1      -4.943  -1.398 -33.667  1.00  0.00     0.279 C 
HETATM   24  O   UNL     1      -3.760  -1.101 -33.793  1.00  0.00    -0.265 OA
HETATM   25  H   UNL     1      -6.819  -1.060 -32.978  1.00  0.00     0.169 HD
BRANCH  23  26
HETATM   26  C   UNL     1      -5.484  -2.643 -34.186  1.00  0.00     0.142 A 
HETATM   27  O   UNL     1      -4.660  -3.731 -34.327  1.00  0.00    -0.317 OA
HETATM   28  C   UNL     1      -5.418  -4.745 -34.820  1.00  0.00     0.143 A 
HETATM   29  C   UNL     1      -6.716  -4.333 -35.006  1.00  0.00     0.027 A 
HETATM   30  C   UNL     1      -6.761  -2.978 -34.597  1.00  0.00     0.045 A 
ENDBRANCH  23  26
ENDBRANCH   3  22
TORSDOF 5
ENDMDL
MODEL 5
REMARK VINA RESULT:      -8.6      5.207      8.949
REMARK  5 active torsions:
REMARK  status: ('A' for Active; 'I' for Inactive)
REMARK    1  A    between atoms: C_6  and  N_7 
REMARK       I    between atoms: N_7  and  C_8 
REMARK       I    between atoms: C_8  and  N_9 
REMARK    2  A    between atoms: N_9  and  C_10 
REMARK    3  A    between atoms: C_10  and  C_11 
REMARK    4  A    between atoms: C_13  and  N_14 
REMARK       I    between atoms: N_14  and  C_15 
REMARK    5  A    between atoms: C_15  and  C_16 
ROOT
HETATM    1  C   UNL     1      -3.416   4.638 -32.697  1.00  0.00    -0.038 A 
HETATM    2  C   UNL     1      -2.835   5.180 -31.535  1.00  0.00     0.038 A 
HETATM    3  C   UNL     1      -1.579   5.791 -31.574  1.00  0.00     0.035 A 
HETATM    4  C   UNL     1      -0.909   5.885 -32.799  1.00  0.00     0.029 A 
HETATM    5  C   UNL     1      -1.477   5.360 -33.961  1.00  0.00     0.003 A 
HETATM    6  C   UNL     1      -2.722   4.736 -33.910  1.00  0.00     0.009 A 
ENDROOT
BRANCH   1   7
HETATM    7  C   UNL     1      -4.790   4.020 -32.656  1.00  0.00     0.163 C 
BRANCH   7   8
HETATM    8  N   UNL     1      -4.758   2.597 -32.400  1.00  0.00    -0.339 N 
HETATM    9  C   UNL     1      -5.019   2.150 -31.142  1.00  0.00     0.320 C 
HETATM   10  N   UNL     1      -4.819   0.829 -30.884  1.00  0.00    -0.309 N 
HETATM   11  O   UNL     1      -5.359   2.894 -30.225  1.00  0.00    -0.247 OA
HETATM   12  H   UNL     1      -4.828   0.657 -29.886  1.00  0.00     0.170 HD
HETATM   13  H   UNL     1      -4.030   2.078 -32.870  1.00  0.00     0.164 HD
BRANCH  10  14
HETATM   14  C   UNL     1      -4.658  -0.297 -31.710  1.00  0.00     0.037 A 
HETATM   15  C   UNL     1      -5.596  -0.735 -32.644  1.00  0.00     0.049 A 
HETATM   16  C   UNL     1      -5.355  -1.886 -33.408  1.00  0.00     0.019 A 
HETATM   17  C   UNL     1      -4.174  -2.625 -33.247  1.00  0.00    -0.044 A 
HETATM   18 BR   UNL     1      -6.702  -2.413 -34.643  1.00  0.00    -0.051 Br
HETATM   19  C   UNL     1      -3.882  -3.871 -34.036  1.00  0.00     0.049 C 
HETATM   20  C   UNL     1      -3.250  -2.196 -32.286  1.00  0.00     0.010 A 
HETATM   21  C   UNL     1      -3.494  -1.051 -31.524  1.00  0.00     0.030 A 
ENDBRANCH  10  14
ENDBRANCH   7   8
ENDBRANCH   1   7
BRANCH   3  22
HETATM   22  N   UNL     1      -0.935   6.334 -30.448  1.00  0.00    -0.321 N 
HETATM   23  C   UNL     1       0.028   5.750 -29.643  1.00  0.00     0.279 C 
HETATM   24  O   UNL     1       0.497   4.627 -29.793  1.00  0.00    -0.265 OA
HETATM   25  H   UNL     1      -1.169   7.288 -30.198  1.00  0.00     0.169 HD
BRANCH  23  26
HETATM   26  C   UNL     1       0.461   6.629 -28.570  1.00  0.00     0.142 A 
HETATM   27  O   UNL     1       0.310   6.229 -27.266  1.00  0.00    -0.317 OA
HETATM   28  C   UNL     1       0.798   7.225 -26.483  1.00  0.00     0.143 A 
HETATM   29  C   UNL     1       1.256   8.266 -27.255  1.00  0.00     0.027 A 
HETATM   30  C   UNL     1       1.041   7.883 -28.600  1.00  0.00     0.045 A 
ENDBRANCH  23  26
ENDBRANCH   3  22
TORSDOF 5
ENDMDL
MODEL 6
REMARK VINA RESULT:      -8.3      2.614      6.162
REMARK  5 active torsions:
REMARK  status: ('A' for Active; 'I' for Inactive)
REMARK    1  A    between atoms: C_6  and  N_7 
REMARK       I    between atoms: N_7  and  C_8 
REMARK       I    between atoms: C_8  and  N_9 
REMARK    2  A    between atoms: N_9  and  C_10 
REMARK    3  A    between atoms: C_10  and  C_11 
REMARK    4  A    between atoms: C_13  and  N_14 
REMARK       I    between atoms: N_14  and  C_15 
REMARK    5  A    between atoms: C_15  and  C_16 
ROOT
HETATM    1  C   UNL     1      -8.316   2.214 -31.518  1.00  0.00    -0.038 A 
HETATM    2  C   UNL     1      -7.020   2.566 -31.941  1.00  0.00     0.038 A 
HETATM    3  C   UNL     1      -6.344   3.648 -31.370  1.00  0.00     0.035 A 
HETATM    4  C   UNL     1      -6.964   4.368 -30.344  1.00  0.00     0.029 A 
HETATM    5  C   UNL     1      -8.246   4.026 -29.909  1.00  0.00     0.003 A 
HETATM    6  C   UNL     1      -8.920   2.957 -30.496  1.00  0.00     0.009 A 
ENDROOT
BRANCH   1   7
HETATM    7  C   UNL     1      -9.021   1.019 -32.107  1.00  0.00     0.163 C 
BRANCH   7   8
HETATM    8  N   UNL     1      -8.129   0.140 -32.830  1.00  0.00    -0.339 N 
HETATM    9  C   UNL     1      -8.149   0.156 -34.190  1.00  0.00     0.320 C 
HETATM   10  N   UNL     1      -7.427  -0.793 -34.846  1.00  0.00    -0.309 N 
HETATM   11  O   UNL     1      -8.836   0.941 -34.840  1.00  0.00    -0.247 OA
HETATM   12  H   UNL     1      -7.689  -0.824 -35.824  1.00  0.00     0.170 HD
HETATM   13  H   UNL     1      -8.003  -0.783 -32.439  1.00  0.00     0.164 HD
BRANCH  10  14
HETATM   14  C   UNL     1      -6.399  -1.664 -34.446  1.00  0.00     0.037 A 
HETATM   15  C   UNL     1      -5.360  -1.320 -33.582  1.00  0.00     0.049 A 
HETATM   16  C   UNL     1      -4.364  -2.254 -33.260  1.00  0.00     0.019 A 
HETATM   17  C   UNL     1      -4.386  -3.548 -33.801  1.00  0.00    -0.044 A 
HETATM   18 BR   UNL     1      -2.981  -1.685 -32.086  1.00  0.00    -0.051 Br
HETATM   19  C   UNL     1      -3.332  -4.574 -33.492  1.00  0.00     0.049 C 
HETATM   20  C   UNL     1      -5.415  -3.876 -34.692  1.00  0.00     0.010 A 
HETATM   21  C   UNL     1      -6.404  -2.943 -35.015  1.00  0.00     0.030 A 
ENDBRANCH  10  14
ENDBRANCH   7   8
ENDBRANCH   1   7
BRANCH   3  22
HETATM   22  N   UNL     1      -5.058   4.063 -31.759  1.00  0.00    -0.321 N 
HETATM   23  C   UNL     1      -3.847   3.433 -31.538  1.00  0.00     0.279 C 
HETATM   24  O   UNL     1      -3.695   2.365 -30.952  1.00  0.00    -0.265 OA
HETATM   25  H   UNL     1      -4.994   4.918 -32.303  1.00  0.00     0.169 HD
BRANCH  23  26
HETATM   26  C   UNL     1      -2.727   4.169 -32.099  1.00  0.00     0.142 A 
HETATM   27  O   UNL     1      -1.593   4.350 -31.347  1.00  0.00    -0.317 OA
HETATM   28  C   UNL     1      -0.718   5.057 -32.108  1.00  0.00     0.143 A 
HETATM   29  C   UNL     1      -1.265   5.343 -33.336  1.00  0.00     0.027 A 
HETATM   30  C   UNL     1      -2.559   4.770 -33.332  1.00  0.00     0.045 A 
ENDBRANCH  23  26
ENDBRANCH   3  22
TORSDOF 5
ENDMDL
MODEL 7
REMARK VINA RESULT:      -8.3      4.688      8.337
REMARK  5 active torsions:
REMARK  status: ('A' for Active; 'I' for Inactive)
REMARK    1  A    between atoms: C_6  and  N_7 
REMARK       I    between atoms: N_7  and  C_8 
REMARK       I    between atoms: C_8  and  N_9 
REMARK    2  A    between atoms: N_9  and  C_10 
REMARK    3  A    between atoms: C_10  and  C_11 
REMARK    4  A    between atoms: C_13  and  N_14 
REMARK       I    between atoms: N_14  and  C_15 
REMARK    5  A    between atoms: C_15  and  C_16 
ROOT
HETATM    1  C   UNL     1      -4.740   4.162 -32.350  1.00  0.00    -0.038 A 
HETATM    2  C   UNL     1      -3.891   4.681 -31.354  1.00  0.00     0.038 A 
HETATM    3  C   UNL     1      -2.783   5.464 -31.687  1.00  0.00     0.035 A 
HETATM    4  C   UNL     1      -2.538   5.755 -33.034  1.00  0.00     0.029 A 
HETATM    5  C   UNL     1      -3.376   5.253 -34.032  1.00  0.00     0.003 A 
HETATM    6  C   UNL     1      -4.468   4.458 -33.692  1.00  0.00     0.009 A 
ENDROOT
BRANCH   1   7
HETATM    7  C   UNL     1      -5.958   3.355 -31.982  1.00  0.00     0.163 C 
BRANCH   7   8
HETATM    8  N   UNL     1      -6.034   2.098 -32.692  1.00  0.00    -0.339 N 
HETATM    9  C   UNL     1      -6.969   1.951 -33.670  1.00  0.00     0.320 C 
HETATM   10  N   UNL     1      -7.135   0.713 -34.208  1.00  0.00    -0.309 N 
HETATM   11  O   UNL     1      -7.704   2.866 -34.035  1.00  0.00    -0.247 OA
HETATM   12  H   UNL     1      -7.989   0.674 -34.752  1.00  0.00     0.170 HD
HETATM   13  H   UNL     1      -5.898   1.265 -32.137  1.00  0.00     0.164 HD
BRANCH  10  14
HETATM   14  C   UNL     1      -6.353  -0.455 -34.189  1.00  0.00     0.037 A 
HETATM   15  C   UNL     1      -6.776  -1.700 -34.654  1.00  0.00     0.049 A 
HETATM   16  C   UNL     1      -5.929  -2.815 -34.571  1.00  0.00     0.019 A 
HETATM   17  C   UNL     1      -4.645  -2.707 -34.017  1.00  0.00    -0.044 A 
HETATM   18 BR   UNL     1      -6.603  -4.472 -35.215  1.00  0.00    -0.051 Br
HETATM   19  C   UNL     1      -3.712  -3.880 -33.897  1.00  0.00     0.049 C 
HETATM   20  C   UNL     1      -4.239  -1.461 -33.525  1.00  0.00     0.010 A 
HETATM   21  C   UNL     1      -5.085  -0.352 -33.605  1.00  0.00     0.030 A 
ENDBRANCH  10  14
ENDBRANCH   7   8
ENDBRANCH   1   7
BRANCH   3  22
HETATM   22  N   UNL     1      -1.886   5.996 -30.743  1.00  0.00    -0.321 N 
HETATM   23  C   UNL     1      -0.670   5.482 -30.327  1.00  0.00     0.279 C 
HETATM   24  O   UNL     1      -0.157   4.445 -30.735  1.00  0.00    -0.265 OA
HETATM   25  H   UNL     1      -2.129   6.889 -30.328  1.00  0.00     0.169 HD
BRANCH  23  26
HETATM   26  C   UNL     1      -0.023   6.323 -29.334  1.00  0.00     0.142 A 
HETATM   27  O   UNL     1       0.119   5.863 -28.048  1.00  0.00    -0.317 OA
HETATM   28  C   UNL     1       0.754   6.835 -27.344  1.00  0.00     0.143 A 
HETATM   29  C   UNL     1       1.021   7.918 -28.147  1.00  0.00     0.027 A 
HETATM   30  C   UNL     1       0.522   7.589 -29.430  1.00  0.00     0.045 A 
ENDBRANCH  23  26
ENDBRANCH   3  22
TORSDOF 5
ENDMDL
MODEL 8
REMARK VINA RESULT:      -8.0      3.918      6.672
REMARK  5 active torsions:
REMARK  status: ('A' for Active; 'I' for Inactive)
REMARK    1  A    between atoms: C_6  and  N_7 
REMARK       I    between atoms: N_7  and  C_8 
REMARK       I    between atoms: C_8  and  N_9 
REMARK    2  A    between atoms: N_9  and  C_10 
REMARK    3  A    between atoms: C_10  and  C_11 
REMARK    4  A    between atoms: C_13  and  N_14 
REMARK       I    between atoms: N_14  and  C_15 
REMARK    5  A    between atoms: C_15  and  C_16 
ROOT
HETATM    1  C   UNL     1      -8.813   2.788 -32.056  1.00  0.00    -0.038 A 
HETATM    2  C   UNL     1      -7.977   1.702 -32.377  1.00  0.00     0.038 A 
HETATM    3  C   UNL     1      -8.452   0.624 -33.129  1.00  0.00     0.035 A 
HETATM    4  C   UNL     1      -9.773   0.649 -33.589  1.00  0.00     0.029 A 
HETATM    5  C   UNL     1     -10.611   1.723 -33.286  1.00  0.00     0.003 A 
HETATM    6  C   UNL     1     -10.135   2.785 -32.520  1.00  0.00     0.009 A 
ENDROOT
BRANCH   1   7
HETATM    7  C   UNL     1      -8.283   3.968 -31.282  1.00  0.00     0.163 C 
BRANCH   7   8
HETATM    8  N   UNL     1      -6.843   4.088 -31.359  1.00  0.00    -0.339 N 
HETATM    9  C   UNL     1      -6.088   3.597 -30.340  1.00  0.00     0.320 C 
HETATM   10  N   UNL     1      -4.754   3.869 -30.351  1.00  0.00    -0.309 N 
HETATM   11  O   UNL     1      -6.565   2.983 -29.388  1.00  0.00    -0.247 OA
HETATM   12  H   UNL     1      -4.341   3.652 -29.452  1.00  0.00     0.170 HD
HETATM   13  H   UNL     1      -6.491   4.953 -31.742  1.00  0.00     0.164 HD
BRANCH  10  14
HETATM   14  C   UNL     1      -3.876   4.328 -31.349  1.00  0.00     0.037 A 
HETATM   15  C   UNL     1      -3.374   5.626 -31.425  1.00  0.00     0.049 A 
HETATM   16  C   UNL     1      -2.520   5.997 -32.474  1.00  0.00     0.019 A 
HETATM   17  C   UNL     1      -2.157   5.078 -33.470  1.00  0.00    -0.044 A 
HETATM   18 BR   UNL     1      -1.900   7.794 -32.501  1.00  0.00    -0.051 Br
HETATM   19  C   UNL     1      -1.256   5.438 -34.618  1.00  0.00     0.049 C 
HETATM   20  C   UNL     1      -2.690   3.785 -33.403  1.00  0.00     0.010 A 
HETATM   21  C   UNL     1      -3.544   3.418 -32.359  1.00  0.00     0.030 A 
ENDBRANCH  10  14
ENDBRANCH   7   8
ENDBRANCH   1   7
BRANCH   3  22
HETATM   22  N   UNL     1      -7.676  -0.499 -33.467  1.00  0.00    -0.321 N 
HETATM   23  C   UNL     1      -6.963  -0.734 -34.630  1.00  0.00     0.279 C 
HETATM   24  O   UNL     1      -6.885   0.032 -35.585  1.00  0.00    -0.265 OA
HETATM   25  H   UNL     1      -7.588  -1.227 -32.766  1.00  0.00     0.169 HD
BRANCH  23  26
HETATM   26  C   UNL     1      -6.276  -2.014 -34.610  1.00  0.00     0.142 A 
HETATM   27  O   UNL     1      -4.943  -2.060 -34.287  1.00  0.00    -0.317 OA
HETATM   28  C   UNL     1      -4.564  -3.363 -34.341  1.00  0.00     0.143 A 
HETATM   29  C   UNL     1      -5.624  -4.161 -34.698  1.00  0.00     0.027 A 
HETATM   30  C   UNL     1      -6.729  -3.293 -34.871  1.00  0.00     0.045 A 
ENDBRANCH  23  26
ENDBRANCH   3  22
TORSDOF 5
ENDMDL
MODEL 9
REMARK VINA RESULT:      -7.8      3.674      5.889
REMARK  5 active torsions:
REMARK  status: ('A' for Active; 'I' for Inactive)
REMARK    1  A    between atoms: C_6  and  N_7 
REMARK       I    between atoms: N_7  and  C_8 
REMARK       I    between atoms: C_8  and  N_9 
REMARK    2  A    between atoms: N_9  and  C_10 
REMARK    3  A    between atoms: C_10  and  C_11 
REMARK    4  A    between atoms: C_13  and  N_14 
REMARK       I    between atoms: N_14  and  C_15 
REMARK    5  A    between atoms: C_15  and  C_16 
ROOT
HETATM    1  C   UNL     1      -6.700   0.670 -31.354  1.00  0.00    -0.038 A 
HETATM    2  C   UNL     1      -8.089   0.806 -31.532  1.00  0.00     0.038 A 
HETATM    3  C   UNL     1      -8.748   0.165 -32.585  1.00  0.00     0.035 A 
HETATM    4  C   UNL     1      -8.008  -0.645 -33.453  1.00  0.00     0.029 A 
HETATM    5  C   UNL     1      -6.631  -0.796 -33.284  1.00  0.00     0.003 A 
HETATM    6  C   UNL     1      -5.979  -0.139 -32.242  1.00  0.00     0.009 A 
ENDROOT
BRANCH   1   7
HETATM    7  C   UNL     1      -6.003   1.329 -30.191  1.00  0.00     0.163 C 
BRANCH   7   8
HETATM    8  N   UNL     1      -5.483   2.638 -30.516  1.00  0.00    -0.339 N 
HETATM    9  C   UNL     1      -6.236   3.734 -30.227  1.00  0.00     0.320 C 
HETATM   10  N   UNL     1      -5.806   4.939 -30.691  1.00  0.00    -0.309 N 
HETATM   11  O   UNL     1      -7.308   3.671 -29.629  1.00  0.00    -0.247 OA
HETATM   12  H   UNL     1      -6.541   5.632 -30.612  1.00  0.00     0.170 HD
HETATM   13  H   UNL     1      -4.982   2.712 -31.390  1.00  0.00     0.164 HD
BRANCH  10  14
HETATM   14  C   UNL     1      -4.573   5.391 -31.193  1.00  0.00     0.037 A 
HETATM   15  C   UNL     1      -4.112   5.160 -32.488  1.00  0.00     0.049 A 
HETATM   16  C   UNL     1      -2.854   5.632 -32.890  1.00  0.00     0.019 A 
HETATM   17  C   UNL     1      -2.030   6.338 -32.001  1.00  0.00    -0.044 A 
HETATM   18 BR   UNL     1      -2.307   5.252 -34.671  1.00  0.00    -0.051 Br
HETATM   19  C   UNL     1      -0.670   6.849 -32.387  1.00  0.00     0.049 C 
HETATM   20  C   UNL     1      -2.487   6.540 -30.693  1.00  0.00     0.010 A 
HETATM   21  C   UNL     1      -3.739   6.065 -30.293  1.00  0.00     0.030 A 
ENDBRANCH  10  14
ENDBRANCH   7   8
ENDBRANCH   1   7
BRANCH   3  22
HETATM   22  N   UNL     1     -10.128   0.275 -32.830  1.00  0.00    -0.321 N 
HETATM   23  C   UNL     1     -10.789   1.186 -33.635  1.00  0.00     0.279 C 
HETATM   24  O   UNL     1     -10.256   2.072 -34.295  1.00  0.00    -0.265 OA
HETATM   25  H   UNL     1     -10.730  -0.416 -32.395  1.00  0.00     0.169 HD
BRANCH  23  26
HETATM   26  C   UNL     1     -12.228   0.980 -33.641  1.00  0.00     0.142 A 
HETATM   27  O   UNL     1     -13.066   2.066 -33.601  1.00  0.00    -0.317 OA
HETATM   28  C   UNL     1     -14.338   1.591 -33.622  1.00  0.00     0.143 A 
HETATM   29  C   UNL     1     -14.340   0.218 -33.669  1.00  0.00     0.027 A 
HETATM   30  C   UNL     1     -12.981  -0.178 -33.682  1.00  0.00     0.045 A 
ENDBRANCH  23  26
ENDBRANCH   3  22
TORSDOF 5
ENDMDL
MODEL 10
REMARK VINA RESULT:      -7.8      3.332      4.748
REMARK  5 active torsions:
REMARK  status: ('A' for Active; 'I' for Inactive)
REMARK    1  A    between atoms: C_6  and  N_7 
REMARK       I    between atoms: N_7  and  C_8 
REMARK       I    between atoms: C_8  and  N_9 
REMARK    2  A    between atoms: N_9  and  C_10 
REMARK    3  A    between atoms: C_10  and  C_11 
REMARK    4  A    between atoms: C_13  and  N_14 
REMARK       I    between atoms: N_14  and  C_15 
REMARK    5  A    between atoms: C_15  and  C_16 
ROOT
HETATM    1  C   UNL     1     -11.108   2.530 -33.127  1.00  0.00    -0.038 A 
HETATM    2  C   UNL     1     -12.310   3.125 -32.698  1.00  0.00     0.038 A 
HETATM    3  C   UNL     1     -13.512   2.886 -33.369  1.00  0.00     0.035 A 
HETATM    4  C   UNL     1     -13.515   2.018 -34.466  1.00  0.00     0.029 A 
HETATM    5  C   UNL     1     -12.332   1.415 -34.898  1.00  0.00     0.003 A 
HETATM    6  C   UNL     1     -11.135   1.673 -34.235  1.00  0.00     0.009 A 
ENDROOT
BRANCH   1   7
HETATM    7  C   UNL     1      -9.823   2.757 -32.373  1.00  0.00     0.163 C 
BRANCH   7   8
HETATM    8  N   UNL     1      -8.705   2.032 -32.938  1.00  0.00    -0.339 N 
HETATM    9  C   UNL     1      -7.717   2.730 -33.561  1.00  0.00     0.320 C 
HETATM   10  N   UNL     1      -6.766   2.023 -34.229  1.00  0.00    -0.309 N 
HETATM   11  O   UNL     1      -7.688   3.958 -33.600  1.00  0.00    -0.247 OA
HETATM   12  H   UNL     1      -6.224   2.635 -34.827  1.00  0.00     0.170 HD
HETATM   13  H   UNL     1      -8.927   1.157 -33.389  1.00  0.00     0.164 HD
BRANCH  10  14
HETATM   14  C   UNL     1      -6.382   0.671 -34.207  1.00  0.00     0.037 A 
HETATM   15  C   UNL     1      -5.373   0.146 -33.401  1.00  0.00     0.049 A 
HETATM   16  C   UNL     1      -5.046  -1.216 -33.466  1.00  0.00     0.019 A 
HETATM   17  C   UNL     1      -5.718  -2.079 -34.345  1.00  0.00    -0.044 A 
HETATM   18 BR   UNL     1      -3.645  -1.833 -32.339  1.00  0.00    -0.051 Br
HETATM   19  C   UNL     1      -5.390  -3.541 -34.457  1.00  0.00     0.049 C 
HETATM   20  C   UNL     1      -6.710  -1.539 -35.173  1.00  0.00     0.010 A 
HETATM   21  C   UNL     1      -7.032  -0.180 -35.109  1.00  0.00     0.030 A 
ENDBRANCH  10  14
ENDBRANCH   7   8
ENDBRANCH   1   7
BRANCH   3  22
HETATM   22  N   UNL     1     -14.742   3.463 -33.004  1.00  0.00    -0.321 N 
HETATM   23  C   UNL     1     -15.721   2.948 -32.174  1.00  0.00     0.279 C 
HETATM   24  O   UNL     1     -15.669   1.867 -31.595  1.00  0.00    -0.265 OA
HETATM   25  H   UNL     1     -14.939   4.392 -33.360  1.00  0.00     0.169 HD
BRANCH  23  26
HETATM   26  C   UNL     1     -16.856   3.843 -32.032  1.00  0.00     0.142 A 
HETATM   27  O   UNL     1     -18.099   3.323 -31.768  1.00  0.00    -0.317 OA
HETATM   28  C   UNL     1     -18.960   4.370 -31.680  1.00  0.00     0.143 A 
HETATM   29  C   UNL     1     -18.300   5.557 -31.889  1.00  0.00     0.027 A 
HETATM   30  C   UNL     1     -16.945   5.220 -32.115  1.00  0.00     0.045 A 
ENDBRANCH  23  26
ENDBRANCH   3  22
TORSDOF 5
ENDMDL
