MODEL 1
REMARK VINA RESULT:      -9.1      0.000      0.000
REMARK  7 active torsions:
REMARK  status: ('A' for Active; 'I' for Inactive)
REMARK    1  A    between atoms: C_7  and  C_8 
REMARK    2  A    between atoms: C_8  and  N_9 
REMARK    3  A    between atoms: C_13  and  C_14 
REMARK    4  A    between atoms: C_14  and  C_15 
REMARK    5  A    between atoms: C_15  and  C_16 
REMARK    6  A    between atoms: N_26  and  C_27 
REMARK    7  A    between atoms: C_27  and  C_28 
ROOT
HETATM    1  C   UNL     1      -6.826   1.831 -32.080  1.00  0.00     0.123 C 
HETATM    2  N   UNL     1      -7.622   0.666 -31.723  1.00  0.00    -0.324 N 
HETATM    3  C   UNL     1      -8.942   0.776 -32.092  1.00  0.00     0.326 C 
HETATM    4  O   UNL     1      -9.750  -0.126 -31.978  1.00  0.00    -0.247 OA
HETATM    5  N   UNL     1      -9.152   2.041 -32.537  1.00  0.00    -0.268 N 
HETATM    6  C   UNL     1      -7.994   2.759 -32.479  1.00  0.00     0.257 C 
HETATM    7  O   UNL     1      -7.882   3.956 -32.708  1.00  0.00    -0.270 OA
HETATM    8  H   UNL     1      -7.256  -0.238 -31.439  1.00  0.00     0.165 HD
ENDROOT
BRANCH   1   9
HETATM    9  C   UNL     1      -5.997   2.316 -30.845  1.00  0.00     0.027 C 
HETATM   10  C   UNL     1      -5.802   3.843 -30.745  1.00  0.00     0.035 C 
HETATM   11  C   UNL     1      -4.690   4.392 -31.625  1.00  0.00     0.235 C 
HETATM   12  N   UNL     1      -3.384   3.718 -31.306  1.00  0.00    -0.067 N 
HETATM   13  H   UNL     1      -3.115   4.020 -30.362  1.00  0.00     0.280 HD
HETATM   14  C   UNL     1      -3.426   2.215 -31.321  1.00  0.00     0.235 C 
HETATM   15  C   UNL     1      -4.634   1.647 -30.590  1.00  0.00     0.035 C 
BRANCH  12  16
HETATM   16  C   UNL     1      -2.261   4.186 -32.225  1.00  0.00     0.277 C 
BRANCH  16  17
HETATM   17  C   UNL     1      -1.481   5.330 -31.698  1.00  0.00     0.011 A 
HETATM   18  C   UNL     1      -1.179   6.548 -32.371  1.00  0.00     0.060 A 
HETATM   19  C   UNL     1      -1.544   6.964 -33.752  1.00  0.00     0.073 C 
HETATM   20  N   UNL     1      -0.497   7.383 -31.588  1.00  0.00    -0.178 NA
HETATM   21  N   UNL     1      -0.287   6.696 -30.456  1.00  0.00    -0.284 N 
HETATM   22  C   UNL     1       0.489   7.289 -29.392  1.00  0.00     0.179 C 
HETATM   23  C   UNL     1      -0.884   5.467 -30.458  1.00  0.00     0.122 A 
ENDBRANCH  16  17
ENDBRANCH  12  16
ENDBRANCH   1   9
BRANCH   1  24
HETATM   24  C   UNL     1      -6.018   1.570 -33.391  1.00  0.00     0.082 C 
BRANCH  24  25
HETATM   25  C   UNL     1      -5.793   0.119 -33.776  1.00  0.00    -0.034 A 
HETATM   26  C   UNL     1      -6.628  -0.601 -34.649  1.00  0.00     0.040 A 
HETATM   27 CL   UNL     1      -8.035   0.086 -35.372  1.00  0.00    -0.084 Cl
HETATM   28  C   UNL     1      -6.365  -1.944 -34.948  1.00  0.00     0.024 A 
HETATM   29  C   UNL     1      -5.276  -2.595 -34.376  1.00  0.00     0.002 A 
HETATM   30  C   UNL     1      -4.455  -1.910 -33.487  1.00  0.00     0.001 A 
HETATM   31  C   UNL     1      -4.718  -0.574 -33.182  1.00  0.00     0.009 A 
ENDBRANCH  24  25
ENDBRANCH   1  24
BRANCH   5  32
HETATM   32  C   UNL     1     -10.438   2.563 -32.947  1.00  0.00     0.141 C 
BRANCH  32  33
HETATM   33  C   UNL     1     -10.668   2.273 -34.399  1.00  0.00     0.004 A 
HETATM   34  C   UNL     1     -11.942   1.608 -34.858  1.00  0.00     0.007 A 
HETATM   35  C   UNL     1     -11.691   3.057 -35.180  1.00  0.00     0.007 A 
ENDBRANCH  32  33
ENDBRANCH   5  32
TORSDOF 7
ENDMDL
MODEL 2
REMARK VINA RESULT:      -8.5      2.177      2.860
REMARK  7 active torsions:
REMARK  status: ('A' for Active; 'I' for Inactive)
REMARK    1  A    between atoms: C_7  and  C_8 
REMARK    2  A    between atoms: C_8  and  N_9 
REMARK    3  A    between atoms: C_13  and  C_14 
REMARK    4  A    between atoms: C_14  and  C_15 
REMARK    5  A    between atoms: C_15  and  C_16 
REMARK    6  A    between atoms: N_26  and  C_27 
REMARK    7  A    between atoms: C_27  and  C_28 
ROOT
HETATM    1  C   UNL     1      -6.484   1.691 -31.844  1.00  0.00     0.123 C 
HETATM    2  N   UNL     1      -6.203   2.520 -30.682  1.00  0.00    -0.324 N 
HETATM    3  C   UNL     1      -7.334   3.051 -30.107  1.00  0.00     0.326 C 
HETATM    4  O   UNL     1      -7.327   3.685 -29.069  1.00  0.00    -0.247 OA
HETATM    5  N   UNL     1      -8.388   2.778 -30.918  1.00  0.00    -0.268 N 
HETATM    6  C   UNL     1      -7.973   2.067 -32.006  1.00  0.00     0.257 C 
HETATM    7  O   UNL     1      -8.665   1.765 -32.969  1.00  0.00    -0.270 OA
HETATM    8  H   UNL     1      -5.323   2.553 -30.176  1.00  0.00     0.165 HD
ENDROOT
BRANCH   1   9
HETATM    9  C   UNL     1      -5.568   2.115 -33.041  1.00  0.00     0.027 C 
HETATM   10  C   UNL     1      -4.083   2.330 -32.685  1.00  0.00     0.035 C 
HETATM   11  C   UNL     1      -3.778   3.680 -32.058  1.00  0.00     0.235 C 
HETATM   12  N   UNL     1      -4.223   4.796 -32.964  1.00  0.00    -0.067 N 
HETATM   13  H   UNL     1      -3.612   4.770 -33.790  1.00  0.00     0.280 HD
HETATM   14  C   UNL     1      -5.647   4.700 -33.435  1.00  0.00     0.235 C 
HETATM   15  C   UNL     1      -6.025   3.303 -33.906  1.00  0.00     0.035 C 
BRANCH  12  16
HETATM   16  C   UNL     1      -4.006   6.166 -32.333  1.00  0.00     0.277 C 
BRANCH  16  17
HETATM   17  C   UNL     1      -2.610   6.426 -31.909  1.00  0.00     0.011 A 
HETATM   18  C   UNL     1      -1.458   6.504 -32.743  1.00  0.00     0.060 A 
HETATM   19  C   UNL     1      -1.361   6.328 -34.217  1.00  0.00     0.073 C 
HETATM   20  N   UNL     1      -0.365   6.799 -32.039  1.00  0.00    -0.178 NA
HETATM   21  N   UNL     1      -0.778   6.833 -30.764  1.00  0.00    -0.284 N 
HETATM   22  C   UNL     1       0.179   7.070 -29.708  1.00  0.00     0.179 C 
HETATM   23  C   UNL     1      -2.125   6.646 -30.634  1.00  0.00     0.122 A 
ENDBRANCH  16  17
ENDBRANCH  12  16
ENDBRANCH   1   9
BRANCH   1  24
HETATM   24  C   UNL     1      -6.463   0.177 -31.465  1.00  0.00     0.082 C 
BRANCH  24  25
HETATM   25  C   UNL     1      -6.068  -0.795 -32.562  1.00  0.00    -0.034 A 
HETATM   26  C   UNL     1      -4.788  -1.365 -32.684  1.00  0.00     0.040 A 
HETATM   27 CL   UNL     1      -3.498  -0.999 -31.600  1.00  0.00    -0.084 Cl
HETATM   28  C   UNL     1      -4.491  -2.246 -33.732  1.00  0.00     0.024 A 
HETATM   29  C   UNL     1      -5.459  -2.565 -34.681  1.00  0.00     0.002 A 
HETATM   30  C   UNL     1      -6.721  -1.991 -34.596  1.00  0.00     0.001 A 
HETATM   31  C   UNL     1      -7.018  -1.107 -33.556  1.00  0.00     0.009 A 
ENDBRANCH  24  25
ENDBRANCH   1  24
BRANCH   5  32
HETATM   32  C   UNL     1      -9.741   3.237 -30.688  1.00  0.00     0.141 C 
BRANCH  32  33
HETATM   33  C   UNL     1      -9.938   4.584 -31.313  1.00  0.00     0.004 A 
HETATM   34  C   UNL     1     -11.320   5.171 -31.456  1.00  0.00     0.007 A 
HETATM   35  C   UNL     1     -10.350   5.763 -30.470  1.00  0.00     0.007 A 
ENDBRANCH  32  33
ENDBRANCH   5  32
TORSDOF 7
ENDMDL
MODEL 3
REMARK VINA RESULT:      -8.4      2.605      6.988
REMARK  7 active torsions:
REMARK  status: ('A' for Active; 'I' for Inactive)
REMARK    1  A    between atoms: C_7  and  C_8 
REMARK    2  A    between atoms: C_8  and  N_9 
REMARK    3  A    between atoms: C_13  and  C_14 
REMARK    4  A    between atoms: C_14  and  C_15 
REMARK    5  A    between atoms: C_15  and  C_16 
REMARK    6  A    between atoms: N_26  and  C_27 
REMARK    7  A    between atoms: C_27  and  C_28 
ROOT
HETATM    1  C   UNL     1      -5.209   1.609 -32.309  1.00  0.00     0.123 C 
HETATM    2  N   UNL     1      -6.021   2.306 -33.296  1.00  0.00    -0.324 N 
HETATM    3  C   UNL     1      -5.514   3.535 -33.646  1.00  0.00     0.326 C 
HETATM    4  O   UNL     1      -5.984   4.231 -34.526  1.00  0.00    -0.247 OA
HETATM    5  N   UNL     1      -4.474   3.814 -32.819  1.00  0.00    -0.268 N 
HETATM    6  C   UNL     1      -4.281   2.787 -31.942  1.00  0.00     0.257 C 
HETATM    7  O   UNL     1      -3.493   2.785 -31.006  1.00  0.00    -0.270 OA
HETATM    8  H   UNL     1      -6.756   1.890 -33.859  1.00  0.00     0.165 HD
ENDROOT
BRANCH   1   9
HETATM    9  C   UNL     1      -6.109   1.095 -31.137  1.00  0.00     0.027 C 
HETATM   10  C   UNL     1      -7.401   0.372 -31.571  1.00  0.00     0.035 C 
HETATM   11  C   UNL     1      -8.541   1.302 -31.954  1.00  0.00     0.235 C 
HETATM   12  N   UNL     1      -8.868   2.232 -30.817  1.00  0.00    -0.067 N 
HETATM   13  H   UNL     1      -9.269   1.656 -30.067  1.00  0.00     0.280 HD
HETATM   14  C   UNL     1      -7.693   2.981 -30.253  1.00  0.00     0.235 C 
HETATM   15  C   UNL     1      -6.477   2.095 -30.026  1.00  0.00     0.035 C 
BRANCH  12  16
HETATM   16  C   UNL     1      -9.955   3.233 -31.192  1.00  0.00     0.277 C 
BRANCH  16  17
HETATM   17  C   UNL     1     -10.452   3.099 -32.581  1.00  0.00     0.011 A 
HETATM   18  C   UNL     1     -10.078   3.884 -33.708  1.00  0.00     0.060 A 
HETATM   19  C   UNL     1      -9.127   5.026 -33.774  1.00  0.00     0.073 C 
HETATM   20  N   UNL     1     -10.683   3.464 -34.819  1.00  0.00    -0.178 NA
HETATM   21  N   UNL     1     -11.498   2.479 -34.413  1.00  0.00    -0.284 N 
HETATM   22  C   UNL     1     -12.365   1.829 -35.367  1.00  0.00     0.179 C 
HETATM   23  C   UNL     1     -11.375   2.199 -33.081  1.00  0.00     0.122 A 
ENDBRANCH  16  17
ENDBRANCH  12  16
ENDBRANCH   1   9
BRANCH   1  24
HETATM   24  C   UNL     1      -4.298   0.542 -32.995  1.00  0.00     0.082 C 
BRANCH  24  25
HETATM   25  C   UNL     1      -4.991  -0.686 -33.558  1.00  0.00    -0.034 A 
HETATM   26  C   UNL     1      -4.601  -2.007 -33.277  1.00  0.00     0.040 A 
HETATM   27 CL   UNL     1      -3.256  -2.386 -32.265  1.00  0.00    -0.084 Cl
HETATM   28  C   UNL     1      -5.281  -3.093 -33.843  1.00  0.00     0.024 A 
HETATM   29  C   UNL     1      -6.352  -2.881 -34.708  1.00  0.00     0.002 A 
HETATM   30  C   UNL     1      -6.735  -1.583 -35.022  1.00  0.00     0.001 A 
HETATM   31  C   UNL     1      -6.055  -0.499 -34.464  1.00  0.00     0.009 A 
ENDBRANCH  24  25
ENDBRANCH   1  24
BRANCH   5  32
HETATM   32  C   UNL     1      -3.728   5.054 -32.828  1.00  0.00     0.141 C 
BRANCH  32  33
HETATM   33  C   UNL     1      -2.563   4.943 -33.764  1.00  0.00     0.004 A 
HETATM   34  C   UNL     1      -1.821   6.176 -34.218  1.00  0.00     0.007 A 
HETATM   35  C   UNL     1      -1.163   5.207 -33.273  1.00  0.00     0.007 A 
ENDBRANCH  32  33
ENDBRANCH   5  32
TORSDOF 7
ENDMDL
MODEL 4
REMARK VINA RESULT:      -8.3      2.501      7.072
REMARK  7 active torsions:
REMARK  status: ('A' for Active; 'I' for Inactive)
REMARK    1  A    between atoms: C_7  and  C_8 
REMARK    2  A    between atoms: C_8  and  N_9 
REMARK    3  A    between atoms: C_13  and  C_14 
REMARK    4  A    between atoms: C_14  and  C_15 
REMARK    5  A    between atoms: C_15  and  C_16 
REMARK    6  A    between atoms: N_26  and  C_27 
REMARK    7  A    between atoms: C_27  and  C_28 
ROOT
HETATM    1  C   UNL     1      -4.306   2.895 -32.023  1.00  0.00     0.123 C 
HETATM    2  N   UNL     1      -3.739   2.000 -31.026  1.00  0.00    -0.324 N 
HETATM    3  C   UNL     1      -4.161   0.698 -31.162  1.00  0.00     0.326 C 
HETATM    4  O   UNL     1      -3.727  -0.223 -30.497  1.00  0.00    -0.247 OA
HETATM    5  N   UNL     1      -5.140   0.668 -32.102  1.00  0.00    -0.268 N 
HETATM    6  C   UNL     1      -5.358   1.921 -32.595  1.00  0.00     0.257 C 
HETATM    7  O   UNL     1      -6.247   2.238 -33.374  1.00  0.00    -0.270 OA
HETATM    8  H   UNL     1      -2.949   2.208 -30.423  1.00  0.00     0.165 HD
ENDROOT
BRANCH   1   9
HETATM    9  C   UNL     1      -4.899   4.166 -31.329  1.00  0.00     0.027 C 
HETATM   10  C   UNL     1      -5.466   3.935 -29.913  1.00  0.00     0.035 C 
HETATM   11  C   UNL     1      -6.867   3.347 -29.887  1.00  0.00     0.235 C 
HETATM   12  N   UNL     1      -7.822   4.223 -30.652  1.00  0.00    -0.067 N 
HETATM   13  H   UNL     1      -7.917   5.095 -30.118  1.00  0.00     0.280 HD
HETATM   14  C   UNL     1      -7.382   4.574 -32.046  1.00  0.00     0.235 C 
HETATM   15  C   UNL     1      -5.924   5.000 -32.120  1.00  0.00     0.035 C 
BRANCH  12  16
HETATM   16  C   UNL     1      -9.222   3.623 -30.715  1.00  0.00     0.277 C 
BRANCH  16  17
HETATM   17  C   UNL     1      -9.693   3.323 -32.087  1.00  0.00     0.011 A 
HETATM   18  C   UNL     1      -9.710   2.054 -32.733  1.00  0.00     0.060 A 
HETATM   19  C   UNL     1      -9.250   0.739 -32.214  1.00  0.00     0.073 C 
HETATM   20  N   UNL     1     -10.243   2.134 -33.952  1.00  0.00    -0.178 NA
HETATM   21  N   UNL     1     -10.494   3.438 -34.132  1.00  0.00    -0.284 N 
HETATM   22  C   UNL     1     -11.029   3.898 -35.392  1.00  0.00     0.179 C 
HETATM   23  C   UNL     1     -10.211   4.193 -33.029  1.00  0.00     0.122 A 
ENDBRANCH  16  17
ENDBRANCH  12  16
ENDBRANCH   1   9
BRANCH   1  24
HETATM   24  C   UNL     1      -3.288   3.154 -33.179  1.00  0.00     0.082 C 
BRANCH  24  25
HETATM   25  C   UNL     1      -2.564   4.489 -33.163  1.00  0.00    -0.034 A 
HETATM   26  C   UNL     1      -2.762   5.502 -34.117  1.00  0.00     0.040 A 
HETATM   27 CL   UNL     1      -3.848   5.331 -35.447  1.00  0.00    -0.084 Cl
HETATM   28  C   UNL     1      -2.048   6.705 -34.046  1.00  0.00     0.024 A 
HETATM   29  C   UNL     1      -1.117   6.914 -33.032  1.00  0.00     0.002 A 
HETATM   30  C   UNL     1      -0.884   5.914 -32.096  1.00  0.00     0.001 A 
HETATM   31  C   UNL     1      -1.590   4.711 -32.168  1.00  0.00     0.009 A 
ENDBRANCH  24  25
ENDBRANCH   1  24
BRANCH   5  32
HETATM   32  C   UNL     1      -5.885  -0.516 -32.473  1.00  0.00     0.141 C 
BRANCH  32  33
HETATM   33  C   UNL     1      -5.597  -0.877 -33.899  1.00  0.00     0.004 A 
HETATM   34  C   UNL     1      -6.084  -2.183 -34.475  1.00  0.00     0.007 A 
HETATM   35  C   UNL     1      -6.704  -0.886 -34.921  1.00  0.00     0.007 A 
ENDBRANCH  32  33
ENDBRANCH   5  32
TORSDOF 7
ENDMDL
MODEL 5
REMARK VINA RESULT:      -8.3      1.622      2.116
REMARK  7 active torsions:
REMARK  status: ('A' for Active; 'I' for Inactive)
REMARK    1  A    between atoms: C_7  and  C_8 
REMARK    2  A    between atoms: C_8  and  N_9 
REMARK    3  A    between atoms: C_13  and  C_14 
REMARK    4  A    between atoms: C_14  and  C_15 
REMARK    5  A    between atoms: C_15  and  C_16 
REMARK    6  A    between atoms: N_26  and  C_27 
REMARK    7  A    between atoms: C_27  and  C_28 
ROOT
HETATM    1  C   UNL     1      -7.534   3.638 -33.003  1.00  0.00     0.123 C 
HETATM    2  N   UNL     1      -7.718   2.701 -31.905  1.00  0.00    -0.324 N 
HETATM    3  C   UNL     1      -8.965   2.120 -31.890  1.00  0.00     0.326 C 
HETATM    4  O   UNL     1      -9.286   1.236 -31.119  1.00  0.00    -0.247 OA
HETATM    5  N   UNL     1      -9.730   2.739 -32.825  1.00  0.00    -0.268 N 
HETATM    6  C   UNL     1      -9.007   3.704 -33.462  1.00  0.00     0.257 C 
HETATM    7  O   UNL     1      -9.445   4.504 -34.277  1.00  0.00    -0.270 OA
HETATM    8  H   UNL     1      -6.980   2.313 -31.326  1.00  0.00     0.165 HD
ENDROOT
BRANCH   1   9
HETATM    9  C   UNL     1      -6.955   4.989 -32.466  1.00  0.00     0.027 C 
HETATM   10  C   UNL     1      -5.947   5.688 -33.402  1.00  0.00     0.035 C 
HETATM   11  C   UNL     1      -4.535   5.130 -33.331  1.00  0.00     0.235 C 
HETATM   12  N   UNL     1      -4.011   5.196 -31.922  1.00  0.00    -0.067 N 
HETATM   13  H   UNL     1      -3.888   6.191 -31.697  1.00  0.00     0.280 HD
HETATM   14  C   UNL     1      -4.911   4.590 -30.882  1.00  0.00     0.235 C 
HETATM   15  C   UNL     1      -6.367   5.001 -31.043  1.00  0.00     0.035 C 
BRANCH  12  16
HETATM   16  C   UNL     1      -2.626   4.572 -31.798  1.00  0.00     0.277 C 
BRANCH  16  17
HETATM   17  C   UNL     1      -1.565   5.521 -31.389  1.00  0.00     0.011 A 
HETATM   18  C   UNL     1      -0.845   6.419 -32.226  1.00  0.00     0.060 A 
HETATM   19  C   UNL     1      -0.958   6.615 -33.697  1.00  0.00     0.073 C 
HETATM   20  N   UNL     1       0.008   7.165 -31.524  1.00  0.00    -0.178 NA
HETATM   21  N   UNL     1      -0.092   6.708 -30.268  1.00  0.00    -0.284 N 
HETATM   22  C   UNL     1       0.752   7.261 -29.235  1.00  0.00     0.179 C 
HETATM   23  C   UNL     1      -1.047   5.740 -30.126  1.00  0.00     0.122 A 
ENDBRANCH  16  17
ENDBRANCH  12  16
ENDBRANCH   1   9
BRANCH   1  24
HETATM   24  C   UNL     1      -6.748   2.971 -34.176  1.00  0.00     0.082 C 
BRANCH  24  25
HETATM   25  C   UNL     1      -6.674   1.455 -34.171  1.00  0.00    -0.034 A 
HETATM   26  C   UNL     1      -5.707   0.718 -33.464  1.00  0.00     0.040 A 
HETATM   27 CL   UNL     1      -4.465   1.465 -32.529  1.00  0.00    -0.084 Cl
HETATM   28  C   UNL     1      -5.692  -0.682 -33.516  1.00  0.00     0.024 A 
HETATM   29  C   UNL     1      -6.630  -1.370 -34.282  1.00  0.00     0.002 A 
HETATM   30  C   UNL     1      -7.576  -0.660 -35.012  1.00  0.00     0.001 A 
HETATM   31  C   UNL     1      -7.589   0.736 -34.966  1.00  0.00     0.009 A 
ENDBRANCH  24  25
ENDBRANCH   1  24
BRANCH   5  32
HETATM   32  C   UNL     1     -11.130   2.454 -33.059  1.00  0.00     0.141 C 
BRANCH  32  33
HETATM   33  C   UNL     1     -11.268   1.375 -34.089  1.00  0.00     0.004 A 
HETATM   34  C   UNL     1     -12.496   0.500 -34.127  1.00  0.00     0.007 A 
HETATM   35  C   UNL     1     -12.263   1.517 -35.212  1.00  0.00     0.007 A 
ENDBRANCH  32  33
ENDBRANCH   5  32
TORSDOF 7
ENDMDL
MODEL 6
REMARK VINA RESULT:      -8.3      1.777      4.694
REMARK  7 active torsions:
REMARK  status: ('A' for Active; 'I' for Inactive)
REMARK    1  A    between atoms: C_7  and  C_8 
REMARK    2  A    between atoms: C_8  and  N_9 
REMARK    3  A    between atoms: C_13  and  C_14 
REMARK    4  A    between atoms: C_14  and  C_15 
REMARK    5  A    between atoms: C_15  and  C_16 
REMARK    6  A    between atoms: N_26  and  C_27 
REMARK    7  A    between atoms: C_27  and  C_28 
ROOT
HETATM    1  C   UNL     1      -8.291   2.112 -32.789  1.00  0.00     0.123 C 
HETATM    2  N   UNL     1      -7.955   1.990 -34.199  1.00  0.00    -0.324 N 
HETATM    3  C   UNL     1      -7.430   0.762 -34.529  1.00  0.00     0.326 C 
HETATM    4  O   UNL     1      -7.180   0.422 -35.670  1.00  0.00    -0.247 OA
HETATM    5  N   UNL     1      -7.216   0.073 -33.380  1.00  0.00    -0.268 N 
HETATM    6  C   UNL     1      -7.601   0.817 -32.304  1.00  0.00     0.257 C 
HETATM    7  O   UNL     1      -7.435   0.517 -31.130  1.00  0.00    -0.270 OA
HETATM    8  H   UNL     1      -8.258   2.618 -34.937  1.00  0.00     0.165 HD
ENDROOT
BRANCH   1   9
HETATM    9  C   UNL     1      -7.688   3.432 -32.204  1.00  0.00     0.027 C 
HETATM   10  C   UNL     1      -6.950   4.324 -33.224  1.00  0.00     0.035 C 
HETATM   11  C   UNL     1      -5.526   3.884 -33.525  1.00  0.00     0.235 C 
HETATM   12  N   UNL     1      -4.713   3.824 -32.261  1.00  0.00    -0.067 N 
HETATM   13  H   UNL     1      -4.602   4.790 -31.932  1.00  0.00     0.280 HD
HETATM   14  C   UNL     1      -5.329   3.020 -31.149  1.00  0.00     0.235 C 
HETATM   15  C   UNL     1      -6.807   3.321 -30.946  1.00  0.00     0.035 C 
BRANCH  12  16
HETATM   16  C   UNL     1      -3.301   3.310 -32.514  1.00  0.00     0.277 C 
BRANCH  16  17
HETATM   17  C   UNL     1      -2.251   4.351 -32.433  1.00  0.00     0.011 A 
HETATM   18  C   UNL     1      -1.712   5.115 -33.507  1.00  0.00     0.060 A 
HETATM   19  C   UNL     1      -2.045   5.049 -34.955  1.00  0.00     0.073 C 
HETATM   20  N   UNL     1      -0.814   6.000 -33.075  1.00  0.00    -0.178 NA
HETATM   21  N   UNL     1      -0.707   5.765 -31.760  1.00  0.00    -0.284 N 
HETATM   22  C   UNL     1       0.242   6.517 -30.973  1.00  0.00     0.179 C 
HETATM   23  C   UNL     1      -1.572   4.804 -31.317  1.00  0.00     0.122 A 
ENDBRANCH  16  17
ENDBRANCH  12  16
ENDBRANCH   1   9
BRANCH   1  24
HETATM   24  C   UNL     1      -9.820   1.894 -32.561  1.00  0.00     0.082 C 
BRANCH  24  25
HETATM   25  C   UNL     1     -10.740   2.277 -33.706  1.00  0.00    -0.034 A 
HETATM   26  C   UNL     1     -11.789   1.467 -34.176  1.00  0.00     0.040 A 
HETATM   27 CL   UNL     1     -12.137  -0.086 -33.511  1.00  0.00    -0.084 Cl
HETATM   28  C   UNL     1     -12.591   1.880 -35.247  1.00  0.00     0.024 A 
HETATM   29  C   UNL     1     -12.355   3.100 -35.876  1.00  0.00     0.002 A 
HETATM   30  C   UNL     1     -11.305   3.903 -35.447  1.00  0.00     0.001 A 
HETATM   31  C   UNL     1     -10.500   3.490 -34.383  1.00  0.00     0.009 A 
ENDBRANCH  24  25
ENDBRANCH   1  24
BRANCH   5  32
HETATM   32  C   UNL     1      -6.603  -1.237 -33.312  1.00  0.00     0.141 C 
BRANCH  32  33
HETATM   33  C   UNL     1      -5.137  -1.133 -33.603  1.00  0.00     0.004 A 
HETATM   34  C   UNL     1      -4.126  -1.812 -32.714  1.00  0.00     0.007 A 
HETATM   35  C   UNL     1      -4.373  -2.330 -34.105  1.00  0.00     0.007 A 
ENDBRANCH  32  33
ENDBRANCH   5  32
TORSDOF 7
ENDMDL
MODEL 7
REMARK VINA RESULT:      -8.3      1.820      2.381
REMARK  7 active torsions:
REMARK  status: ('A' for Active; 'I' for Inactive)
REMARK    1  A    between atoms: C_7  and  C_8 
REMARK    2  A    between atoms: C_8  and  N_9 
REMARK    3  A    between atoms: C_13  and  C_14 
REMARK    4  A    between atoms: C_14  and  C_15 
REMARK    5  A    between atoms: C_15  and  C_16 
REMARK    6  A    between atoms: N_26  and  C_27 
REMARK    7  A    between atoms: C_27  and  C_28 
ROOT
HETATM    1  C   UNL     1      -5.404   0.461 -32.487  1.00  0.00     0.123 C 
HETATM    2  N   UNL     1      -6.556  -0.385 -32.214  1.00  0.00    -0.324 N 
HETATM    3  C   UNL     1      -7.681  -0.014 -32.912  1.00  0.00     0.326 C 
HETATM    4  O   UNL     1      -8.718  -0.650 -32.905  1.00  0.00    -0.247 OA
HETATM    5  N   UNL     1      -7.422   1.165 -33.533  1.00  0.00    -0.268 N 
HETATM    6  C   UNL     1      -6.147   1.568 -33.266  1.00  0.00     0.257 C 
HETATM    7  O   UNL     1      -5.653   2.640 -33.591  1.00  0.00    -0.270 OA
HETATM    8  H   UNL     1      -6.532  -1.288 -31.749  1.00  0.00     0.165 HD
ENDROOT
BRANCH   1   9
HETATM    9  C   UNL     1      -4.751   0.931 -31.144  1.00  0.00     0.027 C 
HETATM   10  C   UNL     1      -5.641   1.832 -30.263  1.00  0.00     0.035 C 
HETATM   11  C   UNL     1      -5.668   3.292 -30.686  1.00  0.00     0.235 C 
HETATM   12  N   UNL     1      -4.275   3.861 -30.706  1.00  0.00    -0.067 N 
HETATM   13  H   UNL     1      -3.955   3.899 -29.731  1.00  0.00     0.280 HD
HETATM   14  C   UNL     1      -3.275   3.063 -31.495  1.00  0.00     0.235 C 
HETATM   15  C   UNL     1      -3.352   1.570 -31.214  1.00  0.00     0.035 C 
BRANCH  12  16
HETATM   16  C   UNL     1      -4.254   5.302 -31.203  1.00  0.00     0.277 C 
BRANCH  16  17
HETATM   17  C   UNL     1      -3.338   6.191 -30.451  1.00  0.00     0.011 A 
HETATM   18  C   UNL     1      -1.989   6.509 -30.777  1.00  0.00     0.060 A 
HETATM   19  C   UNL     1      -1.168   6.026 -31.919  1.00  0.00     0.073 C 
HETATM   20  N   UNL     1      -1.469   7.379 -29.911  1.00  0.00    -0.178 NA
HETATM   21  N   UNL     1      -2.428   7.562 -28.992  1.00  0.00    -0.284 N 
HETATM   22  C   UNL     1      -2.176   8.414 -27.854  1.00  0.00     0.179 C 
HETATM   23  C   UNL     1      -3.584   6.895 -29.287  1.00  0.00     0.122 A 
ENDBRANCH  16  17
ENDBRANCH  12  16
ENDBRANCH   1   9
BRANCH   1  24
HETATM   24  C   UNL     1      -4.447  -0.219 -33.516  1.00  0.00     0.082 C 
BRANCH  24  25
HETATM   25  C   UNL     1      -4.091  -1.673 -33.258  1.00  0.00    -0.034 A 
HETATM   26  C   UNL     1      -4.572  -2.748 -34.026  1.00  0.00     0.040 A 
HETATM   27 CL   UNL     1      -5.656  -2.535 -35.351  1.00  0.00    -0.084 Cl
HETATM   28  C   UNL     1      -4.211  -4.066 -33.721  1.00  0.00     0.024 A 
HETATM   29  C   UNL     1      -3.375  -4.337 -32.641  1.00  0.00     0.002 A 
HETATM   30  C   UNL     1      -2.912  -3.292 -31.851  1.00  0.00     0.001 A 
HETATM   31  C   UNL     1      -3.276  -1.977 -32.149  1.00  0.00     0.009 A 
ENDBRANCH  24  25
ENDBRANCH   1  24
BRANCH   5  32
HETATM   32  C   UNL     1      -8.389   1.913 -34.308  1.00  0.00     0.141 C 
BRANCH  32  33
HETATM   33  C   UNL     1      -9.138   2.858 -33.419  1.00  0.00     0.004 A 
HETATM   34  C   UNL     1     -10.363   3.580 -33.922  1.00  0.00     0.007 A 
HETATM   35  C   UNL     1     -10.501   2.491 -32.893  1.00  0.00     0.007 A 
ENDBRANCH  32  33
ENDBRANCH   5  32
TORSDOF 7
ENDMDL
MODEL 8
REMARK VINA RESULT:      -8.1      2.719      6.767
REMARK  7 active torsions:
REMARK  status: ('A' for Active; 'I' for Inactive)
REMARK    1  A    between atoms: C_7  and  C_8 
REMARK    2  A    between atoms: C_8  and  N_9 
REMARK    3  A    between atoms: C_13  and  C_14 
REMARK    4  A    between atoms: C_14  and  C_15 
REMARK    5  A    between atoms: C_15  and  C_16 
REMARK    6  A    between atoms: N_26  and  C_27 
REMARK    7  A    between atoms: C_27  and  C_28 
ROOT
HETATM    1  C   UNL     1      -5.841   1.946 -32.751  1.00  0.00     0.123 C 
HETATM    2  N   UNL     1      -6.763   2.861 -33.409  1.00  0.00    -0.324 N 
HETATM    3  C   UNL     1      -6.216   4.098 -33.657  1.00  0.00     0.326 C 
HETATM    4  O   UNL     1      -6.783   4.970 -34.288  1.00  0.00    -0.247 OA
HETATM    5  N   UNL     1      -5.006   4.155 -33.044  1.00  0.00    -0.268 N 
HETATM    6  C   UNL     1      -4.743   2.976 -32.410  1.00  0.00     0.257 C 
HETATM    7  O   UNL     1      -3.785   2.755 -31.682  1.00  0.00    -0.270 OA
HETATM    8  H   UNL     1      -7.636   2.602 -33.857  1.00  0.00     0.165 HD
ENDROOT
BRANCH   1   9
HETATM    9  C   UNL     1      -6.530   1.289 -31.509  1.00  0.00     0.027 C 
HETATM   10  C   UNL     1      -7.839   0.530 -31.812  1.00  0.00     0.035 C 
HETATM   11  C   UNL     1      -9.065   1.419 -31.939  1.00  0.00     0.235 C 
HETATM   12  N   UNL     1      -9.258   2.234 -30.689  1.00  0.00    -0.067 N 
HETATM   13  H   UNL     1      -9.514   1.578 -29.942  1.00  0.00     0.280 HD
HETATM   14  C   UNL     1      -8.046   3.003 -30.240  1.00  0.00     0.235 C 
HETATM   15  C   UNL     1      -6.771   2.173 -30.273  1.00  0.00     0.035 C 
BRANCH  12  16
HETATM   16  C   UNL     1     -10.432   3.198 -30.811  1.00  0.00     0.277 C 
BRANCH  16  17
HETATM   17  C   UNL     1     -10.596   3.789 -32.160  1.00  0.00     0.011 A 
HETATM   18  C   UNL     1     -11.516   3.386 -33.169  1.00  0.00     0.060 A 
HETATM   19  C   UNL     1     -12.511   2.281 -33.135  1.00  0.00     0.073 C 
HETATM   20  N   UNL     1     -11.429   4.165 -34.248  1.00  0.00    -0.178 NA
HETATM   21  N   UNL     1     -10.419   5.006 -33.983  1.00  0.00    -0.284 N 
HETATM   22  C   UNL     1     -10.006   5.965 -34.980  1.00  0.00     0.179 C 
HETATM   23  C   UNL     1      -9.905   4.843 -32.728  1.00  0.00     0.122 A 
ENDBRANCH  16  17
ENDBRANCH  12  16
ENDBRANCH   1   9
BRANCH   1  24
HETATM   24  C   UNL     1      -5.203   0.964 -33.784  1.00  0.00     0.082 C 
BRANCH  24  25
HETATM   25  C   UNL     1      -4.541  -0.281 -33.220  1.00  0.00    -0.034 A 
HETATM   26  C   UNL     1      -5.017  -1.587 -33.430  1.00  0.00     0.040 A 
HETATM   27 CL   UNL     1      -6.441  -1.925 -34.344  1.00  0.00    -0.084 Cl
HETATM   28  C   UNL     1      -4.361  -2.690 -32.868  1.00  0.00     0.024 A 
HETATM   29  C   UNL     1      -3.229  -2.509 -32.078  1.00  0.00     0.002 A 
HETATM   30  C   UNL     1      -2.759  -1.225 -31.834  1.00  0.00     0.001 A 
HETATM   31  C   UNL     1      -3.414  -0.124 -32.388  1.00  0.00     0.009 A 
ENDBRANCH  24  25
ENDBRANCH   1  24
BRANCH   5  32
HETATM   32  C   UNL     1      -4.156   5.326 -33.015  1.00  0.00     0.141 C 
BRANCH  32  33
HETATM   33  C   UNL     1      -3.226   5.312 -34.190  1.00  0.00     0.004 A 
HETATM   34  C   UNL     1      -2.171   6.378 -34.348  1.00  0.00     0.007 A 
HETATM   35  C   UNL     1      -1.770   4.969 -34.006  1.00  0.00     0.007 A 
ENDBRANCH  32  33
ENDBRANCH   5  32
TORSDOF 7
ENDMDL
MODEL 9
REMARK VINA RESULT:      -8.1      2.161      3.002
REMARK  7 active torsions:
REMARK  status: ('A' for Active; 'I' for Inactive)
REMARK    1  A    between atoms: C_7  and  C_8 
REMARK    2  A    between atoms: C_8  and  N_9 
REMARK    3  A    between atoms: C_13  and  C_14 
REMARK    4  A    between atoms: C_14  and  C_15 
REMARK    5  A    between atoms: C_15  and  C_16 
REMARK    6  A    between atoms: N_26  and  C_27 
REMARK    7  A    between atoms: C_27  and  C_28 
ROOT
HETATM    1  C   UNL     1      -6.323   1.243 -32.417  1.00  0.00     0.123 C 
HETATM    2  N   UNL     1      -7.336   0.332 -31.906  1.00  0.00    -0.324 N 
HETATM    3  C   UNL     1      -8.620   0.791 -32.085  1.00  0.00     0.326 C 
HETATM    4  O   UNL     1      -9.611   0.136 -31.823  1.00  0.00    -0.247 OA
HETATM    5  N   UNL     1      -8.552   2.068 -32.541  1.00  0.00    -0.268 N 
HETATM    6  C   UNL     1      -7.250   2.450 -32.677  1.00  0.00     0.257 C 
HETATM    7  O   UNL     1      -6.862   3.575 -32.963  1.00  0.00    -0.270 OA
HETATM    8  H   UNL     1      -7.184  -0.638 -31.645  1.00  0.00     0.165 HD
ENDROOT
BRANCH   1   9
HETATM    9  C   UNL     1      -5.221   1.485 -31.333  1.00  0.00     0.027 C 
HETATM   10  C   UNL     1      -5.737   2.030 -29.985  1.00  0.00     0.035 C 
HETATM   11  C   UNL     1      -5.990   3.529 -29.969  1.00  0.00     0.235 C 
HETATM   12  N   UNL     1      -4.741   4.278 -30.346  1.00  0.00    -0.067 N 
HETATM   13  H   UNL     1      -4.069   4.140 -29.582  1.00  0.00     0.280 HD
HETATM   14  C   UNL     1      -4.092   3.827 -31.625  1.00  0.00     0.235 C 
HETATM   15  C   UNL     1      -3.988   2.314 -31.738  1.00  0.00     0.035 C 
BRANCH  12  16
HETATM   16  C   UNL     1      -4.977   5.782 -30.420  1.00  0.00     0.277 C 
BRANCH  16  17
HETATM   17  C   UNL     1      -4.072   6.583 -29.562  1.00  0.00     0.011 A 
HETATM   18  C   UNL     1      -4.162   6.767 -28.153  1.00  0.00     0.060 A 
HETATM   19  C   UNL     1      -5.176   6.231 -27.206  1.00  0.00     0.073 C 
HETATM   20  N   UNL     1      -3.156   7.511 -27.693  1.00  0.00    -0.178 NA
HETATM   21  N   UNL     1      -2.470   7.874 -28.786  1.00  0.00    -0.284 N 
HETATM   22  C   UNL     1      -1.330   8.751 -28.658  1.00  0.00     0.179 C 
HETATM   23  C   UNL     1      -2.961   7.317 -29.933  1.00  0.00     0.122 A 
ENDBRANCH  16  17
ENDBRANCH  12  16
ENDBRANCH   1   9
BRANCH   1  24
HETATM   24  C   UNL     1      -5.817   0.780 -33.820  1.00  0.00     0.082 C 
BRANCH  24  25
HETATM   25  C   UNL     1      -5.664  -0.716 -34.030  1.00  0.00    -0.034 A 
HETATM   26  C   UNL     1      -4.494  -1.435 -33.729  1.00  0.00     0.040 A 
HETATM   27 CL   UNL     1      -3.073  -0.685 -33.103  1.00  0.00    -0.084 Cl
HETATM   28  C   UNL     1      -4.420  -2.815 -33.962  1.00  0.00     0.024 A 
HETATM   29  C   UNL     1      -5.504  -3.497 -34.507  1.00  0.00     0.002 A 
HETATM   30  C   UNL     1      -6.660  -2.800 -34.838  1.00  0.00     0.001 A 
HETATM   31  C   UNL     1      -6.734  -1.424 -34.614  1.00  0.00     0.009 A 
ENDBRANCH  24  25
ENDBRANCH   1  24
BRANCH   5  32
HETATM   32  C   UNL     1      -9.700   2.915 -32.781  1.00  0.00     0.141 C 
BRANCH  32  33
HETATM   33  C   UNL     1      -9.805   3.952 -31.705  1.00  0.00     0.004 A 
HETATM   34  C   UNL     1     -11.091   4.138 -30.938  1.00  0.00     0.007 A 
HETATM   35  C   UNL     1      -9.889   3.543 -30.257  1.00  0.00     0.007 A 
ENDBRANCH  32  33
ENDBRANCH   5  32
TORSDOF 7
ENDMDL
MODEL 10
REMARK VINA RESULT:      -8.1      1.793      4.187
REMARK  7 active torsions:
REMARK  status: ('A' for Active; 'I' for Inactive)
REMARK    1  A    between atoms: C_7  and  C_8 
REMARK    2  A    between atoms: C_8  and  N_9 
REMARK    3  A    between atoms: C_13  and  C_14 
REMARK    4  A    between atoms: C_14  and  C_15 
REMARK    5  A    between atoms: C_15  and  C_16 
REMARK    6  A    between atoms: N_26  and  C_27 
REMARK    7  A    between atoms: C_27  and  C_28 
ROOT
HETATM    1  C   UNL     1      -6.862   1.190 -31.681  1.00  0.00     0.123 C 
HETATM    2  N   UNL     1      -6.899   1.893 -32.955  1.00  0.00    -0.324 N 
HETATM    3  C   UNL     1      -6.504   1.115 -34.018  1.00  0.00     0.326 C 
HETATM    4  O   UNL     1      -6.561   1.480 -35.176  1.00  0.00    -0.247 OA
HETATM    5  N   UNL     1      -6.019  -0.054 -33.526  1.00  0.00    -0.268 N 
HETATM    6  C   UNL     1      -6.101  -0.063 -32.165  1.00  0.00     0.257 C 
HETATM    7  O   UNL     1      -5.647  -0.928 -31.428  1.00  0.00    -0.270 OA
HETATM    8  H   UNL     1      -7.367   2.778 -33.130  1.00  0.00     0.165 HD
ENDROOT
BRANCH   1   9
HETATM    9  C   UNL     1      -6.101   2.047 -30.616  1.00  0.00     0.027 C 
HETATM   10  C   UNL     1      -6.085   3.566 -30.886  1.00  0.00     0.035 C 
HETATM   11  C   UNL     1      -5.040   4.012 -31.896  1.00  0.00     0.235 C 
HETATM   12  N   UNL     1      -3.666   3.586 -31.456  1.00  0.00    -0.067 N 
HETATM   13  H   UNL     1      -3.438   4.133 -30.617  1.00  0.00     0.280 HD
HETATM   14  C   UNL     1      -3.533   2.128 -31.112  1.00  0.00     0.235 C 
HETATM   15  C   UNL     1      -4.671   1.618 -30.241  1.00  0.00     0.035 C 
BRANCH  12  16
HETATM   16  C   UNL     1      -2.600   3.946 -32.484  1.00  0.00     0.277 C 
BRANCH  16  17
HETATM   17  C   UNL     1      -1.691   5.038 -32.062  1.00  0.00     0.011 A 
HETATM   18  C   UNL     1      -1.079   6.017 -32.894  1.00  0.00     0.060 A 
HETATM   19  C   UNL     1      -1.176   6.179 -34.370  1.00  0.00     0.073 C 
HETATM   20  N   UNL     1      -0.357   6.882 -32.181  1.00  0.00    -0.178 NA
HETATM   21  N   UNL     1      -0.429   6.430 -30.921  1.00  0.00    -0.284 N 
HETATM   22  C   UNL     1       0.302   7.106 -29.875  1.00  0.00     0.179 C 
HETATM   23  C   UNL     1      -1.244   5.342 -30.790  1.00  0.00     0.122 A 
ENDBRANCH  16  17
ENDBRANCH  12  16
ENDBRANCH   1   9
BRANCH   1  24
HETATM   24  C   UNL     1      -8.287   0.697 -31.277  1.00  0.00     0.082 C 
BRANCH  24  25
HETATM   25  C   UNL     1      -9.453   1.253 -32.076  1.00  0.00    -0.034 A 
HETATM   26  C   UNL     1     -10.031   2.514 -31.847  1.00  0.00     0.040 A 
HETATM   27 CL   UNL     1      -9.491   3.575 -30.599  1.00  0.00    -0.084 Cl
HETATM   28  C   UNL     1     -11.115   2.957 -32.616  1.00  0.00     0.024 A 
HETATM   29  C   UNL     1     -11.647   2.149 -33.617  1.00  0.00     0.002 A 
HETATM   30  C   UNL     1     -11.108   0.887 -33.841  1.00  0.00     0.001 A 
HETATM   31  C   UNL     1     -10.033   0.441 -33.071  1.00  0.00     0.009 A 
ENDBRANCH  24  25
ENDBRANCH   1  24
BRANCH   5  32
HETATM   32  C   UNL     1      -5.438  -1.105 -34.335  1.00  0.00     0.141 C 
BRANCH  32  33
HETATM   33  C   UNL     1      -6.522  -1.962 -34.915  1.00  0.00     0.004 A 
HETATM   34  C   UNL     1      -6.351  -3.458 -35.010  1.00  0.00     0.007 A 
HETATM   35  C   UNL     1      -7.331  -2.873 -34.029  1.00  0.00     0.007 A 
ENDBRANCH  32  33
ENDBRANCH   5  32
TORSDOF 7
ENDMDL
