MODEL 1
REMARK VINA RESULT:      -8.8      0.000      0.000
REMARK  4 active torsions:
REMARK  status: ('A' for Active; 'I' for Inactive)
REMARK    1  A    between atoms: C_7  and  C_8 
REMARK    2  A    between atoms: C_10  and  O_11 
REMARK    3  A    between atoms: C_17  and  C_18 
REMARK    4  A    between atoms: C_25  and  C_26 
REMARK       I    between atoms: C_26  and  N_27 
ROOT
HETATM    1  C   UNL     1      -8.553   4.685 -29.819  1.00  0.00     0.070 C 
HETATM    2  C   UNL     1      -7.503   3.774 -30.409  1.00  0.00     0.037 A 
HETATM    3  N   UNL     1      -7.985   2.654 -31.077  1.00  0.00    -0.192 N 
HETATM    4  C   UNL     1      -7.189   1.727 -31.640  1.00  0.00     0.726 A 
HETATM    5  N   UNL     1      -5.835   1.880 -31.574  1.00  0.00    -0.083 N 
HETATM    6  N   UNL     1      -5.192   0.821 -32.105  1.00  0.00    -0.135 NA
HETATM    7  C   UNL     1      -6.224   0.095 -32.579  1.00  0.00     0.199 A 
HETATM    8  N   UNL     1      -7.470   0.622 -32.278  1.00  0.00    -0.041 NA
HETATM    9  C   UNL     1      -5.163   3.008 -30.919  1.00  0.00     0.202 A 
HETATM   10  C   UNL     1      -6.166   3.974 -30.302  1.00  0.00     0.062 A 
HETATM   11  H   UNL     1      -8.994   2.540 -31.142  1.00  0.00     0.184 HD
ENDROOT
BRANCH   7  12
HETATM   12  C   UNL     1      -6.064  -1.136 -33.347  1.00  0.00     0.017 A 
HETATM   13  C   UNL     1      -4.827  -1.806 -33.379  1.00  0.00     0.052 A 
HETATM   14  C   UNL     1      -4.667  -2.971 -34.132  1.00  0.00     0.069 A 
HETATM   15  C   UNL     1      -5.752  -3.474 -34.853  1.00  0.00     0.037 A 
HETATM   16  C   UNL     1      -6.984  -2.821 -34.831  1.00  0.00     0.004 A 
HETATM   17  C   UNL     1      -7.139  -1.655 -34.082  1.00  0.00     0.015 A 
BRANCH  14  18
HETATM   18  O   UNL     1      -3.516  -3.703 -34.245  1.00  0.00    -0.356 OA
HETATM   19  C   UNL     1      -3.450  -4.912 -33.498  1.00  0.00     0.210 C 
ENDBRANCH  14  18
ENDBRANCH   7  12
BRANCH   9  20
HETATM   20  C   UNL     1      -4.186   3.661 -31.894  1.00  0.00    -0.028 A 
HETATM   21  C   UNL     1      -2.815   3.781 -31.596  1.00  0.00     0.012 A 
HETATM   22  C   UNL     1      -1.945   4.397 -32.498  1.00  0.00     0.043 A 
HETATM   23  C   UNL     1      -2.440   4.902 -33.694  1.00  0.00     0.116 A 
HETATM   24  F   UNL     1      -1.605   5.496 -34.556  1.00  0.00    -0.206 F 
HETATM   25  C   UNL     1      -3.790   4.806 -34.007  1.00  0.00     0.043 A 
HETATM   26  C   UNL     1      -4.662   4.189 -33.109  1.00  0.00     0.012 A 
ENDBRANCH   9  20
BRANCH  10  27
HETATM   27  C   UNL     1      -5.629   5.194 -29.659  1.00  0.00     0.249 C 
HETATM   28  N   UNL     1      -5.246   5.059 -28.364  1.00  0.00    -0.366 N 
HETATM   29  H   UNL     1      -5.396   4.238 -27.798  1.00  0.00     0.159 HD
HETATM   30  H   UNL     1      -4.897   5.892 -27.905  1.00  0.00     0.159 HD
HETATM   31  O   UNL     1      -5.534   6.263 -30.246  1.00  0.00    -0.268 OA
ENDBRANCH  10  27
TORSDOF 4
ENDMDL
MODEL 2
REMARK VINA RESULT:      -8.7      3.296      7.104
REMARK  4 active torsions:
REMARK  status: ('A' for Active; 'I' for Inactive)
REMARK    1  A    between atoms: C_7  and  C_8 
REMARK    2  A    between atoms: C_10  and  O_11 
REMARK    3  A    between atoms: C_17  and  C_18 
REMARK    4  A    between atoms: C_25  and  C_26 
REMARK       I    between atoms: C_26  and  N_27 
ROOT
HETATM    1  C   UNL     1      -9.969   3.327 -30.481  1.00  0.00     0.070 C 
HETATM    2  C   UNL     1      -8.852   3.290 -31.495  1.00  0.00     0.037 A 
HETATM    3  N   UNL     1      -7.809   4.182 -31.276  1.00  0.00    -0.192 N 
HETATM    4  C   UNL     1      -6.747   4.298 -32.094  1.00  0.00     0.726 A 
HETATM    5  N   UNL     1      -6.662   3.499 -33.197  1.00  0.00    -0.083 N 
HETATM    6  N   UNL     1      -5.588   3.808 -33.949  1.00  0.00    -0.135 NA
HETATM    7  C   UNL     1      -4.992   4.746 -33.187  1.00  0.00     0.199 A 
HETATM    8  N   UNL     1      -5.705   5.085 -32.049  1.00  0.00    -0.041 NA
HETATM    9  C   UNL     1      -7.668   2.496 -33.567  1.00  0.00     0.202 A 
HETATM   10  C   UNL     1      -8.828   2.476 -32.580  1.00  0.00     0.062 A 
HETATM   11  H   UNL     1      -7.858   4.773 -30.449  1.00  0.00     0.184 HD
ENDROOT
BRANCH   7  12
HETATM   12  C   UNL     1      -3.707   5.357 -33.513  1.00  0.00     0.017 A 
HETATM   13  C   UNL     1      -3.338   6.593 -32.952  1.00  0.00     0.052 A 
HETATM   14  C   UNL     1      -2.119   7.189 -33.282  1.00  0.00     0.069 A 
HETATM   15  C   UNL     1      -1.259   6.543 -34.172  1.00  0.00     0.037 A 
HETATM   16  C   UNL     1      -1.611   5.317 -34.737  1.00  0.00     0.004 A 
HETATM   17  C   UNL     1      -2.832   4.727 -34.409  1.00  0.00     0.015 A 
BRANCH  14  18
HETATM   18  O   UNL     1      -1.655   8.386 -32.807  1.00  0.00    -0.356 OA
HETATM   19  C   UNL     1      -2.100   8.778 -31.513  1.00  0.00     0.210 C 
ENDBRANCH  14  18
ENDBRANCH   7  12
BRANCH   9  20
HETATM   20  C   UNL     1      -6.994   1.141 -33.766  1.00  0.00    -0.028 A 
HETATM   21  C   UNL     1      -7.163   0.397 -34.949  1.00  0.00     0.012 A 
HETATM   22  C   UNL     1      -6.549  -0.847 -35.098  1.00  0.00     0.043 A 
HETATM   23  C   UNL     1      -5.771  -1.358 -34.066  1.00  0.00     0.116 A 
HETATM   24  F   UNL     1      -5.185  -2.554 -34.210  1.00  0.00    -0.206 F 
HETATM   25  C   UNL     1      -5.597  -0.650 -32.884  1.00  0.00     0.043 A 
HETATM   26  C   UNL     1      -6.208   0.596 -32.732  1.00  0.00     0.012 A 
ENDBRANCH   9  20
BRANCH  10  27
HETATM   27  C   UNL     1      -9.890   1.468 -32.798  1.00  0.00     0.249 C 
HETATM   28  N   UNL     1      -9.821   0.360 -32.016  1.00  0.00    -0.366 N 
HETATM   29  H   UNL     1      -9.061   0.137 -31.392  1.00  0.00     0.159 HD
HETATM   30  H   UNL     1     -10.529  -0.348 -32.171  1.00  0.00     0.159 HD
HETATM   31  O   UNL     1     -10.776   1.612 -33.628  1.00  0.00    -0.268 OA
ENDBRANCH  10  27
TORSDOF 4
ENDMDL
MODEL 3
REMARK VINA RESULT:      -8.5      3.165      4.814
REMARK  4 active torsions:
REMARK  status: ('A' for Active; 'I' for Inactive)
REMARK    1  A    between atoms: C_7  and  C_8 
REMARK    2  A    between atoms: C_10  and  O_11 
REMARK    3  A    between atoms: C_17  and  C_18 
REMARK    4  A    between atoms: C_25  and  C_26 
REMARK       I    between atoms: C_26  and  N_27 
ROOT
HETATM    1  C   UNL     1      -4.770   4.740 -31.241  1.00  0.00     0.070 C 
HETATM    2  C   UNL     1      -5.153   3.480 -31.979  1.00  0.00     0.037 A 
HETATM    3  N   UNL     1      -4.398   2.353 -31.676  1.00  0.00    -0.192 N 
HETATM    4  C   UNL     1      -4.589   1.155 -32.258  1.00  0.00     0.726 A 
HETATM    5  N   UNL     1      -5.578   1.013 -33.187  1.00  0.00    -0.083 N 
HETATM    6  N   UNL     1      -5.571  -0.220 -33.732  1.00  0.00    -0.135 NA
HETATM    7  C   UNL     1      -4.608  -0.824 -33.007  1.00  0.00     0.199 A 
HETATM    8  N   UNL     1      -3.969   0.015 -32.109  1.00  0.00    -0.041 NA
HETATM    9  C   UNL     1      -6.473   2.096 -33.611  1.00  0.00     0.202 A 
HETATM   10  C   UNL     1      -6.144   3.403 -32.901  1.00  0.00     0.062 A 
HETATM   11  H   UNL     1      -3.667   2.447 -30.975  1.00  0.00     0.184 HD
ENDROOT
BRANCH   7  12
HETATM   12  C   UNL     1      -4.261  -2.236 -33.139  1.00  0.00     0.017 A 
HETATM   13  C   UNL     1      -4.896  -3.044 -34.098  1.00  0.00     0.052 A 
HETATM   14  C   UNL     1      -4.580  -4.400 -34.208  1.00  0.00     0.069 A 
HETATM   15  C   UNL     1      -3.618  -4.951 -33.360  1.00  0.00     0.037 A 
HETATM   16  C   UNL     1      -2.978  -4.161 -32.404  1.00  0.00     0.004 A 
HETATM   17  C   UNL     1      -3.300  -2.808 -32.293  1.00  0.00     0.015 A 
BRANCH  14  18
HETATM   18  O   UNL     1      -5.134  -5.285 -35.094  1.00  0.00    -0.356 OA
HETATM   19  C   UNL     1      -6.371  -4.908 -35.687  1.00  0.00     0.210 C 
ENDBRANCH  14  18
ENDBRANCH   7  12
BRANCH   9  20
HETATM   20  C   UNL     1      -7.926   1.652 -33.459  1.00  0.00    -0.028 A 
HETATM   21  C   UNL     1      -8.394   1.046 -32.278  1.00  0.00     0.012 A 
HETATM   22  C   UNL     1      -9.724   0.635 -32.171  1.00  0.00     0.043 A 
HETATM   23  C   UNL     1     -10.588   0.816 -33.244  1.00  0.00     0.116 A 
HETATM   24  F   UNL     1     -11.862   0.416 -33.141  1.00  0.00    -0.206 F 
HETATM   25  C   UNL     1     -10.148   1.400 -34.425  1.00  0.00     0.043 A 
HETATM   26  C   UNL     1      -8.820   1.815 -34.535  1.00  0.00     0.012 A 
ENDBRANCH   9  20
BRANCH  10  27
HETATM   27  C   UNL     1      -7.008   4.569 -33.188  1.00  0.00     0.249 C 
HETATM   28  N   UNL     1      -7.899   4.898 -32.217  1.00  0.00    -0.366 N 
HETATM   29  H   UNL     1      -8.077   4.354 -31.387  1.00  0.00     0.159 HD
HETATM   30  H   UNL     1      -8.512   5.680 -32.411  1.00  0.00     0.159 HD
HETATM   31  O   UNL     1      -6.936   5.204 -34.231  1.00  0.00    -0.268 OA
ENDBRANCH  10  27
TORSDOF 4
ENDMDL
MODEL 4
REMARK VINA RESULT:      -8.3      3.103      4.400
REMARK  4 active torsions:
REMARK  status: ('A' for Active; 'I' for Inactive)
REMARK    1  A    between atoms: C_7  and  C_8 
REMARK    2  A    between atoms: C_10  and  O_11 
REMARK    3  A    between atoms: C_17  and  C_18 
REMARK    4  A    between atoms: C_25  and  C_26 
REMARK       I    between atoms: C_26  and  N_27 
ROOT
HETATM    1  C   UNL     1     -12.017   3.009 -34.980  1.00  0.00     0.070 C 
HETATM    2  C   UNL     1     -10.885   2.433 -34.164  1.00  0.00     0.037 A 
HETATM    3  N   UNL     1     -10.090   1.496 -34.815  1.00  0.00    -0.192 N 
HETATM    4  C   UNL     1      -9.054   0.867 -34.229  1.00  0.00     0.726 A 
HETATM    5  N   UNL     1      -8.743   1.157 -32.932  1.00  0.00    -0.083 N 
HETATM    6  N   UNL     1      -7.744   0.375 -32.478  1.00  0.00    -0.135 NA
HETATM    7  C   UNL     1      -7.414  -0.307 -33.593  1.00  0.00     0.199 A 
HETATM    8  N   UNL     1      -8.229  -0.039 -34.680  1.00  0.00    -0.041 NA
HETATM    9  C   UNL     1      -9.470   2.128 -32.107  1.00  0.00     0.202 A 
HETATM   10  C   UNL     1     -10.630   2.754 -32.871  1.00  0.00     0.062 A 
HETATM   11  H   UNL     1     -10.307   1.284 -35.785  1.00  0.00     0.184 HD
ENDROOT
BRANCH   7  12
HETATM   12  C   UNL     1      -6.297  -1.245 -33.668  1.00  0.00     0.017 A 
HETATM   13  C   UNL     1      -5.229  -1.163 -32.756  1.00  0.00     0.052 A 
HETATM   14  C   UNL     1      -4.150  -2.045 -32.843  1.00  0.00     0.069 A 
HETATM   15  C   UNL     1      -4.140  -3.020 -33.842  1.00  0.00     0.037 A 
HETATM   16  C   UNL     1      -5.192  -3.113 -34.753  1.00  0.00     0.004 A 
HETATM   17  C   UNL     1      -6.266  -2.228 -34.667  1.00  0.00     0.015 A 
BRANCH  14  18
HETATM   18  O   UNL     1      -3.055  -2.058 -32.020  1.00  0.00    -0.356 OA
HETATM   19  C   UNL     1      -2.557  -0.795 -31.596  1.00  0.00     0.210 C 
ENDBRANCH  14  18
ENDBRANCH   7  12
BRANCH   9  20
HETATM   20  C   UNL     1      -8.489   3.141 -31.521  1.00  0.00    -0.028 A 
HETATM   21  C   UNL     1      -8.358   3.323 -30.131  1.00  0.00     0.012 A 
HETATM   22  C   UNL     1      -7.465   4.267 -29.621  1.00  0.00     0.043 A 
HETATM   23  C   UNL     1      -6.708   5.039 -30.494  1.00  0.00     0.116 A 
HETATM   24  F   UNL     1      -5.855   5.947 -30.003  1.00  0.00    -0.206 F 
HETATM   25  C   UNL     1      -6.827   4.886 -31.869  1.00  0.00     0.043 A 
HETATM   26  C   UNL     1      -7.716   3.942 -32.383  1.00  0.00     0.012 A 
ENDBRANCH   9  20
BRANCH  10  27
HETATM   27  C   UNL     1     -11.415   3.800 -32.179  1.00  0.00     0.249 C 
HETATM   28  N   UNL     1     -12.436   3.354 -31.402  1.00  0.00    -0.366 N 
HETATM   29  H   UNL     1     -12.750   2.397 -31.351  1.00  0.00     0.159 HD
HETATM   30  H   UNL     1     -12.996   4.061 -30.941  1.00  0.00     0.159 HD
HETATM   31  O   UNL     1     -11.172   4.993 -32.293  1.00  0.00    -0.268 OA
ENDBRANCH  10  27
TORSDOF 4
ENDMDL
MODEL 5
REMARK VINA RESULT:      -8.1      2.607      3.158
REMARK  4 active torsions:
REMARK  status: ('A' for Active; 'I' for Inactive)
REMARK    1  A    between atoms: C_7  and  C_8 
REMARK    2  A    between atoms: C_10  and  O_11 
REMARK    3  A    between atoms: C_17  and  C_18 
REMARK    4  A    between atoms: C_25  and  C_26 
REMARK       I    between atoms: C_26  and  N_27 
ROOT
HETATM    1  C   UNL     1     -11.112   4.078 -34.879  1.00  0.00     0.070 C 
HETATM    2  C   UNL     1      -9.860   3.483 -34.282  1.00  0.00     0.037 A 
HETATM    3  N   UNL     1      -9.511   2.221 -34.749  1.00  0.00    -0.192 N 
HETATM    4  C   UNL     1      -8.441   1.536 -34.308  1.00  0.00     0.726 A 
HETATM    5  N   UNL     1      -7.634   2.095 -33.360  1.00  0.00    -0.083 N 
HETATM    6  N   UNL     1      -6.668   1.242 -32.967  1.00  0.00    -0.135 NA
HETATM    7  C   UNL     1      -6.878   0.203 -33.800  1.00  0.00     0.199 A 
HETATM    8  N   UNL     1      -7.986   0.352 -34.618  1.00  0.00    -0.041 NA
HETATM    9  C   UNL     1      -7.851   3.422 -32.771  1.00  0.00     0.202 A 
HETATM   10  C   UNL     1      -9.102   4.086 -33.333  1.00  0.00     0.062 A 
HETATM   11  H   UNL     1     -10.100   1.802 -35.465  1.00  0.00     0.184 HD
ENDROOT
BRANCH   7  12
HETATM   12  C   UNL     1      -6.022  -0.978 -33.853  1.00  0.00     0.017 A 
HETATM   13  C   UNL     1      -4.913  -1.099 -32.997  1.00  0.00     0.052 A 
HETATM   14  C   UNL     1      -4.081  -2.219 -33.064  1.00  0.00     0.069 A 
HETATM   15  C   UNL     1      -4.363  -3.228 -33.987  1.00  0.00     0.037 A 
HETATM   16  C   UNL     1      -5.460  -3.122 -34.842  1.00  0.00     0.004 A 
HETATM   17  C   UNL     1      -6.285  -2.000 -34.776  1.00  0.00     0.015 A 
BRANCH  14  18
HETATM   18  O   UNL     1      -2.973  -2.445 -32.292  1.00  0.00    -0.356 OA
HETATM   19  C   UNL     1      -2.925  -3.680 -31.587  1.00  0.00     0.210 C 
ENDBRANCH  14  18
ENDBRANCH   7  12
BRANCH   9  20
HETATM   20  C   UNL     1      -6.583   4.261 -32.911  1.00  0.00    -0.028 A 
HETATM   21  C   UNL     1      -6.013   4.929 -31.811  1.00  0.00     0.012 A 
HETATM   22  C   UNL     1      -4.862   5.702 -31.970  1.00  0.00     0.043 A 
HETATM   23  C   UNL     1      -4.280   5.820 -33.226  1.00  0.00     0.116 A 
HETATM   24  F   UNL     1      -3.178   6.565 -33.378  1.00  0.00    -0.206 F 
HETATM   25  C   UNL     1      -4.830   5.180 -34.330  1.00  0.00     0.043 A 
HETATM   26  C   UNL     1      -5.979   4.404 -34.175  1.00  0.00     0.012 A 
ENDBRANCH   9  20
BRANCH  10  27
HETATM   27  C   UNL     1      -9.410   5.457 -32.871  1.00  0.00     0.249 C 
HETATM   28  N   UNL     1      -9.019   6.460 -33.698  1.00  0.00    -0.366 N 
HETATM   29  H   UNL     1      -8.458   6.342 -34.527  1.00  0.00     0.159 HD
HETATM   30  H   UNL     1      -9.204   7.406 -33.383  1.00  0.00     0.159 HD
HETATM   31  O   UNL     1      -9.979   5.685 -31.813  1.00  0.00    -0.268 OA
ENDBRANCH  10  27
TORSDOF 4
ENDMDL
MODEL 6
REMARK VINA RESULT:      -8.1      3.234      4.536
REMARK  4 active torsions:
REMARK  status: ('A' for Active; 'I' for Inactive)
REMARK    1  A    between atoms: C_7  and  C_8 
REMARK    2  A    between atoms: C_10  and  O_11 
REMARK    3  A    between atoms: C_17  and  C_18 
REMARK    4  A    between atoms: C_25  and  C_26 
REMARK       I    between atoms: C_26  and  N_27 
ROOT
HETATM    1  C   UNL     1     -12.442   3.363 -34.773  1.00  0.00     0.070 C 
HETATM    2  C   UNL     1     -11.255   2.792 -34.036  1.00  0.00     0.037 A 
HETATM    3  N   UNL     1     -10.477   1.892 -34.755  1.00  0.00    -0.192 N 
HETATM    4  C   UNL     1      -9.397   1.271 -34.244  1.00  0.00     0.726 A 
HETATM    5  N   UNL     1      -9.022   1.533 -32.959  1.00  0.00    -0.083 N 
HETATM    6  N   UNL     1      -7.983   0.763 -32.581  1.00  0.00    -0.135 NA
HETATM    7  C   UNL     1      -7.699   0.119 -33.730  1.00  0.00     0.199 A 
HETATM    8  N   UNL     1      -8.579   0.397 -34.764  1.00  0.00    -0.041 NA
HETATM    9  C   UNL     1      -9.724   2.465 -32.068  1.00  0.00     0.202 A 
HETATM   10  C   UNL     1     -10.937   3.085 -32.751  1.00  0.00     0.062 A 
HETATM   11  H   UNL     1     -10.742   1.701 -35.718  1.00  0.00     0.184 HD
ENDROOT
BRANCH   7  12
HETATM   12  C   UNL     1      -6.568  -0.790 -33.892  1.00  0.00     0.017 A 
HETATM   13  C   UNL     1      -6.753  -2.075 -34.432  1.00  0.00     0.052 A 
HETATM   14  C   UNL     1      -5.675  -2.953 -34.565  1.00  0.00     0.069 A 
HETATM   15  C   UNL     1      -4.403  -2.542 -34.162  1.00  0.00     0.037 A 
HETATM   16  C   UNL     1      -4.204  -1.270 -33.625  1.00  0.00     0.004 A 
HETATM   17  C   UNL     1      -5.284  -0.398 -33.489  1.00  0.00     0.015 A 
BRANCH  14  18
HETATM   18  O   UNL     1      -5.731  -4.225 -35.068  1.00  0.00    -0.356 OA
HETATM   19  C   UNL     1      -4.918  -5.204 -34.430  1.00  0.00     0.210 C 
ENDBRANCH  14  18
ENDBRANCH   7  12
BRANCH   9  20
HETATM   20  C   UNL     1      -8.735   3.484 -31.508  1.00  0.00    -0.028 A 
HETATM   21  C   UNL     1      -8.048   4.386 -32.344  1.00  0.00     0.012 A 
HETATM   22  C   UNL     1      -7.137   5.296 -31.807  1.00  0.00     0.043 A 
HETATM   23  C   UNL     1      -6.899   5.306 -30.439  1.00  0.00     0.116 A 
HETATM   24  F   UNL     1      -6.022   6.178 -29.926  1.00  0.00    -0.206 F 
HETATM   25  C   UNL     1      -7.554   4.419 -29.593  1.00  0.00     0.043 A 
HETATM   26  C   UNL     1      -8.468   3.509 -30.125  1.00  0.00     0.012 A 
ENDBRANCH   9  20
BRANCH  10  27
HETATM   27  C   UNL     1     -11.706   4.093 -31.988  1.00  0.00     0.249 C 
HETATM   28  N   UNL     1     -12.613   3.600 -31.106  1.00  0.00    -0.366 N 
HETATM   29  H   UNL     1     -12.864   2.628 -31.015  1.00  0.00     0.159 HD
HETATM   30  H   UNL     1     -13.162   4.280 -30.594  1.00  0.00     0.159 HD
HETATM   31  O   UNL     1     -11.545   5.296 -32.136  1.00  0.00    -0.268 OA
ENDBRANCH  10  27
TORSDOF 4
ENDMDL
MODEL 7
REMARK VINA RESULT:      -7.9      4.771      7.079
REMARK  4 active torsions:
REMARK  status: ('A' for Active; 'I' for Inactive)
REMARK    1  A    between atoms: C_7  and  C_8 
REMARK    2  A    between atoms: C_10  and  O_11 
REMARK    3  A    between atoms: C_17  and  C_18 
REMARK    4  A    between atoms: C_25  and  C_26 
REMARK       I    between atoms: C_26  and  N_27 
ROOT
HETATM    1  C   UNL     1      -5.884   5.851 -33.084  1.00  0.00     0.070 C 
HETATM    2  C   UNL     1      -6.792   4.656 -32.919  1.00  0.00     0.037 A 
HETATM    3  N   UNL     1      -8.132   4.872 -33.221  1.00  0.00    -0.192 N 
HETATM    4  C   UNL     1      -9.080   3.925 -33.107  1.00  0.00     0.726 A 
HETATM    5  N   UNL     1      -8.729   2.675 -32.687  1.00  0.00    -0.083 N 
HETATM    6  N   UNL     1      -9.809   1.881 -32.542  1.00  0.00    -0.135 NA
HETATM    7  C   UNL     1     -10.790   2.684 -32.997  1.00  0.00     0.199 A 
HETATM    8  N   UNL     1     -10.367   3.962 -33.326  1.00  0.00    -0.041 NA
HETATM    9  C   UNL     1      -7.360   2.276 -32.340  1.00  0.00     0.202 A 
HETATM   10  C   UNL     1      -6.385   3.437 -32.487  1.00  0.00     0.062 A 
HETATM   11  H   UNL     1      -8.400   5.797 -33.548  1.00  0.00     0.184 HD
ENDROOT
BRANCH   7  12
HETATM   12  C   UNL     1     -12.180   2.262 -33.142  1.00  0.00     0.017 A 
HETATM   13  C   UNL     1     -13.221   3.010 -32.565  1.00  0.00     0.052 A 
HETATM   14  C   UNL     1     -14.549   2.593 -32.684  1.00  0.00     0.069 A 
HETATM   15  C   UNL     1     -14.839   1.425 -33.391  1.00  0.00     0.037 A 
HETATM   16  C   UNL     1     -13.817   0.672 -33.970  1.00  0.00     0.004 A 
HETATM   17  C   UNL     1     -12.492   1.089 -33.844  1.00  0.00     0.015 A 
BRANCH  14  18
HETATM   18  O   UNL     1     -15.642   3.232 -32.162  1.00  0.00    -0.356 OA
HETATM   19  C   UNL     1     -16.886   2.547 -32.249  1.00  0.00     0.210 C 
ENDBRANCH  14  18
ENDBRANCH   7  12
BRANCH   9  20
HETATM   20  C   UNL     1      -6.972   1.030 -33.134  1.00  0.00    -0.028 A 
HETATM   21  C   UNL     1      -7.116   0.970 -34.533  1.00  0.00     0.012 A 
HETATM   22  C   UNL     1      -6.769  -0.187 -35.232  1.00  0.00     0.043 A 
HETATM   23  C   UNL     1      -6.286  -1.290 -34.540  1.00  0.00     0.116 A 
HETATM   24  F   UNL     1      -5.957  -2.401 -35.212  1.00  0.00    -0.206 F 
HETATM   25  C   UNL     1      -6.144  -1.261 -33.158  1.00  0.00     0.043 A 
HETATM   26  C   UNL     1      -6.488  -0.105 -32.456  1.00  0.00     0.012 A 
ENDBRANCH   9  20
BRANCH  10  27
HETATM   27  C   UNL     1      -4.954   3.161 -32.229  1.00  0.00     0.249 C 
HETATM   28  N   UNL     1      -4.597   3.070 -30.922  1.00  0.00    -0.366 N 
HETATM   29  H   UNL     1      -5.200   3.276 -30.141  1.00  0.00     0.159 HD
HETATM   30  H   UNL     1      -3.616   2.904 -30.731  1.00  0.00     0.159 HD
HETATM   31  O   UNL     1      -4.136   3.023 -33.127  1.00  0.00    -0.268 OA
ENDBRANCH  10  27
TORSDOF 4
ENDMDL
MODEL 8
REMARK VINA RESULT:      -7.7      2.598      4.032
REMARK  4 active torsions:
REMARK  status: ('A' for Active; 'I' for Inactive)
REMARK    1  A    between atoms: C_7  and  C_8 
REMARK    2  A    between atoms: C_10  and  O_11 
REMARK    3  A    between atoms: C_17  and  C_18 
REMARK    4  A    between atoms: C_25  and  C_26 
REMARK       I    between atoms: C_26  and  N_27 
ROOT
HETATM    1  C   UNL     1      -2.563   4.334 -31.345  1.00  0.00     0.070 C 
HETATM    2  C   UNL     1      -3.638   3.522 -32.026  1.00  0.00     0.037 A 
HETATM    3  N   UNL     1      -3.386   2.159 -32.133  1.00  0.00    -0.192 N 
HETATM    4  C   UNL     1      -4.225   1.294 -32.731  1.00  0.00     0.726 A 
HETATM    5  N   UNL     1      -5.397   1.755 -33.257  1.00  0.00    -0.083 N 
HETATM    6  N   UNL     1      -6.070   0.778 -33.895  1.00  0.00    -0.135 NA
HETATM    7  C   UNL     1      -5.298  -0.293 -33.628  1.00  0.00     0.199 A 
HETATM    8  N   UNL     1      -4.137   0.007 -32.933  1.00  0.00    -0.041 NA
HETATM    9  C   UNL     1      -5.822   3.160 -33.218  1.00  0.00     0.202 A 
HETATM   10  C   UNL     1      -4.782   4.040 -32.539  1.00  0.00     0.062 A 
HETATM   11  H   UNL     1      -2.521   1.805 -31.732  1.00  0.00     0.184 HD
ENDROOT
BRANCH   7  12
HETATM   12  C   UNL     1      -5.639  -1.657 -34.022  1.00  0.00     0.017 A 
HETATM   13  C   UNL     1      -4.688  -2.689 -33.931  1.00  0.00     0.052 A 
HETATM   14  C   UNL     1      -5.008  -3.989 -34.330  1.00  0.00     0.069 A 
HETATM   15  C   UNL     1      -6.288  -4.261 -34.818  1.00  0.00     0.037 A 
HETATM   16  C   UNL     1      -7.241  -3.247 -34.914  1.00  0.00     0.004 A 
HETATM   17  C   UNL     1      -6.917  -1.950 -34.519  1.00  0.00     0.015 A 
BRANCH  14  18
HETATM   18  O   UNL     1      -4.169  -5.070 -34.294  1.00  0.00    -0.356 OA
HETATM   19  C   UNL     1      -3.088  -5.012 -33.370  1.00  0.00     0.210 C 
ENDBRANCH  14  18
ENDBRANCH   7  12
BRANCH   9  20
HETATM   20  C   UNL     1      -7.218   3.257 -32.607  1.00  0.00    -0.028 A 
HETATM   21  C   UNL     1      -7.487   2.804 -31.302  1.00  0.00     0.012 A 
HETATM   22  C   UNL     1      -8.776   2.890 -30.773  1.00  0.00     0.043 A 
HETATM   23  C   UNL     1      -9.802   3.419 -31.546  1.00  0.00     0.116 A 
HETATM   24  F   UNL     1     -11.039   3.498 -31.038  1.00  0.00    -0.206 F 
HETATM   25  C   UNL     1      -9.566   3.863 -32.841  1.00  0.00     0.043 A 
HETATM   26  C   UNL     1      -8.278   3.781 -33.372  1.00  0.00     0.012 A 
ENDBRANCH   9  20
BRANCH  10  27
HETATM   27  C   UNL     1      -5.107   5.475 -32.375  1.00  0.00     0.249 C 
HETATM   28  N   UNL     1      -5.538   5.845 -31.143  1.00  0.00    -0.366 N 
HETATM   29  H   UNL     1      -5.746   5.212 -30.386  1.00  0.00     0.159 HD
HETATM   30  H   UNL     1      -5.786   6.821 -31.024  1.00  0.00     0.159 HD
HETATM   31  O   UNL     1      -4.999   6.284 -33.286  1.00  0.00    -0.268 OA
ENDBRANCH  10  27
TORSDOF 4
ENDMDL
MODEL 9
REMARK VINA RESULT:      -7.6      2.684      4.264
REMARK  4 active torsions:
REMARK  status: ('A' for Active; 'I' for Inactive)
REMARK    1  A    between atoms: C_7  and  C_8 
REMARK    2  A    between atoms: C_10  and  O_11 
REMARK    3  A    between atoms: C_17  and  C_18 
REMARK    4  A    between atoms: C_25  and  C_26 
REMARK       I    between atoms: C_26  and  N_27 
ROOT
HETATM    1  C   UNL     1      -2.465   5.907 -30.743  1.00  0.00     0.070 C 
HETATM    2  C   UNL     1      -3.296   4.789 -31.324  1.00  0.00     0.037 A 
HETATM    3  N   UNL     1      -2.710   3.528 -31.301  1.00  0.00    -0.192 N 
HETATM    4  C   UNL     1      -3.300   2.426 -31.798  1.00  0.00     0.726 A 
HETATM    5  N   UNL     1      -4.545   2.525 -32.349  1.00  0.00    -0.083 N 
HETATM    6  N   UNL     1      -4.945   1.353 -32.878  1.00  0.00    -0.135 NA
HETATM    7  C   UNL     1      -3.932   0.540 -32.520  1.00  0.00     0.199 A 
HETATM    8  N   UNL     1      -2.891   1.188 -31.875  1.00  0.00    -0.041 NA
HETATM    9  C   UNL     1      -5.308   3.776 -32.442  1.00  0.00     0.202 A 
HETATM   10  C   UNL     1      -4.528   4.951 -31.868  1.00  0.00     0.062 A 
HETATM   11  H   UNL     1      -1.788   3.443 -30.880  1.00  0.00     0.184 HD
ENDROOT
BRANCH   7  12
HETATM   12  C   UNL     1      -3.917  -0.897 -32.774  1.00  0.00     0.017 A 
HETATM   13  C   UNL     1      -4.632  -1.442 -33.855  1.00  0.00     0.052 A 
HETATM   14  C   UNL     1      -4.637  -2.820 -34.084  1.00  0.00     0.069 A 
HETATM   15  C   UNL     1      -3.917  -3.658 -33.232  1.00  0.00     0.037 A 
HETATM   16  C   UNL     1      -3.203  -3.133 -32.155  1.00  0.00     0.004 A 
HETATM   17  C   UNL     1      -3.205  -1.757 -31.926  1.00  0.00     0.015 A 
BRANCH  14  18
HETATM   18  O   UNL     1      -5.297  -3.464 -35.096  1.00  0.00    -0.356 OA
HETATM   19  C   UNL     1      -6.508  -4.126 -34.750  1.00  0.00     0.210 C 
ENDBRANCH  14  18
ENDBRANCH   7  12
BRANCH   9  20
HETATM   20  C   UNL     1      -6.690   3.581 -31.822  1.00  0.00    -0.028 A 
HETATM   21  C   UNL     1      -6.853   3.306 -30.451  1.00  0.00     0.012 A 
HETATM   22  C   UNL     1      -8.127   3.116 -29.913  1.00  0.00     0.043 A 
HETATM   23  C   UNL     1      -9.241   3.190 -30.740  1.00  0.00     0.116 A 
HETATM   24  F   UNL     1     -10.462   3.004 -30.223  1.00  0.00    -0.206 F 
HETATM   25  C   UNL     1      -9.106   3.449 -32.098  1.00  0.00     0.043 A 
HETATM   26  C   UNL     1      -7.835   3.642 -32.640  1.00  0.00     0.012 A 
ENDBRANCH   9  20
BRANCH  10  27
HETATM   27  C   UNL     1      -5.203   6.268 -31.840  1.00  0.00     0.249 C 
HETATM   28  N   UNL     1      -5.593   6.706 -30.616  1.00  0.00    -0.366 N 
HETATM   29  H   UNL     1      -5.549   6.165 -29.766  1.00  0.00     0.159 HD
HETATM   30  H   UNL     1      -6.077   7.596 -30.586  1.00  0.00     0.159 HD
HETATM   31  O   UNL     1      -5.405   6.927 -32.850  1.00  0.00    -0.268 OA
ENDBRANCH  10  27
TORSDOF 4
ENDMDL
MODEL 10
REMARK VINA RESULT:      -7.4      4.472      6.951
REMARK  4 active torsions:
REMARK  status: ('A' for Active; 'I' for Inactive)
REMARK    1  A    between atoms: C_7  and  C_8 
REMARK    2  A    between atoms: C_10  and  O_11 
REMARK    3  A    between atoms: C_17  and  C_18 
REMARK    4  A    between atoms: C_25  and  C_26 
REMARK       I    between atoms: C_26  and  N_27 
ROOT
HETATM    1  C   UNL     1      -3.267   4.966 -33.346  1.00  0.00     0.070 C 
HETATM    2  C   UNL     1      -4.630   4.323 -33.253  1.00  0.00     0.037 A 
HETATM    3  N   UNL     1      -5.678   5.054 -33.799  1.00  0.00    -0.192 N 
HETATM    4  C   UNL     1      -6.959   4.642 -33.781  1.00  0.00     0.726 A 
HETATM    5  N   UNL     1      -7.266   3.439 -33.212  1.00  0.00    -0.083 N 
HETATM    6  N   UNL     1      -8.596   3.225 -33.198  1.00  0.00    -0.135 NA
HETATM    7  C   UNL     1      -9.044   4.300 -33.876  1.00  0.00     0.199 A 
HETATM    8  N   UNL     1      -8.052   5.203 -34.222  1.00  0.00    -0.041 NA
HETATM    9  C   UNL     1      -6.279   2.540 -32.603  1.00  0.00     0.202 A 
HETATM   10  C   UNL     1      -4.874   3.125 -32.665  1.00  0.00     0.062 A 
HETATM   11  H   UNL     1      -5.457   5.945 -34.236  1.00  0.00     0.184 HD
ENDROOT
BRANCH   7  12
HETATM   12  C   UNL     1     -10.446   4.508 -34.230  1.00  0.00     0.017 A 
HETATM   13  C   UNL     1     -11.377   3.460 -34.117  1.00  0.00     0.052 A 
HETATM   14  C   UNL     1     -12.712   3.652 -34.477  1.00  0.00     0.069 A 
HETATM   15  C   UNL     1     -13.122   4.902 -34.946  1.00  0.00     0.037 A 
HETATM   16  C   UNL     1     -12.210   5.951 -35.062  1.00  0.00     0.004 A 
HETATM   17  C   UNL     1     -10.876   5.754 -34.707  1.00  0.00     0.015 A 
BRANCH  14  18
HETATM   18  O   UNL     1     -13.705   2.711 -34.418  1.00  0.00    -0.356 OA
HETATM   19  C   UNL     1     -13.307   1.352 -34.558  1.00  0.00     0.210 C 
ENDBRANCH  14  18
ENDBRANCH   7  12
BRANCH   9  20
HETATM   20  C   UNL     1      -6.403   1.148 -33.221  1.00  0.00    -0.028 A 
HETATM   21  C   UNL     1      -6.250  -0.019 -32.449  1.00  0.00     0.012 A 
HETATM   22  C   UNL     1      -6.352  -1.279 -33.041  1.00  0.00     0.043 A 
HETATM   23  C   UNL     1      -6.598  -1.380 -34.405  1.00  0.00     0.116 A 
HETATM   24  F   UNL     1      -6.691  -2.589 -34.972  1.00  0.00    -0.206 F 
HETATM   25  C   UNL     1      -6.741  -0.243 -35.191  1.00  0.00     0.043 A 
HETATM   26  C   UNL     1      -6.643   1.018 -34.602  1.00  0.00     0.012 A 
ENDBRANCH   9  20
BRANCH  10  27
HETATM   27  C   UNL     1      -3.767   2.295 -32.141  1.00  0.00     0.249 C 
HETATM   28  N   UNL     1      -3.424   2.518 -30.847  1.00  0.00    -0.366 N 
HETATM   29  H   UNL     1      -3.789   3.259 -30.269  1.00  0.00     0.159 HD
HETATM   30  H   UNL     1      -2.651   1.972 -30.483  1.00  0.00     0.159 HD
HETATM   31  O   UNL     1      -3.188   1.460 -32.823  1.00  0.00    -0.268 OA
ENDBRANCH  10  27
TORSDOF 4
ENDMDL
