MODEL 1
REMARK VINA RESULT:     -10.0      0.000      0.000
REMARK  3 active torsions:
REMARK  status: ('A' for Active; 'I' for Inactive)
REMARK    1  A    between atoms: C_9  and  C_10 
REMARK       I    between atoms: C_10  and  N_11 
REMARK    2  A    between atoms: N_11  and  C_12 
REMARK    3  A    between atoms: C_19  and  C_20 
REMARK       I    between atoms: C_20  and  N_21 
ROOT
HETATM    1  C   UNL     1      -3.413   4.168 -33.088  1.00  0.00     0.035 A 
HETATM    2  C   UNL     1      -2.468   4.281 -32.060  1.00  0.00     0.046 A 
HETATM    3  C   UNL     1      -1.588   5.381 -32.035  1.00  0.00     0.030 A 
HETATM    4  C   UNL     1      -1.704   6.353 -33.019  1.00  0.00     0.063 A 
HETATM    5  N   UNL     1      -0.735   7.272 -32.730  1.00  0.00    -0.277 N 
HETATM    6  H   UNL     1      -0.527   8.126 -33.236  1.00  0.00     0.189 HD
HETATM    7  N   UNL     1       0.023   6.968 -31.661  1.00  0.00    -0.168 NA
HETATM    8  C   UNL     1      -0.492   5.797 -31.223  1.00  0.00     0.156 A 
HETATM    9  C   UNL     1      -2.651   6.286 -34.045  1.00  0.00     0.034 A 
HETATM   10  C   UNL     1      -3.493   5.164 -34.068  1.00  0.00     0.032 A 
ENDROOT
BRANCH   1  11
HETATM   11  N   UNL     1      -4.234   3.031 -33.236  1.00  0.00    -0.325 N 
HETATM   12  C   UNL     1      -5.140   2.552 -32.303  1.00  0.00     0.252 C 
HETATM   13  O   UNL     1      -5.634   3.203 -31.386  1.00  0.00    -0.270 OA
HETATM   14  H   UNL     1      -4.159   2.500 -34.098  1.00  0.00     0.169 HD
BRANCH  12  15
HETATM   15  C   UNL     1      -5.371   1.048 -32.442  1.00  0.00     0.225 C 
HETATM   16  C   UNL     1      -6.302   0.717 -33.610  1.00  0.00     0.083 C 
HETATM   17  C   UNL     1      -5.863  -0.681 -33.817  1.00  0.00    -0.021 A 
HETATM   18  C   UNL     1      -4.619  -0.855 -33.235  1.00  0.00     0.076 A 
HETATM   19  C   UNL     1      -6.492  -1.713 -34.487  1.00  0.00     0.017 A 
HETATM   20  C   UNL     1      -3.946  -2.055 -33.308  1.00  0.00     0.044 A 
HETATM   21  O   UNL     1      -4.161   0.270 -32.587  1.00  0.00    -0.336 OA
HETATM   22  C   UNL     1      -4.572  -3.135 -33.959  1.00  0.00    -0.053 A 
HETATM   23  C   UNL     1      -5.850  -2.959 -34.559  1.00  0.00    -0.055 A 
HETATM   24  C   UNL     1      -3.859  -4.459 -34.027  1.00  0.00     0.049 C 
HETATM   25  C   UNL     1      -6.559  -4.098 -35.243  1.00  0.00     0.049 C 
ENDBRANCH  12  15
ENDBRANCH   1  11
BRANCH   8  26
HETATM   26  C   UNL     1       0.079   5.088 -30.068  1.00  0.00     0.270 C 
HETATM   27  N   UNL     1      -0.272   5.616 -28.855  1.00  0.00    -0.365 N 
HETATM   28  H   UNL     1      -0.861   6.441 -28.837  1.00  0.00     0.159 HD
HETATM   29  H   UNL     1       0.104   5.214 -28.011  1.00  0.00     0.159 HD
HETATM   30  O   UNL     1       0.826   4.118 -30.142  1.00  0.00    -0.266 OA
ENDBRANCH   8  26
TORSDOF 3
ENDMDL
MODEL 2
REMARK VINA RESULT:      -9.2      1.248      1.834
REMARK  3 active torsions:
REMARK  status: ('A' for Active; 'I' for Inactive)
REMARK    1  A    between atoms: C_9  and  C_10 
REMARK       I    between atoms: C_10  and  N_11 
REMARK    2  A    between atoms: N_11  and  C_12 
REMARK    3  A    between atoms: C_19  and  C_20 
REMARK       I    between atoms: C_20  and  N_21 
ROOT
HETATM    1  C   UNL     1      -3.900   4.353 -32.313  1.00  0.00     0.035 A 
HETATM    2  C   UNL     1      -2.685   4.375 -31.614  1.00  0.00     0.046 A 
HETATM    3  C   UNL     1      -2.174   5.598 -31.138  1.00  0.00     0.030 A 
HETATM    4  C   UNL     1      -2.909   6.757 -31.344  1.00  0.00     0.063 A 
HETATM    5  N   UNL     1      -2.168   7.757 -30.778  1.00  0.00    -0.277 N 
HETATM    6  H   UNL     1      -2.398   8.743 -30.735  1.00  0.00     0.189 HD
HETATM    7  N   UNL     1      -0.999   7.354 -30.247  1.00  0.00    -0.168 NA
HETATM    8  C   UNL     1      -0.988   6.019 -30.466  1.00  0.00     0.156 A 
HETATM    9  C   UNL     1      -4.134   6.770 -32.016  1.00  0.00     0.034 A 
HETATM   10  C   UNL     1      -4.607   5.545 -32.510  1.00  0.00     0.032 A 
ENDROOT
BRANCH   1  11
HETATM   11  N   UNL     1      -4.399   3.183 -32.921  1.00  0.00    -0.325 N 
HETATM   12  C   UNL     1      -4.882   2.064 -32.260  1.00  0.00     0.252 C 
HETATM   13  O   UNL     1      -5.284   2.036 -31.100  1.00  0.00    -0.270 OA
HETATM   14  H   UNL     1      -4.405   3.138 -33.935  1.00  0.00     0.169 HD
BRANCH  12  15
HETATM   15  C   UNL     1      -4.732   0.792 -33.094  1.00  0.00     0.225 C 
HETATM   16  C   UNL     1      -3.909  -0.275 -32.369  1.00  0.00     0.083 C 
HETATM   17  C   UNL     1      -4.427  -1.451 -33.104  1.00  0.00    -0.021 A 
HETATM   18  C   UNL     1      -5.630  -1.116 -33.702  1.00  0.00     0.076 A 
HETATM   19  C   UNL     1      -3.900  -2.723 -33.215  1.00  0.00     0.017 A 
HETATM   20  C   UNL     1      -6.361  -2.034 -34.423  1.00  0.00     0.044 A 
HETATM   21  O   UNL     1      -5.984   0.201 -33.510  1.00  0.00    -0.336 OA
HETATM   22  C   UNL     1      -5.838  -3.332 -34.581  1.00  0.00    -0.053 A 
HETATM   23  C   UNL     1      -4.602  -3.679 -33.965  1.00  0.00    -0.055 A 
HETATM   24  C   UNL     1      -6.614  -4.340 -35.385  1.00  0.00     0.049 C 
HETATM   25  C   UNL     1      -4.002  -5.050 -34.131  1.00  0.00     0.049 C 
ENDBRANCH  12  15
ENDBRANCH   1  11
BRANCH   8  26
HETATM   26  C   UNL     1       0.152   5.182 -30.062  1.00  0.00     0.270 C 
HETATM   27  N   UNL     1       0.387   5.168 -28.714  1.00  0.00    -0.365 N 
HETATM   28  H   UNL     1      -0.202   5.731 -28.112  1.00  0.00     0.159 HD
HETATM   29  H   UNL     1       1.171   4.648 -28.352  1.00  0.00     0.159 HD
HETATM   30  O   UNL     1       0.865   4.552 -30.835  1.00  0.00    -0.266 OA
ENDBRANCH   8  26
TORSDOF 3
ENDMDL
MODEL 3
REMARK VINA RESULT:      -9.2      2.588      3.076
REMARK  3 active torsions:
REMARK  status: ('A' for Active; 'I' for Inactive)
REMARK    1  A    between atoms: C_9  and  C_10 
REMARK       I    between atoms: C_10  and  N_11 
REMARK    2  A    between atoms: N_11  and  C_12 
REMARK    3  A    between atoms: C_19  and  C_20 
REMARK       I    between atoms: C_20  and  N_21 
ROOT
HETATM    1  C   UNL     1      -4.410   4.210 -31.988  1.00  0.00     0.035 A 
HETATM    2  C   UNL     1      -4.933   4.553 -30.733  1.00  0.00     0.046 A 
HETATM    3  C   UNL     1      -4.538   5.756 -30.115  1.00  0.00     0.030 A 
HETATM    4  C   UNL     1      -3.660   6.596 -30.786  1.00  0.00     0.063 A 
HETATM    5  N   UNL     1      -3.473   7.660 -29.948  1.00  0.00    -0.277 N 
HETATM    6  H   UNL     1      -2.894   8.476 -30.111  1.00  0.00     0.189 HD
HETATM    7  N   UNL     1      -4.129   7.571 -28.777  1.00  0.00    -0.168 NA
HETATM    8  C   UNL     1      -4.790   6.395 -28.865  1.00  0.00     0.156 A 
HETATM    9  C   UNL     1      -3.137   6.298 -32.047  1.00  0.00     0.034 A 
HETATM   10  C   UNL     1      -3.519   5.079 -32.628  1.00  0.00     0.032 A 
ENDROOT
BRANCH   1  11
HETATM   11  N   UNL     1      -4.669   2.966 -32.598  1.00  0.00    -0.325 N 
HETATM   12  C   UNL     1      -5.910   2.499 -33.002  1.00  0.00     0.252 C 
HETATM   13  O   UNL     1      -6.898   3.194 -33.228  1.00  0.00    -0.270 OA
HETATM   14  H   UNL     1      -3.885   2.340 -32.756  1.00  0.00     0.169 HD
BRANCH  12  15
HETATM   15  C   UNL     1      -5.979   0.972 -33.007  1.00  0.00     0.225 C 
HETATM   16  C   UNL     1      -6.799   0.439 -34.184  1.00  0.00     0.083 C 
HETATM   17  C   UNL     1      -6.210  -0.917 -34.232  1.00  0.00    -0.021 A 
HETATM   18  C   UNL     1      -4.991  -0.904 -33.574  1.00  0.00     0.076 A 
HETATM   19  C   UNL     1      -6.689  -2.066 -34.832  1.00  0.00     0.017 A 
HETATM   20  C   UNL     1      -4.198  -2.027 -33.496  1.00  0.00     0.044 A 
HETATM   21  O   UNL     1      -4.690   0.317 -33.014  1.00  0.00    -0.336 OA
HETATM   22  C   UNL     1      -4.670  -3.222 -34.071  1.00  0.00    -0.053 A 
HETATM   23  C   UNL     1      -5.921  -3.238 -34.750  1.00  0.00    -0.055 A 
HETATM   24  C   UNL     1      -3.825  -4.463 -33.975  1.00  0.00     0.049 C 
HETATM   25  C   UNL     1      -6.468  -4.503 -35.357  1.00  0.00     0.049 C 
ENDBRANCH  12  15
ENDBRANCH   1  11
BRANCH   8  26
HETATM   26  C   UNL     1      -5.618   5.891 -27.759  1.00  0.00     0.270 C 
HETATM   27  N   UNL     1      -4.915   5.239 -26.783  1.00  0.00    -0.365 N 
HETATM   28  H   UNL     1      -3.913   5.131 -26.895  1.00  0.00     0.159 HD
HETATM   29  H   UNL     1      -5.407   4.830 -26.005  1.00  0.00     0.159 HD
HETATM   30  O   UNL     1      -6.837   6.006 -27.690  1.00  0.00    -0.266 OA
ENDBRANCH   8  26
TORSDOF 3
ENDMDL
MODEL 4
REMARK VINA RESULT:      -9.2      1.530      1.675
REMARK  3 active torsions:
REMARK  status: ('A' for Active; 'I' for Inactive)
REMARK    1  A    between atoms: C_9  and  C_10 
REMARK       I    between atoms: C_10  and  N_11 
REMARK    2  A    between atoms: N_11  and  C_12 
REMARK    3  A    between atoms: C_19  and  C_20 
REMARK       I    between atoms: C_20  and  N_21 
ROOT
HETATM    1  C   UNL     1      -5.227   3.924 -32.321  1.00  0.00     0.035 A 
HETATM    2  C   UNL     1      -3.931   4.100 -31.816  1.00  0.00     0.046 A 
HETATM    3  C   UNL     1      -3.404   5.399 -31.679  1.00  0.00     0.030 A 
HETATM    4  C   UNL     1      -4.201   6.484 -32.017  1.00  0.00     0.063 A 
HETATM    5  N   UNL     1      -3.427   7.585 -31.778  1.00  0.00    -0.277 N 
HETATM    6  H   UNL     1      -3.684   8.557 -31.908  1.00  0.00     0.189 HD
HETATM    7  N   UNL     1      -2.183   7.311 -31.342  1.00  0.00    -0.168 NA
HETATM    8  C   UNL     1      -2.154   5.960 -31.280  1.00  0.00     0.156 A 
HETATM    9  C   UNL     1      -5.505   6.348 -32.500  1.00  0.00     0.034 A 
HETATM   10  C   UNL     1      -5.996   5.043 -32.660  1.00  0.00     0.032 A 
ENDROOT
BRANCH   1  11
HETATM   11  N   UNL     1      -5.761   2.649 -32.598  1.00  0.00    -0.325 N 
HETATM   12  C   UNL     1      -6.483   1.859 -31.717  1.00  0.00     0.252 C 
HETATM   13  O   UNL     1      -7.073   2.257 -30.717  1.00  0.00    -0.270 OA
HETATM   14  H   UNL     1      -5.603   2.257 -33.521  1.00  0.00     0.169 HD
BRANCH  12  15
HETATM   15  C   UNL     1      -6.358   0.370 -32.042  1.00  0.00     0.225 C 
HETATM   16  C   UNL     1      -7.183  -0.020 -33.270  1.00  0.00     0.083 C 
HETATM   17  C   UNL     1      -6.431  -1.243 -33.628  1.00  0.00    -0.021 A 
HETATM   18  C   UNL     1      -5.181  -1.195 -33.032  1.00  0.00     0.076 A 
HETATM   19  C   UNL     1      -6.800  -2.300 -34.436  1.00  0.00     0.017 A 
HETATM   20  C   UNL     1      -4.248  -2.190 -33.226  1.00  0.00     0.044 A 
HETATM   21  O   UNL     1      -5.000  -0.084 -32.240  1.00  0.00    -0.336 OA
HETATM   22  C   UNL     1      -4.604  -3.297 -34.020  1.00  0.00    -0.053 A 
HETATM   23  C   UNL     1      -5.886  -3.347 -34.635  1.00  0.00    -0.055 A 
HETATM   24  C   UNL     1      -3.603  -4.402 -34.223  1.00  0.00     0.049 C 
HETATM   25  C   UNL     1      -6.308  -4.525 -35.472  1.00  0.00     0.049 C 
ENDBRANCH  12  15
ENDBRANCH   1  11
BRANCH   8  26
HETATM   26  C   UNL     1      -0.942   5.233 -30.874  1.00  0.00     0.270 C 
HETATM   27  N   UNL     1      -0.650   5.331 -29.540  1.00  0.00    -0.365 N 
HETATM   28  H   UNL     1      -1.253   5.894 -28.951  1.00  0.00     0.159 HD
HETATM   29  H   UNL     1       0.183   4.893 -29.181  1.00  0.00     0.159 HD
HETATM   30  O   UNL     1      -0.218   4.601 -31.634  1.00  0.00    -0.266 OA
ENDBRANCH   8  26
TORSDOF 3
ENDMDL
MODEL 5
REMARK VINA RESULT:      -9.1      2.020      2.461
REMARK  3 active torsions:
REMARK  status: ('A' for Active; 'I' for Inactive)
REMARK    1  A    between atoms: C_9  and  C_10 
REMARK       I    between atoms: C_10  and  N_11 
REMARK    2  A    between atoms: N_11  and  C_12 
REMARK    3  A    between atoms: C_19  and  C_20 
REMARK       I    between atoms: C_20  and  N_21 
ROOT
HETATM    1  C   UNL     1      -3.632   4.358 -32.945  1.00  0.00     0.035 A 
HETATM    2  C   UNL     1      -3.996   5.582 -32.367  1.00  0.00     0.046 A 
HETATM    3  C   UNL     1      -3.097   6.666 -32.398  1.00  0.00     0.030 A 
HETATM    4  C   UNL     1      -1.875   6.505 -33.036  1.00  0.00     0.063 A 
HETATM    5  N   UNL     1      -1.240   7.707 -32.902  1.00  0.00    -0.277 N 
HETATM    6  H   UNL     1      -0.322   7.960 -33.251  1.00  0.00     0.189 HD
HETATM    7  N   UNL     1      -1.928   8.629 -32.204  1.00  0.00    -0.168 NA
HETATM    8  C   UNL     1      -3.080   7.996 -31.882  1.00  0.00     0.156 A 
HETATM    9  C   UNL     1      -1.488   5.308 -33.645  1.00  0.00     0.034 A 
HETATM   10  C   UNL     1      -2.387   4.232 -33.572  1.00  0.00     0.032 A 
ENDROOT
BRANCH   1  11
HETATM   11  N   UNL     1      -4.435   3.205 -32.837  1.00  0.00    -0.325 N 
HETATM   12  C   UNL     1      -4.668   2.479 -31.679  1.00  0.00     0.252 C 
HETATM   13  O   UNL     1      -4.526   2.896 -30.533  1.00  0.00    -0.270 OA
HETATM   14  H   UNL     1      -4.885   2.858 -33.679  1.00  0.00     0.169 HD
BRANCH  12  15
HETATM   15  C   UNL     1      -4.995   1.015 -31.972  1.00  0.00     0.225 C 
HETATM   16  C   UNL     1      -5.749   0.850 -33.294  1.00  0.00     0.083 C 
HETATM   17  C   UNL     1      -5.399  -0.566 -33.541  1.00  0.00    -0.021 A 
HETATM   18  C   UNL     1      -4.283  -0.893 -32.788  1.00  0.00     0.076 A 
HETATM   19  C   UNL     1      -5.992  -1.488 -34.381  1.00  0.00     0.017 A 
HETATM   20  C   UNL     1      -3.708  -2.144 -32.851  1.00  0.00     0.044 A 
HETATM   21  O   UNL     1      -3.846   0.139 -31.989  1.00  0.00    -0.336 OA
HETATM   22  C   UNL     1      -4.306  -3.116 -33.676  1.00  0.00    -0.053 A 
HETATM   23  C   UNL     1      -5.452  -2.781 -34.452  1.00  0.00    -0.055 A 
HETATM   24  C   UNL     1      -3.702  -4.493 -33.737  1.00  0.00     0.049 C 
HETATM   25  C   UNL     1      -6.130  -3.801 -35.326  1.00  0.00     0.049 C 
ENDBRANCH  12  15
ENDBRANCH   1  11
BRANCH   8  26
HETATM   26  C   UNL     1      -4.119   8.651 -31.075  1.00  0.00     0.270 C 
HETATM   27  N   UNL     1      -4.607   7.880 -30.055  1.00  0.00    -0.365 N 
HETATM   28  H   UNL     1      -4.248   6.938 -29.943  1.00  0.00     0.159 HD
HETATM   29  H   UNL     1      -5.348   8.237 -29.473  1.00  0.00     0.159 HD
HETATM   30  O   UNL     1      -4.554   9.780 -31.277  1.00  0.00    -0.266 OA
ENDBRANCH   8  26
TORSDOF 3
ENDMDL
MODEL 6
REMARK VINA RESULT:      -9.0      3.851      4.867
REMARK  3 active torsions:
REMARK  status: ('A' for Active; 'I' for Inactive)
REMARK    1  A    between atoms: C_9  and  C_10 
REMARK       I    between atoms: C_10  and  N_11 
REMARK    2  A    between atoms: N_11  and  C_12 
REMARK    3  A    between atoms: C_19  and  C_20 
REMARK       I    between atoms: C_20  and  N_21 
ROOT
HETATM    1  C   UNL     1      -6.691   2.948 -30.581  1.00  0.00     0.035 A 
HETATM    2  C   UNL     1      -6.139   3.829 -29.641  1.00  0.00     0.046 A 
HETATM    3  C   UNL     1      -6.943   4.833 -29.066  1.00  0.00     0.030 A 
HETATM    4  C   UNL     1      -8.283   4.902 -29.422  1.00  0.00     0.063 A 
HETATM    5  N   UNL     1      -8.787   5.955 -28.710  1.00  0.00    -0.277 N 
HETATM    6  H   UNL     1      -9.741   6.299 -28.715  1.00  0.00     0.189 HD
HETATM    7  N   UNL     1      -7.885   6.597 -27.945  1.00  0.00    -0.168 NA
HETATM    8  C   UNL     1      -6.737   5.914 -28.159  1.00  0.00     0.156 A 
HETATM    9  C   UNL     1      -8.873   4.026 -30.336  1.00  0.00     0.034 A 
HETATM   10  C   UNL     1      -8.044   3.056 -30.921  1.00  0.00     0.032 A 
ENDROOT
BRANCH   1  11
HETATM   11  N   UNL     1      -5.909   2.006 -31.282  1.00  0.00    -0.325 N 
HETATM   12  C   UNL     1      -5.241   2.228 -32.476  1.00  0.00     0.252 C 
HETATM   13  O   UNL     1      -4.923   3.326 -32.925  1.00  0.00    -0.270 OA
HETATM   14  H   UNL     1      -5.824   1.073 -30.891  1.00  0.00     0.169 HD
BRANCH  12  15
HETATM   15  C   UNL     1      -5.054   0.942 -33.280  1.00  0.00     0.225 C 
HETATM   16  C   UNL     1      -4.152  -0.060 -32.556  1.00  0.00     0.083 C 
HETATM   17  C   UNL     1      -4.632  -1.281 -33.239  1.00  0.00    -0.021 A 
HETATM   18  C   UNL     1      -5.871  -1.026 -33.803  1.00  0.00     0.076 A 
HETATM   19  C   UNL     1      -4.044  -2.527 -33.334  1.00  0.00     0.017 A 
HETATM   20  C   UNL     1      -6.577  -2.002 -34.472  1.00  0.00     0.044 A 
HETATM   21  O   UNL     1      -6.287   0.275 -33.633  1.00  0.00    -0.336 OA
HETATM   22  C   UNL     1      -5.993  -3.275 -34.612  1.00  0.00    -0.053 A 
HETATM   23  C   UNL     1      -4.720  -3.540 -34.032  1.00  0.00    -0.055 A 
HETATM   24  C   UNL     1      -6.742  -4.344 -35.360  1.00  0.00     0.049 C 
HETATM   25  C   UNL     1      -4.055  -4.882 -34.182  1.00  0.00     0.049 C 
ENDBRANCH  12  15
ENDBRANCH   1  11
BRANCH   8  26
HETATM   26  C   UNL     1      -5.473   6.316 -27.525  1.00  0.00     0.270 C 
HETATM   27  N   UNL     1      -4.958   5.388 -26.661  1.00  0.00    -0.365 N 
HETATM   28  H   UNL     1      -5.475   4.530 -26.506  1.00  0.00     0.159 HD
HETATM   29  H   UNL     1      -4.112   5.595 -26.155  1.00  0.00     0.159 HD
HETATM   30  O   UNL     1      -4.907   7.388 -27.711  1.00  0.00    -0.266 OA
ENDBRANCH   8  26
TORSDOF 3
ENDMDL
MODEL 7
REMARK VINA RESULT:      -8.9      5.286      8.199
REMARK  3 active torsions:
REMARK  status: ('A' for Active; 'I' for Inactive)
REMARK    1  A    between atoms: C_9  and  C_10 
REMARK       I    between atoms: C_10  and  N_11 
REMARK    2  A    between atoms: N_11  and  C_12 
REMARK    3  A    between atoms: C_19  and  C_20 
REMARK       I    between atoms: C_20  and  N_21 
ROOT
HETATM    1  C   UNL     1      -9.258   2.323 -32.506  1.00  0.00     0.035 A 
HETATM    2  C   UNL     1     -10.432   2.181 -33.258  1.00  0.00     0.046 A 
HETATM    3  C   UNL     1     -11.592   2.888 -32.884  1.00  0.00     0.030 A 
HETATM    4  C   UNL     1     -11.533   3.742 -31.791  1.00  0.00     0.063 A 
HETATM    5  N   UNL     1     -12.789   4.272 -31.684  1.00  0.00    -0.277 N 
HETATM    6  H   UNL     1     -13.115   4.943 -30.997  1.00  0.00     0.189 HD
HETATM    7  N   UNL     1     -13.669   3.815 -32.592  1.00  0.00    -0.168 NA
HETATM    8  C   UNL     1     -12.942   2.953 -33.340  1.00  0.00     0.156 A 
HETATM    9  C   UNL     1     -10.374   3.927 -31.033  1.00  0.00     0.034 A 
HETATM   10  C   UNL     1      -9.241   3.187 -31.405  1.00  0.00     0.032 A 
ENDROOT
BRANCH   1  11
HETATM   11  N   UNL     1      -8.105   1.550 -32.755  1.00  0.00    -0.325 N 
HETATM   12  C   UNL     1      -7.079   1.874 -33.629  1.00  0.00     0.252 C 
HETATM   13  O   UNL     1      -6.821   3.001 -34.043  1.00  0.00    -0.270 OA
HETATM   14  H   UNL     1      -8.008   0.669 -32.261  1.00  0.00     0.169 HD
BRANCH  12  15
HETATM   15  C   UNL     1      -6.359   0.634 -34.158  1.00  0.00     0.225 C 
HETATM   16  C   UNL     1      -5.306   0.120 -33.173  1.00  0.00     0.083 C 
HETATM   17  C   UNL     1      -5.248  -1.275 -33.664  1.00  0.00    -0.021 A 
HETATM   18  C   UNL     1      -6.397  -1.547 -34.387  1.00  0.00     0.076 A 
HETATM   19  C   UNL     1      -4.278  -2.239 -33.467  1.00  0.00     0.017 A 
HETATM   20  C   UNL     1      -6.632  -2.791 -34.931  1.00  0.00     0.044 A 
HETATM   21  O   UNL     1      -7.235  -0.462 -34.504  1.00  0.00    -0.336 OA
HETATM   22  C   UNL     1      -5.650  -3.788 -34.774  1.00  0.00    -0.053 A 
HETATM   23  C   UNL     1      -4.469  -3.510 -34.030  1.00  0.00    -0.055 A 
HETATM   24  C   UNL     1      -5.883  -5.144 -35.383  1.00  0.00     0.049 C 
HETATM   25  C   UNL     1      -3.388  -4.544 -33.861  1.00  0.00     0.049 C 
ENDBRANCH  12  15
ENDBRANCH   1  11
BRANCH   8  26
HETATM   26  C   UNL     1     -13.546   2.195 -34.446  1.00  0.00     0.270 C 
HETATM   27  N   UNL     1     -14.649   1.467 -34.091  1.00  0.00    -0.365 N 
HETATM   28  H   UNL     1     -14.949   1.481 -33.123  1.00  0.00     0.159 HD
HETATM   29  H   UNL     1     -15.104   0.888 -34.779  1.00  0.00     0.159 HD
HETATM   30  O   UNL     1     -13.117   2.173 -35.595  1.00  0.00    -0.266 OA
ENDBRANCH   8  26
TORSDOF 3
ENDMDL
MODEL 8
REMARK VINA RESULT:      -8.8      3.222      8.813
REMARK  3 active torsions:
REMARK  status: ('A' for Active; 'I' for Inactive)
REMARK    1  A    between atoms: C_9  and  C_10 
REMARK       I    between atoms: C_10  and  N_11 
REMARK    2  A    between atoms: N_11  and  C_12 
REMARK    3  A    between atoms: C_19  and  C_20 
REMARK       I    between atoms: C_20  and  N_21 
ROOT
HETATM    1  C   UNL     1      -5.703   0.174 -33.392  1.00  0.00     0.035 A 
HETATM    2  C   UNL     1      -4.895  -0.969 -33.306  1.00  0.00     0.046 A 
HETATM    3  C   UNL     1      -5.285  -2.152 -33.964  1.00  0.00     0.030 A 
HETATM    4  C   UNL     1      -6.451  -2.147 -34.716  1.00  0.00     0.063 A 
HETATM    5  N   UNL     1      -6.556  -3.413 -35.222  1.00  0.00    -0.277 N 
HETATM    6  H   UNL     1      -7.286  -3.775 -35.825  1.00  0.00     0.189 HD
HETATM    7  N   UNL     1      -5.575  -4.251 -34.839  1.00  0.00    -0.168 NA
HETATM    8  C   UNL     1      -4.783  -3.484 -34.056  1.00  0.00     0.156 A 
HETATM    9  C   UNL     1      -7.268  -1.021 -34.844  1.00  0.00     0.034 A 
HETATM   10  C   UNL     1      -6.877   0.136 -34.153  1.00  0.00     0.032 A 
ENDROOT
BRANCH   1  11
HETATM   11  N   UNL     1      -5.432   1.346 -32.656  1.00  0.00    -0.325 N 
HETATM   12  C   UNL     1      -5.495   2.644 -33.138  1.00  0.00     0.252 C 
HETATM   13  O   UNL     1      -6.122   3.009 -34.129  1.00  0.00    -0.270 OA
HETATM   14  H   UNL     1      -5.156   1.244 -31.685  1.00  0.00     0.169 HD
BRANCH  12  15
HETATM   15  C   UNL     1      -4.568   3.589 -32.375  1.00  0.00     0.225 C 
HETATM   16  C   UNL     1      -3.092   3.263 -32.619  1.00  0.00     0.083 C 
HETATM   17  C   UNL     1      -2.542   4.592 -32.273  1.00  0.00    -0.021 A 
HETATM   18  C   UNL     1      -3.554   5.534 -32.349  1.00  0.00     0.076 A 
HETATM   19  C   UNL     1      -1.249   4.953 -31.946  1.00  0.00     0.017 A 
HETATM   20  C   UNL     1      -3.318   6.871 -32.115  1.00  0.00     0.044 A 
HETATM   21  O   UNL     1      -4.780   4.990 -32.658  1.00  0.00    -0.336 OA
HETATM   22  C   UNL     1      -2.018   7.269 -31.751  1.00  0.00    -0.053 A 
HETATM   23  C   UNL     1      -0.975   6.303 -31.674  1.00  0.00    -0.055 A 
HETATM   24  C   UNL     1      -1.750   8.723 -31.471  1.00  0.00     0.049 C 
HETATM   25  C   UNL     1       0.422   6.688 -31.265  1.00  0.00     0.049 C 
ENDBRANCH  12  15
ENDBRANCH   1  11
BRANCH   8  26
HETATM   26  C   UNL     1      -3.590  -4.034 -33.395  1.00  0.00     0.270 C 
HETATM   27  N   UNL     1      -3.029  -5.099 -34.045  1.00  0.00    -0.365 N 
HETATM   28  H   UNL     1      -3.469  -5.439 -34.892  1.00  0.00     0.159 HD
HETATM   29  H   UNL     1      -2.229  -5.561 -33.642  1.00  0.00     0.159 HD
HETATM   30  O   UNL     1      -3.119  -3.617 -32.342  1.00  0.00    -0.266 OA
ENDBRANCH   8  26
TORSDOF 3
ENDMDL
MODEL 9
REMARK VINA RESULT:      -8.4      2.959      9.311
REMARK  3 active torsions:
REMARK  status: ('A' for Active; 'I' for Inactive)
REMARK    1  A    between atoms: C_9  and  C_10 
REMARK       I    between atoms: C_10  and  N_11 
REMARK    2  A    between atoms: N_11  and  C_12 
REMARK    3  A    between atoms: C_19  and  C_20 
REMARK       I    between atoms: C_20  and  N_21 
ROOT
HETATM    1  C   UNL     1      -4.113   2.894 -31.941  1.00  0.00     0.035 A 
HETATM    2  C   UNL     1      -5.271   2.537 -32.645  1.00  0.00     0.046 A 
HETATM    3  C   UNL     1      -5.631   1.180 -32.757  1.00  0.00     0.030 A 
HETATM    4  C   UNL     1      -4.842   0.224 -32.134  1.00  0.00     0.063 A 
HETATM    5  N   UNL     1      -5.438  -0.973 -32.418  1.00  0.00    -0.277 N 
HETATM    6  H   UNL     1      -5.138  -1.894 -32.120  1.00  0.00     0.189 HD
HETATM    7  N   UNL     1      -6.530  -0.883 -33.198  1.00  0.00    -0.168 NA
HETATM    8  C   UNL     1      -6.659   0.445 -33.420  1.00  0.00     0.156 A 
HETATM    9  C   UNL     1      -3.694   0.545 -31.404  1.00  0.00     0.034 A 
HETATM   10  C   UNL     1      -3.338   1.900 -31.333  1.00  0.00     0.032 A 
ENDROOT
BRANCH   1  11
HETATM   11  N   UNL     1      -3.635   4.220 -31.900  1.00  0.00    -0.325 N 
HETATM   12  C   UNL     1      -2.569   4.725 -32.628  1.00  0.00     0.252 C 
HETATM   13  O   UNL     1      -2.108   4.236 -33.656  1.00  0.00    -0.270 OA
HETATM   14  H   UNL     1      -4.100   4.874 -31.278  1.00  0.00     0.169 HD
BRANCH  12  15
HETATM   15  C   UNL     1      -1.905   5.913 -31.931  1.00  0.00     0.225 C 
HETATM   16  C   UNL     1      -2.886   6.670 -31.032  1.00  0.00     0.083 C 
HETATM   17  C   UNL     1      -1.885   7.298 -30.141  1.00  0.00    -0.021 A 
HETATM   18  C   UNL     1      -0.694   6.598 -30.234  1.00  0.00     0.076 A 
HETATM   19  C   UNL     1      -2.016   8.380 -29.293  1.00  0.00     0.017 A 
HETATM   20  C   UNL     1       0.407   6.938 -29.480  1.00  0.00     0.044 A 
HETATM   21  O   UNL     1      -0.739   5.570 -31.149  1.00  0.00    -0.336 OA
HETATM   22  C   UNL     1       0.316   8.055 -28.627  1.00  0.00    -0.053 A 
HETATM   23  C   UNL     1      -0.907   8.775 -28.528  1.00  0.00    -0.055 A 
HETATM   24  C   UNL     1       1.518   8.452 -27.814  1.00  0.00     0.049 C 
HETATM   25  C   UNL     1      -1.034   9.987 -27.644  1.00  0.00     0.049 C 
ENDBRANCH  12  15
ENDBRANCH   1  11
BRANCH   8  26
HETATM   26  C   UNL     1      -7.731   0.984 -34.271  1.00  0.00     0.270 C 
HETATM   27  N   UNL     1      -7.873   0.338 -35.469  1.00  0.00    -0.365 N 
HETATM   28  H   UNL     1      -7.240  -0.422 -35.690  1.00  0.00     0.159 HD
HETATM   29  H   UNL     1      -8.560   0.664 -36.131  1.00  0.00     0.159 HD
HETATM   30  O   UNL     1      -8.443   1.938 -33.979  1.00  0.00    -0.266 OA
ENDBRANCH   8  26
TORSDOF 3
ENDMDL
MODEL 10
REMARK VINA RESULT:      -8.3      2.942      8.793
REMARK  3 active torsions:
REMARK  status: ('A' for Active; 'I' for Inactive)
REMARK    1  A    between atoms: C_9  and  C_10 
REMARK       I    between atoms: C_10  and  N_11 
REMARK    2  A    between atoms: N_11  and  C_12 
REMARK    3  A    between atoms: C_19  and  C_20 
REMARK       I    between atoms: C_20  and  N_21 
ROOT
HETATM    1  C   UNL     1      -4.277   3.718 -32.840  1.00  0.00     0.035 A 
HETATM    2  C   UNL     1      -3.694   2.507 -32.440  1.00  0.00     0.046 A 
HETATM    3  C   UNL     1      -4.434   1.311 -32.531  1.00  0.00     0.030 A 
HETATM    4  C   UNL     1      -5.720   1.357 -33.050  1.00  0.00     0.063 A 
HETATM    5  N   UNL     1      -6.167   0.065 -33.011  1.00  0.00    -0.277 N 
HETATM    6  H   UNL     1      -7.069  -0.281 -33.317  1.00  0.00     0.189 HD
HETATM    7  N   UNL     1      -5.296  -0.813 -32.482  1.00  0.00    -0.168 NA
HETATM    8  C   UNL     1      -4.219  -0.054 -32.176  1.00  0.00     0.156 A 
HETATM    9  C   UNL     1      -6.324   2.541 -33.481  1.00  0.00     0.034 A 
HETATM   10  C   UNL     1      -5.580   3.724 -33.351  1.00  0.00     0.032 A 
ENDROOT
BRANCH   1  11
HETATM   11  N   UNL     1      -3.635   4.960 -32.658  1.00  0.00    -0.325 N 
HETATM   12  C   UNL     1      -2.373   5.300 -33.119  1.00  0.00     0.252 C 
HETATM   13  O   UNL     1      -1.770   4.745 -34.033  1.00  0.00    -0.270 OA
HETATM   14  H   UNL     1      -4.128   5.678 -32.137  1.00  0.00     0.169 HD
BRANCH  12  15
HETATM   15  C   UNL     1      -1.718   6.382 -32.260  1.00  0.00     0.225 C 
HETATM   16  C   UNL     1      -2.732   7.088 -31.357  1.00  0.00     0.083 C 
HETATM   17  C   UNL     1      -1.775   7.580 -30.341  1.00  0.00    -0.021 A 
HETATM   18  C   UNL     1      -0.608   6.840 -30.424  1.00  0.00     0.076 A 
HETATM   19  C   UNL     1      -1.927   8.577 -29.397  1.00  0.00     0.017 A 
HETATM   20  C   UNL     1       0.449   7.055 -29.566  1.00  0.00     0.044 A 
HETATM   21  O   UNL     1      -0.624   5.912 -31.440  1.00  0.00    -0.336 OA
HETATM   22  C   UNL     1       0.338   8.084 -28.611  1.00  0.00    -0.053 A 
HETATM   23  C   UNL     1      -0.862   8.844 -28.522  1.00  0.00    -0.055 A 
HETATM   24  C   UNL     1       1.492   8.345 -27.681  1.00  0.00     0.049 C 
HETATM   25  C   UNL     1      -1.007   9.966 -27.529  1.00  0.00     0.049 C 
ENDBRANCH  12  15
ENDBRANCH   1  11
BRANCH   8  26
HETATM   26  C   UNL     1      -3.028  -0.630 -31.534  1.00  0.00     0.270 C 
HETATM   27  N   UNL     1      -2.895  -1.981 -31.707  1.00  0.00    -0.365 N 
HETATM   28  H   UNL     1      -3.610  -2.477 -32.227  1.00  0.00     0.159 HD
HETATM   29  H   UNL     1      -2.126  -2.465 -31.270  1.00  0.00     0.159 HD
HETATM   30  O   UNL     1      -2.212   0.006 -30.875  1.00  0.00    -0.266 OA
ENDBRANCH   8  26
TORSDOF 3
ENDMDL
