MODEL 1
REMARK VINA RESULT:      -9.7      0.000      0.000
REMARK  5 active torsions:
REMARK  status: ('A' for Active; 'I' for Inactive)
REMARK    1  A    between atoms: C_3  and  O_4 
REMARK    2  A    between atoms: C_8  and  C_9 
REMARK       I    between atoms: N_10  and  C_11 
REMARK    3  A    between atoms: C_11  and  C_12 
REMARK    4  A    between atoms: C_12  and  C_13 
REMARK    5  A    between atoms: C_13  and  C_14 
ROOT
HETATM    1  C   UNL     1      -7.368   1.879 -33.336  1.00  0.00     0.171 C 
HETATM    2  N   UNL     1      -6.991   2.419 -32.003  1.00  0.00    -0.338 N 
HETATM    3  C   UNL     1      -5.814   3.119 -31.754  1.00  0.00     0.221 C 
HETATM    4  O   UNL     1      -5.534   3.540 -30.630  1.00  0.00    -0.273 OA
HETATM    5  C   UNL     1      -7.950   2.234 -30.887  1.00  0.00     0.131 C 
HETATM    6  C   UNL     1      -9.321   2.862 -31.190  1.00  0.00     0.061 C 
HETATM    7  C   UNL     1      -9.768   2.424 -32.539  1.00  0.00    -0.019 A 
HETATM    8  C   UNL     1      -8.864   1.957 -33.477  1.00  0.00     0.044 A 
HETATM    9  N   UNL     1      -9.571   1.638 -34.607  1.00  0.00    -0.356 N 
HETATM   10  H   UNL     1      -9.184   1.255 -35.457  1.00  0.00     0.166 HD
HETATM   11  C   UNL     1     -10.903   1.947 -34.436  1.00  0.00     0.043 A 
HETATM   12  C   UNL     1     -11.055   2.434 -33.136  1.00  0.00    -0.001 A 
HETATM   13  C   UNL     1     -11.973   1.839 -35.332  1.00  0.00     0.030 A 
HETATM   14  C   UNL     1     -13.234   2.245 -34.887  1.00  0.00     0.002 A 
HETATM   15  C   UNL     1     -13.417   2.731 -33.593  1.00  0.00     0.001 A 
HETATM   16  C   UNL     1     -12.338   2.829 -32.708  1.00  0.00     0.014 A 
ENDROOT
BRANCH   1  17
HETATM   17  C   UNL     1      -6.792   0.496 -33.634  1.00  0.00    -0.029 A 
HETATM   18  C   UNL     1      -7.284  -0.338 -34.646  1.00  0.00     0.012 A 
HETATM   19  C   UNL     1      -6.710  -1.590 -34.898  1.00  0.00     0.038 A 
HETATM   20  C   UNL     1      -5.621  -2.039 -34.149  1.00  0.00     0.074 A 
HETATM   21  C   UNL     1      -5.110  -1.224 -33.127  1.00  0.00    -0.028 A 
HETATM   22  C   UNL     1      -3.958  -1.682 -32.275  1.00  0.00     0.051 C 
HETATM   23  C   UNL     1      -5.708   0.023 -32.870  1.00  0.00     0.019 A 
BRANCH  20  24
HETATM   24  O   UNL     1      -5.003  -3.249 -34.319  1.00  0.00    -0.355 OA
HETATM   25  C   UNL     1      -5.788  -4.313 -34.842  1.00  0.00     0.210 C 
ENDBRANCH  20  24
ENDBRANCH   1  17
BRANCH   3  26
HETATM   26  C   UNL     1      -4.921   3.424 -32.949  1.00  0.00     0.108 C 
BRANCH  26  27
HETATM   27  C   UNL     1      -3.458   3.039 -32.734  1.00  0.00     0.051 C 
BRANCH  27  28
HETATM   28  C   UNL     1      -2.494   4.179 -32.789  1.00  0.00    -0.021 A 
HETATM   29  C   UNL     1      -1.848   4.830 -31.758  1.00  0.00     0.120 A 
HETATM   30  N   UNL     1      -1.045   5.768 -32.338  1.00  0.00    -0.285 N 
HETATM   31  C   UNL     1      -0.166   6.694 -31.666  1.00  0.00     0.179 C 
HETATM   32  N   UNL     1      -1.104   5.767 -33.680  1.00  0.00    -0.185 NA
HETATM   33  C   UNL     1      -1.995   4.810 -33.953  1.00  0.00     0.147 A 
ENDBRANCH  27  28
ENDBRANCH  26  27
ENDBRANCH   3  26
TORSDOF 5
ENDMDL
MODEL 2
REMARK VINA RESULT:      -9.7      1.761      7.801
REMARK  5 active torsions:
REMARK  status: ('A' for Active; 'I' for Inactive)
REMARK    1  A    between atoms: C_3  and  O_4 
REMARK    2  A    between atoms: C_8  and  C_9 
REMARK       I    between atoms: N_10  and  C_11 
REMARK    3  A    between atoms: C_11  and  C_12 
REMARK    4  A    between atoms: C_12  and  C_13 
REMARK    5  A    between atoms: C_13  and  C_14 
ROOT
HETATM    1  C   UNL     1      -4.786   2.967 -32.146  1.00  0.00     0.171 C 
HETATM    2  N   UNL     1      -5.719   3.476 -33.187  1.00  0.00    -0.338 N 
HETATM    3  C   UNL     1      -7.105   3.395 -33.094  1.00  0.00     0.221 C 
HETATM    4  O   UNL     1      -7.842   3.819 -33.986  1.00  0.00    -0.273 OA
HETATM    5  C   UNL     1      -5.130   4.144 -34.373  1.00  0.00     0.131 C 
HETATM    6  C   UNL     1      -4.273   5.362 -33.987  1.00  0.00     0.061 C 
HETATM    7  C   UNL     1      -3.334   4.969 -32.902  1.00  0.00    -0.019 A 
HETATM    8  C   UNL     1      -3.579   3.865 -32.106  1.00  0.00     0.044 A 
HETATM    9  N   UNL     1      -2.549   3.767 -31.208  1.00  0.00    -0.356 N 
HETATM   10  H   UNL     1      -2.443   3.048 -30.507  1.00  0.00     0.166 HD
HETATM   11  C   UNL     1      -1.677   4.822 -31.370  1.00  0.00     0.043 A 
HETATM   12  C   UNL     1      -2.143   5.589 -32.439  1.00  0.00    -0.001 A 
HETATM   13  C   UNL     1      -0.524   5.154 -30.650  1.00  0.00     0.030 A 
HETATM   14  C   UNL     1       0.169   6.305 -31.031  1.00  0.00     0.002 A 
HETATM   15  C   UNL     1      -0.270   7.088 -32.097  1.00  0.00     0.001 A 
HETATM   16  C   UNL     1      -1.423   6.741 -32.811  1.00  0.00     0.014 A 
ENDROOT
BRANCH   1  17
HETATM   17  C   UNL     1      -4.447   1.485 -32.283  1.00  0.00    -0.029 A 
HETATM   18  C   UNL     1      -3.443   0.855 -31.538  1.00  0.00     0.012 A 
HETATM   19  C   UNL     1      -3.181  -0.513 -31.682  1.00  0.00     0.038 A 
HETATM   20  C   UNL     1      -3.924  -1.291 -32.570  1.00  0.00     0.074 A 
HETATM   21  C   UNL     1      -4.935  -0.685 -33.331  1.00  0.00    -0.028 A 
HETATM   22  C   UNL     1      -5.738  -1.481 -34.324  1.00  0.00     0.051 C 
HETATM   23  C   UNL     1      -5.175   0.693 -33.193  1.00  0.00     0.019 A 
BRANCH  20  24
HETATM   24  O   UNL     1      -3.732  -2.631 -32.782  1.00  0.00    -0.355 OA
HETATM   25  C   UNL     1      -2.996  -3.346 -31.798  1.00  0.00     0.210 C 
ENDBRANCH  20  24
ENDBRANCH   1  17
BRANCH   3  26
HETATM   26  C   UNL     1      -7.682   2.840 -31.799  1.00  0.00     0.108 C 
BRANCH  26  27
HETATM   27  C   UNL     1      -8.373   1.488 -31.967  1.00  0.00     0.051 C 
BRANCH  27  28
HETATM   28  C   UNL     1      -9.751   1.553 -32.539  1.00  0.00    -0.021 A 
HETATM   29  C   UNL     1     -10.633   2.614 -32.582  1.00  0.00     0.120 A 
HETATM   30  N   UNL     1     -11.738   2.171 -33.247  1.00  0.00    -0.285 N 
HETATM   31  C   UNL     1     -12.931   2.924 -33.549  1.00  0.00     0.179 C 
HETATM   32  N   UNL     1     -11.638   0.896 -33.660  1.00  0.00    -0.185 NA
HETATM   33  C   UNL     1     -10.437   0.517 -33.218  1.00  0.00     0.147 A 
ENDBRANCH  27  28
ENDBRANCH  26  27
ENDBRANCH   3  26
TORSDOF 5
ENDMDL
MODEL 3
REMARK VINA RESULT:      -9.5      2.683      7.855
REMARK  5 active torsions:
REMARK  status: ('A' for Active; 'I' for Inactive)
REMARK    1  A    between atoms: C_3  and  O_4 
REMARK    2  A    between atoms: C_8  and  C_9 
REMARK       I    between atoms: N_10  and  C_11 
REMARK    3  A    between atoms: C_11  and  C_12 
REMARK    4  A    between atoms: C_12  and  C_13 
REMARK    5  A    between atoms: C_13  and  C_14 
ROOT
HETATM    1  C   UNL     1      -6.289   2.392 -33.038  1.00  0.00     0.171 C 
HETATM    2  N   UNL     1      -6.017   1.358 -32.004  1.00  0.00    -0.338 N 
HETATM    3  C   UNL     1      -6.466   0.043 -32.085  1.00  0.00     0.221 C 
HETATM    4  O   UNL     1      -6.227  -0.780 -31.199  1.00  0.00    -0.273 OA
HETATM    5  C   UNL     1      -5.181   1.747 -30.843  1.00  0.00     0.131 C 
HETATM    6  C   UNL     1      -3.791   2.249 -31.270  1.00  0.00     0.061 C 
HETATM    7  C   UNL     1      -3.951   3.258 -32.351  1.00  0.00    -0.019 A 
HETATM    8  C   UNL     1      -5.104   3.316 -33.113  1.00  0.00     0.044 A 
HETATM    9  N   UNL     1      -4.950   4.334 -34.017  1.00  0.00    -0.356 N 
HETATM   10  H   UNL     1      -5.635   4.629 -34.698  1.00  0.00     0.166 HD
HETATM   11  C   UNL     1      -3.697   4.894 -33.891  1.00  0.00     0.043 A 
HETATM   12  C   UNL     1      -3.051   4.241 -32.840  1.00  0.00    -0.001 A 
HETATM   13  C   UNL     1      -3.091   5.918 -34.630  1.00  0.00     0.030 A 
HETATM   14  C   UNL     1      -1.786   6.279 -34.286  1.00  0.00     0.002 A 
HETATM   15  C   UNL     1      -1.117   5.647 -33.239  1.00  0.00     0.001 A 
HETATM   16  C   UNL     1      -1.738   4.628 -32.507  1.00  0.00     0.014 A 
ENDROOT
BRANCH   1  17
HETATM   17  C   UNL     1      -7.623   3.113 -32.862  1.00  0.00    -0.029 A 
HETATM   18  C   UNL     1      -7.946   3.862 -31.723  1.00  0.00     0.012 A 
HETATM   19  C   UNL     1      -9.174   4.524 -31.614  1.00  0.00     0.038 A 
HETATM   20  C   UNL     1     -10.111   4.464 -32.647  1.00  0.00     0.074 A 
HETATM   21  C   UNL     1      -9.814   3.719 -33.798  1.00  0.00    -0.028 A 
HETATM   22  C   UNL     1     -10.808   3.602 -34.922  1.00  0.00     0.051 C 
HETATM   23  C   UNL     1      -8.585   3.041 -33.887  1.00  0.00     0.019 A 
BRANCH  20  24
HETATM   24  O   UNL     1     -11.338   5.073 -32.623  1.00  0.00    -0.355 OA
HETATM   25  C   UNL     1     -12.296   4.571 -31.700  1.00  0.00     0.210 C 
ENDBRANCH  20  24
ENDBRANCH   1  17
BRANCH   3  26
HETATM   26  C   UNL     1      -7.193  -0.366 -33.358  1.00  0.00     0.108 C 
BRANCH  26  27
HETATM   27  C   UNL     1      -6.255  -0.720 -34.512  1.00  0.00     0.051 C 
BRANCH  27  28
HETATM   28  C   UNL     1      -5.706  -2.108 -34.471  1.00  0.00    -0.021 A 
HETATM   29  C   UNL     1      -4.483  -2.553 -34.011  1.00  0.00     0.120 A 
HETATM   30  N   UNL     1      -4.486  -3.909 -34.155  1.00  0.00    -0.285 N 
HETATM   31  C   UNL     1      -3.427  -4.823 -33.803  1.00  0.00     0.179 C 
HETATM   32  N   UNL     1      -5.635  -4.390 -34.661  1.00  0.00    -0.185 NA
HETATM   33  C   UNL     1      -6.369  -3.294 -34.865  1.00  0.00     0.147 A 
ENDBRANCH  27  28
ENDBRANCH  26  27
ENDBRANCH   3  26
TORSDOF 5
ENDMDL
MODEL 4
REMARK VINA RESULT:      -9.4      2.765      6.383
REMARK  5 active torsions:
REMARK  status: ('A' for Active; 'I' for Inactive)
REMARK    1  A    between atoms: C_3  and  O_4 
REMARK    2  A    between atoms: C_8  and  C_9 
REMARK       I    between atoms: N_10  and  C_11 
REMARK    3  A    between atoms: C_11  and  C_12 
REMARK    4  A    between atoms: C_12  and  C_13 
REMARK    5  A    between atoms: C_13  and  C_14 
ROOT
HETATM    1  C   UNL     1      -5.053   2.563 -32.107  1.00  0.00     0.171 C 
HETATM    2  N   UNL     1      -6.270   2.890 -32.897  1.00  0.00    -0.338 N 
HETATM    3  C   UNL     1      -7.569   2.680 -32.444  1.00  0.00     0.221 C 
HETATM    4  O   UNL     1      -8.551   2.954 -33.137  1.00  0.00    -0.273 OA
HETATM    5  C   UNL     1      -6.080   3.513 -34.229  1.00  0.00     0.131 C 
HETATM    6  C   UNL     1      -5.302   4.838 -34.144  1.00  0.00     0.061 C 
HETATM    7  C   UNL     1      -4.082   4.631 -33.319  1.00  0.00    -0.019 A 
HETATM    8  C   UNL     1      -3.989   3.576 -32.429  1.00  0.00     0.044 A 
HETATM    9  N   UNL     1      -2.762   3.655 -31.824  1.00  0.00    -0.356 N 
HETATM   10  H   UNL     1      -2.399   3.010 -31.136  1.00  0.00     0.166 HD
HETATM   11  C   UNL     1      -2.088   4.774 -32.262  1.00  0.00     0.043 A 
HETATM   12  C   UNL     1      -2.894   5.401 -33.215  1.00  0.00    -0.001 A 
HETATM   13  C   UNL     1      -0.837   5.277 -31.884  1.00  0.00     0.030 A 
HETATM   14  C   UNL     1      -0.402   6.456 -32.494  1.00  0.00     0.002 A 
HETATM   15  C   UNL     1      -1.183   7.102 -33.451  1.00  0.00     0.001 A 
HETATM   16  C   UNL     1      -2.430   6.584 -33.822  1.00  0.00     0.014 A 
ENDROOT
BRANCH   1  17
HETATM   17  C   UNL     1      -4.589   1.115 -32.247  1.00  0.00    -0.029 A 
HETATM   18  C   UNL     1      -3.546   0.568 -31.491  1.00  0.00     0.012 A 
HETATM   19  C   UNL     1      -3.167  -0.772 -31.637  1.00  0.00     0.038 A 
HETATM   20  C   UNL     1      -3.830  -1.605 -32.541  1.00  0.00     0.074 A 
HETATM   21  C   UNL     1      -4.878  -1.082 -33.312  1.00  0.00    -0.028 A 
HETATM   22  C   UNL     1      -5.598  -1.936 -34.321  1.00  0.00     0.051 C 
HETATM   23  C   UNL     1      -5.235   0.271 -33.171  1.00  0.00     0.019 A 
BRANCH  20  24
HETATM   24  O   UNL     1      -3.523  -2.923 -32.756  1.00  0.00    -0.355 OA
HETATM   25  C   UNL     1      -2.896  -3.627 -31.692  1.00  0.00     0.210 C 
ENDBRANCH  20  24
ENDBRANCH   1  17
BRANCH   3  26
HETATM   26  C   UNL     1      -7.734   2.179 -31.016  1.00  0.00     0.108 C 
BRANCH  26  27
HETATM   27  C   UNL     1      -8.010   3.290 -30.004  1.00  0.00     0.051 C 
BRANCH  27  28
HETATM   28  C   UNL     1      -7.042   4.426 -30.039  1.00  0.00    -0.021 A 
HETATM   29  C   UNL     1      -7.103   5.608 -30.751  1.00  0.00     0.120 A 
HETATM   30  N   UNL     1      -5.997   6.325 -30.401  1.00  0.00    -0.285 N 
HETATM   31  C   UNL     1      -5.624   7.634 -30.880  1.00  0.00     0.179 C 
HETATM   32  N   UNL     1      -5.221   5.706 -29.495  1.00  0.00    -0.185 NA
HETATM   33  C   UNL     1      -5.850   4.547 -29.286  1.00  0.00     0.147 A 
ENDBRANCH  27  28
ENDBRANCH  26  27
ENDBRANCH   3  26
TORSDOF 5
ENDMDL
MODEL 5
REMARK VINA RESULT:      -9.2      2.125      8.259
REMARK  5 active torsions:
REMARK  status: ('A' for Active; 'I' for Inactive)
REMARK    1  A    between atoms: C_3  and  O_4 
REMARK    2  A    between atoms: C_8  and  C_9 
REMARK       I    between atoms: N_10  and  C_11 
REMARK    3  A    between atoms: C_11  and  C_12 
REMARK    4  A    between atoms: C_12  and  C_13 
REMARK    5  A    between atoms: C_13  and  C_14 
ROOT
HETATM    1  C   UNL     1      -5.540   3.129 -33.161  1.00  0.00     0.171 C 
HETATM    2  N   UNL     1      -5.310   1.821 -32.491  1.00  0.00    -0.338 N 
HETATM    3  C   UNL     1      -5.741   0.601 -33.004  1.00  0.00     0.221 C 
HETATM    4  O   UNL     1      -5.539  -0.460 -32.409  1.00  0.00    -0.273 OA
HETATM    5  C   UNL     1      -4.540   1.821 -31.224  1.00  0.00     0.131 C 
HETATM    6  C   UNL     1      -3.135   2.423 -31.399  1.00  0.00     0.061 C 
HETATM    7  C   UNL     1      -3.250   3.722 -32.116  1.00  0.00    -0.019 A 
HETATM    8  C   UNL     1      -4.363   4.023 -32.880  1.00  0.00     0.044 A 
HETATM    9  N   UNL     1      -4.174   5.273 -33.409  1.00  0.00    -0.356 N 
HETATM   10  H   UNL     1      -4.826   5.770 -33.998  1.00  0.00     0.166 HD
HETATM   11  C   UNL     1      -2.935   5.757 -33.049  1.00  0.00     0.043 A 
HETATM   12  C   UNL     1      -2.337   4.803 -32.224  1.00  0.00    -0.001 A 
HETATM   13  C   UNL     1      -2.303   6.957 -33.397  1.00  0.00     0.030 A 
HETATM   14  C   UNL     1      -1.021   7.185 -32.890  1.00  0.00     0.002 A 
HETATM   15  C   UNL     1      -0.401   6.252 -32.061  1.00  0.00     0.001 A 
HETATM   16  C   UNL     1      -1.047   5.059 -31.719  1.00  0.00     0.014 A 
ENDROOT
BRANCH   1  17
HETATM   17  C   UNL     1      -6.889   3.767 -32.837  1.00  0.00    -0.029 A 
HETATM   18  C   UNL     1      -7.356   3.952 -31.530  1.00  0.00     0.012 A 
HETATM   19  C   UNL     1      -8.592   4.561 -31.279  1.00  0.00     0.038 A 
HETATM   20  C   UNL     1      -9.392   5.010 -32.332  1.00  0.00     0.074 A 
HETATM   21  C   UNL     1      -8.949   4.835 -33.651  1.00  0.00    -0.028 A 
HETATM   22  C   UNL     1      -9.794   5.275 -34.816  1.00  0.00     0.051 C 
HETATM   23  C   UNL     1      -7.716   4.203 -33.891  1.00  0.00     0.019 A 
BRANCH  20  24
HETATM   24  O   UNL     1     -10.615   5.608 -32.182  1.00  0.00    -0.355 OA
HETATM   25  C   UNL     1     -11.405   5.204 -31.071  1.00  0.00     0.210 C 
ENDBRANCH  20  24
ENDBRANCH   1  17
BRANCH   3  26
HETATM   26  C   UNL     1      -6.397   0.617 -34.377  1.00  0.00     0.108 C 
BRANCH  26  27
HETATM   27  C   UNL     1      -7.740  -0.109 -34.423  1.00  0.00     0.051 C 
BRANCH  27  28
HETATM   28  C   UNL     1      -8.879   0.637 -33.809  1.00  0.00    -0.021 A 
HETATM   29  C   UNL     1      -9.949   1.260 -34.420  1.00  0.00     0.120 A 
HETATM   30  N   UNL     1     -10.729   1.758 -33.417  1.00  0.00    -0.285 N 
HETATM   31  C   UNL     1     -11.966   2.486 -33.559  1.00  0.00     0.179 C 
HETATM   32  N   UNL     1     -10.256   1.489 -32.188  1.00  0.00    -0.185 NA
HETATM   33  C   UNL     1      -9.125   0.820 -32.427  1.00  0.00     0.147 A 
ENDBRANCH  27  28
ENDBRANCH  26  27
ENDBRANCH   3  26
TORSDOF 5
ENDMDL
MODEL 6
REMARK VINA RESULT:      -8.9      2.956      6.930
REMARK  5 active torsions:
REMARK  status: ('A' for Active; 'I' for Inactive)
REMARK    1  A    between atoms: C_3  and  O_4 
REMARK    2  A    between atoms: C_8  and  C_9 
REMARK       I    between atoms: N_10  and  C_11 
REMARK    3  A    between atoms: C_11  and  C_12 
REMARK    4  A    between atoms: C_12  and  C_13 
REMARK    5  A    between atoms: C_13  and  C_14 
ROOT
HETATM    1  C   UNL     1      -5.061   3.322 -31.970  1.00  0.00     0.171 C 
HETATM    2  N   UNL     1      -6.049   4.079 -32.786  1.00  0.00    -0.338 N 
HETATM    3  C   UNL     1      -7.416   4.101 -32.525  1.00  0.00     0.221 C 
HETATM    4  O   UNL     1      -8.202   4.732 -33.235  1.00  0.00    -0.273 OA
HETATM    5  C   UNL     1      -5.533   4.888 -33.916  1.00  0.00     0.131 C 
HETATM    6  C   UNL     1      -4.515   5.945 -33.457  1.00  0.00     0.061 C 
HETATM    7  C   UNL     1      -3.504   5.295 -32.580  1.00  0.00    -0.019 A 
HETATM    8  C   UNL     1      -3.770   4.095 -31.946  1.00  0.00     0.044 A 
HETATM    9  N   UNL     1      -2.660   3.759 -31.217  1.00  0.00    -0.356 N 
HETATM   10  H   UNL     1      -2.549   2.924 -30.660  1.00  0.00     0.166 HD
HETATM   11  C   UNL     1      -1.706   4.748 -31.322  1.00  0.00     0.043 A 
HETATM   12  C   UNL     1      -2.209   5.724 -32.185  1.00  0.00    -0.001 A 
HETATM   13  C   UNL     1      -0.449   4.853 -30.715  1.00  0.00     0.030 A 
HETATM   14  C   UNL     1       0.313   5.991 -30.995  1.00  0.00     0.002 A 
HETATM   15  C   UNL     1      -0.162   6.979 -31.856  1.00  0.00     0.001 A 
HETATM   16  C   UNL     1      -1.420   6.857 -32.459  1.00  0.00     0.014 A 
ENDROOT
BRANCH   1  17
HETATM   17  C   UNL     1      -4.897   1.862 -32.385  1.00  0.00    -0.029 A 
HETATM   18  C   UNL     1      -5.774   1.211 -33.262  1.00  0.00     0.012 A 
HETATM   19  C   UNL     1      -5.573  -0.124 -33.631  1.00  0.00     0.038 A 
HETATM   20  C   UNL     1      -4.482  -0.844 -33.140  1.00  0.00     0.074 A 
HETATM   21  C   UNL     1      -3.589  -0.216 -32.258  1.00  0.00    -0.028 A 
HETATM   22  C   UNL     1      -2.418  -0.963 -31.679  1.00  0.00     0.051 C 
HETATM   23  C   UNL     1      -3.813   1.120 -31.878  1.00  0.00     0.019 A 
BRANCH  20  24
HETATM   24  O   UNL     1      -4.211  -2.153 -33.440  1.00  0.00    -0.355 OA
HETATM   25  C   UNL     1      -4.890  -2.718 -34.553  1.00  0.00     0.210 C 
ENDBRANCH  20  24
ENDBRANCH   1  17
BRANCH   3  26
HETATM   26  C   UNL     1      -7.895   3.382 -31.272  1.00  0.00     0.108 C 
BRANCH  26  27
HETATM   27  C   UNL     1      -8.736   4.260 -30.347  1.00  0.00     0.051 C 
BRANCH  27  28
HETATM   28  C   UNL     1      -7.956   5.045 -29.344  1.00  0.00    -0.021 A 
HETATM   29  C   UNL     1      -6.654   4.874 -28.919  1.00  0.00     0.120 A 
HETATM   30  N   UNL     1      -6.406   5.876 -28.026  1.00  0.00    -0.285 N 
HETATM   31  C   UNL     1      -5.174   6.120 -27.316  1.00  0.00     0.179 C 
HETATM   32  N   UNL     1      -7.448   6.705 -27.848  1.00  0.00    -0.185 NA
HETATM   33  C   UNL     1      -8.394   6.191 -28.639  1.00  0.00     0.147 A 
ENDBRANCH  27  28
ENDBRANCH  26  27
ENDBRANCH   3  26
TORSDOF 5
ENDMDL
MODEL 7
REMARK VINA RESULT:      -8.7      3.002      7.790
REMARK  5 active torsions:
REMARK  status: ('A' for Active; 'I' for Inactive)
REMARK    1  A    between atoms: C_3  and  O_4 
REMARK    2  A    between atoms: C_8  and  C_9 
REMARK       I    between atoms: N_10  and  C_11 
REMARK    3  A    between atoms: C_11  and  C_12 
REMARK    4  A    between atoms: C_12  and  C_13 
REMARK    5  A    between atoms: C_13  and  C_14 
ROOT
HETATM    1  C   UNL     1      -7.219   3.177 -33.660  1.00  0.00     0.171 C 
HETATM    2  N   UNL     1      -7.417   2.231 -32.529  1.00  0.00    -0.338 N 
HETATM    3  C   UNL     1      -8.182   1.071 -32.612  1.00  0.00     0.221 C 
HETATM    4  O   UNL     1      -8.330   0.320 -31.646  1.00  0.00    -0.273 OA
HETATM    5  C   UNL     1      -6.721   2.527 -31.253  1.00  0.00     0.131 C 
HETATM    6  C   UNL     1      -5.195   2.611 -31.430  1.00  0.00     0.061 C 
HETATM    7  C   UNL     1      -4.889   3.499 -32.584  1.00  0.00    -0.019 A 
HETATM    8  C   UNL     1      -5.835   3.758 -33.559  1.00  0.00     0.044 A 
HETATM    9  N   UNL     1      -5.260   4.596 -34.479  1.00  0.00    -0.356 N 
HETATM   10  H   UNL     1      -5.713   4.974 -35.298  1.00  0.00     0.166 HD
HETATM   11  C   UNL     1      -3.944   4.833 -34.146  1.00  0.00     0.043 A 
HETATM   12  C   UNL     1      -3.688   4.161 -32.949  1.00  0.00    -0.001 A 
HETATM   13  C   UNL     1      -2.968   5.581 -34.815  1.00  0.00     0.030 A 
HETATM   14  C   UNL     1      -1.693   5.639 -34.246  1.00  0.00     0.002 A 
HETATM   15  C   UNL     1      -1.410   4.981 -33.050  1.00  0.00     0.001 A 
HETATM   16  C   UNL     1      -2.398   4.241 -32.390  1.00  0.00     0.014 A 
ENDROOT
BRANCH   1  17
HETATM   17  C   UNL     1      -8.320   4.226 -33.795  1.00  0.00    -0.029 A 
HETATM   18  C   UNL     1      -9.441   4.060 -34.618  1.00  0.00     0.012 A 
HETATM   19  C   UNL     1     -10.437   5.041 -34.695  1.00  0.00     0.038 A 
HETATM   20  C   UNL     1     -10.343   6.213 -33.942  1.00  0.00     0.074 A 
HETATM   21  C   UNL     1      -9.230   6.405 -33.111  1.00  0.00    -0.028 A 
HETATM   22  C   UNL     1      -9.074   7.667 -32.306  1.00  0.00     0.051 C 
HETATM   23  C   UNL     1      -8.226   5.422 -33.058  1.00  0.00     0.019 A 
BRANCH  20  24
HETATM   24  O   UNL     1     -11.264   7.227 -33.960  1.00  0.00    -0.355 OA
HETATM   25  C   UNL     1     -11.843   7.558 -35.216  1.00  0.00     0.210 C 
ENDBRANCH  20  24
ENDBRANCH   1  17
BRANCH   3  26
HETATM   26  C   UNL     1      -8.761   0.717 -33.975  1.00  0.00     0.108 C 
BRANCH  26  27
HETATM   27  C   UNL     1      -7.701   0.372 -35.020  1.00  0.00     0.051 C 
BRANCH  27  28
HETATM   28  C   UNL     1      -6.724  -0.677 -34.602  1.00  0.00    -0.021 A 
HETATM   29  C   UNL     1      -5.546  -0.545 -33.893  1.00  0.00     0.120 A 
HETATM   30  N   UNL     1      -5.048  -1.805 -33.736  1.00  0.00    -0.285 N 
HETATM   31  C   UNL     1      -3.835  -2.180 -33.052  1.00  0.00     0.179 C 
HETATM   32  N   UNL     1      -5.825  -2.759 -34.276  1.00  0.00    -0.185 NA
HETATM   33  C   UNL     1      -6.836  -2.072 -34.814  1.00  0.00     0.147 A 
ENDBRANCH  27  28
ENDBRANCH  26  27
ENDBRANCH   3  26
TORSDOF 5
ENDMDL
MODEL 8
REMARK VINA RESULT:      -8.3      4.376      7.619
REMARK  5 active torsions:
REMARK  status: ('A' for Active; 'I' for Inactive)
REMARK    1  A    between atoms: C_3  and  O_4 
REMARK    2  A    between atoms: C_8  and  C_9 
REMARK       I    between atoms: N_10  and  C_11 
REMARK    3  A    between atoms: C_11  and  C_12 
REMARK    4  A    between atoms: C_12  and  C_13 
REMARK    5  A    between atoms: C_13  and  C_14 
ROOT
HETATM    1  C   UNL     1      -4.043   5.511 -31.359  1.00  0.00     0.171 C 
HETATM    2  N   UNL     1      -3.848   5.902 -32.781  1.00  0.00    -0.338 N 
HETATM    3  C   UNL     1      -2.760   6.637 -33.242  1.00  0.00     0.221 C 
HETATM    4  O   UNL     1      -2.644   6.951 -34.428  1.00  0.00    -0.273 OA
HETATM    5  C   UNL     1      -4.856   5.441 -33.766  1.00  0.00     0.131 C 
HETATM    6  C   UNL     1      -4.980   3.908 -33.796  1.00  0.00     0.061 C 
HETATM    7  C   UNL     1      -5.125   3.407 -32.403  1.00  0.00    -0.019 A 
HETATM    8  C   UNL     1      -4.719   4.167 -31.321  1.00  0.00     0.044 A 
HETATM    9  N   UNL     1      -4.976   3.442 -30.187  1.00  0.00    -0.356 N 
HETATM   10  H   UNL     1      -4.802   3.745 -29.240  1.00  0.00     0.166 HD
HETATM   11  C   UNL     1      -5.484   2.205 -30.521  1.00  0.00     0.043 A 
HETATM   12  C   UNL     1      -5.599   2.162 -31.912  1.00  0.00    -0.001 A 
HETATM   13  C   UNL     1      -5.842   1.129 -29.700  1.00  0.00     0.030 A 
HETATM   14  C   UNL     1      -6.324  -0.026 -30.321  1.00  0.00     0.002 A 
HETATM   15  C   UNL     1      -6.453  -0.097 -31.707  1.00  0.00     0.001 A 
HETATM   16  C   UNL     1      -6.096   0.990 -32.514  1.00  0.00     0.014 A 
ENDROOT
BRANCH   1  17
HETATM   17  C   UNL     1      -4.736   6.574 -30.509  1.00  0.00    -0.029 A 
HETATM   18  C   UNL     1      -6.037   7.025 -30.757  1.00  0.00     0.012 A 
HETATM   19  C   UNL     1      -6.641   7.987 -29.938  1.00  0.00     0.038 A 
HETATM   20  C   UNL     1      -5.960   8.519 -28.842  1.00  0.00     0.074 A 
HETATM   21  C   UNL     1      -4.653   8.085 -28.572  1.00  0.00    -0.028 A 
HETATM   22  C   UNL     1      -3.871   8.654 -27.419  1.00  0.00     0.051 C 
HETATM   23  C   UNL     1      -4.050   7.134 -29.414  1.00  0.00     0.019 A 
BRANCH  20  24
HETATM   24  O   UNL     1      -6.467   9.467 -27.993  1.00  0.00    -0.355 OA
HETATM   25  C   UNL     1      -7.745   9.213 -27.423  1.00  0.00     0.210 C 
ENDBRANCH  20  24
ENDBRANCH   1  17
BRANCH   3  26
HETATM   26  C   UNL     1      -1.668   6.967 -32.234  1.00  0.00     0.108 C 
BRANCH  26  27
HETATM   27  C   UNL     1      -0.681   5.824 -32.004  1.00  0.00     0.051 C 
BRANCH  27  28
HETATM   28  C   UNL     1      -0.149   5.723 -30.612  1.00  0.00    -0.021 A 
HETATM   29  C   UNL     1      -0.524   6.415 -29.478  1.00  0.00     0.120 A 
HETATM   30  N   UNL     1       0.237   5.924 -28.458  1.00  0.00    -0.285 N 
HETATM   31  C   UNL     1       0.200   6.330 -27.074  1.00  0.00     0.179 C 
HETATM   32  N   UNL     1       1.074   4.944 -28.838  1.00  0.00    -0.185 NA
HETATM   33  C   UNL     1       0.848   4.831 -30.149  1.00  0.00     0.147 A 
ENDBRANCH  27  28
ENDBRANCH  26  27
ENDBRANCH   3  26
TORSDOF 5
ENDMDL
MODEL 9
REMARK VINA RESULT:      -8.2      5.701     11.124
REMARK  5 active torsions:
REMARK  status: ('A' for Active; 'I' for Inactive)
REMARK    1  A    between atoms: C_3  and  O_4 
REMARK    2  A    between atoms: C_8  and  C_9 
REMARK       I    between atoms: N_10  and  C_11 
REMARK    3  A    between atoms: C_11  and  C_12 
REMARK    4  A    between atoms: C_12  and  C_13 
REMARK    5  A    between atoms: C_13  and  C_14 
ROOT
HETATM    1  C   UNL     1      -2.405   7.574 -27.639  1.00  0.00     0.171 C 
HETATM    2  N   UNL     1      -3.680   8.244 -27.267  1.00  0.00    -0.338 N 
HETATM    3  C   UNL     1      -4.918   7.610 -27.264  1.00  0.00     0.221 C 
HETATM    4  O   UNL     1      -5.953   8.207 -26.960  1.00  0.00    -0.273 OA
HETATM    5  C   UNL     1      -3.613   9.662 -26.836  1.00  0.00     0.131 C 
HETATM    6  C   UNL     1      -2.699   9.854 -25.613  1.00  0.00     0.061 C 
HETATM    7  C   UNL     1      -1.404   9.166 -25.863  1.00  0.00    -0.019 A 
HETATM    8  C   UNL     1      -1.297   8.160 -26.806  1.00  0.00     0.044 A 
HETATM    9  N   UNL     1       0.003   7.727 -26.801  1.00  0.00    -0.356 N 
HETATM   10  H   UNL     1       0.389   7.009 -27.398  1.00  0.00     0.166 HD
HETATM   11  C   UNL     1       0.721   8.393 -25.832  1.00  0.00     0.043 A 
HETATM   12  C   UNL     1      -0.141   9.314 -25.233  1.00  0.00    -0.001 A 
HETATM   13  C   UNL     1       2.057   8.244 -25.440  1.00  0.00     0.030 A 
HETATM   14  C   UNL     1       2.522   9.057 -24.404  1.00  0.00     0.002 A 
HETATM   15  C   UNL     1       1.686   9.988 -23.790  1.00  0.00     0.001 A 
HETATM   16  C   UNL     1       0.354  10.128 -24.196  1.00  0.00     0.014 A 
ENDROOT
BRANCH   1  17
HETATM   17  C   UNL     1      -2.115   7.573 -29.138  1.00  0.00    -0.029 A 
HETATM   18  C   UNL     1      -2.627   8.533 -30.019  1.00  0.00     0.012 A 
HETATM   19  C   UNL     1      -2.318   8.505 -31.384  1.00  0.00     0.038 A 
HETATM   20  C   UNL     1      -1.478   7.519 -31.904  1.00  0.00     0.074 A 
HETATM   21  C   UNL     1      -0.952   6.543 -31.044  1.00  0.00    -0.028 A 
HETATM   22  C   UNL     1      -0.069   5.444 -31.568  1.00  0.00     0.051 C 
HETATM   23  C   UNL     1      -1.288   6.570 -29.679  1.00  0.00     0.019 A 
BRANCH  20  24
HETATM   24  O   UNL     1      -1.127   7.409 -33.224  1.00  0.00    -0.355 OA
HETATM   25  C   UNL     1      -2.131   6.968 -34.129  1.00  0.00     0.210 C 
ENDBRANCH  20  24
ENDBRANCH   1  17
BRANCH   3  26
HETATM   26  C   UNL     1      -4.935   6.118 -27.566  1.00  0.00     0.108 C 
BRANCH  26  27
HETATM   27  C   UNL     1      -5.905   5.730 -28.681  1.00  0.00     0.051 C 
BRANCH  27  28
HETATM   28  C   UNL     1      -5.330   4.841 -29.734  1.00  0.00    -0.021 A 
HETATM   29  C   UNL     1      -4.439   5.142 -30.744  1.00  0.00     0.120 A 
HETATM   30  N   UNL     1      -4.198   3.974 -31.407  1.00  0.00    -0.285 N 
HETATM   31  C   UNL     1      -3.324   3.782 -32.538  1.00  0.00     0.179 C 
HETATM   32  N   UNL     1      -4.855   2.921 -30.892  1.00  0.00    -0.185 NA
HETATM   33  C   UNL     1      -5.553   3.451 -29.884  1.00  0.00     0.147 A 
ENDBRANCH  27  28
ENDBRANCH  26  27
ENDBRANCH   3  26
TORSDOF 5
ENDMDL
MODEL 10
REMARK VINA RESULT:      -8.1      2.684      8.665
REMARK  5 active torsions:
REMARK  status: ('A' for Active; 'I' for Inactive)
REMARK    1  A    between atoms: C_3  and  O_4 
REMARK    2  A    between atoms: C_8  and  C_9 
REMARK       I    between atoms: N_10  and  C_11 
REMARK    3  A    between atoms: C_11  and  C_12 
REMARK    4  A    between atoms: C_12  and  C_13 
REMARK    5  A    between atoms: C_13  and  C_14 
ROOT
HETATM    1  C   UNL     1      -6.610   3.416 -32.263  1.00  0.00     0.171 C 
HETATM    2  N   UNL     1      -6.443   2.137 -31.522  1.00  0.00    -0.338 N 
HETATM    3  C   UNL     1      -7.180   0.986 -31.786  1.00  0.00     0.221 C 
HETATM    4  O   UNL     1      -7.018  -0.051 -31.138  1.00  0.00    -0.273 OA
HETATM    5  C   UNL     1      -5.400   2.081 -30.470  1.00  0.00     0.131 C 
HETATM    6  C   UNL     1      -4.000   2.398 -31.024  1.00  0.00     0.061 C 
HETATM    7  C   UNL     1      -4.070   3.643 -31.835  1.00  0.00    -0.019 A 
HETATM    8  C   UNL     1      -5.270   4.092 -32.356  1.00  0.00     0.044 A 
HETATM    9  N   UNL     1      -5.012   5.246 -33.049  1.00  0.00    -0.356 N 
HETATM   10  H   UNL     1      -5.696   5.814 -33.527  1.00  0.00     0.166 HD
HETATM   11  C   UNL     1      -3.660   5.515 -33.035  1.00  0.00     0.043 A 
HETATM   12  C   UNL     1      -3.045   4.525 -32.266  1.00  0.00    -0.001 A 
HETATM   13  C   UNL     1      -2.943   6.550 -33.647  1.00  0.00     0.030 A 
HETATM   14  C   UNL     1      -1.557   6.570 -33.472  1.00  0.00     0.002 A 
HETATM   15  C   UNL     1      -0.916   5.597 -32.706  1.00  0.00     0.001 A 
HETATM   16  C   UNL     1      -1.648   4.571 -32.097  1.00  0.00     0.014 A 
ENDROOT
BRANCH   1  17
HETATM   17  C   UNL     1      -7.717   4.314 -31.714  1.00  0.00    -0.029 A 
HETATM   18  C   UNL     1      -8.894   4.598 -32.418  1.00  0.00     0.012 A 
HETATM   19  C   UNL     1      -9.892   5.411 -31.867  1.00  0.00     0.038 A 
HETATM   20  C   UNL     1      -9.743   5.956 -30.590  1.00  0.00     0.074 A 
HETATM   21  C   UNL     1      -8.572   5.689 -29.864  1.00  0.00    -0.028 A 
HETATM   22  C   UNL     1      -8.357   6.282 -28.498  1.00  0.00     0.051 C 
HETATM   23  C   UNL     1      -7.568   4.888 -30.437  1.00  0.00     0.019 A 
BRANCH  20  24
HETATM   24  O   UNL     1     -10.661   6.766 -29.976  1.00  0.00    -0.355 OA
HETATM   25  C   UNL     1     -11.768   7.201 -30.754  1.00  0.00     0.210 C 
ENDBRANCH  20  24
ENDBRANCH   1  17
BRANCH   3  26
HETATM   26  C   UNL     1      -8.137   1.029 -32.968  1.00  0.00     0.108 C 
BRANCH  26  27
HETATM   27  C   UNL     1      -9.513   0.440 -32.664  1.00  0.00     0.051 C 
BRANCH  27  28
HETATM   28  C   UNL     1     -10.632   1.002 -33.478  1.00  0.00    -0.021 A 
HETATM   29  C   UNL     1     -10.623   2.054 -34.371  1.00  0.00     0.120 A 
HETATM   30  N   UNL     1     -11.886   2.139 -34.880  1.00  0.00    -0.285 N 
HETATM   31  C   UNL     1     -12.365   3.082 -35.861  1.00  0.00     0.179 C 
HETATM   32  N   UNL     1     -12.721   1.203 -34.397  1.00  0.00    -0.185 NA
HETATM   33  C   UNL     1     -11.962   0.522 -33.535  1.00  0.00     0.147 A 
ENDBRANCH  27  28
ENDBRANCH  26  27
ENDBRANCH   3  26
TORSDOF 5
ENDMDL
