MODEL 1
REMARK VINA RESULT:      -7.8      0.000      0.000
REMARK  3 active torsions:
REMARK  status: ('A' for Active; 'I' for Inactive)
REMARK    1  A    between atoms: N_6  and  C_7 
REMARK    2  A    between atoms: C_7  and  C_8 
REMARK    3  A    between atoms: N_10  and  C_11 
ROOT
HETATM    1  C   UNL     1      -5.817  -0.320 -33.355  1.00  0.00     0.073 A 
HETATM    2  C   UNL     1      -6.485  -0.971 -34.424  1.00  0.00     0.062 A 
HETATM    3 CL   UNL     1      -7.842  -0.295 -35.259  1.00  0.00    -0.082 Cl
HETATM    4  C   UNL     1      -6.032  -2.201 -34.930  1.00  0.00     0.026 A 
HETATM    5  C   UNL     1      -4.891  -2.807 -34.420  1.00  0.00     0.003 A 
HETATM    6  C   UNL     1      -4.188  -2.180 -33.403  1.00  0.00     0.025 A 
HETATM    7  C   UNL     1      -4.637  -0.957 -32.873  1.00  0.00     0.072 A 
HETATM    8  C   UNL     1      -3.840  -0.379 -31.824  1.00  0.00     0.102 C 
HETATM    9  N   UNL     1      -3.147   0.075 -31.008  1.00  0.00    -0.191 NA
ENDROOT
BRANCH   1  10
HETATM   10  N   UNL     1      -6.229   0.884 -32.742  1.00  0.00    -0.378 N 
HETATM   11  C   UNL     1      -6.231   2.055 -33.637  1.00  0.00     0.129 C 
HETATM   12  C   UNL     1      -6.156   3.343 -32.780  1.00  0.00     0.032 C 
HETATM   13  C   UNL     1      -7.327   3.364 -31.780  1.00  0.00     0.009 C 
HETATM   14  C   UNL     1      -7.398   2.080 -30.946  1.00  0.00     0.020 C 
HETATM   15  C   UNL     1      -7.397   0.838 -31.842  1.00  0.00     0.123 C 
BRANCH  12  16
HETATM   16  C   UNL     1      -4.780   3.419 -32.079  1.00  0.00     0.278 C 
BRANCH  16  17
HETATM   17  N   UNL     1      -4.324   4.783 -31.736  1.00  0.00     0.092 N 
HETATM   18  C   UNL     1      -4.573   5.756 -32.818  1.00  0.00     0.300 C 
HETATM   19  C   UNL     1      -3.674   5.600 -34.066  1.00  0.00     0.264 C 
HETATM   20  N   UNL     1      -2.205   5.553 -33.677  1.00  0.00    -0.072 N 
HETATM   21  C   UNL     1      -1.321   5.321 -34.865  1.00  0.00     0.269 C 
HETATM   22  H   UNL     1      -1.970   6.472 -33.281  1.00  0.00     0.279 HD
HETATM   23  C   UNL     1      -1.939   4.529 -32.581  1.00  0.00     0.264 C 
HETATM   24  C   UNL     1      -2.884   4.777 -31.389  1.00  0.00     0.300 C 
ENDBRANCH  16  17
ENDBRANCH  12  16
ENDBRANCH   1  10
TORSDOF 3
ENDMDL
MODEL 2
REMARK VINA RESULT:      -7.7      3.240      5.216
REMARK  3 active torsions:
REMARK  status: ('A' for Active; 'I' for Inactive)
REMARK    1  A    between atoms: N_6  and  C_7 
REMARK    2  A    between atoms: C_7  and  C_8 
REMARK    3  A    between atoms: N_10  and  C_11 
ROOT
HETATM    1  C   UNL     1      -4.735  -2.038 -33.425  1.00  0.00     0.073 A 
HETATM    2  C   UNL     1      -3.971  -3.192 -33.115  1.00  0.00     0.062 A 
HETATM    3 CL   UNL     1      -2.874  -3.284 -31.780  1.00  0.00    -0.082 Cl
HETATM    4  C   UNL     1      -4.112  -4.384 -33.847  1.00  0.00     0.026 A 
HETATM    5  C   UNL     1      -5.033  -4.480 -34.882  1.00  0.00     0.003 A 
HETATM    6  C   UNL     1      -5.828  -3.387 -35.187  1.00  0.00     0.025 A 
HETATM    7  C   UNL     1      -5.687  -2.181 -34.475  1.00  0.00     0.072 A 
HETATM    8  C   UNL     1      -6.559  -1.102 -34.858  1.00  0.00     0.102 C 
HETATM    9  N   UNL     1      -7.308  -0.269 -35.170  1.00  0.00    -0.191 NA
ENDROOT
BRANCH   1  10
HETATM   10  N   UNL     1      -4.621  -0.783 -32.787  1.00  0.00    -0.378 N 
HETATM   11  C   UNL     1      -5.196  -0.733 -31.431  1.00  0.00     0.129 C 
HETATM   12  C   UNL     1      -5.506   0.741 -31.071  1.00  0.00     0.032 C 
HETATM   13  C   UNL     1      -4.222   1.582 -31.197  1.00  0.00     0.009 C 
HETATM   14  C   UNL     1      -3.555   1.417 -32.567  1.00  0.00     0.020 C 
HETATM   15  C   UNL     1      -3.339  -0.062 -32.902  1.00  0.00     0.123 C 
BRANCH  12  16
HETATM   16  C   UNL     1      -6.646   1.267 -31.973  1.00  0.00     0.278 C 
BRANCH  16  17
HETATM   17  N   UNL     1      -7.861   1.710 -31.255  1.00  0.00     0.092 N 
HETATM   18  C   UNL     1      -8.927   0.688 -31.254  1.00  0.00     0.300 C 
HETATM   19  C   UNL     1      -9.623   0.459 -32.615  1.00  0.00     0.264 C 
HETATM   20  N   UNL     1     -10.103   1.773 -33.210  1.00  0.00    -0.072 N 
HETATM   21  C   UNL     1     -10.710   1.582 -34.567  1.00  0.00     0.269 C 
HETATM   22  H   UNL     1     -10.833   2.137 -32.584  1.00  0.00     0.279 HD
HETATM   23  C   UNL     1      -8.998   2.821 -33.240  1.00  0.00     0.264 C 
HETATM   24  C   UNL     1      -8.377   2.970 -31.838  1.00  0.00     0.300 C 
ENDBRANCH  16  17
ENDBRANCH  12  16
ENDBRANCH   1  10
TORSDOF 3
ENDMDL
MODEL 3
REMARK VINA RESULT:      -7.5      1.006      1.764
REMARK  3 active torsions:
REMARK  status: ('A' for Active; 'I' for Inactive)
REMARK    1  A    between atoms: N_6  and  C_7 
REMARK    2  A    between atoms: C_7  and  C_8 
REMARK    3  A    between atoms: N_10  and  C_11 
ROOT
HETATM    1  C   UNL     1      -5.738  -0.134 -33.394  1.00  0.00     0.073 A 
HETATM    2  C   UNL     1      -6.517  -0.790 -34.380  1.00  0.00     0.062 A 
HETATM    3 CL   UNL     1      -7.904  -0.083 -35.135  1.00  0.00    -0.082 Cl
HETATM    4  C   UNL     1      -6.161  -2.060 -34.869  1.00  0.00     0.026 A 
HETATM    5  C   UNL     1      -5.012  -2.700 -34.424  1.00  0.00     0.003 A 
HETATM    6  C   UNL     1      -4.203  -2.070 -33.491  1.00  0.00     0.025 A 
HETATM    7  C   UNL     1      -4.554  -0.807 -32.978  1.00  0.00     0.072 A 
HETATM    8  C   UNL     1      -3.651  -0.229 -32.019  1.00  0.00     0.102 C 
HETATM    9  N   UNL     1      -2.876   0.221 -31.278  1.00  0.00    -0.191 NA
ENDROOT
BRANCH   1  10
HETATM   10  N   UNL     1      -6.046   1.111 -32.801  1.00  0.00    -0.378 N 
HETATM   11  C   UNL     1      -6.121   2.237 -33.748  1.00  0.00     0.129 C 
HETATM   12  C   UNL     1      -5.915   3.562 -32.973  1.00  0.00     0.032 C 
HETATM   13  C   UNL     1      -6.962   3.668 -31.849  1.00  0.00     0.009 C 
HETATM   14  C   UNL     1      -6.970   2.429 -30.948  1.00  0.00     0.020 C 
HETATM   15  C   UNL     1      -7.104   1.145 -31.772  1.00  0.00     0.123 C 
BRANCH  12  16
HETATM   16  C   UNL     1      -4.466   3.629 -32.438  1.00  0.00     0.278 C 
BRANCH  16  17
HETATM   17  N   UNL     1      -3.560   4.527 -33.186  1.00  0.00     0.092 N 
HETATM   18  C   UNL     1      -2.148   4.374 -32.786  1.00  0.00     0.300 C 
HETATM   19  C   UNL     1      -1.794   4.925 -31.386  1.00  0.00     0.264 C 
HETATM   20  N   UNL     1      -2.272   6.360 -31.230  1.00  0.00    -0.072 N 
HETATM   21  C   UNL     1      -2.010   6.887 -29.851  1.00  0.00     0.269 C 
HETATM   22  H   UNL     1      -1.734   6.930 -31.894  1.00  0.00     0.279 HD
HETATM   23  C   UNL     1      -3.737   6.517 -31.613  1.00  0.00     0.264 C 
HETATM   24  C   UNL     1      -3.977   5.938 -33.021  1.00  0.00     0.300 C 
ENDBRANCH  16  17
ENDBRANCH  12  16
ENDBRANCH   1  10
TORSDOF 3
ENDMDL
MODEL 4
REMARK VINA RESULT:      -6.9      1.890      2.955
REMARK  3 active torsions:
REMARK  status: ('A' for Active; 'I' for Inactive)
REMARK    1  A    between atoms: N_6  and  C_7 
REMARK    2  A    between atoms: C_7  and  C_8 
REMARK    3  A    between atoms: N_10  and  C_11 
ROOT
HETATM    1  C   UNL     1      -5.710  -0.668 -32.917  1.00  0.00     0.073 A 
HETATM    2  C   UNL     1      -4.526  -1.388 -33.221  1.00  0.00     0.062 A 
HETATM    3 CL   UNL     1      -3.028  -1.167 -32.384  1.00  0.00    -0.082 Cl
HETATM    4  C   UNL     1      -4.514  -2.400 -34.196  1.00  0.00     0.026 A 
HETATM    5  C   UNL     1      -5.674  -2.752 -34.874  1.00  0.00     0.003 A 
HETATM    6  C   UNL     1      -6.860  -2.100 -34.573  1.00  0.00     0.025 A 
HETATM    7  C   UNL     1      -6.885  -1.072 -33.612  1.00  0.00     0.072 A 
HETATM    8  C   UNL     1      -8.162  -0.456 -33.363  1.00  0.00     0.102 C 
HETATM    9  N   UNL     1      -9.217  -0.012 -33.162  1.00  0.00    -0.191 NA
ENDROOT
BRANCH   1  10
HETATM   10  N   UNL     1      -5.806   0.401 -31.999  1.00  0.00    -0.378 N 
HETATM   11  C   UNL     1      -6.300   1.662 -32.580  1.00  0.00     0.129 C 
HETATM   12  C   UNL     1      -5.855   2.840 -31.677  1.00  0.00     0.032 C 
HETATM   13  C   UNL     1      -6.369   2.611 -30.244  1.00  0.00     0.009 C 
HETATM   14  C   UNL     1      -5.964   1.238 -29.697  1.00  0.00     0.020 C 
HETATM   15  C   UNL     1      -6.365   0.118 -30.662  1.00  0.00     0.123 C 
BRANCH  12  16
HETATM   16  C   UNL     1      -4.317   2.986 -31.737  1.00  0.00     0.278 C 
BRANCH  16  17
HETATM   17  N   UNL     1      -3.819   4.003 -32.689  1.00  0.00     0.092 N 
HETATM   18  C   UNL     1      -2.348   4.118 -32.681  1.00  0.00     0.300 C 
HETATM   19  C   UNL     1      -1.743   4.775 -31.419  1.00  0.00     0.264 C 
HETATM   20  N   UNL     1      -2.414   6.106 -31.124  1.00  0.00    -0.072 N 
HETATM   21  C   UNL     1      -1.898   6.722 -29.859  1.00  0.00     0.269 C 
HETATM   22  H   UNL     1      -2.183   6.738 -31.901  1.00  0.00     0.279 HD
HETATM   23  C   UNL     1      -3.932   5.986 -31.102  1.00  0.00     0.264 C 
HETATM   24  C   UNL     1      -4.426   5.323 -32.402  1.00  0.00     0.300 C 
ENDBRANCH  16  17
ENDBRANCH  12  16
ENDBRANCH   1  10
TORSDOF 3
ENDMDL
MODEL 5
REMARK VINA RESULT:      -6.9      1.517      2.207
REMARK  3 active torsions:
REMARK  status: ('A' for Active; 'I' for Inactive)
REMARK    1  A    between atoms: N_6  and  C_7 
REMARK    2  A    between atoms: C_7  and  C_8 
REMARK    3  A    between atoms: N_10  and  C_11 
ROOT
HETATM    1  C   UNL     1      -5.560  -0.076 -32.852  1.00  0.00     0.073 A 
HETATM    2  C   UNL     1      -5.499  -1.321 -33.529  1.00  0.00     0.062 A 
HETATM    3 CL   UNL     1      -6.645  -1.820 -34.725  1.00  0.00    -0.082 Cl
HETATM    4  C   UNL     1      -4.438  -2.219 -33.316  1.00  0.00     0.026 A 
HETATM    5  C   UNL     1      -3.394  -1.900 -32.458  1.00  0.00     0.003 A 
HETATM    6  C   UNL     1      -3.398  -0.674 -31.812  1.00  0.00     0.025 A 
HETATM    7  C   UNL     1      -4.460   0.229 -32.000  1.00  0.00     0.072 A 
HETATM    8  C   UNL     1      -4.375   1.479 -31.291  1.00  0.00     0.102 C 
HETATM    9  N   UNL     1      -4.250   2.492 -30.734  1.00  0.00    -0.191 NA
ENDROOT
BRANCH   1  10
HETATM   10  N   UNL     1      -6.611   0.862 -32.955  1.00  0.00    -0.378 N 
HETATM   11  C   UNL     1      -6.666   1.579 -34.241  1.00  0.00     0.129 C 
HETATM   12  C   UNL     1      -7.452   2.900 -34.048  1.00  0.00     0.032 C 
HETATM   13  C   UNL     1      -8.852   2.587 -33.487  1.00  0.00     0.009 C 
HETATM   14  C   UNL     1      -8.789   1.724 -32.223  1.00  0.00     0.020 C 
HETATM   15  C   UNL     1      -7.941   0.469 -32.451  1.00  0.00     0.123 C 
BRANCH  12  16
HETATM   16  C   UNL     1      -6.649   3.851 -33.131  1.00  0.00     0.278 C 
BRANCH  16  17
HETATM   17  N   UNL     1      -6.162   5.087 -33.781  1.00  0.00     0.092 N 
HETATM   18  C   UNL     1      -4.850   4.908 -34.434  1.00  0.00     0.300 C 
HETATM   19  C   UNL     1      -3.649   4.753 -33.474  1.00  0.00     0.264 C 
HETATM   20  N   UNL     1      -3.621   5.877 -32.451  1.00  0.00    -0.072 N 
HETATM   21  C   UNL     1      -2.511   5.701 -31.460  1.00  0.00     0.269 C 
HETATM   22  H   UNL     1      -3.450   6.749 -32.967  1.00  0.00     0.279 HD
HETATM   23  C   UNL     1      -4.964   6.046 -31.753  1.00  0.00     0.264 C 
HETATM   24  C   UNL     1      -6.086   6.193 -32.799  1.00  0.00     0.300 C 
ENDBRANCH  16  17
ENDBRANCH  12  16
ENDBRANCH   1  10
TORSDOF 3
ENDMDL
MODEL 6
REMARK VINA RESULT:      -6.9      2.610      6.398
REMARK  3 active torsions:
REMARK  status: ('A' for Active; 'I' for Inactive)
REMARK    1  A    between atoms: N_6  and  C_7 
REMARK    2  A    between atoms: C_7  and  C_8 
REMARK    3  A    between atoms: N_10  and  C_11 
ROOT
HETATM    1  C   UNL     1      -3.336   4.847 -32.585  1.00  0.00     0.073 A 
HETATM    2  C   UNL     1      -1.942   5.064 -32.438  1.00  0.00     0.062 A 
HETATM    3 CL   UNL     1      -1.086   4.822 -30.954  1.00  0.00    -0.082 Cl
HETATM    4  C   UNL     1      -1.138   5.428 -33.532  1.00  0.00     0.026 A 
HETATM    5  C   UNL     1      -1.679   5.557 -34.805  1.00  0.00     0.003 A 
HETATM    6  C   UNL     1      -3.030   5.311 -34.995  1.00  0.00     0.025 A 
HETATM    7  C   UNL     1      -3.853   4.962 -33.907  1.00  0.00     0.072 A 
HETATM    8  C   UNL     1      -5.240   4.722 -34.202  1.00  0.00     0.102 C 
HETATM    9  N   UNL     1      -6.345   4.496 -34.487  1.00  0.00    -0.191 NA
ENDROOT
BRANCH   1  10
HETATM   10  N   UNL     1      -4.233   4.537 -31.538  1.00  0.00    -0.378 N 
HETATM   11  C   UNL     1      -4.054   3.194 -30.959  1.00  0.00     0.129 C 
HETATM   12  C   UNL     1      -5.367   2.770 -30.255  1.00  0.00     0.032 C 
HETATM   13  C   UNL     1      -5.745   3.823 -29.196  1.00  0.00     0.009 C 
HETATM   14  C   UNL     1      -5.795   5.238 -29.780  1.00  0.00     0.020 C 
HETATM   15  C   UNL     1      -4.500   5.576 -30.525  1.00  0.00     0.123 C 
BRANCH  12  16
HETATM   16  C   UNL     1      -6.479   2.570 -31.311  1.00  0.00     0.278 C 
BRANCH  16  17
HETATM   17  N   UNL     1      -7.373   1.417 -31.070  1.00  0.00     0.092 N 
HETATM   18  C   UNL     1      -6.637   0.193 -30.697  1.00  0.00     0.300 C 
HETATM   19  C   UNL     1      -5.833  -0.468 -31.840  1.00  0.00     0.264 C 
HETATM   20  N   UNL     1      -6.706  -0.687 -33.064  1.00  0.00    -0.072 N 
HETATM   21  C   UNL     1      -5.926  -1.254 -34.212  1.00  0.00     0.269 C 
HETATM   22  H   UNL     1      -7.426  -1.372 -32.802  1.00  0.00     0.279 HD
HETATM   23  C   UNL     1      -7.445   0.581 -33.471  1.00  0.00     0.264 C 
HETATM   24  C   UNL     1      -8.211   1.153 -32.262  1.00  0.00     0.300 C 
ENDBRANCH  16  17
ENDBRANCH  12  16
ENDBRANCH   1  10
TORSDOF 3
ENDMDL
MODEL 7
REMARK VINA RESULT:      -6.9      2.964      5.400
REMARK  3 active torsions:
REMARK  status: ('A' for Active; 'I' for Inactive)
REMARK    1  A    between atoms: N_6  and  C_7 
REMARK    2  A    between atoms: C_7  and  C_8 
REMARK    3  A    between atoms: N_10  and  C_11 
ROOT
HETATM    1  C   UNL     1      -5.499  -0.382 -33.170  1.00  0.00     0.073 A 
HETATM    2  C   UNL     1      -4.448  -1.182 -32.654  1.00  0.00     0.062 A 
HETATM    3 CL   UNL     1      -3.560  -0.792 -31.221  1.00  0.00    -0.082 Cl
HETATM    4  C   UNL     1      -4.102  -2.409 -33.248  1.00  0.00     0.026 A 
HETATM    5  C   UNL     1      -4.802  -2.894 -34.345  1.00  0.00     0.003 A 
HETATM    6  C   UNL     1      -5.863  -2.158 -34.851  1.00  0.00     0.025 A 
HETATM    7  C   UNL     1      -6.211  -0.921 -34.279  1.00  0.00     0.072 A 
HETATM    8  C   UNL     1      -7.329  -0.232 -34.868  1.00  0.00     0.102 C 
HETATM    9  N   UNL     1      -8.260   0.273 -35.346  1.00  0.00    -0.191 NA
ENDROOT
BRANCH   1  10
HETATM   10  N   UNL     1      -5.879   0.887 -32.679  1.00  0.00    -0.378 N 
HETATM   11  C   UNL     1      -6.645   0.851 -31.421  1.00  0.00     0.129 C 
HETATM   12  C   UNL     1      -7.447   2.169 -31.282  1.00  0.00     0.032 C 
HETATM   13  C   UNL     1      -6.483   3.367 -31.350  1.00  0.00     0.009 C 
HETATM   14  C   UNL     1      -5.593   3.323 -32.597  1.00  0.00     0.020 C 
HETATM   15  C   UNL     1      -4.881   1.973 -32.721  1.00  0.00     0.123 C 
BRANCH  12  16
HETATM   16  C   UNL     1      -8.539   2.227 -32.375  1.00  0.00     0.278 C 
BRANCH  16  17
HETATM   17  N   UNL     1      -8.992   3.587 -32.739  1.00  0.00     0.092 N 
HETATM   18  C   UNL     1     -10.155   4.032 -31.946  1.00  0.00     0.300 C 
HETATM   19  C   UNL     1     -11.490   3.328 -32.280  1.00  0.00     0.264 C 
HETATM   20  N   UNL     1     -11.773   3.378 -33.773  1.00  0.00    -0.072 N 
HETATM   21  C   UNL     1     -13.023   2.631 -34.129  1.00  0.00     0.269 C 
HETATM   22  H   UNL     1     -11.913   4.366 -34.020  1.00  0.00     0.279 HD
HETATM   23  C   UNL     1     -10.586   2.892 -34.594  1.00  0.00     0.264 C 
HETATM   24  C   UNL     1      -9.314   3.658 -34.183  1.00  0.00     0.300 C 
ENDBRANCH  16  17
ENDBRANCH  12  16
ENDBRANCH   1  10
TORSDOF 3
ENDMDL
MODEL 8
REMARK VINA RESULT:      -6.9      2.748      4.517
REMARK  3 active torsions:
REMARK  status: ('A' for Active; 'I' for Inactive)
REMARK    1  A    between atoms: N_6  and  C_7 
REMARK    2  A    between atoms: C_7  and  C_8 
REMARK    3  A    between atoms: N_10  and  C_11 
ROOT
HETATM    1  C   UNL     1      -5.216  -0.537 -33.162  1.00  0.00     0.073 A 
HETATM    2  C   UNL     1      -4.360  -1.664 -33.066  1.00  0.00     0.062 A 
HETATM    3 CL   UNL     1      -3.142  -1.843 -31.850  1.00  0.00    -0.082 Cl
HETATM    4  C   UNL     1      -4.499  -2.765 -33.930  1.00  0.00     0.026 A 
HETATM    5  C   UNL     1      -5.504  -2.798 -34.888  1.00  0.00     0.003 A 
HETATM    6  C   UNL     1      -6.386  -1.733 -34.983  1.00  0.00     0.025 A 
HETATM    7  C   UNL     1      -6.250  -0.616 -34.138  1.00  0.00     0.072 A 
HETATM    8  C   UNL     1      -7.215   0.438 -34.305  1.00  0.00     0.102 C 
HETATM    9  N   UNL     1      -8.036   1.250 -34.445  1.00  0.00    -0.191 NA
ENDROOT
BRANCH   1  10
HETATM   10  N   UNL     1      -5.117   0.636 -32.380  1.00  0.00    -0.378 N 
HETATM   11  C   UNL     1      -5.559   0.478 -30.984  1.00  0.00     0.129 C 
HETATM   12  C   UNL     1      -5.921   1.871 -30.411  1.00  0.00     0.032 C 
HETATM   13  C   UNL     1      -4.709   2.811 -30.542  1.00  0.00     0.009 C 
HETATM   14  C   UNL     1      -4.170   2.863 -31.975  1.00  0.00     0.020 C 
HETATM   15  C   UNL     1      -3.897   1.456 -32.515  1.00  0.00     0.123 C 
BRANCH  12  16
HETATM   16  C   UNL     1      -7.174   2.419 -31.133  1.00  0.00     0.278 C 
BRANCH  16  17
HETATM   17  N   UNL     1      -8.203   3.006 -30.249  1.00  0.00     0.092 N 
HETATM   18  C   UNL     1      -9.550   2.988 -30.852  1.00  0.00     0.300 C 
HETATM   19  C   UNL     1      -9.765   3.977 -32.020  1.00  0.00     0.264 C 
HETATM   20  N   UNL     1      -9.342   5.383 -31.627  1.00  0.00    -0.072 N 
HETATM   21  C   UNL     1      -9.467   6.343 -32.772  1.00  0.00     0.269 C 
HETATM   22  H   UNL     1      -9.981   5.692 -30.884  1.00  0.00     0.279 HD
HETATM   23  C   UNL     1      -7.941   5.411 -31.032  1.00  0.00     0.264 C 
HETATM   24  C   UNL     1      -7.839   4.393 -29.879  1.00  0.00     0.300 C 
ENDBRANCH  16  17
ENDBRANCH  12  16
ENDBRANCH   1  10
TORSDOF 3
ENDMDL
MODEL 9
REMARK VINA RESULT:      -6.7      1.511      2.351
REMARK  3 active torsions:
REMARK  status: ('A' for Active; 'I' for Inactive)
REMARK    1  A    between atoms: N_6  and  C_7 
REMARK    2  A    between atoms: C_7  and  C_8 
REMARK    3  A    between atoms: N_10  and  C_11 
ROOT
HETATM    1  C   UNL     1      -5.516  -0.101 -32.900  1.00  0.00     0.073 A 
HETATM    2  C   UNL     1      -4.380  -0.795 -32.412  1.00  0.00     0.062 A 
HETATM    3 CL   UNL     1      -3.492  -0.313 -31.007  1.00  0.00    -0.082 Cl
HETATM    4  C   UNL     1      -3.936  -1.987 -33.011  1.00  0.00     0.026 A 
HETATM    5  C   UNL     1      -4.619  -2.543 -34.085  1.00  0.00     0.003 A 
HETATM    6  C   UNL     1      -5.759  -1.915 -34.562  1.00  0.00     0.025 A 
HETATM    7  C   UNL     1      -6.206  -0.713 -33.985  1.00  0.00     0.072 A 
HETATM    8  C   UNL     1      -7.401  -0.137 -34.544  1.00  0.00     0.102 C 
HETATM    9  N   UNL     1      -8.390   0.274 -34.996  1.00  0.00    -0.191 NA
ENDROOT
BRANCH   1  10
HETATM   10  N   UNL     1      -6.001   1.129 -32.403  1.00  0.00    -0.378 N 
HETATM   11  C   UNL     1      -5.952   2.240 -33.370  1.00  0.00     0.129 C 
HETATM   12  C   UNL     1      -5.972   3.582 -32.596  1.00  0.00     0.032 C 
HETATM   13  C   UNL     1      -7.222   3.638 -31.698  1.00  0.00     0.009 C 
HETATM   14  C   UNL     1      -7.338   2.409 -30.791  1.00  0.00     0.020 C 
HETATM   15  C   UNL     1      -7.239   1.112 -31.600  1.00  0.00     0.123 C 
BRANCH  12  16
HETATM   16  C   UNL     1      -4.661   3.736 -31.792  1.00  0.00     0.278 C 
BRANCH  16  17
HETATM   17  N   UNL     1      -4.211   5.130 -31.585  1.00  0.00     0.092 N 
HETATM   18  C   UNL     1      -4.487   5.996 -32.747  1.00  0.00     0.300 C 
HETATM   19  C   UNL     1      -3.610   5.732 -33.992  1.00  0.00     0.264 C 
HETATM   20  N   UNL     1      -2.134   5.731 -33.628  1.00  0.00    -0.072 N 
HETATM   21  C   UNL     1      -1.269   5.397 -34.806  1.00  0.00     0.269 C 
HETATM   22  H   UNL     1      -1.899   6.684 -33.323  1.00  0.00     0.279 HD
HETATM   23  C   UNL     1      -1.839   4.815 -32.447  1.00  0.00     0.264 C 
HETATM   24  C   UNL     1      -2.765   5.166 -31.266  1.00  0.00     0.300 C 
ENDBRANCH  16  17
ENDBRANCH  12  16
ENDBRANCH   1  10
TORSDOF 3
ENDMDL
MODEL 10
REMARK VINA RESULT:      -6.5      3.818      6.614
REMARK  3 active torsions:
REMARK  status: ('A' for Active; 'I' for Inactive)
REMARK    1  A    between atoms: N_6  and  C_7 
REMARK    2  A    between atoms: C_7  and  C_8 
REMARK    3  A    between atoms: N_10  and  C_11 
ROOT
HETATM    1  C   UNL     1      -3.458   5.041 -32.548  1.00  0.00     0.073 A 
HETATM    2  C   UNL     1      -2.045   5.119 -32.465  1.00  0.00     0.062 A 
HETATM    3 CL   UNL     1      -1.157   4.902 -30.996  1.00  0.00    -0.082 Cl
HETATM    4  C   UNL     1      -1.253   5.312 -33.611  1.00  0.00     0.026 A 
HETATM    5  C   UNL     1      -1.831   5.400 -34.871  1.00  0.00     0.003 A 
HETATM    6  C   UNL     1      -3.206   5.285 -34.995  1.00  0.00     0.025 A 
HETATM    7  C   UNL     1      -4.015   5.110 -33.857  1.00  0.00     0.072 A 
HETATM    8  C   UNL     1      -5.431   4.996 -34.085  1.00  0.00     0.102 C 
HETATM    9  N   UNL     1      -6.564   4.869 -34.314  1.00  0.00    -0.191 NA
ENDROOT
BRANCH   1  10
HETATM   10  N   UNL     1      -4.338   4.909 -31.450  1.00  0.00    -0.378 N 
HETATM   11  C   UNL     1      -4.365   3.564 -30.848  1.00  0.00     0.129 C 
HETATM   12  C   UNL     1      -5.692   3.388 -30.069  1.00  0.00     0.032 C 
HETATM   13  C   UNL     1      -5.824   4.507 -29.019  1.00  0.00     0.009 C 
HETATM   14  C   UNL     1      -5.658   5.900 -29.634  1.00  0.00     0.020 C 
HETATM   15  C   UNL     1      -4.366   5.994 -30.451  1.00  0.00     0.123 C 
BRANCH  12  16
HETATM   16  C   UNL     1      -6.877   3.369 -31.062  1.00  0.00     0.278 C 
BRANCH  16  17
HETATM   17  N   UNL     1      -8.090   2.674 -30.581  1.00  0.00     0.092 N 
HETATM   18  C   UNL     1      -8.453   1.515 -31.418  1.00  0.00     0.300 C 
HETATM   19  C   UNL     1      -9.015   1.860 -32.816  1.00  0.00     0.264 C 
HETATM   20  N   UNL     1     -10.156   2.860 -32.712  1.00  0.00    -0.072 N 
HETATM   21  C   UNL     1     -10.662   3.270 -34.063  1.00  0.00     0.269 C 
HETATM   22  H   UNL     1     -10.923   2.390 -32.215  1.00  0.00     0.279 HD
HETATM   23  C   UNL     1      -9.775   4.072 -31.873  1.00  0.00     0.264 C 
HETATM   24  C   UNL     1      -9.231   3.615 -30.506  1.00  0.00     0.300 C 
ENDBRANCH  16  17
ENDBRANCH  12  16
ENDBRANCH   1  10
TORSDOF 3
ENDMDL
