MODEL 1
REMARK VINA RESULT:      -9.1      0.000      0.000
REMARK  12 active torsions:
REMARK  status: ('A' for Active; 'I' for Inactive)
REMARK    1  A    between atoms: C_3  and  O_4 
REMARK    2  A    between atoms: C_8  and  C_9 
REMARK       I    between atoms: C_9  and  N_10 
REMARK    3  A    between atoms: N_10  and  C_11 
REMARK    4  A    between atoms: C_11  and  C_33 
REMARK    5  A    between atoms: C_11  and  C_12 
REMARK    6  A    between atoms: C_12  and  O_13 
REMARK    7  A    between atoms: C_12  and  C_14 
REMARK    8  A    between atoms: C_14  and  N_15 
REMARK    9  A    between atoms: C_17  and  C_18 
REMARK       I    between atoms: C_18  and  N_19 
REMARK   10  A    between atoms: N_19  and  C_20 
REMARK   11  A    between atoms: C_33  and  S_34 
REMARK   12  A    between atoms: S_34  and  C_35 
ROOT
HETATM    1  C   UNL     1      -6.159   1.940 -30.671  1.00  0.00     0.167 C 
ENDROOT
BRANCH   1   2
HETATM    2  C   UNL     1      -5.028   1.530 -31.670  1.00  0.00     0.124 C 
BRANCH   2   3
HETATM    3  N   UNL     1      -3.925   2.508 -31.629  1.00  0.00    -0.349 N 
HETATM    4  C   UNL     1      -4.013   3.718 -32.286  1.00  0.00     0.252 C 
HETATM    5  O   UNL     1      -5.041   4.089 -32.841  1.00  0.00    -0.268 OA
HETATM    6  H   UNL     1      -3.009   2.209 -31.306  1.00  0.00     0.163 HD
BRANCH   4   7
HETATM    7  C   UNL     1      -2.780   4.548 -32.280  1.00  0.00     0.040 A 
HETATM    8  C   UNL     1      -2.410   5.319 -33.404  1.00  0.00    -0.013 A 
HETATM    9  C   UNL     1      -3.222   5.294 -34.671  1.00  0.00     0.052 C 
HETATM   10  C   UNL     1      -1.265   6.122 -33.287  1.00  0.00     0.072 A 
HETATM   11  C   UNL     1      -0.485   6.119 -32.131  1.00  0.00     0.037 A 
HETATM   12  C   UNL     1      -0.851   5.338 -31.039  1.00  0.00     0.004 A 
HETATM   13  C   UNL     1      -2.004   4.561 -31.107  1.00  0.00     0.018 A 
BRANCH  10  14
HETATM   14  O   UNL     1      -0.831   6.953 -34.280  1.00  0.00    -0.360 OA
HETATM   15  H   UNL     1      -1.571   7.200 -34.857  1.00  0.00     0.217 HD
ENDBRANCH  10  14
ENDBRANCH   4   7
ENDBRANCH   2   3
BRANCH   2  16
HETATM   16  C   UNL     1      -4.454   0.120 -31.460  1.00  0.00     0.107 C 
BRANCH  16  17
HETATM   17  S   UNL     1      -3.419  -0.417 -32.865  1.00  0.00    -0.128 SA
BRANCH  17  18
HETATM   18  C   UNL     1      -4.571  -1.554 -33.616  1.00  0.00     0.000 A 
HETATM   19  C   UNL     1      -4.175  -2.866 -33.889  1.00  0.00     0.018 A 
HETATM   20  C   UNL     1      -5.063  -3.754 -34.498  1.00  0.00     0.001 A 
HETATM   21  C   UNL     1      -6.352  -3.336 -34.830  1.00  0.00     0.000 A 
HETATM   22  C   UNL     1      -6.756  -2.033 -34.548  1.00  0.00     0.001 A 
HETATM   23  C   UNL     1      -5.868  -1.144 -33.938  1.00  0.00     0.018 A 
ENDBRANCH  17  18
ENDBRANCH  16  17
ENDBRANCH   2  16
ENDBRANCH   1   2
BRANCH   1  24
HETATM   24  O   UNL     1      -6.228   1.165 -29.460  1.00  0.00    -0.392 OA
HETATM   25  H   UNL     1      -6.032   0.227 -29.677  1.00  0.00     0.210 HD
ENDBRANCH   1  24
BRANCH   1  26
HETATM   26  C   UNL     1      -7.561   1.908 -31.320  1.00  0.00     0.269 C 
BRANCH  26  27
HETATM   27  N   UNL     1      -7.568   2.884 -32.504  1.00  0.00    -0.055 N 
HETATM   28  H   UNL     1      -6.641   3.339 -32.380  1.00  0.00     0.281 HD
HETATM   29  C   UNL     1      -8.567   4.046 -32.423  1.00  0.00     0.279 C 
HETATM   30  C   UNL     1      -9.965   3.480 -32.658  1.00  0.00     0.048 C 
HETATM   31  C   UNL     1     -10.056   2.835 -34.052  1.00  0.00    -0.006 C 
HETATM   32  C   UNL     1      -8.951   1.799 -34.333  1.00  0.00     0.016 C 
HETATM   33  C   UNL     1     -11.437   2.235 -34.330  1.00  0.00     0.005 C 
HETATM   34  C   UNL     1      -7.556   2.246 -33.860  1.00  0.00     0.241 C 
HETATM   35  C   UNL     1      -9.326   0.355 -33.934  1.00  0.00     0.007 C 
HETATM   36  C   UNL     1     -10.536   0.226 -33.014  1.00  0.00     0.000 C 
HETATM   37  C   UNL     1     -11.759   1.001 -33.494  1.00  0.00     0.000 C 
BRANCH  29  38
HETATM   38  C   UNL     1      -8.362   4.901 -31.147  1.00  0.00     0.249 C 
HETATM   39  N   UNL     1      -7.102   5.419 -30.947  1.00  0.00    -0.351 N 
HETATM   40  H   UNL     1      -6.340   5.053 -31.505  1.00  0.00     0.163 HD
HETATM   41  O   UNL     1      -9.301   5.036 -30.361  1.00  0.00    -0.271 OA
BRANCH  39  42
HETATM   42  C   UNL     1      -6.662   6.150 -29.740  1.00  0.00     0.022 C 
HETATM   43  C   UNL     1      -6.964   5.319 -28.486  1.00  0.00     0.037 C 
HETATM   44  C   UNL     1      -5.139   6.354 -29.846  1.00  0.00     0.037 C 
HETATM   45  C   UNL     1      -7.321   7.534 -29.632  1.00  0.00     0.037 C 
ENDBRANCH  39  42
ENDBRANCH  29  38
ENDBRANCH  26  27
ENDBRANCH   1  26
TORSDOF 12
ENDMDL
MODEL 2
REMARK VINA RESULT:      -9.0      1.278      1.603
REMARK  12 active torsions:
REMARK  status: ('A' for Active; 'I' for Inactive)
REMARK    1  A    between atoms: C_3  and  O_4 
REMARK    2  A    between atoms: C_8  and  C_9 
REMARK       I    between atoms: C_9  and  N_10 
REMARK    3  A    between atoms: N_10  and  C_11 
REMARK    4  A    between atoms: C_11  and  C_33 
REMARK    5  A    between atoms: C_11  and  C_12 
REMARK    6  A    between atoms: C_12  and  O_13 
REMARK    7  A    between atoms: C_12  and  C_14 
REMARK    8  A    between atoms: C_14  and  N_15 
REMARK    9  A    between atoms: C_17  and  C_18 
REMARK       I    between atoms: C_18  and  N_19 
REMARK   10  A    between atoms: N_19  and  C_20 
REMARK   11  A    between atoms: C_33  and  S_34 
REMARK   12  A    between atoms: S_34  and  C_35 
ROOT
HETATM    1  C   UNL     1      -7.136   1.736 -31.751  1.00  0.00     0.167 C 
ENDROOT
BRANCH   1   2
HETATM    2  C   UNL     1      -6.121   1.529 -32.923  1.00  0.00     0.124 C 
BRANCH   2   3
HETATM    3  N   UNL     1      -4.895   2.315 -32.689  1.00  0.00    -0.349 N 
HETATM    4  C   UNL     1      -4.834   3.658 -32.995  1.00  0.00     0.252 C 
HETATM    5  O   UNL     1      -5.814   4.290 -33.372  1.00  0.00    -0.268 OA
HETATM    6  H   UNL     1      -4.021   1.828 -32.509  1.00  0.00     0.163 HD
BRANCH   4   7
HETATM    7  C   UNL     1      -3.500   4.296 -32.841  1.00  0.00     0.040 A 
HETATM    8  C   UNL     1      -2.933   5.068 -33.880  1.00  0.00    -0.013 A 
HETATM    9  C   UNL     1      -3.632   5.234 -35.202  1.00  0.00     0.052 C 
HETATM   10  C   UNL     1      -1.699   5.685 -33.624  1.00  0.00     0.072 A 
HETATM   11  C   UNL     1      -1.026   5.501 -32.415  1.00  0.00     0.037 A 
HETATM   12  C   UNL     1      -1.589   4.722 -31.410  1.00  0.00     0.004 A 
HETATM   13  C   UNL     1      -2.830   4.128 -31.617  1.00  0.00     0.018 A 
BRANCH  10  14
HETATM   14  O   UNL     1      -1.070   6.499 -34.522  1.00  0.00    -0.360 OA
HETATM   15  H   UNL     1      -0.608   5.966 -35.189  1.00  0.00     0.217 HD
ENDBRANCH  10  14
ENDBRANCH   4   7
ENDBRANCH   2   3
BRANCH   2  16
HETATM   16  C   UNL     1      -5.732   0.066 -33.197  1.00  0.00     0.107 C 
BRANCH  16  17
HETATM   17  S   UNL     1      -6.848  -0.726 -34.406  1.00  0.00    -0.128 SA
BRANCH  17  18
HETATM   18  C   UNL     1      -6.096  -2.344 -34.432  1.00  0.00     0.000 A 
HETATM   19  C   UNL     1      -4.770  -2.501 -34.019  1.00  0.00     0.018 A 
HETATM   20  C   UNL     1      -4.169  -3.760 -34.060  1.00  0.00     0.001 A 
HETATM   21  C   UNL     1      -4.890  -4.866 -34.507  1.00  0.00     0.000 A 
HETATM   22  C   UNL     1      -6.217  -4.717 -34.907  1.00  0.00     0.001 A 
HETATM   23  C   UNL     1      -6.820  -3.458 -34.866  1.00  0.00     0.018 A 
ENDBRANCH  17  18
ENDBRANCH  16  17
ENDBRANCH   2  16
ENDBRANCH   1   2
BRANCH   1  24
HETATM   24  O   UNL     1      -7.166   0.688 -30.765  1.00  0.00    -0.392 OA
HETATM   25  H   UNL     1      -6.519  -0.005 -31.023  1.00  0.00     0.210 HD
ENDBRANCH   1  24
BRANCH   1  26
HETATM   26  C   UNL     1      -8.583   1.940 -32.252  1.00  0.00     0.269 C 
BRANCH  26  27
HETATM   27  N   UNL     1      -8.633   3.241 -33.065  1.00  0.00    -0.055 N 
HETATM   28  H   UNL     1      -7.622   3.484 -33.097  1.00  0.00     0.281 HD
HETATM   29  C   UNL     1      -9.285   4.449 -32.378  1.00  0.00     0.279 C 
HETATM   30  C   UNL     1     -10.791   4.211 -32.341  1.00  0.00     0.048 C 
HETATM   31  C   UNL     1     -11.351   4.082 -33.768  1.00  0.00    -0.006 C 
HETATM   32  C   UNL     1     -10.616   3.041 -34.635  1.00  0.00     0.016 C 
HETATM   33  C   UNL     1     -12.860   3.824 -33.785  1.00  0.00     0.005 C 
HETATM   34  C   UNL     1      -9.085   3.091 -34.486  1.00  0.00     0.241 C 
HETATM   35  C   UNL     1     -11.218   1.622 -34.558  1.00  0.00     0.007 C 
HETATM   36  C   UNL     1     -12.178   1.382 -33.397  1.00  0.00     0.000 C 
HETATM   37  C   UNL     1     -13.261   2.447 -33.265  1.00  0.00     0.000 C 
BRANCH  29  38
HETATM   38  C   UNL     1      -8.596   4.795 -31.034  1.00  0.00     0.249 C 
HETATM   39  N   UNL     1      -7.360   5.396 -31.112  1.00  0.00    -0.351 N 
HETATM   40  H   UNL     1      -6.878   5.388 -32.002  1.00  0.00     0.163 HD
HETATM   41  O   UNL     1      -9.150   4.481 -29.981  1.00  0.00    -0.271 OA
BRANCH  39  42
HETATM   42  C   UNL     1      -6.481   5.692 -29.959  1.00  0.00     0.022 C 
HETATM   43  C   UNL     1      -5.873   4.391 -29.418  1.00  0.00     0.037 C 
HETATM   44  C   UNL     1      -5.343   6.601 -30.461  1.00  0.00     0.037 C 
HETATM   45  C   UNL     1      -7.227   6.436 -28.841  1.00  0.00     0.037 C 
ENDBRANCH  39  42
ENDBRANCH  29  38
ENDBRANCH  26  27
ENDBRANCH   1  26
TORSDOF 12
ENDMDL
MODEL 3
REMARK VINA RESULT:      -8.9      1.933      5.830
REMARK  12 active torsions:
REMARK  status: ('A' for Active; 'I' for Inactive)
REMARK    1  A    between atoms: C_3  and  O_4 
REMARK    2  A    between atoms: C_8  and  C_9 
REMARK       I    between atoms: C_9  and  N_10 
REMARK    3  A    between atoms: N_10  and  C_11 
REMARK    4  A    between atoms: C_11  and  C_33 
REMARK    5  A    between atoms: C_11  and  C_12 
REMARK    6  A    between atoms: C_12  and  O_13 
REMARK    7  A    between atoms: C_12  and  C_14 
REMARK    8  A    between atoms: C_14  and  N_15 
REMARK    9  A    between atoms: C_17  and  C_18 
REMARK       I    between atoms: C_18  and  N_19 
REMARK   10  A    between atoms: N_19  and  C_20 
REMARK   11  A    between atoms: C_33  and  S_34 
REMARK   12  A    between atoms: S_34  and  C_35 
ROOT
HETATM    1  C   UNL     1      -5.776   1.665 -30.411  1.00  0.00     0.167 C 
ENDROOT
BRANCH   1   2
HETATM    2  C   UNL     1      -4.550   1.001 -31.121  1.00  0.00     0.124 C 
BRANCH   2   3
HETATM    3  N   UNL     1      -4.991  -0.123 -31.967  1.00  0.00    -0.349 N 
HETATM    4  C   UNL     1      -4.092  -1.043 -32.464  1.00  0.00     0.252 C 
HETATM    5  O   UNL     1      -2.909  -1.042 -32.146  1.00  0.00    -0.268 OA
HETATM    6  H   UNL     1      -5.923  -0.103 -32.372  1.00  0.00     0.163 HD
BRANCH   4   7
HETATM    7  C   UNL     1      -4.648  -2.042 -33.416  1.00  0.00     0.040 A 
HETATM    8  C   UNL     1      -4.215  -3.386 -33.404  1.00  0.00    -0.013 A 
HETATM    9  C   UNL     1      -3.137  -3.852 -32.462  1.00  0.00     0.052 C 
HETATM   10  C   UNL     1      -4.839  -4.272 -34.293  1.00  0.00     0.072 A 
HETATM   11  C   UNL     1      -5.809  -3.839 -35.198  1.00  0.00     0.037 A 
HETATM   12  C   UNL     1      -6.211  -2.507 -35.211  1.00  0.00     0.004 A 
HETATM   13  C   UNL     1      -5.640  -1.610 -34.314  1.00  0.00     0.018 A 
BRANCH  10  14
HETATM   14  O   UNL     1      -4.551  -5.606 -34.345  1.00  0.00    -0.360 OA
HETATM   15  H   UNL     1      -3.591  -5.743 -34.298  1.00  0.00     0.217 HD
ENDBRANCH  10  14
ENDBRANCH   4   7
ENDBRANCH   2   3
BRANCH   2  16
HETATM   16  C   UNL     1      -3.691   1.956 -31.966  1.00  0.00     0.107 C 
BRANCH  16  17
HETATM   17  S   UNL     1      -3.651   3.643 -31.267  1.00  0.00    -0.128 SA
BRANCH  17  18
HETATM   18  C   UNL     1      -2.828   4.465 -32.620  1.00  0.00     0.000 A 
HETATM   19  C   UNL     1      -3.486   4.621 -33.843  1.00  0.00     0.018 A 
HETATM   20  C   UNL     1      -2.839   5.242 -34.913  1.00  0.00     0.001 A 
HETATM   21  C   UNL     1      -1.535   5.714 -34.763  1.00  0.00     0.000 A 
HETATM   22  C   UNL     1      -0.880   5.574 -33.541  1.00  0.00     0.001 A 
HETATM   23  C   UNL     1      -1.526   4.953 -32.470  1.00  0.00     0.018 A 
ENDBRANCH  17  18
ENDBRANCH  16  17
ENDBRANCH   2  16
ENDBRANCH   1   2
BRANCH   1  24
HETATM   24  O   UNL     1      -6.054   1.190 -29.081  1.00  0.00    -0.392 OA
HETATM   25  H   UNL     1      -6.312   1.956 -28.522  1.00  0.00     0.210 HD
ENDBRANCH   1  24
BRANCH   1  26
HETATM   26  C   UNL     1      -7.078   1.530 -31.232  1.00  0.00     0.269 C 
BRANCH  26  27
HETATM   27  N   UNL     1      -7.059   2.587 -32.344  1.00  0.00    -0.055 N 
HETATM   28  H   UNL     1      -6.126   3.018 -32.181  1.00  0.00     0.281 HD
HETATM   29  C   UNL     1      -8.042   3.755 -32.190  1.00  0.00     0.279 C 
HETATM   30  C   UNL     1      -9.445   3.230 -32.475  1.00  0.00     0.048 C 
HETATM   31  C   UNL     1      -9.533   2.686 -33.912  1.00  0.00    -0.006 C 
HETATM   32  C   UNL     1      -8.441   1.654 -34.256  1.00  0.00     0.016 C 
HETATM   33  C   UNL     1     -10.920   2.128 -34.243  1.00  0.00     0.005 C 
HETATM   34  C   UNL     1      -7.045   2.046 -33.742  1.00  0.00     0.241 C 
HETATM   35  C   UNL     1      -8.842   0.193 -33.963  1.00  0.00     0.007 C 
HETATM   36  C   UNL     1     -10.062   0.018 -33.065  1.00  0.00     0.000 C 
HETATM   37  C   UNL     1     -11.268   0.843 -33.498  1.00  0.00     0.000 C 
BRANCH  29  38
HETATM   38  C   UNL     1      -7.836   4.516 -30.855  1.00  0.00     0.249 C 
HETATM   39  N   UNL     1      -6.824   5.449 -30.827  1.00  0.00    -0.351 N 
HETATM   40  H   UNL     1      -6.146   5.443 -31.579  1.00  0.00     0.163 HD
HETATM   41  O   UNL     1      -8.538   4.224 -29.887  1.00  0.00    -0.271 OA
BRANCH  39  42
HETATM   42  C   UNL     1      -6.379   6.188 -29.626  1.00  0.00     0.022 C 
HETATM   43  C   UNL     1      -7.539   7.022 -29.066  1.00  0.00     0.037 C 
HETATM   44  C   UNL     1      -5.957   5.151 -28.569  1.00  0.00     0.037 C 
HETATM   45  C   UNL     1      -5.169   7.089 -29.918  1.00  0.00     0.037 C 
ENDBRANCH  39  42
ENDBRANCH  29  38
ENDBRANCH  26  27
ENDBRANCH   1  26
TORSDOF 12
ENDMDL
MODEL 4
REMARK VINA RESULT:      -8.8      1.983      6.301
REMARK  12 active torsions:
REMARK  status: ('A' for Active; 'I' for Inactive)
REMARK    1  A    between atoms: C_3  and  O_4 
REMARK    2  A    between atoms: C_8  and  C_9 
REMARK       I    between atoms: C_9  and  N_10 
REMARK    3  A    between atoms: N_10  and  C_11 
REMARK    4  A    between atoms: C_11  and  C_33 
REMARK    5  A    between atoms: C_11  and  C_12 
REMARK    6  A    between atoms: C_12  and  O_13 
REMARK    7  A    between atoms: C_12  and  C_14 
REMARK    8  A    between atoms: C_14  and  N_15 
REMARK    9  A    between atoms: C_17  and  C_18 
REMARK       I    between atoms: C_18  and  N_19 
REMARK   10  A    between atoms: N_19  and  C_20 
REMARK   11  A    between atoms: C_33  and  S_34 
REMARK   12  A    between atoms: S_34  and  C_35 
ROOT
HETATM    1  C   UNL     1      -3.904   2.579 -31.795  1.00  0.00     0.167 C 
ENDROOT
BRANCH   1   2
HETATM    2  C   UNL     1      -4.900   1.403 -32.058  1.00  0.00     0.124 C 
BRANCH   2   3
HETATM    3  N   UNL     1      -6.250   1.925 -32.343  1.00  0.00    -0.349 N 
HETATM    4  C   UNL     1      -7.381   1.212 -32.008  1.00  0.00     0.252 C 
HETATM    5  O   UNL     1      -7.333   0.170 -31.365  1.00  0.00    -0.268 OA
HETATM    6  H   UNL     1      -6.354   2.706 -32.986  1.00  0.00     0.163 HD
BRANCH   4   7
HETATM    7  C   UNL     1      -8.670   1.786 -32.477  1.00  0.00     0.040 A 
HETATM    8  C   UNL     1      -9.214   1.435 -33.733  1.00  0.00    -0.013 A 
HETATM    9  C   UNL     1      -8.489   0.507 -34.668  1.00  0.00     0.052 C 
HETATM   10  C   UNL     1     -10.465   1.976 -34.066  1.00  0.00     0.072 A 
HETATM   11  C   UNL     1     -11.125   2.870 -33.222  1.00  0.00     0.037 A 
HETATM   12  C   UNL     1     -10.565   3.221 -31.998  1.00  0.00     0.004 A 
HETATM   13  C   UNL     1      -9.345   2.671 -31.618  1.00  0.00     0.018 A 
BRANCH  10  14
HETATM   14  O   UNL     1     -11.124   1.676 -35.224  1.00  0.00    -0.360 OA
HETATM   15  H   UNL     1     -11.642   0.863 -35.113  1.00  0.00     0.217 HD
ENDBRANCH  10  14
ENDBRANCH   4   7
ENDBRANCH   2   3
BRANCH   2  16
HETATM   16  C   UNL     1      -4.488   0.440 -33.184  1.00  0.00     0.107 C 
BRANCH  16  17
HETATM   17  S   UNL     1      -3.722  -1.085 -32.535  1.00  0.00    -0.128 SA
BRANCH  17  18
HETATM   18  C   UNL     1      -4.655  -2.270 -33.489  1.00  0.00     0.000 A 
HETATM   19  C   UNL     1      -5.928  -1.936 -33.960  1.00  0.00     0.018 A 
HETATM   20  C   UNL     1      -6.673  -2.867 -34.687  1.00  0.00     0.001 A 
HETATM   21  C   UNL     1      -6.146  -4.131 -34.951  1.00  0.00     0.000 A 
HETATM   22  C   UNL     1      -4.872  -4.464 -34.496  1.00  0.00     0.001 A 
HETATM   23  C   UNL     1      -4.126  -3.533 -33.769  1.00  0.00     0.018 A 
ENDBRANCH  17  18
ENDBRANCH  16  17
ENDBRANCH   2  16
ENDBRANCH   1   2
BRANCH   1  24
HETATM   24  O   UNL     1      -2.644   2.206 -31.206  1.00  0.00    -0.392 OA
HETATM   25  H   UNL     1      -2.691   1.260 -30.940  1.00  0.00     0.210 HD
ENDBRANCH   1  24
BRANCH   1  26
HETATM   26  C   UNL     1      -4.517   3.687 -30.909  1.00  0.00     0.269 C 
BRANCH  26  27
HETATM   27  N   UNL     1      -4.642   4.964 -31.750  1.00  0.00    -0.055 N 
HETATM   28  H   UNL     1      -4.193   4.654 -32.636  1.00  0.00     0.281 HD
HETATM   29  C   UNL     1      -3.794   6.161 -31.302  1.00  0.00     0.279 C 
HETATM   30  C   UNL     1      -4.418   6.730 -30.031  1.00  0.00     0.048 C 
HETATM   31  C   UNL     1      -5.855   7.207 -30.306  1.00  0.00    -0.006 C 
HETATM   32  C   UNL     1      -6.749   6.143 -30.972  1.00  0.00     0.016 C 
HETATM   33  C   UNL     1      -6.535   7.771 -29.055  1.00  0.00     0.005 C 
HETATM   34  C   UNL     1      -6.044   5.367 -32.098  1.00  0.00     0.241 C 
HETATM   35  C   UNL     1      -7.521   5.255 -29.972  1.00  0.00     0.007 C 
HETATM   36  C   UNL     1      -7.021   5.308 -28.532  1.00  0.00     0.000 C 
HETATM   37  C   UNL     1      -6.849   6.723 -27.992  1.00  0.00     0.000 C 
BRANCH  29  38
HETATM   38  C   UNL     1      -2.284   5.816 -31.247  1.00  0.00     0.249 C 
HETATM   39  N   UNL     1      -1.551   6.413 -30.246  1.00  0.00    -0.351 N 
HETATM   40  H   UNL     1      -1.967   7.188 -29.744  1.00  0.00     0.163 HD
HETATM   41  O   UNL     1      -1.808   5.079 -32.110  1.00  0.00    -0.271 OA
BRANCH  39  42
HETATM   42  C   UNL     1      -0.083   6.321 -30.093  1.00  0.00     0.022 C 
HETATM   43  C   UNL     1       0.609   6.852 -31.356  1.00  0.00     0.037 C 
HETATM   44  C   UNL     1       0.318   7.205 -28.897  1.00  0.00     0.037 C 
HETATM   45  C   UNL     1       0.377   4.885 -29.798  1.00  0.00     0.037 C 
ENDBRANCH  39  42
ENDBRANCH  29  38
ENDBRANCH  26  27
ENDBRANCH   1  26
TORSDOF 12
ENDMDL
MODEL 5
REMARK VINA RESULT:      -8.7      2.441      6.632
REMARK  12 active torsions:
REMARK  status: ('A' for Active; 'I' for Inactive)
REMARK    1  A    between atoms: C_3  and  O_4 
REMARK    2  A    between atoms: C_8  and  C_9 
REMARK       I    between atoms: C_9  and  N_10 
REMARK    3  A    between atoms: N_10  and  C_11 
REMARK    4  A    between atoms: C_11  and  C_33 
REMARK    5  A    between atoms: C_11  and  C_12 
REMARK    6  A    between atoms: C_12  and  O_13 
REMARK    7  A    between atoms: C_12  and  C_14 
REMARK    8  A    between atoms: C_14  and  N_15 
REMARK    9  A    between atoms: C_17  and  C_18 
REMARK       I    between atoms: C_18  and  N_19 
REMARK   10  A    between atoms: N_19  and  C_20 
REMARK   11  A    between atoms: C_33  and  S_34 
REMARK   12  A    between atoms: S_34  and  C_35 
ROOT
HETATM    1  C   UNL     1      -6.145   2.454 -32.818  1.00  0.00     0.167 C 
ENDROOT
BRANCH   1   2
HETATM    2  C   UNL     1      -7.265   1.446 -33.239  1.00  0.00     0.124 C 
BRANCH   2   3
HETATM    3  N   UNL     1      -6.715   0.082 -33.352  1.00  0.00    -0.349 N 
HETATM    4  C   UNL     1      -6.535  -0.520 -34.580  1.00  0.00     0.252 C 
HETATM    5  O   UNL     1      -6.717   0.076 -35.635  1.00  0.00    -0.268 OA
HETATM    6  H   UNL     1      -6.673  -0.506 -32.524  1.00  0.00     0.163 HD
BRANCH   4   7
HETATM    7  C   UNL     1      -6.107  -1.943 -34.545  1.00  0.00     0.040 A 
HETATM    8  C   UNL     1      -4.835  -2.314 -34.055  1.00  0.00    -0.013 A 
HETATM    9  C   UNL     1      -3.843  -1.281 -33.595  1.00  0.00     0.052 C 
HETATM   10  C   UNL     1      -4.540  -3.684 -34.001  1.00  0.00     0.072 A 
HETATM   11  C   UNL     1      -5.438  -4.645 -34.465  1.00  0.00     0.037 A 
HETATM   12  C   UNL     1      -6.679  -4.262 -34.964  1.00  0.00     0.004 A 
HETATM   13  C   UNL     1      -7.020  -2.914 -34.994  1.00  0.00     0.018 A 
BRANCH  10  14
HETATM   14  O   UNL     1      -3.368  -4.177 -33.500  1.00  0.00    -0.360 OA
HETATM   15  H   UNL     1      -3.136  -3.717 -32.679  1.00  0.00     0.217 HD
ENDBRANCH  10  14
ENDBRANCH   4   7
ENDBRANCH   2   3
BRANCH   2  16
HETATM   16  C   UNL     1      -8.493   1.415 -32.313  1.00  0.00     0.107 C 
BRANCH  16  17
HETATM   17  S   UNL     1      -9.608   0.021 -32.700  1.00  0.00    -0.128 SA
BRANCH  17  18
HETATM   18  C   UNL     1     -10.857   0.929 -33.594  1.00  0.00     0.000 A 
HETATM   19  C   UNL     1     -10.514   2.106 -34.266  1.00  0.00     0.018 A 
HETATM   20  C   UNL     1     -11.492   2.833 -34.948  1.00  0.00     0.001 A 
HETATM   21  C   UNL     1     -12.812   2.386 -34.966  1.00  0.00     0.000 A 
HETATM   22  C   UNL     1     -13.156   1.206 -34.309  1.00  0.00     0.001 A 
HETATM   23  C   UNL     1     -12.179   0.477 -33.627  1.00  0.00     0.018 A 
ENDBRANCH  17  18
ENDBRANCH  16  17
ENDBRANCH   2  16
ENDBRANCH   1   2
BRANCH   1  24
HETATM   24  O   UNL     1      -5.124   1.921 -31.955  1.00  0.00    -0.392 OA
HETATM   25  H   UNL     1      -5.043   0.956 -32.123  1.00  0.00     0.210 HD
ENDBRANCH   1  24
BRANCH   1  26
HETATM   26  C   UNL     1      -6.713   3.718 -32.135  1.00  0.00     0.269 C 
BRANCH  26  27
HETATM   27  N   UNL     1      -6.864   4.814 -33.199  1.00  0.00    -0.055 N 
HETATM   28  H   UNL     1      -6.252   4.436 -33.950  1.00  0.00     0.281 HD
HETATM   29  C   UNL     1      -6.244   6.177 -32.864  1.00  0.00     0.279 C 
HETATM   30  C   UNL     1      -7.117   6.843 -31.805  1.00  0.00     0.048 C 
HETATM   31  C   UNL     1      -8.543   7.058 -32.342  1.00  0.00    -0.006 C 
HETATM   32  C   UNL     1      -9.191   5.784 -32.918  1.00  0.00     0.016 C 
HETATM   33  C   UNL     1      -9.467   7.708 -31.308  1.00  0.00     0.005 C 
HETATM   34  C   UNL     1      -8.235   4.950 -33.789  1.00  0.00     0.241 C 
HETATM   35  C   UNL     1      -9.992   4.963 -31.884  1.00  0.00     0.007 C 
HETATM   36  C   UNL     1      -9.725   5.314 -30.424  1.00  0.00     0.000 C 
HETATM   37  C   UNL     1      -9.809   6.807 -30.126  1.00  0.00     0.000 C 
BRANCH  29  38
HETATM   38  C   UNL     1      -4.730   6.067 -32.556  1.00  0.00     0.249 C 
HETATM   39  N   UNL     1      -3.903   5.783 -33.619  1.00  0.00    -0.351 N 
HETATM   40  H   UNL     1      -4.324   5.455 -34.480  1.00  0.00     0.163 HD
HETATM   41  O   UNL     1      -4.346   6.188 -31.392  1.00  0.00    -0.271 OA
BRANCH  39  42
HETATM   42  C   UNL     1      -2.452   5.510 -33.523  1.00  0.00     0.022 C 
HETATM   43  C   UNL     1      -2.199   4.364 -32.535  1.00  0.00     0.037 C 
HETATM   44  C   UNL     1      -1.964   5.080 -34.919  1.00  0.00     0.037 C 
HETATM   45  C   UNL     1      -1.658   6.758 -33.105  1.00  0.00     0.037 C 
ENDBRANCH  39  42
ENDBRANCH  29  38
ENDBRANCH  26  27
ENDBRANCH   1  26
TORSDOF 12
ENDMDL
MODEL 6
REMARK VINA RESULT:      -8.7      2.827      8.073
REMARK  12 active torsions:
REMARK  status: ('A' for Active; 'I' for Inactive)
REMARK    1  A    between atoms: C_3  and  O_4 
REMARK    2  A    between atoms: C_8  and  C_9 
REMARK       I    between atoms: C_9  and  N_10 
REMARK    3  A    between atoms: N_10  and  C_11 
REMARK    4  A    between atoms: C_11  and  C_33 
REMARK    5  A    between atoms: C_11  and  C_12 
REMARK    6  A    between atoms: C_12  and  O_13 
REMARK    7  A    between atoms: C_12  and  C_14 
REMARK    8  A    between atoms: C_14  and  N_15 
REMARK    9  A    between atoms: C_17  and  C_18 
REMARK       I    between atoms: C_18  and  N_19 
REMARK   10  A    between atoms: N_19  and  C_20 
REMARK   11  A    between atoms: C_33  and  S_34 
REMARK   12  A    between atoms: S_34  and  C_35 
ROOT
HETATM    1  C   UNL     1      -7.098   3.772 -31.779  1.00  0.00     0.167 C 
ENDROOT
BRANCH   1   2
HETATM    2  C   UNL     1      -7.959   4.345 -32.953  1.00  0.00     0.124 C 
BRANCH   2   3
HETATM    3  N   UNL     1      -9.210   3.577 -33.097  1.00  0.00    -0.349 N 
HETATM    4  C   UNL     1      -9.325   2.559 -34.020  1.00  0.00     0.252 C 
HETATM    5  O   UNL     1      -8.374   2.169 -34.688  1.00  0.00    -0.268 OA
HETATM    6  H   UNL     1     -10.063   3.935 -32.676  1.00  0.00     0.163 HD
BRANCH   4   7
HETATM    7  C   UNL     1     -10.680   1.962 -34.159  1.00  0.00     0.040 A 
HETATM    8  C   UNL     1     -11.019   0.755 -33.507  1.00  0.00    -0.013 A 
HETATM    9  C   UNL     1     -10.009  -0.001 -32.687  1.00  0.00     0.052 C 
HETATM   10  C   UNL     1     -12.338   0.298 -33.643  1.00  0.00     0.072 A 
HETATM   11  C   UNL     1     -13.268   0.972 -34.436  1.00  0.00     0.037 A 
HETATM   12  C   UNL     1     -12.912   2.149 -35.087  1.00  0.00     0.004 A 
HETATM   13  C   UNL     1     -11.623   2.651 -34.941  1.00  0.00     0.018 A 
BRANCH  10  14
HETATM   14  O   UNL     1     -12.808  -0.824 -33.022  1.00  0.00    -0.360 OA
HETATM   15  H   UNL     1     -12.705  -0.742 -32.061  1.00  0.00     0.217 HD
ENDBRANCH  10  14
ENDBRANCH   4   7
ENDBRANCH   2   3
BRANCH   2  16
HETATM   16  C   UNL     1      -8.301   5.840 -32.840  1.00  0.00     0.107 C 
BRANCH  16  17
HETATM   17  S   UNL     1      -9.853   6.121 -31.920  1.00  0.00    -0.128 SA
BRANCH  17  18
HETATM   18  C   UNL     1     -10.965   6.220 -33.312  1.00  0.00     0.000 A 
HETATM   19  C   UNL     1     -10.486   6.638 -34.557  1.00  0.00     0.018 A 
HETATM   20  C   UNL     1     -11.355   6.741 -35.644  1.00  0.00     0.001 A 
HETATM   21  C   UNL     1     -12.704   6.421 -35.494  1.00  0.00     0.000 A 
HETATM   22  C   UNL     1     -13.184   5.990 -34.258  1.00  0.00     0.001 A 
HETATM   23  C   UNL     1     -12.315   5.887 -33.170  1.00  0.00     0.018 A 
ENDBRANCH  17  18
ENDBRANCH  16  17
ENDBRANCH   2  16
ENDBRANCH   1   2
BRANCH   1  24
HETATM   24  O   UNL     1      -6.506   4.753 -30.908  1.00  0.00    -0.392 OA
HETATM   25  H   UNL     1      -6.728   5.648 -31.247  1.00  0.00     0.210 HD
ENDBRANCH   1  24
BRANCH   1  26
HETATM   26  C   UNL     1      -5.961   2.851 -32.276  1.00  0.00     0.269 C 
BRANCH  26  27
HETATM   27  N   UNL     1      -5.190   2.335 -31.053  1.00  0.00    -0.055 N 
HETATM   28  H   UNL     1      -5.328   3.128 -30.393  1.00  0.00     0.281 HD
HETATM   29  C   UNL     1      -3.666   2.236 -31.202  1.00  0.00     0.279 C 
HETATM   30  C   UNL     1      -3.360   1.050 -32.112  1.00  0.00     0.048 C 
HETATM   31  C   UNL     1      -3.890  -0.254 -31.491  1.00  0.00    -0.006 C 
HETATM   32  C   UNL     1      -5.376  -0.195 -31.089  1.00  0.00     0.016 C 
HETATM   33  C   UNL     1      -3.623  -1.475 -32.376  1.00  0.00     0.005 C 
HETATM   34  C   UNL     1      -5.770   1.120 -30.394  1.00  0.00     0.241 C 
HETATM   35  C   UNL     1      -6.348  -0.643 -32.202  1.00  0.00     0.007 C 
HETATM   36  C   UNL     1      -5.746  -0.719 -33.602  1.00  0.00     0.000 C 
HETATM   37  C   UNL     1      -4.437  -1.497 -33.667  1.00  0.00     0.000 C 
BRANCH  29  38
HETATM   38  C   UNL     1      -3.029   3.595 -31.585  1.00  0.00     0.249 C 
HETATM   39  N   UNL     1      -3.389   4.682 -30.820  1.00  0.00    -0.351 N 
HETATM   40  H   UNL     1      -4.187   4.591 -30.204  1.00  0.00     0.163 HD
HETATM   41  O   UNL     1      -2.285   3.652 -32.564  1.00  0.00    -0.271 OA
BRANCH  39  42
HETATM   42  C   UNL     1      -2.999   6.083 -31.091  1.00  0.00     0.022 C 
HETATM   43  C   UNL     1      -3.588   6.539 -32.433  1.00  0.00     0.037 C 
HETATM   44  C   UNL     1      -3.588   6.957 -29.968  1.00  0.00     0.037 C 
HETATM   45  C   UNL     1      -1.474   6.268 -31.088  1.00  0.00     0.037 C 
ENDBRANCH  39  42
ENDBRANCH  29  38
ENDBRANCH  26  27
ENDBRANCH   1  26
TORSDOF 12
ENDMDL
MODEL 7
REMARK VINA RESULT:      -8.7      2.227      6.558
REMARK  12 active torsions:
REMARK  status: ('A' for Active; 'I' for Inactive)
REMARK    1  A    between atoms: C_3  and  O_4 
REMARK    2  A    between atoms: C_8  and  C_9 
REMARK       I    between atoms: C_9  and  N_10 
REMARK    3  A    between atoms: N_10  and  C_11 
REMARK    4  A    between atoms: C_11  and  C_33 
REMARK    5  A    between atoms: C_11  and  C_12 
REMARK    6  A    between atoms: C_12  and  O_13 
REMARK    7  A    between atoms: C_12  and  C_14 
REMARK    8  A    between atoms: C_14  and  N_15 
REMARK    9  A    between atoms: C_17  and  C_18 
REMARK       I    between atoms: C_18  and  N_19 
REMARK   10  A    between atoms: N_19  and  C_20 
REMARK   11  A    between atoms: C_33  and  S_34 
REMARK   12  A    between atoms: S_34  and  C_35 
ROOT
HETATM    1  C   UNL     1      -5.787   2.688 -32.913  1.00  0.00     0.167 C 
ENDROOT
BRANCH   1   2
HETATM    2  C   UNL     1      -6.696   1.449 -32.625  1.00  0.00     0.124 C 
BRANCH   2   3
HETATM    3  N   UNL     1      -8.004   1.605 -33.288  1.00  0.00    -0.349 N 
HETATM    4  C   UNL     1      -9.171   1.703 -32.560  1.00  0.00     0.252 C 
HETATM    5  O   UNL     1      -9.177   1.776 -31.337  1.00  0.00    -0.268 OA
HETATM    6  H   UNL     1      -8.081   1.418 -34.284  1.00  0.00     0.163 HD
BRANCH   4   7
HETATM    7  C   UNL     1     -10.429   1.715 -33.353  1.00  0.00     0.040 A 
HETATM    8  C   UNL     1     -11.252   0.570 -33.439  1.00  0.00    -0.013 A 
HETATM    9  C   UNL     1     -10.865  -0.723 -32.774  1.00  0.00     0.052 C 
HETATM   10  C   UNL     1     -12.451   0.691 -34.156  1.00  0.00     0.072 A 
HETATM   11  C   UNL     1     -12.797   1.874 -34.811  1.00  0.00     0.037 A 
HETATM   12  C   UNL     1     -11.965   2.987 -34.733  1.00  0.00     0.004 A 
HETATM   13  C   UNL     1     -10.788   2.913 -33.996  1.00  0.00     0.018 A 
BRANCH  10  14
HETATM   14  O   UNL     1     -13.359  -0.323 -34.271  1.00  0.00    -0.360 OA
HETATM   15  H   UNL     1     -13.611  -0.443 -35.200  1.00  0.00     0.217 HD
ENDBRANCH  10  14
ENDBRANCH   4   7
ENDBRANCH   2   3
BRANCH   2  16
HETATM   16  C   UNL     1      -6.093   0.092 -33.023  1.00  0.00     0.107 C 
BRANCH  16  17
HETATM   17  S   UNL     1      -6.801  -0.544 -34.581  1.00  0.00    -0.128 SA
BRANCH  17  18
HETATM   18  C   UNL     1      -6.085  -2.178 -34.544  1.00  0.00     0.000 A 
HETATM   19  C   UNL     1      -6.871  -3.289 -34.860  1.00  0.00     0.018 A 
HETATM   20  C   UNL     1      -6.322  -4.572 -34.810  1.00  0.00     0.001 A 
HETATM   21  C   UNL     1      -4.987  -4.749 -34.450  1.00  0.00     0.000 A 
HETATM   22  C   UNL     1      -4.195  -3.642 -34.147  1.00  0.00     0.001 A 
HETATM   23  C   UNL     1      -4.742  -2.359 -34.197  1.00  0.00     0.018 A 
ENDBRANCH  17  18
ENDBRANCH  16  17
ENDBRANCH   2  16
ENDBRANCH   1   2
BRANCH   1  24
HETATM   24  O   UNL     1      -4.378   2.487 -32.695  1.00  0.00    -0.392 OA
HETATM   25  H   UNL     1      -3.897   2.721 -33.519  1.00  0.00     0.210 HD
ENDBRANCH   1  24
BRANCH   1  26
HETATM   26  C   UNL     1      -6.206   3.932 -32.098  1.00  0.00     0.269 C 
BRANCH  26  27
HETATM   27  N   UNL     1      -6.417   5.099 -33.072  1.00  0.00    -0.055 N 
HETATM   28  H   UNL     1      -5.855   4.772 -33.884  1.00  0.00     0.281 HD
HETATM   29  C   UNL     1      -5.771   6.435 -32.684  1.00  0.00     0.279 C 
HETATM   30  C   UNL     1      -6.574   7.027 -31.530  1.00  0.00     0.048 C 
HETATM   31  C   UNL     1      -8.029   7.280 -31.962  1.00  0.00    -0.006 C 
HETATM   32  C   UNL     1      -8.718   6.049 -32.582  1.00  0.00     0.016 C 
HETATM   33  C   UNL     1      -8.883   7.859 -30.831  1.00  0.00     0.005 C 
HETATM   34  C   UNL     1      -7.822   5.276 -33.566  1.00  0.00     0.241 C 
HETATM   35  C   UNL     1      -9.457   5.160 -31.559  1.00  0.00     0.007 C 
HETATM   36  C   UNL     1      -9.099   5.410 -30.098  1.00  0.00     0.000 C 
HETATM   37  C   UNL     1      -9.156   6.879 -29.694  1.00  0.00     0.000 C 
BRANCH  29  38
HETATM   38  C   UNL     1      -4.241   6.303 -32.479  1.00  0.00     0.249 C 
HETATM   39  N   UNL     1      -3.492   6.008 -33.595  1.00  0.00    -0.351 N 
HETATM   40  H   UNL     1      -3.975   5.688 -34.426  1.00  0.00     0.163 HD
HETATM   41  O   UNL     1      -3.778   6.417 -31.343  1.00  0.00    -0.271 OA
BRANCH  39  42
HETATM   42  C   UNL     1      -2.042   5.715 -33.597  1.00  0.00     0.022 C 
HETATM   43  C   UNL     1      -1.709   4.716 -32.480  1.00  0.00     0.037 C 
HETATM   44  C   UNL     1      -1.696   5.075 -34.955  1.00  0.00     0.037 C 
HETATM   45  C   UNL     1      -1.196   6.988 -33.442  1.00  0.00     0.037 C 
ENDBRANCH  39  42
ENDBRANCH  29  38
ENDBRANCH  26  27
ENDBRANCH   1  26
TORSDOF 12
ENDMDL
MODEL 8
REMARK VINA RESULT:      -8.7      2.683      8.561
REMARK  12 active torsions:
REMARK  status: ('A' for Active; 'I' for Inactive)
REMARK    1  A    between atoms: C_3  and  O_4 
REMARK    2  A    between atoms: C_8  and  C_9 
REMARK       I    between atoms: C_9  and  N_10 
REMARK    3  A    between atoms: N_10  and  C_11 
REMARK    4  A    between atoms: C_11  and  C_33 
REMARK    5  A    between atoms: C_11  and  C_12 
REMARK    6  A    between atoms: C_12  and  O_13 
REMARK    7  A    between atoms: C_12  and  C_14 
REMARK    8  A    between atoms: C_14  and  N_15 
REMARK    9  A    between atoms: C_17  and  C_18 
REMARK       I    between atoms: C_18  and  N_19 
REMARK   10  A    between atoms: N_19  and  C_20 
REMARK   11  A    between atoms: C_33  and  S_34 
REMARK   12  A    between atoms: S_34  and  C_35 
ROOT
HETATM    1  C   UNL     1      -5.878   5.217 -33.957  1.00  0.00     0.167 C 
ENDROOT
BRANCH   1   2
HETATM    2  C   UNL     1      -7.203   5.503 -33.178  1.00  0.00     0.124 C 
BRANCH   2   3
HETATM    3  N   UNL     1      -8.151   4.385 -33.344  1.00  0.00    -0.349 N 
HETATM    4  C   UNL     1      -9.208   4.465 -34.226  1.00  0.00     0.252 C 
HETATM    5  O   UNL     1      -9.354   5.412 -34.990  1.00  0.00    -0.268 OA
HETATM    6  H   UNL     1      -8.164   3.640 -32.653  1.00  0.00     0.163 HD
BRANCH   4   7
HETATM    7  C   UNL     1     -10.165   3.328 -34.193  1.00  0.00     0.040 A 
HETATM    8  C   UNL     1     -11.464   3.447 -34.734  1.00  0.00    -0.013 A 
HETATM    9  C   UNL     1     -11.951   4.744 -35.321  1.00  0.00     0.052 C 
HETATM   10  C   UNL     1     -12.277   2.304 -34.717  1.00  0.00     0.072 A 
HETATM   11  C   UNL     1     -11.848   1.110 -34.137  1.00  0.00     0.037 A 
HETATM   12  C   UNL     1     -10.573   1.015 -33.590  1.00  0.00     0.004 A 
HETATM   13  C   UNL     1      -9.726   2.118 -33.627  1.00  0.00     0.018 A 
BRANCH  10  14
HETATM   14  O   UNL     1     -13.532   2.271 -35.255  1.00  0.00    -0.360 OA
HETATM   15  H   UNL     1     -13.868   3.173 -35.376  1.00  0.00     0.217 HD
ENDBRANCH  10  14
ENDBRANCH   4   7
ENDBRANCH   2   3
BRANCH   2  16
HETATM   16  C   UNL     1      -7.027   5.790 -31.677  1.00  0.00     0.107 C 
BRANCH  16  17
HETATM   17  S   UNL     1      -8.253   6.996 -31.061  1.00  0.00    -0.128 SA
BRANCH  17  18
HETATM   18  C   UNL     1      -9.683   5.928 -31.050  1.00  0.00     0.000 A 
HETATM   19  C   UNL     1     -10.867   6.347 -31.662  1.00  0.00     0.018 A 
HETATM   20  C   UNL     1     -11.997   5.526 -31.636  1.00  0.00     0.001 A 
HETATM   21  C   UNL     1     -11.945   4.284 -31.005  1.00  0.00     0.000 A 
HETATM   22  C   UNL     1     -10.762   3.856 -30.405  1.00  0.00     0.001 A 
HETATM   23  C   UNL     1      -9.631   4.676 -30.431  1.00  0.00     0.018 A 
ENDBRANCH  17  18
ENDBRANCH  16  17
ENDBRANCH   2  16
ENDBRANCH   1   2
BRANCH   1  24
HETATM   24  O   UNL     1      -5.746   3.885 -34.487  1.00  0.00    -0.392 OA
HETATM   25  H   UNL     1      -5.561   3.948 -35.451  1.00  0.00     0.210 HD
ENDBRANCH   1  24
BRANCH   1  26
HETATM   26  C   UNL     1      -4.619   5.502 -33.108  1.00  0.00     0.269 C 
BRANCH  26  27
HETATM   27  N   UNL     1      -3.498   4.565 -33.578  1.00  0.00    -0.055 N 
HETATM   28  H   UNL     1      -4.036   3.915 -34.186  1.00  0.00     0.281 HD
HETATM   29  C   UNL     1      -2.881   3.653 -32.510  1.00  0.00     0.279 C 
HETATM   30  C   UNL     1      -2.014   4.516 -31.598  1.00  0.00     0.048 C 
HETATM   31  C   UNL     1      -0.885   5.181 -32.403  1.00  0.00    -0.006 C 
HETATM   32  C   UNL     1      -1.374   5.951 -33.645  1.00  0.00     0.016 C 
HETATM   33  C   UNL     1       0.005   6.076 -31.535  1.00  0.00     0.005 C 
HETATM   34  C   UNL     1      -2.453   5.201 -34.445  1.00  0.00     0.241 C 
HETATM   35  C   UNL     1      -1.696   7.437 -33.378  1.00  0.00     0.007 C 
HETATM   36  C   UNL     1      -1.838   7.820 -31.908  1.00  0.00     0.000 C 
HETATM   37  C   UNL     1      -0.684   7.340 -31.034  1.00  0.00     0.000 C 
BRANCH  29  38
HETATM   38  C   UNL     1      -3.945   2.758 -31.824  1.00  0.00     0.249 C 
HETATM   39  N   UNL     1      -4.598   1.851 -32.628  1.00  0.00    -0.351 N 
HETATM   40  H   UNL     1      -4.514   1.953 -33.632  1.00  0.00     0.163 HD
HETATM   41  O   UNL     1      -4.188   2.928 -30.629  1.00  0.00    -0.271 OA
BRANCH  39  42
HETATM   42  C   UNL     1      -5.729   0.997 -32.206  1.00  0.00     0.022 C 
HETATM   43  C   UNL     1      -6.770   1.840 -31.457  1.00  0.00     0.037 C 
HETATM   44  C   UNL     1      -6.379   0.420 -33.478  1.00  0.00     0.037 C 
HETATM   45  C   UNL     1      -5.268  -0.180 -31.332  1.00  0.00     0.037 C 
ENDBRANCH  39  42
ENDBRANCH  29  38
ENDBRANCH  26  27
ENDBRANCH   1  26
TORSDOF 12
ENDMDL
MODEL 9
REMARK VINA RESULT:      -8.6      2.348      7.025
REMARK  12 active torsions:
REMARK  status: ('A' for Active; 'I' for Inactive)
REMARK    1  A    between atoms: C_3  and  O_4 
REMARK    2  A    between atoms: C_8  and  C_9 
REMARK       I    between atoms: C_9  and  N_10 
REMARK    3  A    between atoms: N_10  and  C_11 
REMARK    4  A    between atoms: C_11  and  C_33 
REMARK    5  A    between atoms: C_11  and  C_12 
REMARK    6  A    between atoms: C_12  and  O_13 
REMARK    7  A    between atoms: C_12  and  C_14 
REMARK    8  A    between atoms: C_14  and  N_15 
REMARK    9  A    between atoms: C_17  and  C_18 
REMARK       I    between atoms: C_18  and  N_19 
REMARK   10  A    between atoms: N_19  and  C_20 
REMARK   11  A    between atoms: C_33  and  S_34 
REMARK   12  A    between atoms: S_34  and  C_35 
ROOT
HETATM    1  C   UNL     1      -7.009   2.326 -31.435  1.00  0.00     0.167 C 
ENDROOT
BRANCH   1   2
HETATM    2  C   UNL     1      -7.851   1.547 -32.498  1.00  0.00     0.124 C 
BRANCH   2   3
HETATM    3  N   UNL     1      -7.243   0.232 -32.774  1.00  0.00    -0.349 N 
HETATM    4  C   UNL     1      -6.633  -0.037 -33.982  1.00  0.00     0.252 C 
HETATM    5  O   UNL     1      -6.467   0.823 -34.839  1.00  0.00    -0.268 OA
HETATM    6  H   UNL     1      -7.463  -0.553 -32.168  1.00  0.00     0.163 HD
BRANCH   4   7
HETATM    7  C   UNL     1      -6.186  -1.441 -34.181  1.00  0.00     0.040 A 
HETATM    8  C   UNL     1      -4.890  -1.859 -33.805  1.00  0.00    -0.013 A 
HETATM    9  C   UNL     1      -3.892  -0.890 -33.233  1.00  0.00     0.052 C 
HETATM   10  C   UNL     1      -4.577  -3.216 -33.971  1.00  0.00     0.072 A 
HETATM   11  C   UNL     1      -5.483  -4.112 -34.540  1.00  0.00     0.037 A 
HETATM   12  C   UNL     1      -6.749  -3.680 -34.924  1.00  0.00     0.004 A 
HETATM   13  C   UNL     1      -7.106  -2.349 -34.735  1.00  0.00     0.018 A 
BRANCH  10  14
HETATM   14  O   UNL     1      -3.380  -3.758 -33.598  1.00  0.00    -0.360 OA
HETATM   15  H   UNL     1      -3.217  -4.578 -34.090  1.00  0.00     0.217 HD
ENDBRANCH  10  14
ENDBRANCH   4   7
ENDBRANCH   2   3
BRANCH   2  16
HETATM   16  C   UNL     1      -9.332   1.347 -32.136  1.00  0.00     0.107 C 
BRANCH  16  17
HETATM   17  S   UNL     1      -9.994  -0.222 -32.797  1.00  0.00    -0.128 SA
BRANCH  17  18
HETATM   18  C   UNL     1     -11.514   0.409 -33.487  1.00  0.00     0.000 A 
HETATM   19  C   UNL     1     -11.534   1.669 -34.091  1.00  0.00     0.018 A 
HETATM   20  C   UNL     1     -12.725   2.178 -34.612  1.00  0.00     0.001 A 
HETATM   21  C   UNL     1     -13.898   1.428 -34.537  1.00  0.00     0.000 A 
HETATM   22  C   UNL     1     -13.881   0.165 -33.948  1.00  0.00     0.001 A 
HETATM   23  C   UNL     1     -12.690  -0.346 -33.427  1.00  0.00     0.018 A 
ENDBRANCH  17  18
ENDBRANCH  16  17
ENDBRANCH   2  16
ENDBRANCH   1   2
BRANCH   1  24
HETATM   24  O   UNL     1      -7.759   3.193 -30.565  1.00  0.00    -0.392 OA
HETATM   25  H   UNL     1      -8.007   4.002 -31.065  1.00  0.00     0.210 HD
ENDBRANCH   1  24
BRANCH   1  26
HETATM   26  C   UNL     1      -5.887   3.174 -32.076  1.00  0.00     0.269 C 
BRANCH  26  27
HETATM   27  N   UNL     1      -5.905   4.566 -31.428  1.00  0.00    -0.055 N 
HETATM   28  H   UNL     1      -6.751   4.486 -30.829  1.00  0.00     0.281 HD
HETATM   29  C   UNL     1      -6.217   5.745 -32.358  1.00  0.00     0.279 C 
HETATM   30  C   UNL     1      -4.996   5.982 -33.242  1.00  0.00     0.048 C 
HETATM   31  C   UNL     1      -3.769   6.331 -32.382  1.00  0.00    -0.006 C 
HETATM   32  C   UNL     1      -3.488   5.317 -31.256  1.00  0.00     0.016 C 
HETATM   33  C   UNL     1      -2.510   6.560 -33.223  1.00  0.00     0.005 C 
HETATM   34  C   UNL     1      -4.755   4.861 -30.512  1.00  0.00     0.241 C 
HETATM   35  C   UNL     1      -2.540   4.169 -31.666  1.00  0.00     0.007 C 
HETATM   36  C   UNL     1      -2.328   4.002 -33.167  1.00  0.00     0.000 C 
HETATM   37  C   UNL     1      -1.965   5.298 -33.884  1.00  0.00     0.000 C 
BRANCH  29  38
HETATM   38  C   UNL     1      -7.579   5.576 -33.076  1.00  0.00     0.249 C 
HETATM   39  N   UNL     1      -8.707   5.712 -32.298  1.00  0.00    -0.351 N 
HETATM   40  H   UNL     1      -8.599   5.701 -31.291  1.00  0.00     0.163 HD
HETATM   41  O   UNL     1      -7.593   5.285 -34.272  1.00  0.00    -0.271 OA
BRANCH  39  42
HETATM   42  C   UNL     1     -10.092   5.465 -32.753  1.00  0.00     0.022 C 
HETATM   43  C   UNL     1     -10.813   6.800 -32.983  1.00  0.00     0.037 C 
HETATM   44  C   UNL     1     -10.016   4.704 -34.090  1.00  0.00     0.037 C 
HETATM   45  C   UNL     1     -10.881   4.599 -31.757  1.00  0.00     0.037 C 
ENDBRANCH  39  42
ENDBRANCH  29  38
ENDBRANCH  26  27
ENDBRANCH   1  26
TORSDOF 12
ENDMDL
MODEL 10
REMARK VINA RESULT:      -8.5      2.048      7.183
REMARK  12 active torsions:
REMARK  status: ('A' for Active; 'I' for Inactive)
REMARK    1  A    between atoms: C_3  and  O_4 
REMARK    2  A    between atoms: C_8  and  C_9 
REMARK       I    between atoms: C_9  and  N_10 
REMARK    3  A    between atoms: N_10  and  C_11 
REMARK    4  A    between atoms: C_11  and  C_33 
REMARK    5  A    between atoms: C_11  and  C_12 
REMARK    6  A    between atoms: C_12  and  O_13 
REMARK    7  A    between atoms: C_12  and  C_14 
REMARK    8  A    between atoms: C_14  and  N_15 
REMARK    9  A    between atoms: C_17  and  C_18 
REMARK       I    between atoms: C_18  and  N_19 
REMARK   10  A    between atoms: N_19  and  C_20 
REMARK   11  A    between atoms: C_33  and  S_34 
REMARK   12  A    between atoms: S_34  and  C_35 
ROOT
HETATM    1  C   UNL     1      -6.978   4.554 -33.205  1.00  0.00     0.167 C 
ENDROOT
BRANCH   1   2
HETATM    2  C   UNL     1      -7.288   3.024 -33.112  1.00  0.00     0.124 C 
BRANCH   2   3
HETATM    3  N   UNL     1      -8.652   2.744 -33.599  1.00  0.00    -0.349 N 
HETATM    4  C   UNL     1      -9.711   2.607 -32.727  1.00  0.00     0.252 C 
HETATM    5  O   UNL     1      -9.602   2.814 -31.524  1.00  0.00    -0.268 OA
HETATM    6  H   UNL     1      -8.782   2.431 -34.557  1.00  0.00     0.163 HD
BRANCH   4   7
HETATM    7  C   UNL     1     -11.001   2.188 -33.337  1.00  0.00     0.040 A 
HETATM    8  C   UNL     1     -11.392   0.831 -33.366  1.00  0.00    -0.013 A 
HETATM    9  C   UNL     1     -10.498  -0.252 -32.826  1.00  0.00     0.052 C 
HETATM   10  C   UNL     1     -12.653   0.535 -33.904  1.00  0.00     0.072 A 
HETATM   11  C   UNL     1     -13.470   1.529 -34.445  1.00  0.00     0.037 A 
HETATM   12  C   UNL     1     -13.061   2.858 -34.427  1.00  0.00     0.004 A 
HETATM   13  C   UNL     1     -11.834   3.191 -33.864  1.00  0.00     0.018 A 
BRANCH  10  14
HETATM   14  O   UNL     1     -13.171  -0.728 -33.943  1.00  0.00    -0.360 OA
HETATM   15  H   UNL     1     -12.739  -1.246 -34.641  1.00  0.00     0.217 HD
ENDBRANCH  10  14
ENDBRANCH   4   7
ENDBRANCH   2   3
BRANCH   2  16
HETATM   16  C   UNL     1      -6.296   2.112 -33.854  1.00  0.00     0.107 C 
BRANCH  16  17
HETATM   17  S   UNL     1      -5.324   1.079 -32.704  1.00  0.00    -0.128 SA
BRANCH  17  18
HETATM   18  C   UNL     1      -5.573  -0.499 -33.501  1.00  0.00     0.000 A 
HETATM   19  C   UNL     1      -4.493  -1.368 -33.674  1.00  0.00     0.018 A 
HETATM   20  C   UNL     1      -4.676  -2.594 -34.317  1.00  0.00     0.001 A 
HETATM   21  C   UNL     1      -5.939  -2.957 -34.784  1.00  0.00     0.000 A 
HETATM   22  C   UNL     1      -7.022  -2.099 -34.601  1.00  0.00     0.001 A 
HETATM   23  C   UNL     1      -6.840  -0.873 -33.957  1.00  0.00     0.018 A 
ENDBRANCH  17  18
ENDBRANCH  16  17
ENDBRANCH   2  16
ENDBRANCH   1   2
BRANCH   1  24
HETATM   24  O   UNL     1      -7.612   5.251 -34.293  1.00  0.00    -0.392 OA
HETATM   25  H   UNL     1      -6.937   5.802 -34.748  1.00  0.00     0.210 HD
ENDBRANCH   1  24
BRANCH   1  26
HETATM   26  C   UNL     1      -5.463   4.846 -33.291  1.00  0.00     0.269 C 
BRANCH  26  27
HETATM   27  N   UNL     1      -4.898   4.886 -31.864  1.00  0.00    -0.055 N 
HETATM   28  H   UNL     1      -5.672   4.430 -31.340  1.00  0.00     0.281 HD
HETATM   29  C   UNL     1      -4.777   6.273 -31.219  1.00  0.00     0.279 C 
HETATM   30  C   UNL     1      -3.614   7.001 -31.886  1.00  0.00     0.048 C 
HETATM   31  C   UNL     1      -2.301   6.229 -31.668  1.00  0.00    -0.006 C 
HETATM   32  C   UNL     1      -2.374   4.746 -32.078  1.00  0.00     0.016 C 
HETATM   33  C   UNL     1      -1.103   6.911 -32.335  1.00  0.00     0.005 C 
HETATM   34  C   UNL     1      -3.674   4.051 -31.636  1.00  0.00     0.241 C 
HETATM   35  C   UNL     1      -1.976   4.478 -33.546  1.00  0.00     0.007 C 
HETATM   36  C   UNL     1      -1.932   5.710 -34.445  1.00  0.00     0.000 C 
HETATM   37  C   UNL     1      -1.134   6.870 -33.860  1.00  0.00     0.000 C 
BRANCH  29  38
HETATM   38  C   UNL     1      -6.136   7.015 -31.176  1.00  0.00     0.249 C 
HETATM   39  N   UNL     1      -7.014   6.636 -30.185  1.00  0.00    -0.351 N 
HETATM   40  H   UNL     1      -6.830   5.776 -29.685  1.00  0.00     0.163 HD
HETATM   41  O   UNL     1      -6.385   7.857 -32.040  1.00  0.00    -0.271 OA
BRANCH  39  42
HETATM   42  C   UNL     1      -8.404   7.123 -30.046  1.00  0.00     0.022 C 
HETATM   43  C   UNL     1      -9.298   6.466 -31.106  1.00  0.00     0.037 C 
HETATM   44  C   UNL     1      -8.904   6.711 -28.648  1.00  0.00     0.037 C 
HETATM   45  C   UNL     1      -8.492   8.654 -30.150  1.00  0.00     0.037 C 
ENDBRANCH  39  42
ENDBRANCH  29  38
ENDBRANCH  26  27
ENDBRANCH   1  26
TORSDOF 12
ENDMDL
