MODEL 1
REMARK VINA RESULT:      -8.6      0.000      0.000
REMARK  3 active torsions:
REMARK  status: ('A' for Active; 'I' for Inactive)
REMARK    1  A    between atoms: C_5  and  N_6 
REMARK       I    between atoms: N_6  and  C_7 
REMARK    2  A    between atoms: C_7  and  C_8 
REMARK    3  A    between atoms: C_9  and  C_10 
ROOT
HETATM    1  C   UNL     1      -6.764   2.915 -32.938  1.00  0.00     0.062 C 
HETATM    2  C   UNL     1      -5.499   3.367 -32.194  1.00  0.00     0.199 C 
HETATM    3  N   UNL     1      -5.845   4.275 -31.106  1.00  0.00    -0.092 N 
HETATM    4  C   UNL     1      -7.054   4.901 -30.978  1.00  0.00     0.735 A 
HETATM    5  N   UNL     1      -8.021   4.640 -31.881  1.00  0.00    -0.191 N 
HETATM    6  N   UNL     1      -5.044   4.593 -30.079  1.00  0.00     0.012 NA
HETATM    7  N   UNL     1      -5.755   5.457 -29.361  1.00  0.00     0.033 NA
HETATM    8  N   UNL     1      -7.010   5.658 -29.911  1.00  0.00     0.030 NA
HETATM    9  C   UNL     1      -7.929   3.605 -32.811  1.00  0.00     0.037 C 
HETATM   10  C   UNL     1      -9.171   3.369 -33.635  1.00  0.00     0.070 C 
HETATM   11  H   UNL     1      -8.929   5.086 -31.761  1.00  0.00     0.184 HD
ENDROOT
BRANCH   1  12
HETATM   12  C   UNL     1      -6.561   1.686 -33.765  1.00  0.00     0.256 C 
HETATM   13  N   UNL     1      -6.309   0.545 -33.033  1.00  0.00    -0.323 N 
HETATM   14  H   UNL     1      -6.310   0.620 -32.025  1.00  0.00     0.169 HD
HETATM   15  O   UNL     1      -6.537   1.784 -34.984  1.00  0.00    -0.267 OA
BRANCH  13  16
HETATM   16  C   UNL     1      -6.076  -0.755 -33.538  1.00  0.00     0.035 A 
HETATM   17  C   UNL     1      -4.811  -1.329 -33.664  1.00  0.00     0.030 A 
HETATM   18  C   UNL     1      -4.663  -2.620 -34.183  1.00  0.00     0.009 A 
HETATM   19  C   UNL     1      -5.777  -3.358 -34.590  1.00  0.00    -0.062 A 
HETATM   20  C   UNL     1      -5.599  -4.721 -35.190  1.00  0.00     0.048 C 
HETATM   21  C   UNL     1      -7.045  -2.781 -34.476  1.00  0.00     0.009 A 
HETATM   22  C   UNL     1      -7.193  -1.497 -33.942  1.00  0.00     0.030 A 
ENDBRANCH  13  16
ENDBRANCH   1  12
BRANCH   2  23
HETATM   23  C   UNL     1      -4.480   4.037 -33.103  1.00  0.00    -0.011 A 
HETATM   24  C   UNL     1      -4.861   4.823 -34.192  1.00  0.00     0.125 A 
HETATM   25  N   UNL     1      -3.998   5.414 -35.048  1.00  0.00    -0.272 NA
HETATM   26  C   UNL     1      -2.683   5.217 -34.816  1.00  0.00     0.116 A 
HETATM   27  C   UNL     1      -2.193   4.462 -33.764  1.00  0.00     0.020 A 
HETATM   28  C   UNL     1      -3.105   3.867 -32.896  1.00  0.00     0.012 A 
ENDBRANCH   2  23
TORSDOF 3
ENDMDL
MODEL 2
REMARK VINA RESULT:      -8.3      2.012      2.775
REMARK  3 active torsions:
REMARK  status: ('A' for Active; 'I' for Inactive)
REMARK    1  A    between atoms: C_5  and  N_6 
REMARK       I    between atoms: N_6  and  C_7 
REMARK    2  A    between atoms: C_7  and  C_8 
REMARK    3  A    between atoms: C_9  and  C_10 
ROOT
HETATM    1  C   UNL     1      -8.370   1.505 -31.910  1.00  0.00     0.062 C 
HETATM    2  C   UNL     1      -7.728   2.778 -31.337  1.00  0.00     0.199 C 
HETATM    3  N   UNL     1      -8.758   3.736 -30.948  1.00  0.00    -0.092 N 
HETATM    4  C   UNL     1     -10.064   3.667 -31.343  1.00  0.00     0.735 A 
HETATM    5  N   UNL     1     -10.461   2.627 -32.105  1.00  0.00    -0.191 N 
HETATM    6  N   UNL     1      -8.570   4.785 -30.136  1.00  0.00     0.012 NA
HETATM    7  N   UNL     1      -9.758   5.382 -30.087  1.00  0.00     0.033 NA
HETATM    8  N   UNL     1     -10.698   4.695 -30.836  1.00  0.00     0.030 NA
HETATM    9  C   UNL     1      -9.663   1.507 -32.332  1.00  0.00     0.037 C 
HETATM   10  C   UNL     1     -10.332   0.382 -33.081  1.00  0.00     0.070 C 
HETATM   11  H   UNL     1     -11.443   2.567 -32.369  1.00  0.00     0.184 HD
ENDROOT
BRANCH   1  12
HETATM   12  C   UNL     1      -7.444   0.331 -31.932  1.00  0.00     0.256 C 
HETATM   13  N   UNL     1      -7.136  -0.125 -33.197  1.00  0.00    -0.323 N 
HETATM   14  H   UNL     1      -7.526   0.371 -33.987  1.00  0.00     0.169 HD
HETATM   15  O   UNL     1      -7.108  -0.185 -30.875  1.00  0.00    -0.267 OA
BRANCH  13  16
HETATM   16  C   UNL     1      -6.295  -1.212 -33.527  1.00  0.00     0.035 A 
HETATM   17  C   UNL     1      -6.684  -2.287 -34.327  1.00  0.00     0.030 A 
HETATM   18  C   UNL     1      -5.793  -3.330 -34.600  1.00  0.00     0.009 A 
HETATM   19  C   UNL     1      -4.498  -3.320 -34.075  1.00  0.00    -0.062 A 
HETATM   20  C   UNL     1      -3.571  -4.469 -34.337  1.00  0.00     0.048 C 
HETATM   21  C   UNL     1      -4.109  -2.250 -33.264  1.00  0.00     0.009 A 
HETATM   22  C   UNL     1      -4.996  -1.199 -33.005  1.00  0.00     0.030 A 
ENDBRANCH  13  16
ENDBRANCH   1  12
BRANCH   2  23
HETATM   23  C   UNL     1      -6.761   3.444 -32.303  1.00  0.00    -0.011 A 
HETATM   24  C   UNL     1      -7.202   4.236 -33.365  1.00  0.00     0.125 A 
HETATM   25  N   UNL     1      -6.387   4.824 -34.269  1.00  0.00    -0.272 NA
HETATM   26  C   UNL     1      -5.062   4.617 -34.117  1.00  0.00     0.116 A 
HETATM   27  C   UNL     1      -4.515   3.856 -33.099  1.00  0.00     0.020 A 
HETATM   28  C   UNL     1      -5.377   3.264 -32.180  1.00  0.00     0.012 A 
ENDBRANCH   2  23
TORSDOF 3
ENDMDL
MODEL 3
REMARK VINA RESULT:      -8.2      1.712      2.011
REMARK  3 active torsions:
REMARK  status: ('A' for Active; 'I' for Inactive)
REMARK    1  A    between atoms: C_5  and  N_6 
REMARK       I    between atoms: N_6  and  C_7 
REMARK    2  A    between atoms: C_7  and  C_8 
REMARK    3  A    between atoms: C_9  and  C_10 
ROOT
HETATM    1  C   UNL     1      -7.074   2.157 -30.961  1.00  0.00     0.062 C 
HETATM    2  C   UNL     1      -5.908   2.951 -30.353  1.00  0.00     0.199 C 
HETATM    3  N   UNL     1      -6.406   4.135 -29.660  1.00  0.00    -0.092 N 
HETATM    4  C   UNL     1      -7.662   4.649 -29.817  1.00  0.00     0.735 A 
HETATM    5  N   UNL     1      -8.533   4.009 -30.624  1.00  0.00    -0.191 N 
HETATM    6  N   UNL     1      -5.714   4.854 -28.765  1.00  0.00     0.012 NA
HETATM    7  N   UNL     1      -6.541   5.838 -28.423  1.00  0.00     0.033 NA
HETATM    8  N   UNL     1      -7.758   5.722 -29.072  1.00  0.00     0.030 NA
HETATM    9  C   UNL     1      -8.292   2.735 -31.137  1.00  0.00     0.037 C 
HETATM   10  C   UNL     1      -9.443   2.119 -31.893  1.00  0.00     0.070 C 
HETATM   11  H   UNL     1      -9.477   4.381 -30.710  1.00  0.00     0.184 HD
ENDROOT
BRANCH   1  12
HETATM   12  C   UNL     1      -6.717   0.746 -31.306  1.00  0.00     0.256 C 
HETATM   13  N   UNL     1      -6.573   0.511 -32.658  1.00  0.00    -0.323 N 
HETATM   14  H   UNL     1      -6.688   1.293 -33.288  1.00  0.00     0.169 HD
HETATM   15  O   UNL     1      -6.670  -0.092 -30.417  1.00  0.00    -0.267 OA
BRANCH  13  16
HETATM   16  C   UNL     1      -6.243  -0.716 -33.277  1.00  0.00     0.035 A 
HETATM   17  C   UNL     1      -4.954  -1.246 -33.325  1.00  0.00     0.030 A 
HETATM   18  C   UNL     1      -4.709  -2.465 -33.966  1.00  0.00     0.009 A 
HETATM   19  C   UNL     1      -5.747  -3.174 -34.576  1.00  0.00    -0.062 A 
HETATM   20  C   UNL     1      -5.461  -4.454 -35.301  1.00  0.00     0.048 C 
HETATM   21  C   UNL     1      -7.039  -2.640 -34.538  1.00  0.00     0.009 A 
HETATM   22  C   UNL     1      -7.286  -1.429 -33.882  1.00  0.00     0.030 A 
ENDBRANCH  13  16
ENDBRANCH   1  12
BRANCH   2  23
HETATM   23  C   UNL     1      -4.870   3.370 -31.383  1.00  0.00    -0.011 A 
HETATM   24  C   UNL     1      -3.516   3.062 -31.239  1.00  0.00     0.125 A 
HETATM   25  N   UNL     1      -2.551   3.437 -32.107  1.00  0.00    -0.272 NA
HETATM   26  C   UNL     1      -2.944   4.158 -33.178  1.00  0.00     0.116 A 
HETATM   27  C   UNL     1      -4.259   4.515 -33.423  1.00  0.00     0.020 A 
HETATM   28  C   UNL     1      -5.233   4.113 -32.513  1.00  0.00     0.012 A 
ENDBRANCH   2  23
TORSDOF 3
ENDMDL
MODEL 4
REMARK VINA RESULT:      -8.1     16.700     18.042
REMARK  3 active torsions:
REMARK  status: ('A' for Active; 'I' for Inactive)
REMARK    1  A    between atoms: C_5  and  N_6 
REMARK       I    between atoms: N_6  and  C_7 
REMARK    2  A    between atoms: C_7  and  C_8 
REMARK    3  A    between atoms: C_9  and  C_10 
ROOT
HETATM    1  C   UNL     1      -6.078 -13.380 -38.406  1.00  0.00     0.062 C 
HETATM    2  C   UNL     1      -6.641 -12.894 -39.750  1.00  0.00     0.199 C 
HETATM    3  N   UNL     1      -8.089 -12.735 -39.668  1.00  0.00    -0.092 N 
HETATM    4  C   UNL     1      -8.867 -13.259 -38.675  1.00  0.00     0.735 A 
HETATM    5  N   UNL     1      -8.274 -13.933 -37.668  1.00  0.00    -0.191 N 
HETATM    6  N   UNL     1      -8.840 -12.036 -40.530  1.00  0.00     0.012 NA
HETATM    7  N   UNL     1     -10.083 -12.187 -40.084  1.00  0.00     0.033 NA
HETATM    8  N   UNL     1     -10.114 -12.948 -38.928  1.00  0.00     0.030 NA
HETATM    9  C   UNL     1      -6.894 -13.938 -37.472  1.00  0.00     0.037 C 
HETATM   10  C   UNL     1      -6.426 -14.618 -36.209  1.00  0.00     0.070 C 
HETATM   11  H   UNL     1      -8.858 -14.293 -36.916  1.00  0.00     0.184 HD
ENDROOT
BRANCH   1  12
HETATM   12  C   UNL     1      -4.605 -13.164 -38.265  1.00  0.00     0.256 C 
HETATM   13  N   UNL     1      -3.835 -14.254 -38.614  1.00  0.00    -0.323 N 
HETATM   14  H   UNL     1      -4.310 -15.079 -38.954  1.00  0.00     0.169 HD
HETATM   15  O   UNL     1      -4.199 -12.116 -37.782  1.00  0.00    -0.267 OA
BRANCH  13  16
HETATM   16  C   UNL     1      -2.425 -14.344 -38.581  1.00  0.00     0.035 A 
HETATM   17  C   UNL     1      -1.690 -14.682 -37.444  1.00  0.00     0.030 A 
HETATM   18  C   UNL     1      -0.293 -14.740 -37.492  1.00  0.00     0.009 A 
HETATM   19  C   UNL     1       0.395 -14.458 -38.675  1.00  0.00    -0.062 A 
HETATM   20  C   UNL     1       1.894 -14.478 -38.697  1.00  0.00     0.048 C 
HETATM   21  C   UNL     1      -0.339 -14.110 -39.812  1.00  0.00     0.009 A 
HETATM   22  C   UNL     1      -1.736 -14.067 -39.768  1.00  0.00     0.030 A 
ENDBRANCH  13  16
ENDBRANCH   1  12
BRANCH   2  23
HETATM   23  C   UNL     1      -6.302 -13.821 -40.908  1.00  0.00    -0.011 A 
HETATM   24  C   UNL     1      -6.892 -15.078 -41.048  1.00  0.00     0.125 A 
HETATM   25  N   UNL     1      -6.603 -15.951 -42.039  1.00  0.00    -0.272 NA
HETATM   26  C   UNL     1      -5.679 -15.561 -42.942  1.00  0.00     0.116 A 
HETATM   27  C   UNL     1      -5.036 -14.336 -42.903  1.00  0.00     0.020 A 
HETATM   28  C   UNL     1      -5.354 -13.455 -41.873  1.00  0.00     0.012 A 
ENDBRANCH   2  23
TORSDOF 3
ENDMDL
MODEL 5
REMARK VINA RESULT:      -8.0      3.770      6.414
REMARK  3 active torsions:
REMARK  status: ('A' for Active; 'I' for Inactive)
REMARK    1  A    between atoms: C_5  and  N_6 
REMARK       I    between atoms: N_6  and  C_7 
REMARK    2  A    between atoms: C_7  and  C_8 
REMARK    3  A    between atoms: C_9  and  C_10 
ROOT
HETATM    1  C   UNL     1     -10.186   2.875 -32.737  1.00  0.00     0.062 C 
HETATM    2  C   UNL     1     -11.121   3.201 -33.911  1.00  0.00     0.199 C 
HETATM    3  N   UNL     1     -11.394   4.634 -33.961  1.00  0.00    -0.092 N 
HETATM    4  C   UNL     1     -11.146   5.503 -32.936  1.00  0.00     0.735 A 
HETATM    5  N   UNL     1     -10.567   5.036 -31.811  1.00  0.00    -0.191 N 
HETATM    6  N   UNL     1     -11.893   5.289 -35.019  1.00  0.00     0.012 NA
HETATM    7  N   UNL     1     -11.996   6.550 -34.608  1.00  0.00     0.033 NA
HETATM    8  N   UNL     1     -11.534   6.696 -33.311  1.00  0.00     0.030 NA
HETATM    9  C   UNL     1     -10.013   3.760 -31.719  1.00  0.00     0.037 C 
HETATM   10  C   UNL     1      -9.276   3.470 -30.435  1.00  0.00     0.070 C 
HETATM   11  H   UNL     1     -10.357   5.696 -31.064  1.00  0.00     0.184 HD
ENDROOT
BRANCH   1  12
HETATM   12  C   UNL     1      -9.523   1.540 -32.858  1.00  0.00     0.256 C 
HETATM   13  N   UNL     1      -8.307   1.567 -33.508  1.00  0.00    -0.323 N 
HETATM   14  H   UNL     1      -7.955   2.463 -33.816  1.00  0.00     0.169 HD
HETATM   15  O   UNL     1     -10.117   0.542 -32.476  1.00  0.00    -0.267 OA
BRANCH  13  16
HETATM   16  C   UNL     1      -7.459   0.467 -33.771  1.00  0.00     0.035 A 
HETATM   17  C   UNL     1      -7.484  -0.274 -34.953  1.00  0.00     0.030 A 
HETATM   18  C   UNL     1      -6.617  -1.357 -35.132  1.00  0.00     0.009 A 
HETATM   19  C   UNL     1      -5.712  -1.722 -34.132  1.00  0.00    -0.062 A 
HETATM   20  C   UNL     1      -4.823  -2.914 -34.320  1.00  0.00     0.048 C 
HETATM   21  C   UNL     1      -5.692  -0.988 -32.943  1.00  0.00     0.009 A 
HETATM   22  C   UNL     1      -6.549   0.105 -32.770  1.00  0.00     0.030 A 
ENDBRANCH  13  16
ENDBRANCH   1  12
BRANCH   2  23
HETATM   23  C   UNL     1     -12.438   2.441 -33.852  1.00  0.00    -0.011 A 
HETATM   24  C   UNL     1     -12.798   1.506 -34.824  1.00  0.00     0.125 A 
HETATM   25  N   UNL     1     -13.967   0.828 -34.837  1.00  0.00    -0.272 NA
HETATM   26  C   UNL     1     -14.830   1.089 -33.833  1.00  0.00     0.116 A 
HETATM   27  C   UNL     1     -14.575   1.991 -32.815  1.00  0.00     0.020 A 
HETATM   28  C   UNL     1     -13.362   2.674 -32.826  1.00  0.00     0.012 A 
ENDBRANCH   2  23
TORSDOF 3
ENDMDL
MODEL 6
REMARK VINA RESULT:      -8.0      3.278      5.570
REMARK  3 active torsions:
REMARK  status: ('A' for Active; 'I' for Inactive)
REMARK    1  A    between atoms: C_5  and  N_6 
REMARK       I    between atoms: N_6  and  C_7 
REMARK    2  A    between atoms: C_7  and  C_8 
REMARK    3  A    between atoms: C_9  and  C_10 
ROOT
HETATM    1  C   UNL     1      -8.964   2.727 -32.948  1.00  0.00     0.062 C 
HETATM    2  C   UNL     1      -9.762   3.125 -34.199  1.00  0.00     0.199 C 
HETATM    3  N   UNL     1      -9.831   4.578 -34.317  1.00  0.00    -0.092 N 
HETATM    4  C   UNL     1      -9.536   5.449 -33.306  1.00  0.00     0.735 A 
HETATM    5  N   UNL     1      -9.107   4.956 -32.125  1.00  0.00    -0.191 N 
HETATM    6  N   UNL     1     -10.160   5.248 -35.430  1.00  0.00     0.012 NA
HETATM    7  N   UNL     1     -10.116   6.528 -35.070  1.00  0.00     0.033 NA
HETATM    8  N   UNL     1      -9.729   6.666 -33.748  1.00  0.00     0.030 NA
HETATM    9  C   UNL     1      -8.742   3.623 -31.950  1.00  0.00     0.037 C 
HETATM   10  C   UNL     1      -8.143   3.292 -30.606  1.00  0.00     0.070 C 
HETATM   11  H   UNL     1      -8.860   5.614 -31.388  1.00  0.00     0.184 HD
ENDROOT
BRANCH   1  12
HETATM   12  C   UNL     1      -8.485   1.310 -32.976  1.00  0.00     0.256 C 
HETATM   13  N   UNL     1      -7.322   1.118 -33.692  1.00  0.00    -0.323 N 
HETATM   14  H   UNL     1      -6.882   1.928 -34.106  1.00  0.00     0.169 HD
HETATM   15  O   UNL     1      -9.173   0.437 -32.465  1.00  0.00    -0.267 OA
BRANCH  13  16
HETATM   16  C   UNL     1      -6.640  -0.104 -33.894  1.00  0.00     0.035 A 
HETATM   17  C   UNL     1      -7.109  -1.136 -34.707  1.00  0.00     0.030 A 
HETATM   18  C   UNL     1      -6.377  -2.320 -34.847  1.00  0.00     0.009 A 
HETATM   19  C   UNL     1      -5.166  -2.496 -34.172  1.00  0.00    -0.062 A 
HETATM   20  C   UNL     1      -4.418  -3.790 -34.294  1.00  0.00     0.048 C 
HETATM   21  C   UNL     1      -4.700  -1.468 -33.348  1.00  0.00     0.009 A 
HETATM   22  C   UNL     1      -5.424  -0.278 -33.222  1.00  0.00     0.030 A 
ENDBRANCH  13  16
ENDBRANCH   1  12
BRANCH   2  23
HETATM   23  C   UNL     1     -11.172   2.553 -34.213  1.00  0.00    -0.011 A 
HETATM   24  C   UNL     1     -11.685   1.874 -35.320  1.00  0.00     0.125 A 
HETATM   25  N   UNL     1     -12.939   1.375 -35.396  1.00  0.00    -0.272 NA
HETATM   26  C   UNL     1     -13.732   1.558 -34.319  1.00  0.00     0.116 A 
HETATM   27  C   UNL     1     -13.326   2.211 -33.168  1.00  0.00     0.020 A 
HETATM   28  C   UNL     1     -12.028   2.712 -33.116  1.00  0.00     0.012 A 
ENDBRANCH   2  23
TORSDOF 3
ENDMDL
MODEL 7
REMARK VINA RESULT:      -7.8      1.586      1.722
REMARK  3 active torsions:
REMARK  status: ('A' for Active; 'I' for Inactive)
REMARK    1  A    between atoms: C_5  and  N_6 
REMARK       I    between atoms: N_6  and  C_7 
REMARK    2  A    between atoms: C_7  and  C_8 
REMARK    3  A    between atoms: C_9  and  C_10 
ROOT
HETATM    1  C   UNL     1      -6.458   3.935 -32.224  1.00  0.00     0.062 C 
HETATM    2  C   UNL     1      -5.276   4.829 -31.821  1.00  0.00     0.199 C 
HETATM    3  N   UNL     1      -5.740   6.180 -31.521  1.00  0.00    -0.092 N 
HETATM    4  C   UNL     1      -6.966   6.670 -31.872  1.00  0.00     0.735 A 
HETATM    5  N   UNL     1      -7.840   5.855 -32.497  1.00  0.00    -0.191 N 
HETATM    6  N   UNL     1      -5.044   7.103 -30.842  1.00  0.00     0.012 NA
HETATM    7  N   UNL     1      -5.835   8.172 -30.833  1.00  0.00     0.033 NA
HETATM    8  N   UNL     1      -7.036   7.916 -31.472  1.00  0.00     0.030 NA
HETATM    9  C   UNL     1      -7.642   4.480 -32.611  1.00  0.00     0.037 C 
HETATM   10  C   UNL     1      -8.796   3.711 -33.206  1.00  0.00     0.070 C 
HETATM   11  H   UNL     1      -8.763   6.219 -32.727  1.00  0.00     0.184 HD
ENDROOT
BRANCH   1  12
HETATM   12  C   UNL     1      -6.155   2.473 -32.133  1.00  0.00     0.256 C 
HETATM   13  N   UNL     1      -5.885   1.872 -33.345  1.00  0.00    -0.323 N 
HETATM   14  H   UNL     1      -5.886   2.454 -34.172  1.00  0.00     0.169 HD
HETATM   15  O   UNL     1      -6.253   1.909 -31.052  1.00  0.00    -0.267 OA
BRANCH  13  16
HETATM   16  C   UNL     1      -5.570   0.512 -33.568  1.00  0.00     0.035 A 
HETATM   17  C   UNL     1      -4.410  -0.107 -33.104  1.00  0.00     0.030 A 
HETATM   18  C   UNL     1      -4.167  -1.458 -33.377  1.00  0.00     0.009 A 
HETATM   19  C   UNL     1      -5.077  -2.212 -34.121  1.00  0.00    -0.062 A 
HETATM   20  C   UNL     1      -4.780  -3.646 -34.446  1.00  0.00     0.048 C 
HETATM   21  C   UNL     1      -6.236  -1.591 -34.596  1.00  0.00     0.009 A 
HETATM   22  C   UNL     1      -6.486  -0.244 -34.310  1.00  0.00     0.030 A 
ENDBRANCH  13  16
ENDBRANCH   1  12
BRANCH   2  23
HETATM   23  C   UNL     1      -4.188   4.896 -32.883  1.00  0.00    -0.011 A 
HETATM   24  C   UNL     1      -4.413   5.463 -34.139  1.00  0.00     0.125 A 
HETATM   25  N   UNL     1      -3.492   5.519 -35.127  1.00  0.00    -0.272 NA
HETATM   26  C   UNL     1      -2.282   4.983 -34.861  1.00  0.00     0.116 A 
HETATM   27  C   UNL     1      -1.950   4.401 -33.650  1.00  0.00     0.020 A 
HETATM   28  C   UNL     1      -2.916   4.359 -32.649  1.00  0.00     0.012 A 
ENDBRANCH   2  23
TORSDOF 3
ENDMDL
MODEL 8
REMARK VINA RESULT:      -7.8      4.921      8.730
REMARK  3 active torsions:
REMARK  status: ('A' for Active; 'I' for Inactive)
REMARK    1  A    between atoms: C_5  and  N_6 
REMARK       I    between atoms: N_6  and  C_7 
REMARK    2  A    between atoms: C_7  and  C_8 
REMARK    3  A    between atoms: C_9  and  C_10 
ROOT
HETATM    1  C   UNL     1      -2.483   5.659 -31.867  1.00  0.00     0.062 C 
HETATM    2  C   UNL     1      -3.787   4.937 -31.497  1.00  0.00     0.199 C 
HETATM    3  N   UNL     1      -4.542   4.601 -32.700  1.00  0.00    -0.092 N 
HETATM    4  C   UNL     1      -4.308   5.141 -33.933  1.00  0.00     0.735 A 
HETATM    5  N   UNL     1      -3.286   6.009 -34.082  1.00  0.00    -0.191 N 
HETATM    6  N   UNL     1      -5.537   3.706 -32.763  1.00  0.00     0.012 NA
HETATM    7  N   UNL     1      -5.940   3.748 -34.029  1.00  0.00     0.033 NA
HETATM    8  N   UNL     1      -5.182   4.640 -34.769  1.00  0.00     0.030 NA
HETATM    9  C   UNL     1      -2.323   6.220 -33.096  1.00  0.00     0.037 C 
HETATM   10  C   UNL     1      -1.174   7.110 -33.499  1.00  0.00     0.070 C 
HETATM   11  H   UNL     1      -3.099   6.383 -35.011  1.00  0.00     0.184 HD
ENDROOT
BRANCH   1  12
HETATM   12  C   UNL     1      -1.469   5.657 -30.767  1.00  0.00     0.256 C 
HETATM   13  N   UNL     1      -1.467   6.800 -29.995  1.00  0.00    -0.323 N 
HETATM   14  H   UNL     1      -2.149   7.516 -30.208  1.00  0.00     0.169 HD
HETATM   15  O   UNL     1      -0.680   4.727 -30.685  1.00  0.00    -0.267 OA
BRANCH  13  16
HETATM   16  C   UNL     1      -0.625   7.081 -28.895  1.00  0.00     0.035 A 
HETATM   17  C   UNL     1      -0.845   6.608 -27.602  1.00  0.00     0.030 A 
HETATM   18  C   UNL     1       0.032   6.940 -26.564  1.00  0.00     0.009 A 
HETATM   19  C   UNL     1       1.142   7.755 -26.799  1.00  0.00    -0.062 A 
HETATM   20  C   UNL     1       2.046   8.141 -25.666  1.00  0.00     0.048 C 
HETATM   21  C   UNL     1       1.359   8.239 -28.092  1.00  0.00     0.009 A 
HETATM   22  C   UNL     1       0.491   7.893 -29.132  1.00  0.00     0.030 A 
ENDBRANCH  13  16
ENDBRANCH   1  12
BRANCH   2  23
HETATM   23  C   UNL     1      -4.670   5.745 -30.558  1.00  0.00    -0.011 A 
HETATM   24  C   UNL     1      -5.235   5.188 -29.410  1.00  0.00     0.125 A 
HETATM   25  N   UNL     1      -6.051   5.852 -28.561  1.00  0.00    -0.272 NA
HETATM   26  C   UNL     1      -6.326   7.138 -28.864  1.00  0.00     0.116 A 
HETATM   27  C   UNL     1      -5.816   7.792 -29.973  1.00  0.00     0.020 A 
HETATM   28  C   UNL     1      -4.976   7.085 -30.829  1.00  0.00     0.012 A 
ENDBRANCH   2  23
TORSDOF 3
ENDMDL
MODEL 9
REMARK VINA RESULT:      -7.7      1.805      3.903
REMARK  3 active torsions:
REMARK  status: ('A' for Active; 'I' for Inactive)
REMARK    1  A    between atoms: C_5  and  N_6 
REMARK       I    between atoms: N_6  and  C_7 
REMARK    2  A    between atoms: C_7  and  C_8 
REMARK    3  A    between atoms: C_9  and  C_10 
ROOT
HETATM    1  C   UNL     1      -5.189   2.687 -32.455  1.00  0.00     0.062 C 
HETATM    2  C   UNL     1      -6.023   3.971 -32.578  1.00  0.00     0.199 C 
HETATM    3  N   UNL     1      -5.284   5.111 -32.044  1.00  0.00    -0.092 N 
HETATM    4  C   UNL     1      -4.177   5.008 -31.249  1.00  0.00     0.735 A 
HETATM    5  N   UNL     1      -3.690   3.783 -30.965  1.00  0.00    -0.191 N 
HETATM    6  N   UNL     1      -5.571   6.398 -32.281  1.00  0.00     0.012 NA
HETATM    7  N   UNL     1      -4.665   7.074 -31.581  1.00  0.00     0.033 NA
HETATM    8  N   UNL     1      -3.790   6.219 -30.933  1.00  0.00     0.030 NA
HETATM    9  C   UNL     1      -4.124   2.627 -31.612  1.00  0.00     0.037 C 
HETATM   10  C   UNL     1      -3.357   1.373 -31.272  1.00  0.00     0.070 C 
HETATM   11  H   UNL     1      -2.846   3.717 -30.398  1.00  0.00     0.184 HD
ENDROOT
BRANCH   1  12
HETATM   12  C   UNL     1      -5.668   1.580 -33.340  1.00  0.00     0.256 C 
HETATM   13  N   UNL     1      -5.274   0.322 -32.939  1.00  0.00    -0.323 N 
HETATM   14  H   UNL     1      -4.732   0.244 -32.089  1.00  0.00     0.169 HD
HETATM   15  O   UNL     1      -6.272   1.857 -34.368  1.00  0.00    -0.267 OA
BRANCH  13  16
HETATM   16  C   UNL     1      -5.572  -0.905 -33.575  1.00  0.00     0.035 A 
HETATM   17  C   UNL     1      -6.866  -1.357 -33.834  1.00  0.00     0.030 A 
HETATM   18  C   UNL     1      -7.077  -2.591 -34.459  1.00  0.00     0.009 A 
HETATM   19  C   UNL     1      -5.998  -3.396 -34.834  1.00  0.00    -0.062 A 
HETATM   20  C   UNL     1      -6.242  -4.737 -35.460  1.00  0.00     0.048 C 
HETATM   21  C   UNL     1      -4.701  -2.951 -34.566  1.00  0.00     0.009 A 
HETATM   22  C   UNL     1      -4.490  -1.710 -33.954  1.00  0.00     0.030 A 
ENDBRANCH  13  16
ENDBRANCH   1  12
BRANCH   2  23
HETATM   23  C   UNL     1      -7.371   3.875 -31.879  1.00  0.00    -0.011 A 
HETATM   24  C   UNL     1      -7.483   3.568 -30.522  1.00  0.00     0.125 A 
HETATM   25  N   UNL     1      -8.655   3.439 -29.862  1.00  0.00    -0.272 NA
HETATM   26  C   UNL     1      -9.781   3.622 -30.583  1.00  0.00     0.116 A 
HETATM   27  C   UNL     1      -9.788   3.934 -31.931  1.00  0.00     0.020 A 
HETATM   28  C   UNL     1      -8.566   4.064 -32.585  1.00  0.00     0.012 A 
ENDBRANCH   2  23
TORSDOF 3
ENDMDL
MODEL 10
REMARK VINA RESULT:      -7.7      1.977      4.044
REMARK  3 active torsions:
REMARK  status: ('A' for Active; 'I' for Inactive)
REMARK    1  A    between atoms: C_5  and  N_6 
REMARK       I    between atoms: N_6  and  C_7 
REMARK    2  A    between atoms: C_7  and  C_8 
REMARK    3  A    between atoms: C_9  and  C_10 
ROOT
HETATM    1  C   UNL     1      -6.397   2.027 -31.993  1.00  0.00     0.062 C 
HETATM    2  C   UNL     1      -6.941   2.977 -33.070  1.00  0.00     0.199 C 
HETATM    3  N   UNL     1      -6.342   4.301 -32.932  1.00  0.00    -0.092 N 
HETATM    4  C   UNL     1      -5.672   4.731 -31.822  1.00  0.00     0.735 A 
HETATM    5  N   UNL     1      -5.499   3.877 -30.792  1.00  0.00    -0.191 N 
HETATM    6  N   UNL     1      -6.344   5.253 -33.876  1.00  0.00     0.012 NA
HETATM    7  N   UNL     1      -5.719   6.280 -33.309  1.00  0.00     0.033 NA
HETATM    8  N   UNL     1      -5.295   5.969 -32.029  1.00  0.00     0.030 NA
HETATM    9  C   UNL     1      -5.779   2.515 -30.884  1.00  0.00     0.037 C 
HETATM   10  C   UNL     1      -5.380   1.694 -29.683  1.00  0.00     0.070 C 
HETATM   11  H   UNL     1      -4.971   4.197 -29.982  1.00  0.00     0.184 HD
ENDROOT
BRANCH   1  12
HETATM   12  C   UNL     1      -6.615   0.582 -32.310  1.00  0.00     0.256 C 
HETATM   13  N   UNL     1      -5.797   0.089 -33.304  1.00  0.00    -0.323 N 
HETATM   14  H   UNL     1      -5.114   0.715 -33.709  1.00  0.00     0.169 HD
HETATM   15  O   UNL     1      -7.528  -0.018 -31.759  1.00  0.00    -0.267 OA
BRANCH  13  16
HETATM   16  C   UNL     1      -5.778  -1.230 -33.813  1.00  0.00     0.035 A 
HETATM   17  C   UNL     1      -6.886  -1.869 -34.369  1.00  0.00     0.030 A 
HETATM   18  C   UNL     1      -6.787  -3.181 -34.843  1.00  0.00     0.009 A 
HETATM   19  C   UNL     1      -5.580  -3.880 -34.765  1.00  0.00    -0.062 A 
HETATM   20  C   UNL     1      -5.502  -5.303 -35.233  1.00  0.00     0.048 C 
HETATM   21  C   UNL     1      -4.470  -3.246 -34.199  1.00  0.00     0.009 A 
HETATM   22  C   UNL     1      -4.566  -1.928 -33.740  1.00  0.00     0.030 A 
ENDBRANCH  13  16
ENDBRANCH   1  12
BRANCH   2  23
HETATM   23  C   UNL     1      -8.457   3.106 -33.040  1.00  0.00    -0.011 A 
HETATM   24  C   UNL     1      -9.244   2.861 -34.167  1.00  0.00     0.125 A 
HETATM   25  N   UNL     1     -10.589   2.992 -34.203  1.00  0.00    -0.272 NA
HETATM   26  C   UNL     1     -11.191   3.388 -33.061  1.00  0.00     0.116 A 
HETATM   27  C   UNL     1     -10.510   3.652 -31.885  1.00  0.00     0.020 A 
HETATM   28  C   UNL     1      -9.125   3.507 -31.877  1.00  0.00     0.012 A 
ENDBRANCH   2  23
TORSDOF 3
ENDMDL
