MODEL 1
REMARK VINA RESULT:      -8.2      0.000      0.000
REMARK  7 active torsions:
REMARK  status: ('A' for Active; 'I' for Inactive)
REMARK    1  A    between atoms: C_4  and  C_5 
REMARK    2  A    between atoms: C_10  and  C_11 
REMARK       I    between atoms: C_11  and  N_12 
REMARK    3  A    between atoms: N_12  and  C_13 
REMARK    4  A    between atoms: C_13  and  C_14 
REMARK    5  A    between atoms: C_14  and  C_15 
REMARK    6  A    between atoms: C_15  and  N_16 
REMARK    7  A    between atoms: C_26  and  C_27 
ROOT
HETATM    1  C   UNL     1      -0.833   5.015 -30.871  1.00  0.00     0.125 C 
HETATM    2  N   UNL     1      -2.042   4.192 -30.778  1.00  0.00    -0.365 N 
HETATM    3  C   UNL     1      -2.982   4.161 -31.753  1.00  0.00     0.141 A 
HETATM    4  N   UNL     1      -2.785   4.789 -32.951  1.00  0.00    -0.238 N 
HETATM    5  N   UNL     1      -3.756   4.558 -33.858  1.00  0.00    -0.163 NA
HETATM    6  C   UNL     1      -4.675   3.839 -33.168  1.00  0.00     0.165 A 
HETATM    7  C   UNL     1      -4.220   3.579 -31.852  1.00  0.00     0.092 A 
HETATM    8 BR   UNL     1      -5.100   2.581 -30.534  1.00  0.00    -0.044 Br
HETATM    9  C   UNL     1      -1.618   5.592 -33.266  1.00  0.00     0.221 C 
HETATM   10  C   UNL     1      -0.445   5.194 -32.354  1.00  0.00     0.067 C 
HETATM   11  H   UNL     1      -2.297   3.940 -29.822  1.00  0.00     0.162 HD
ENDROOT
BRANCH   6  12
HETATM   12  C   UNL     1      -5.916   3.416 -33.825  1.00  0.00     0.273 C 
HETATM   13  N   UNL     1      -6.111   2.049 -33.817  1.00  0.00    -0.355 N 
HETATM   14  H   UNL     1      -5.323   1.511 -33.447  1.00  0.00     0.162 HD
HETATM   15  O   UNL     1      -6.762   4.172 -34.308  1.00  0.00    -0.266 OA
BRANCH  13  16
HETATM   16  C   UNL     1      -7.178   1.391 -34.528  1.00  0.00     0.124 C 
BRANCH  16  17
HETATM   17  C   UNL     1      -6.971  -0.115 -34.690  1.00  0.00     0.047 C 
BRANCH  17  18
HETATM   18  C   UNL     1      -5.671  -0.704 -34.136  1.00  0.00     0.236 C 
BRANCH  18  19
HETATM   19  N   UNL     1      -5.407  -2.123 -34.559  1.00  0.00    -0.067 N 
HETATM   20  H   UNL     1      -5.060  -2.084 -35.542  1.00  0.00     0.280 HD
HETATM   21  C   UNL     1      -4.401  -2.875 -33.708  1.00  0.00     0.261 C 
HETATM   22  C   UNL     1      -4.219  -4.298 -34.247  1.00  0.00     0.195 C 
HETATM   23  O   UNL     1      -5.468  -4.996 -34.294  1.00  0.00    -0.388 OA
HETATM   24  C   UNL     1      -6.398  -4.340 -35.165  1.00  0.00     0.195 C 
HETATM   25  C   UNL     1      -6.705  -2.925 -34.664  1.00  0.00     0.261 C 
ENDBRANCH  18  19
ENDBRANCH  17  18
ENDBRANCH  16  17
ENDBRANCH  13  16
ENDBRANCH   6  12
BRANCH   9  26
HETATM   26  C   UNL     1      -1.980   7.059 -33.211  1.00  0.00     0.409 C 
HETATM   27  F   UNL     1      -2.266   7.593 -34.411  1.00  0.00    -0.169 F 
HETATM   28  F   UNL     1      -3.061   7.246 -32.412  1.00  0.00    -0.169 F 
HETATM   29  F   UNL     1      -0.977   7.793 -32.673  1.00  0.00    -0.169 F 
ENDBRANCH   9  26
BRANCH   1  30
HETATM   30  C   UNL     1      -0.829   6.309 -30.083  1.00  0.00     0.005 A 
HETATM   31  S   UNL     1      -2.278   6.945 -29.406  1.00  0.00    -0.104 SA
HETATM   32  C   UNL     1      -1.459   8.270 -28.706  1.00  0.00     0.050 A 
HETATM   33  C   UNL     1      -0.105   8.224 -28.946  1.00  0.00     0.008 A 
HETATM   34  C   UNL     1       0.260   7.089 -29.725  1.00  0.00     0.017 A 
ENDBRANCH   1  30
TORSDOF 7
ENDMDL
MODEL 2
REMARK VINA RESULT:      -8.0      5.855      8.530
REMARK  7 active torsions:
REMARK  status: ('A' for Active; 'I' for Inactive)
REMARK    1  A    between atoms: C_4  and  C_5 
REMARK    2  A    between atoms: C_10  and  C_11 
REMARK       I    between atoms: C_11  and  N_12 
REMARK    3  A    between atoms: N_12  and  C_13 
REMARK    4  A    between atoms: C_13  and  C_14 
REMARK    5  A    between atoms: C_14  and  C_15 
REMARK    6  A    between atoms: C_15  and  N_16 
REMARK    7  A    between atoms: C_26  and  C_27 
ROOT
HETATM    1  C   UNL     1      -5.457   1.213 -33.603  1.00  0.00     0.125 C 
HETATM    2  N   UNL     1      -6.564   2.160 -33.758  1.00  0.00    -0.365 N 
HETATM    3  C   UNL     1      -7.319   2.579 -32.715  1.00  0.00     0.141 A 
HETATM    4  N   UNL     1      -6.997   2.253 -31.427  1.00  0.00    -0.238 N 
HETATM    5  N   UNL     1      -7.770   2.851 -30.498  1.00  0.00    -0.163 NA
HETATM    6  C   UNL     1      -8.705   3.503 -31.232  1.00  0.00     0.165 A 
HETATM    7  C   UNL     1      -8.450   3.349 -32.617  1.00  0.00     0.092 A 
HETATM    8 BR   UNL     1      -9.420   4.104 -34.030  1.00  0.00    -0.044 Br
HETATM    9  C   UNL     1      -5.890   1.388 -31.061  1.00  0.00     0.221 C 
HETATM   10  C   UNL     1      -4.849   1.359 -32.192  1.00  0.00     0.067 C 
HETATM   11  H   UNL     1      -6.946   2.197 -34.705  1.00  0.00     0.162 HD
ENDROOT
BRANCH   6  12
HETATM   12  C   UNL     1      -9.764   4.263 -30.559  1.00  0.00     0.273 C 
HETATM   13  N   UNL     1     -11.003   3.657 -30.615  1.00  0.00    -0.355 N 
HETATM   14  H   UNL     1     -11.039   2.817 -31.198  1.00  0.00     0.162 HD
HETATM   15  O   UNL     1      -9.604   5.321 -29.946  1.00  0.00    -0.266 OA
BRANCH  13  16
HETATM   16  C   UNL     1     -12.218   4.282 -30.157  1.00  0.00     0.124 C 
BRANCH  16  17
HETATM   17  C   UNL     1     -13.260   4.482 -31.257  1.00  0.00     0.047 C 
BRANCH  17  18
HETATM   18  C   UNL     1     -14.250   3.338 -31.496  1.00  0.00     0.236 C 
BRANCH  18  19
HETATM   19  N   UNL     1     -13.813   2.354 -32.546  1.00  0.00    -0.067 N 
HETATM   20  H   UNL     1     -13.053   1.780 -32.122  1.00  0.00     0.280 HD
HETATM   21  C   UNL     1     -14.903   1.430 -33.059  1.00  0.00     0.261 C 
HETATM   22  C   UNL     1     -14.328   0.478 -34.113  1.00  0.00     0.195 C 
HETATM   23  O   UNL     1     -13.726   1.203 -35.191  1.00  0.00    -0.388 OA
HETATM   24  C   UNL     1     -12.638   2.012 -34.729  1.00  0.00     0.195 C 
HETATM   25  C   UNL     1     -13.129   3.055 -33.719  1.00  0.00     0.261 C 
ENDBRANCH  18  19
ENDBRANCH  17  18
ENDBRANCH  16  17
ENDBRANCH  13  16
ENDBRANCH   6  12
BRANCH   9  26
HETATM   26  C   UNL     1      -6.419   0.027 -30.665  1.00  0.00     0.409 C 
HETATM   27  F   UNL     1      -6.568  -0.132 -29.337  1.00  0.00    -0.169 F 
HETATM   28  F   UNL     1      -7.626  -0.193 -31.242  1.00  0.00    -0.169 F 
HETATM   29  F   UNL     1      -5.602  -0.963 -31.098  1.00  0.00    -0.169 F 
ENDBRANCH   9  26
BRANCH   1  30
HETATM   30  C   UNL     1      -5.730  -0.224 -34.001  1.00  0.00     0.005 A 
HETATM   31  S   UNL     1      -4.499  -1.424 -33.909  1.00  0.00    -0.104 SA
HETATM   32  C   UNL     1      -5.556  -2.655 -34.440  1.00  0.00     0.050 A 
HETATM   33  C   UNL     1      -6.830  -2.184 -34.654  1.00  0.00     0.008 A 
HETATM   34  C   UNL     1      -6.935  -0.789 -34.388  1.00  0.00     0.017 A 
ENDBRANCH   1  30
TORSDOF 7
ENDMDL
MODEL 3
REMARK VINA RESULT:      -8.0      1.638      1.867
REMARK  7 active torsions:
REMARK  status: ('A' for Active; 'I' for Inactive)
REMARK    1  A    between atoms: C_4  and  C_5 
REMARK    2  A    between atoms: C_10  and  C_11 
REMARK       I    between atoms: C_11  and  N_12 
REMARK    3  A    between atoms: N_12  and  C_13 
REMARK    4  A    between atoms: C_13  and  C_14 
REMARK    5  A    between atoms: C_14  and  C_15 
REMARK    6  A    between atoms: C_15  and  N_16 
REMARK    7  A    between atoms: C_26  and  C_27 
ROOT
HETATM    1  C   UNL     1      -2.364   5.184 -31.221  1.00  0.00     0.125 C 
HETATM    2  N   UNL     1      -3.574   4.480 -30.787  1.00  0.00    -0.365 N 
HETATM    3  C   UNL     1      -4.430   3.895 -31.658  1.00  0.00     0.141 A 
HETATM    4  N   UNL     1      -4.137   3.802 -32.990  1.00  0.00    -0.238 N 
HETATM    5  N   UNL     1      -5.029   3.081 -33.700  1.00  0.00    -0.163 NA
HETATM    6  C   UNL     1      -5.999   2.795 -32.798  1.00  0.00     0.165 A 
HETATM    7  C   UNL     1      -5.653   3.292 -31.517  1.00  0.00     0.092 A 
HETATM    8 BR   UNL     1      -6.636   3.102 -29.934  1.00  0.00    -0.044 Br
HETATM    9  C   UNL     1      -2.950   4.369 -33.603  1.00  0.00     0.221 C 
HETATM   10  C   UNL     1      -1.855   4.569 -32.542  1.00  0.00     0.067 C 
HETATM   11  H   UNL     1      -3.906   4.761 -29.863  1.00  0.00     0.162 HD
ENDROOT
BRANCH   6  12
HETATM   12  C   UNL     1      -7.181   2.031 -33.212  1.00  0.00     0.273 C 
HETATM   13  N   UNL     1      -7.173   0.719 -32.782  1.00  0.00    -0.355 N 
HETATM   14  H   UNL     1      -6.307   0.429 -32.322  1.00  0.00     0.162 HD
HETATM   15  O   UNL     1      -8.139   2.485 -33.842  1.00  0.00    -0.266 OA
BRANCH  13  16
HETATM   16  C   UNL     1      -8.150  -0.260 -33.190  1.00  0.00     0.124 C 
BRANCH  16  17
HETATM   17  C   UNL     1      -7.661  -1.191 -34.299  1.00  0.00     0.047 C 
BRANCH  17  18
HETATM   18  C   UNL     1      -6.167  -1.157 -34.631  1.00  0.00     0.236 C 
BRANCH  18  19
HETATM   19  N   UNL     1      -5.550  -2.512 -34.841  1.00  0.00    -0.067 N 
HETATM   20  H   UNL     1      -5.079  -2.487 -35.771  1.00  0.00     0.280 HD
HETATM   21  C   UNL     1      -4.542  -2.934 -33.787  1.00  0.00     0.261 C 
HETATM   22  C   UNL     1      -3.987  -4.323 -34.121  1.00  0.00     0.195 C 
HETATM   23  O   UNL     1      -5.040  -5.287 -34.233  1.00  0.00    -0.388 OA
HETATM   24  C   UNL     1      -5.950  -4.942 -35.285  1.00  0.00     0.195 C 
HETATM   25  C   UNL     1      -6.619  -3.592 -35.003  1.00  0.00     0.261 C 
ENDBRANCH  18  19
ENDBRANCH  17  18
ENDBRANCH  16  17
ENDBRANCH  13  16
ENDBRANCH   6  12
BRANCH   9  26
HETATM   26  C   UNL     1      -3.320   5.625 -34.360  1.00  0.00     0.409 C 
HETATM   27  F   UNL     1      -3.783   5.394 -35.602  1.00  0.00    -0.169 F 
HETATM   28  F   UNL     1      -4.276   6.314 -33.688  1.00  0.00    -0.169 F 
HETATM   29  F   UNL     1      -2.259   6.460 -34.476  1.00  0.00    -0.169 F 
ENDBRANCH   9  26
BRANCH   1  30
HETATM   30  C   UNL     1      -2.429   6.698 -31.242  1.00  0.00     0.005 A 
HETATM   31  S   UNL     1      -3.807   7.540 -30.646  1.00  0.00    -0.104 SA
HETATM   32  C   UNL     1      -3.107   9.065 -30.964  1.00  0.00     0.050 A 
HETATM   33  C   UNL     1      -1.837   8.951 -31.480  1.00  0.00     0.008 A 
HETATM   34  C   UNL     1      -1.441   7.591 -31.627  1.00  0.00     0.017 A 
ENDBRANCH   1  30
TORSDOF 7
ENDMDL
MODEL 4
REMARK VINA RESULT:      -8.0      6.323      8.776
REMARK  7 active torsions:
REMARK  status: ('A' for Active; 'I' for Inactive)
REMARK    1  A    between atoms: C_4  and  C_5 
REMARK    2  A    between atoms: C_10  and  C_11 
REMARK       I    between atoms: C_11  and  N_12 
REMARK    3  A    between atoms: N_12  and  C_13 
REMARK    4  A    between atoms: C_13  and  C_14 
REMARK    5  A    between atoms: C_14  and  C_15 
REMARK    6  A    between atoms: C_15  and  N_16 
REMARK    7  A    between atoms: C_26  and  C_27 
ROOT
HETATM    1  C   UNL     1      -6.307   1.442 -30.662  1.00  0.00     0.125 C 
HETATM    2  N   UNL     1      -7.647   2.017 -30.802  1.00  0.00    -0.365 N 
HETATM    3  C   UNL     1      -8.497   1.659 -31.794  1.00  0.00     0.141 A 
HETATM    4  N   UNL     1      -8.206   0.626 -32.641  1.00  0.00    -0.238 N 
HETATM    5  N   UNL     1      -9.206   0.312 -33.489  1.00  0.00    -0.163 NA
HETATM    6  C   UNL     1     -10.141   1.264 -33.248  1.00  0.00     0.165 A 
HETATM    7  C   UNL     1      -9.724   2.118 -32.198  1.00  0.00     0.092 A 
HETATM    8 BR   UNL     1     -10.686   3.546 -31.461  1.00  0.00    -0.044 Br
HETATM    9  C   UNL     1      -6.961  -0.121 -32.615  1.00  0.00     0.221 C 
HETATM   10  C   UNL     1      -6.301   0.008 -31.232  1.00  0.00     0.067 C 
HETATM   11  H   UNL     1      -7.756   2.926 -30.348  1.00  0.00     0.162 HD
ENDROOT
BRANCH   6  12
HETATM   12  C   UNL     1     -11.391   1.274 -34.016  1.00  0.00     0.273 C 
HETATM   13  N   UNL     1     -12.405   0.539 -33.435  1.00  0.00    -0.355 N 
HETATM   14  H   UNL     1     -12.123   0.009 -32.606  1.00  0.00     0.162 HD
HETATM   15  O   UNL     1     -11.582   1.902 -35.059  1.00  0.00    -0.266 OA
BRANCH  13  16
HETATM   16  C   UNL     1     -13.670   0.280 -34.075  1.00  0.00     0.124 C 
BRANCH  16  17
HETATM   17  C   UNL     1     -14.843   1.031 -33.445  1.00  0.00     0.047 C 
BRANCH  17  18
HETATM   18  C   UNL     1     -14.534   2.374 -32.779  1.00  0.00     0.236 C 
BRANCH  18  19
HETATM   19  N   UNL     1     -15.730   3.271 -32.614  1.00  0.00    -0.067 N 
HETATM   20  H   UNL     1     -15.943   3.662 -33.556  1.00  0.00     0.280 HD
HETATM   21  C   UNL     1     -16.973   2.596 -32.065  1.00  0.00     0.261 C 
HETATM   22  C   UNL     1     -18.114   3.613 -31.954  1.00  0.00     0.195 C 
HETATM   23  O   UNL     1     -17.736   4.725 -31.136  1.00  0.00    -0.388 OA
HETATM   24  C   UNL     1     -16.615   5.422 -31.693  1.00  0.00     0.195 C 
HETATM   25  C   UNL     1     -15.392   4.503 -31.776  1.00  0.00     0.261 C 
ENDBRANCH  18  19
ENDBRANCH  17  18
ENDBRANCH  16  17
ENDBRANCH  13  16
ENDBRANCH   6  12
BRANCH   9  26
HETATM   26  C   UNL     1      -6.084   0.314 -33.768  1.00  0.00     0.409 C 
HETATM   27  F   UNL     1      -6.163   1.628 -34.045  1.00  0.00    -0.169 F 
HETATM   28  F   UNL     1      -4.784   0.030 -33.501  1.00  0.00    -0.169 F 
HETATM   29  F   UNL     1      -6.396  -0.356 -34.903  1.00  0.00    -0.169 F 
ENDBRANCH   9  26
BRANCH   1  30
HETATM   30  C   UNL     1      -5.148   2.291 -31.144  1.00  0.00     0.005 A 
HETATM   31  S   UNL     1      -5.386   3.919 -31.650  1.00  0.00    -0.104 SA
HETATM   32  C   UNL     1      -3.722   4.146 -31.959  1.00  0.00     0.050 A 
HETATM   33  C   UNL     1      -2.984   3.025 -31.655  1.00  0.00     0.008 A 
HETATM   34  C   UNL     1      -3.802   1.963 -31.173  1.00  0.00     0.017 A 
ENDBRANCH   1  30
TORSDOF 7
ENDMDL
MODEL 5
REMARK VINA RESULT:      -7.7      4.408      8.753
REMARK  7 active torsions:
REMARK  status: ('A' for Active; 'I' for Inactive)
REMARK    1  A    between atoms: C_4  and  C_5 
REMARK    2  A    between atoms: C_10  and  C_11 
REMARK       I    between atoms: C_11  and  N_12 
REMARK    3  A    between atoms: N_12  and  C_13 
REMARK    4  A    between atoms: C_13  and  C_14 
REMARK    5  A    between atoms: C_14  and  C_15 
REMARK    6  A    between atoms: C_15  and  N_16 
REMARK    7  A    between atoms: C_26  and  C_27 
ROOT
HETATM    1  C   UNL     1      -4.869   0.404 -32.240  1.00  0.00     0.125 C 
HETATM    2  N   UNL     1      -3.998   1.568 -32.423  1.00  0.00    -0.365 N 
HETATM    3  C   UNL     1      -4.208   2.746 -31.789  1.00  0.00     0.141 A 
HETATM    4  N   UNL     1      -5.168   2.872 -30.823  1.00  0.00    -0.238 N 
HETATM    5  N   UNL     1      -5.166   4.068 -30.200  1.00  0.00    -0.163 NA
HETATM    6  C   UNL     1      -4.233   4.781 -30.878  1.00  0.00     0.165 A 
HETATM    7  C   UNL     1      -3.622   3.983 -31.875  1.00  0.00     0.092 A 
HETATM    8 BR   UNL     1      -2.241   4.492 -33.033  1.00  0.00    -0.044 Br
HETATM    9  C   UNL     1      -6.083   1.812 -30.443  1.00  0.00     0.221 C 
HETATM   10  C   UNL     1      -5.492   0.445 -30.828  1.00  0.00     0.067 C 
HETATM   11  H   UNL     1      -3.465   1.552 -33.295  1.00  0.00     0.162 HD
ENDROOT
BRANCH   6  12
HETATM   12  C   UNL     1      -3.962   6.173 -30.503  1.00  0.00     0.273 C 
HETATM   13  N   UNL     1      -3.588   6.330 -29.183  1.00  0.00    -0.355 N 
HETATM   14  H   UNL     1      -3.646   5.477 -28.622  1.00  0.00     0.162 HD
HETATM   15  O   UNL     1      -4.001   7.139 -31.269  1.00  0.00    -0.266 OA
BRANCH  13  16
HETATM   16  C   UNL     1      -3.416   7.613 -28.550  1.00  0.00     0.124 C 
BRANCH  16  17
HETATM   17  C   UNL     1      -2.021   7.826 -27.961  1.00  0.00     0.047 C 
BRANCH  17  18
HETATM   18  C   UNL     1      -0.918   8.271 -28.924  1.00  0.00     0.236 C 
BRANCH  18  19
HETATM   19  N   UNL     1       0.013   7.169 -29.348  1.00  0.00    -0.067 N 
HETATM   20  H   UNL     1       0.969   7.582 -29.387  1.00  0.00     0.280 HD
HETATM   21  C   UNL     1       0.034   5.955 -28.438  1.00  0.00     0.261 C 
HETATM   22  C   UNL     1       1.023   4.915 -28.977  1.00  0.00     0.195 C 
HETATM   23  O   UNL     1       0.696   4.539 -30.319  1.00  0.00    -0.388 OA
HETATM   24  C   UNL     1       0.758   5.665 -31.204  1.00  0.00     0.195 C 
HETATM   25  C   UNL     1      -0.256   6.737 -30.789  1.00  0.00     0.261 C 
ENDBRANCH  18  19
ENDBRANCH  17  18
ENDBRANCH  16  17
ENDBRANCH  13  16
ENDBRANCH   6  12
BRANCH   9  26
HETATM   26  C   UNL     1      -7.451   2.087 -31.027  1.00  0.00     0.409 C 
HETATM   27  F   UNL     1      -8.121   0.977 -31.384  1.00  0.00    -0.169 F 
HETATM   28  F   UNL     1      -8.217   2.758 -30.131  1.00  0.00    -0.169 F 
HETATM   29  F   UNL     1      -7.367   2.876 -32.124  1.00  0.00    -0.169 F 
ENDBRANCH   9  26
BRANCH   1  30
HETATM   30  C   UNL     1      -5.875   0.128 -33.339  1.00  0.00     0.005 A 
HETATM   31  S   UNL     1      -6.652  -1.402 -33.472  1.00  0.00    -0.104 SA
HETATM   32  C   UNL     1      -7.577  -0.900 -34.817  1.00  0.00     0.050 A 
HETATM   33  C   UNL     1      -7.334   0.413 -35.148  1.00  0.00     0.008 A 
HETATM   34  C   UNL     1      -6.366   1.009 -34.290  1.00  0.00     0.017 A 
ENDBRANCH   1  30
TORSDOF 7
ENDMDL
MODEL 6
REMARK VINA RESULT:      -7.7      4.708      7.691
REMARK  7 active torsions:
REMARK  status: ('A' for Active; 'I' for Inactive)
REMARK    1  A    between atoms: C_4  and  C_5 
REMARK    2  A    between atoms: C_10  and  C_11 
REMARK       I    between atoms: C_11  and  N_12 
REMARK    3  A    between atoms: N_12  and  C_13 
REMARK    4  A    between atoms: C_13  and  C_14 
REMARK    5  A    between atoms: C_14  and  C_15 
REMARK    6  A    between atoms: C_15  and  N_16 
REMARK    7  A    between atoms: C_26  and  C_27 
ROOT
HETATM    1  C   UNL     1      -5.969   1.448 -30.459  1.00  0.00     0.125 C 
HETATM    2  N   UNL     1      -7.338   1.958 -30.571  1.00  0.00    -0.365 N 
HETATM    3  C   UNL     1      -8.193   1.550 -31.539  1.00  0.00     0.141 A 
HETATM    4  N   UNL     1      -7.872   0.525 -32.386  1.00  0.00    -0.238 N 
HETATM    5  N   UNL     1      -8.876   0.157 -33.207  1.00  0.00    -0.163 NA
HETATM    6  C   UNL     1      -9.849   1.065 -32.951  1.00  0.00     0.165 A 
HETATM    7  C   UNL     1      -9.450   1.947 -31.917  1.00  0.00     0.092 A 
HETATM    8 BR   UNL     1     -10.462   3.334 -31.168  1.00  0.00    -0.044 Br
HETATM    9  C   UNL     1      -6.593  -0.160 -32.384  1.00  0.00     0.221 C 
HETATM   10  C   UNL     1      -5.907   0.011 -31.018  1.00  0.00     0.067 C 
HETATM   11  H   UNL     1      -7.479   2.864 -30.121  1.00  0.00     0.162 HD
ENDROOT
BRANCH   6  12
HETATM   12  C   UNL     1     -11.116   1.008 -33.688  1.00  0.00     0.273 C 
HETATM   13  N   UNL     1     -11.118   1.759 -34.847  1.00  0.00    -0.355 N 
HETATM   14  H   UNL     1     -10.280   2.330 -34.984  1.00  0.00     0.162 HD
HETATM   15  O   UNL     1     -12.096   0.330 -33.372  1.00  0.00    -0.266 OA
BRANCH  13  16
HETATM   16  C   UNL     1     -12.292   1.976 -35.655  1.00  0.00     0.124 C 
BRANCH  16  17
HETATM   17  C   UNL     1     -12.445   3.416 -36.143  1.00  0.00     0.047 C 
BRANCH  17  18
HETATM   18  C   UNL     1     -12.833   4.468 -35.101  1.00  0.00     0.236 C 
BRANCH  18  19
HETATM   19  N   UNL     1     -11.674   5.011 -34.311  1.00  0.00    -0.067 N 
HETATM   20  H   UNL     1     -11.506   4.343 -33.528  1.00  0.00     0.280 HD
HETATM   21  C   UNL     1     -10.386   5.191 -35.093  1.00  0.00     0.261 C 
HETATM   22  C   UNL     1      -9.289   5.741 -34.175  1.00  0.00     0.195 C 
HETATM   23  O   UNL     1      -9.693   6.973 -33.568  1.00  0.00    -0.388 OA
HETATM   24  C   UNL     1     -10.860   6.795 -32.756  1.00  0.00     0.195 C 
HETATM   25  C   UNL     1     -12.043   6.315 -33.604  1.00  0.00     0.261 C 
ENDBRANCH  18  19
ENDBRANCH  17  18
ENDBRANCH  16  17
ENDBRANCH  13  16
ENDBRANCH   6  12
BRANCH   9  26
HETATM   26  C   UNL     1      -5.765   0.306 -33.561  1.00  0.00     0.409 C 
HETATM   27  F   UNL     1      -5.880   1.621 -33.818  1.00  0.00    -0.169 F 
HETATM   28  F   UNL     1      -4.452   0.045 -33.343  1.00  0.00    -0.169 F 
HETATM   29  F   UNL     1      -6.103  -0.357 -34.693  1.00  0.00    -0.169 F 
ENDBRANCH   9  26
BRANCH   1  30
HETATM   30  C   UNL     1      -4.864   2.348 -30.975  1.00  0.00     0.005 A 
HETATM   31  S   UNL     1      -5.158   4.006 -31.330  1.00  0.00    -0.104 SA
HETATM   32  C   UNL     1      -3.530   4.279 -31.767  1.00  0.00     0.050 A 
HETATM   33  C   UNL     1      -2.760   3.149 -31.618  1.00  0.00     0.008 A 
HETATM   34  C   UNL     1      -3.523   2.042 -31.149  1.00  0.00     0.017 A 
ENDBRANCH   1  30
TORSDOF 7
ENDMDL
MODEL 7
REMARK VINA RESULT:      -7.6      3.748      5.189
REMARK  7 active torsions:
REMARK  status: ('A' for Active; 'I' for Inactive)
REMARK    1  A    between atoms: C_4  and  C_5 
REMARK    2  A    between atoms: C_10  and  C_11 
REMARK       I    between atoms: C_11  and  N_12 
REMARK    3  A    between atoms: N_12  and  C_13 
REMARK    4  A    between atoms: C_13  and  C_14 
REMARK    5  A    between atoms: C_14  and  C_15 
REMARK    6  A    between atoms: C_15  and  N_16 
REMARK    7  A    between atoms: C_26  and  C_27 
ROOT
HETATM    1  C   UNL     1      -2.061   4.970 -33.339  1.00  0.00     0.125 C 
HETATM    2  N   UNL     1      -2.679   3.699 -32.950  1.00  0.00    -0.365 N 
HETATM    3  C   UNL     1      -3.968   3.607 -32.545  1.00  0.00     0.141 A 
HETATM    4  N   UNL     1      -4.814   4.680 -32.614  1.00  0.00    -0.238 N 
HETATM    5  N   UNL     1      -6.092   4.393 -32.294  1.00  0.00    -0.163 NA
HETATM    6  C   UNL     1      -6.039   3.099 -31.893  1.00  0.00     0.165 A 
HETATM    7  C   UNL     1      -4.727   2.585 -32.036  1.00  0.00     0.092 A 
HETATM    8 BR   UNL     1      -4.157   0.839 -31.671  1.00  0.00    -0.044 Br
HETATM    9  C   UNL     1      -4.411   6.006 -33.044  1.00  0.00     0.221 C 
HETATM   10  C   UNL     1      -3.141   5.916 -33.905  1.00  0.00     0.067 C 
HETATM   11  H   UNL     1      -2.008   2.984 -32.667  1.00  0.00     0.162 HD
ENDROOT
BRANCH   6  12
HETATM   12  C   UNL     1      -7.257   2.426 -31.430  1.00  0.00     0.273 C 
HETATM   13  N   UNL     1      -7.695   1.426 -32.275  1.00  0.00    -0.355 N 
HETATM   14  H   UNL     1      -7.174   1.355 -33.153  1.00  0.00     0.162 HD
HETATM   15  O   UNL     1      -7.843   2.660 -30.370  1.00  0.00    -0.266 OA
BRANCH  13  16
HETATM   16  C   UNL     1      -8.945   0.730 -32.108  1.00  0.00     0.124 C 
BRANCH  16  17
HETATM   17  C   UNL     1      -9.882   0.849 -33.310  1.00  0.00     0.047 C 
BRANCH  17  18
HETATM   18  C   UNL     1     -10.855   2.031 -33.321  1.00  0.00     0.236 C 
BRANCH  18  19
HETATM   19  N   UNL     1     -12.280   1.661 -33.014  1.00  0.00    -0.067 N 
HETATM   20  H   UNL     1     -12.255   1.052 -32.168  1.00  0.00     0.280 HD
HETATM   21  C   UNL     1     -13.210   2.831 -32.755  1.00  0.00     0.261 C 
HETATM   22  C   UNL     1     -14.622   2.318 -32.450  1.00  0.00     0.195 C 
HETATM   23  O   UNL     1     -15.117   1.501 -33.516  1.00  0.00    -0.388 OA
HETATM   24  C   UNL     1     -14.292   0.346 -33.710  1.00  0.00     0.195 C 
HETATM   25  C   UNL     1     -12.867   0.756 -34.097  1.00  0.00     0.261 C 
ENDBRANCH  18  19
ENDBRANCH  17  18
ENDBRANCH  16  17
ENDBRANCH  13  16
ENDBRANCH   6  12
BRANCH   9  26
HETATM   26  C   UNL     1      -4.285   6.914 -31.840  1.00  0.00     0.409 C 
HETATM   27  F   UNL     1      -3.859   6.286 -30.729  1.00  0.00    -0.169 F 
HETATM   28  F   UNL     1      -3.413   7.920 -32.101  1.00  0.00    -0.169 F 
HETATM   29  F   UNL     1      -5.468   7.501 -31.541  1.00  0.00    -0.169 F 
ENDBRANCH   9  26
BRANCH   1  30
HETATM   30  C   UNL     1      -1.156   5.627 -32.315  1.00  0.00     0.005 A 
HETATM   31  S   UNL     1      -0.800   4.858 -30.817  1.00  0.00    -0.104 SA
HETATM   32  C   UNL     1       0.229   6.129 -30.323  1.00  0.00     0.050 A 
HETATM   33  C   UNL     1       0.335   7.108 -31.283  1.00  0.00     0.008 A 
HETATM   34  C   UNL     1      -0.449   6.813 -32.435  1.00  0.00     0.017 A 
ENDBRANCH   1  30
TORSDOF 7
ENDMDL
MODEL 8
REMARK VINA RESULT:      -7.5      3.404      4.152
REMARK  7 active torsions:
REMARK  status: ('A' for Active; 'I' for Inactive)
REMARK    1  A    between atoms: C_4  and  C_5 
REMARK    2  A    between atoms: C_10  and  C_11 
REMARK       I    between atoms: C_11  and  N_12 
REMARK    3  A    between atoms: N_12  and  C_13 
REMARK    4  A    between atoms: C_13  and  C_14 
REMARK    5  A    between atoms: C_14  and  C_15 
REMARK    6  A    between atoms: C_15  and  N_16 
REMARK    7  A    between atoms: C_26  and  C_27 
ROOT
HETATM    1  C   UNL     1      -1.346   5.020 -30.943  1.00  0.00     0.125 C 
HETATM    2  N   UNL     1      -2.758   4.684 -30.744  1.00  0.00    -0.365 N 
HETATM    3  C   UNL     1      -3.722   5.021 -31.634  1.00  0.00     0.141 A 
HETATM    4  N   UNL     1      -3.410   5.569 -32.847  1.00  0.00    -0.238 N 
HETATM    5  N   UNL     1      -4.469   5.729 -33.667  1.00  0.00    -0.163 NA
HETATM    6  C   UNL     1      -5.526   5.368 -32.898  1.00  0.00     0.165 A 
HETATM    7  C   UNL     1      -5.090   4.925 -31.625  1.00  0.00     0.092 A 
HETATM    8 BR   UNL     1      -6.161   4.274 -30.233  1.00  0.00    -0.044 Br
HETATM    9  C   UNL     1      -2.061   5.907 -33.263  1.00  0.00     0.221 C 
HETATM   10  C   UNL     1      -1.041   5.089 -32.455  1.00  0.00     0.067 C 
HETATM   11  H   UNL     1      -3.008   4.514 -29.768  1.00  0.00     0.162 HD
ENDROOT
BRANCH   6  12
HETATM   12  C   UNL     1      -6.885   5.438 -33.444  1.00  0.00     0.273 C 
HETATM   13  N   UNL     1      -7.652   6.448 -32.898  1.00  0.00    -0.355 N 
HETATM   14  H   UNL     1      -7.208   6.945 -32.121  1.00  0.00     0.162 HD
HETATM   15  O   UNL     1      -7.332   4.719 -34.341  1.00  0.00    -0.266 OA
BRANCH  13  16
HETATM   16  C   UNL     1      -9.058   6.618 -33.168  1.00  0.00     0.124 C 
BRANCH  16  17
HETATM   17  C   UNL     1      -9.957   5.691 -32.349  1.00  0.00     0.047 C 
BRANCH  17  18
HETATM   18  C   UNL     1     -10.874   4.744 -33.127  1.00  0.00     0.236 C 
BRANCH  18  19
HETATM   19  N   UNL     1     -10.522   3.289 -32.986  1.00  0.00    -0.067 N 
HETATM   20  H   UNL     1     -11.358   2.816 -32.581  1.00  0.00     0.280 HD
HETATM   21  C   UNL     1     -10.134   2.590 -34.276  1.00  0.00     0.261 C 
HETATM   22  C   UNL     1      -9.807   1.119 -33.995  1.00  0.00     0.195 C 
HETATM   23  O   UNL     1      -8.768   0.998 -33.019  1.00  0.00    -0.388 OA
HETATM   24  C   UNL     1      -9.159   1.579 -31.769  1.00  0.00     0.195 C 
HETATM   25  C   UNL     1      -9.436   3.078 -31.931  1.00  0.00     0.261 C 
ENDBRANCH  18  19
ENDBRANCH  17  18
ENDBRANCH  16  17
ENDBRANCH  13  16
ENDBRANCH   6  12
BRANCH   9  26
HETATM   26  C   UNL     1      -1.864   7.404 -33.182  1.00  0.00     0.409 C 
HETATM   27  F   UNL     1      -0.634   7.769 -32.777  1.00  0.00    -0.169 F 
HETATM   28  F   UNL     1      -2.082   7.973 -34.394  1.00  0.00    -0.169 F 
HETATM   29  F   UNL     1      -2.752   7.971 -32.329  1.00  0.00    -0.169 F 
ENDBRANCH   9  26
BRANCH   1  30
HETATM   30  C   UNL     1      -0.811   6.204 -30.162  1.00  0.00     0.005 A 
HETATM   31  S   UNL     1      -1.863   7.225 -29.260  1.00  0.00    -0.104 SA
HETATM   32  C   UNL     1      -0.570   8.187 -28.697  1.00  0.00     0.050 A 
HETATM   33  C   UNL     1       0.647   7.731 -29.150  1.00  0.00     0.008 A 
HETATM   34  C   UNL     1       0.510   6.583 -29.981  1.00  0.00     0.017 A 
ENDBRANCH   1  30
TORSDOF 7
ENDMDL
MODEL 9
REMARK VINA RESULT:      -7.3      4.661     10.041
REMARK  7 active torsions:
REMARK  status: ('A' for Active; 'I' for Inactive)
REMARK    1  A    between atoms: C_4  and  C_5 
REMARK    2  A    between atoms: C_10  and  C_11 
REMARK       I    between atoms: C_11  and  N_12 
REMARK    3  A    between atoms: N_12  and  C_13 
REMARK    4  A    between atoms: C_13  and  C_14 
REMARK    5  A    between atoms: C_14  and  C_15 
REMARK    6  A    between atoms: C_15  and  N_16 
REMARK    7  A    between atoms: C_26  and  C_27 
ROOT
HETATM    1  C   UNL     1      -4.808   0.508 -32.268  1.00  0.00     0.125 C 
HETATM    2  N   UNL     1      -3.952   1.688 -32.417  1.00  0.00    -0.365 N 
HETATM    3  C   UNL     1      -4.185   2.848 -31.758  1.00  0.00     0.141 A 
HETATM    4  N   UNL     1      -5.155   2.940 -30.800  1.00  0.00    -0.238 N 
HETATM    5  N   UNL     1      -5.177   4.121 -30.150  1.00  0.00    -0.163 NA
HETATM    6  C   UNL     1      -4.247   4.862 -30.803  1.00  0.00     0.165 A 
HETATM    7  C   UNL     1      -3.615   4.094 -31.811  1.00  0.00     0.092 A 
HETATM    8 BR   UNL     1      -2.230   4.648 -32.943  1.00  0.00    -0.044 Br
HETATM    9  C   UNL     1      -6.059   1.858 -30.452  1.00  0.00     0.221 C 
HETATM   10  C   UNL     1      -5.446   0.509 -30.862  1.00  0.00     0.067 C 
HETATM   11  H   UNL     1      -3.410   1.698 -33.283  1.00  0.00     0.162 HD
ENDROOT
BRANCH   6  12
HETATM   12  C   UNL     1      -3.999   6.249 -30.394  1.00  0.00     0.273 C 
HETATM   13  N   UNL     1      -3.007   6.378 -29.442  1.00  0.00    -0.355 N 
HETATM   14  H   UNL     1      -2.650   5.491 -29.078  1.00  0.00     0.162 HD
HETATM   15  O   UNL     1      -4.559   7.242 -30.862  1.00  0.00    -0.266 OA
BRANCH  13  16
HETATM   16  C   UNL     1      -2.692   7.620 -28.782  1.00  0.00     0.124 C 
BRANCH  16  17
HETATM   17  C   UNL     1      -1.209   7.776 -28.442  1.00  0.00     0.047 C 
BRANCH  17  18
HETATM   18  C   UNL     1      -0.645   6.864 -27.350  1.00  0.00     0.236 C 
BRANCH  18  19
HETATM   19  N   UNL     1       0.122   7.587 -26.276  1.00  0.00    -0.067 N 
HETATM   20  H   UNL     1       0.009   7.031 -25.402  1.00  0.00     0.280 HD
HETATM   21  C   UNL     1       1.601   7.778 -26.556  1.00  0.00     0.261 C 
HETATM   22  C   UNL     1       2.262   8.518 -25.388  1.00  0.00     0.195 C 
HETATM   23  O   UNL     1       1.623   9.776 -25.146  1.00  0.00    -0.388 OA
HETATM   24  C   UNL     1       0.245   9.600 -24.795  1.00  0.00     0.195 C 
HETATM   25  C   UNL     1      -0.524   8.931 -25.939  1.00  0.00     0.261 C 
ENDBRANCH  18  19
ENDBRANCH  17  18
ENDBRANCH  16  17
ENDBRANCH  13  16
ENDBRANCH   6  12
BRANCH   9  26
HETATM   26  C   UNL     1      -7.425   2.128 -31.044  1.00  0.00     0.409 C 
HETATM   27  F   UNL     1      -8.074   1.018 -31.439  1.00  0.00    -0.169 F 
HETATM   28  F   UNL     1      -8.212   2.762 -30.139  1.00  0.00    -0.169 F 
HETATM   29  F   UNL     1      -7.342   2.948 -32.119  1.00  0.00    -0.169 F 
ENDBRANCH   9  26
BRANCH   1  30
HETATM   30  C   UNL     1      -5.799   0.243 -33.384  1.00  0.00     0.005 A 
HETATM   31  S   UNL     1      -6.554  -1.294 -33.559  1.00  0.00    -0.104 SA
HETATM   32  C   UNL     1      -7.472  -0.774 -34.901  1.00  0.00     0.050 A 
HETATM   33  C   UNL     1      -7.245   0.549 -35.200  1.00  0.00     0.008 A 
HETATM   34  C   UNL     1      -6.293   1.138 -34.319  1.00  0.00     0.017 A 
ENDBRANCH   1  30
TORSDOF 7
ENDMDL
MODEL 10
REMARK VINA RESULT:      -7.2      3.018      3.864
REMARK  7 active torsions:
REMARK  status: ('A' for Active; 'I' for Inactive)
REMARK    1  A    between atoms: C_4  and  C_5 
REMARK    2  A    between atoms: C_10  and  C_11 
REMARK       I    between atoms: C_11  and  N_12 
REMARK    3  A    between atoms: N_12  and  C_13 
REMARK    4  A    between atoms: C_13  and  C_14 
REMARK    5  A    between atoms: C_14  and  C_15 
REMARK    6  A    between atoms: C_15  and  N_16 
REMARK    7  A    between atoms: C_26  and  C_27 
ROOT
HETATM    1  C   UNL     1      -4.384   8.396 -30.859  1.00  0.00     0.125 C 
HETATM    2  N   UNL     1      -3.785   7.321 -31.655  1.00  0.00    -0.365 N 
HETATM    3  C   UNL     1      -3.975   6.010 -31.373  1.00  0.00     0.141 A 
HETATM    4  N   UNL     1      -4.860   5.611 -30.411  1.00  0.00    -0.238 N 
HETATM    5  N   UNL     1      -5.028   4.274 -30.339  1.00  0.00    -0.163 NA
HETATM    6  C   UNL     1      -4.122   3.791 -31.223  1.00  0.00     0.165 A 
HETATM    7  C   UNL     1      -3.450   4.850 -31.880  1.00  0.00     0.092 A 
HETATM    8 BR   UNL     1      -2.153   4.698 -33.223  1.00  0.00    -0.044 Br
HETATM    9  C   UNL     1      -5.609   6.523 -29.565  1.00  0.00     0.221 C 
HETATM   10  C   UNL     1      -5.708   7.902 -30.239  1.00  0.00     0.067 C 
HETATM   11  H   UNL     1      -2.961   7.610 -32.184  1.00  0.00     0.162 HD
ENDROOT
BRANCH   6  12
HETATM   12  C   UNL     1      -3.982   2.342 -31.409  1.00  0.00     0.273 C 
HETATM   13  N   UNL     1      -5.136   1.725 -31.849  1.00  0.00    -0.355 N 
HETATM   14  H   UNL     1      -5.955   2.337 -31.892  1.00  0.00     0.162 HD
HETATM   15  O   UNL     1      -2.943   1.699 -31.248  1.00  0.00    -0.266 OA
BRANCH  13  16
HETATM   16  C   UNL     1      -5.284   0.295 -31.960  1.00  0.00     0.124 C 
BRANCH  16  17
HETATM   17  C   UNL     1      -5.266  -0.215 -33.400  1.00  0.00     0.047 C 
BRANCH  17  18
HETATM   18  C   UNL     1      -4.310  -1.367 -33.720  1.00  0.00     0.236 C 
BRANCH  18  19
HETATM   19  N   UNL     1      -4.980  -2.708 -33.845  1.00  0.00    -0.067 N 
HETATM   20  H   UNL     1      -5.330  -2.958 -32.895  1.00  0.00     0.280 HD
HETATM   21  C   UNL     1      -6.134  -2.765 -34.829  1.00  0.00     0.261 C 
HETATM   22  C   UNL     1      -6.729  -4.177 -34.855  1.00  0.00     0.195 C 
HETATM   23  O   UNL     1      -5.733  -5.151 -35.183  1.00  0.00    -0.388 OA
HETATM   24  C   UNL     1      -4.681  -5.165 -34.211  1.00  0.00     0.195 C 
HETATM   25  C   UNL     1      -3.969  -3.809 -34.162  1.00  0.00     0.261 C 
ENDBRANCH  18  19
ENDBRANCH  17  18
ENDBRANCH  16  17
ENDBRANCH  13  16
ENDBRANCH   6  12
BRANCH   9  26
HETATM   26  C   UNL     1      -5.000   6.548 -28.181  1.00  0.00     0.409 C 
HETATM   27  F   UNL     1      -3.655   6.526 -28.179  1.00  0.00    -0.169 F 
HETATM   28  F   UNL     1      -5.393   7.663 -27.516  1.00  0.00    -0.169 F 
HETATM   29  F   UNL     1      -5.420   5.494 -27.440  1.00  0.00    -0.169 F 
ENDBRANCH   9  26
BRANCH   1  30
HETATM   30  C   UNL     1      -3.475   9.096 -29.868  1.00  0.00     0.005 A 
HETATM   31  S   UNL     1      -4.080  10.303 -28.801  1.00  0.00    -0.104 SA
HETATM   32  C   UNL     1      -2.556  10.520 -28.061  1.00  0.00     0.050 A 
HETATM   33  C   UNL     1      -1.605   9.673 -28.582  1.00  0.00     0.008 A 
HETATM   34  C   UNL     1      -2.136   8.845 -29.611  1.00  0.00     0.017 A 
ENDBRANCH   1  30
TORSDOF 7
ENDMDL
