MODEL 1
REMARK VINA RESULT:      -9.3      0.000      0.000
REMARK  9 active torsions:
REMARK  status: ('A' for Active; 'I' for Inactive)
REMARK    1  A    between atoms: C_3  and  C_4 
REMARK    2  A    between atoms: C_4  and  C_5 
REMARK    3  A    between atoms: C_5  and  O_6 
REMARK    4  A    between atoms: C_16  and  O_17 
REMARK    5  A    between atoms: C_18  and  C_19 
REMARK    6  A    between atoms: C_19  and  N_20 
REMARK    7  A    between atoms: N_20  and  C_23 
REMARK    8  A    between atoms: N_26  and  C_28 
REMARK    9  A    between atoms: C_28  and  C_29 
ROOT
HETATM    1  C   UNL     1      -3.297  -0.731 -33.465  1.00  0.00     0.050 C 
HETATM    2  C   UNL     1      -4.760  -1.099 -33.499  1.00  0.00    -0.036 C 
HETATM    3  C   UNL     1      -5.250  -2.154 -34.185  1.00  0.00     0.034 C 
HETATM    4  C   UNL     1      -6.715  -2.401 -34.278  1.00  0.00     0.295 C 
HETATM    5  O   UNL     1      -7.168  -3.431 -34.759  1.00  0.00    -0.259 OA
HETATM    6  O   UNL     1      -7.547  -1.404 -33.806  1.00  0.00    -0.274 OA
HETATM    7  C   UNL     1      -7.075  -0.388 -32.957  1.00  0.00     0.099 A 
HETATM    8  C   UNL     1      -5.701  -0.246 -32.744  1.00  0.00     0.006 A 
HETATM    9  C   UNL     1      -8.043   0.394 -32.299  1.00  0.00     0.007 A 
HETATM   10  C   UNL     1      -9.509   0.207 -32.589  1.00  0.00     0.054 C 
HETATM   11  C   UNL     1      -7.588   1.299 -31.334  1.00  0.00     0.082 A 
HETATM   12  C   UNL     1      -6.219   1.438 -31.052  1.00  0.00     0.002 A 
HETATM   13  C   UNL     1      -5.285   0.683 -31.780  1.00  0.00     0.026 A 
ENDROOT
BRANCH  12  14
HETATM   14  C   UNL     1      -5.765   2.313 -29.920  1.00  0.00     0.274 C 
BRANCH  14  15
HETATM   15  N   UNL     1      -4.745   3.286 -30.445  1.00  0.00    -0.067 N 
HETATM   16  H   UNL     1      -4.305   3.703 -29.614  1.00  0.00     0.277 HD
HETATM   17  H   UNL     1      -3.988   2.692 -30.824  1.00  0.00     0.277 HD
BRANCH  15  18
HETATM   18  C   UNL     1      -5.097   4.301 -31.497  1.00  0.00     0.189 C 
HETATM   19  C   UNL     1      -4.824   5.753 -31.115  1.00  0.00     0.060 C 
HETATM   20  C   UNL     1      -3.424   6.272 -31.428  1.00  0.00     0.237 C 
HETATM   21  N   UNL     1      -2.454   5.141 -31.640  1.00  0.00    -0.067 N 
HETATM   22  H   UNL     1      -2.402   4.592 -30.769  1.00  0.00     0.280 HD
HETATM   23  C   UNL     1      -2.853   4.236 -32.778  1.00  0.00     0.237 C 
HETATM   24  C   UNL     1      -4.357   3.943 -32.787  1.00  0.00     0.060 C 
BRANCH  21  25
HETATM   25  C   UNL     1      -0.992   5.622 -31.778  1.00  0.00     0.273 C 
BRANCH  25  26
HETATM   26  C   UNL     1      -0.322   6.081 -30.514  1.00  0.00    -0.033 A 
HETATM   27  C   UNL     1       0.270   5.139 -29.653  1.00  0.00     0.009 A 
HETATM   28  C   UNL     1       0.856   5.543 -28.456  1.00  0.00     0.001 A 
HETATM   29  C   UNL     1       0.865   6.889 -28.104  1.00  0.00     0.000 A 
HETATM   30  C   UNL     1       0.296   7.835 -28.954  1.00  0.00     0.001 A 
HETATM   31  C   UNL     1      -0.290   7.436 -30.157  1.00  0.00     0.009 A 
ENDBRANCH  25  26
ENDBRANCH  21  25
ENDBRANCH  15  18
ENDBRANCH  14  15
ENDBRANCH  12  14
BRANCH  11  32
HETATM   32  O   UNL     1      -8.468   2.039 -30.571  1.00  0.00    -0.359 OA
HETATM   33  H   UNL     1      -8.795   2.745 -31.174  1.00  0.00     0.217 HD
ENDBRANCH  11  32
BRANCH   3  34
HETATM   34  C   UNL     1      -4.440  -3.199 -34.921  1.00  0.00     0.156 C 
BRANCH  34  35
HETATM   35  C   UNL     1      -4.183  -4.405 -34.038  1.00  0.00     0.262 C 
HETATM   36  O   UNL     1      -4.883  -5.410 -34.006  1.00  0.00    -0.265 OA
BRANCH  35  37
HETATM   37  O   UNL     1      -3.034  -4.213 -33.336  1.00  0.00    -0.326 OA
HETATM   38  C   UNL     1      -3.217  -4.015 -31.932  1.00  0.00     0.213 C 
ENDBRANCH  35  37
ENDBRANCH  34  35
ENDBRANCH   3  34
TORSDOF 9
ENDMDL
MODEL 2
REMARK VINA RESULT:      -9.3      3.536      8.405
REMARK  9 active torsions:
REMARK  status: ('A' for Active; 'I' for Inactive)
REMARK    1  A    between atoms: C_3  and  C_4 
REMARK    2  A    between atoms: C_4  and  C_5 
REMARK    3  A    between atoms: C_5  and  O_6 
REMARK    4  A    between atoms: C_16  and  O_17 
REMARK    5  A    between atoms: C_18  and  C_19 
REMARK    6  A    between atoms: C_19  and  N_20 
REMARK    7  A    between atoms: N_20  and  C_23 
REMARK    8  A    between atoms: N_26  and  C_28 
REMARK    9  A    between atoms: C_28  and  C_29 
ROOT
HETATM    1  C   UNL     1      -4.669   6.793 -31.945  1.00  0.00     0.050 C 
HETATM    2  C   UNL     1      -3.792   5.610 -31.617  1.00  0.00    -0.036 C 
HETATM    3  C   UNL     1      -2.442   5.652 -31.634  1.00  0.00     0.034 C 
HETATM    4  C   UNL     1      -1.628   4.425 -31.415  1.00  0.00     0.295 C 
HETATM    5  O   UNL     1      -0.414   4.471 -31.272  1.00  0.00    -0.259 OA
HETATM    6  O   UNL     1      -2.307   3.222 -31.395  1.00  0.00    -0.274 OA
HETATM    7  C   UNL     1      -3.701   3.162 -31.216  1.00  0.00     0.099 A 
HETATM    8  C   UNL     1      -4.456   4.337 -31.268  1.00  0.00     0.006 A 
HETATM    9  C   UNL     1      -4.251   1.903 -30.912  1.00  0.00     0.007 A 
HETATM   10  C   UNL     1      -3.387   0.670 -30.894  1.00  0.00     0.054 C 
HETATM   11  C   UNL     1      -5.609   1.861 -30.578  1.00  0.00     0.082 A 
HETATM   12  C   UNL     1      -6.394   3.027 -30.568  1.00  0.00     0.002 A 
HETATM   13  C   UNL     1      -5.816   4.250 -30.940  1.00  0.00     0.026 A 
ENDROOT
BRANCH  12  14
HETATM   14  C   UNL     1      -7.811   2.979 -30.073  1.00  0.00     0.274 C 
BRANCH  14  15
HETATM   15  N   UNL     1      -8.613   2.105 -30.999  1.00  0.00    -0.067 N 
HETATM   16  H   UNL     1      -7.956   1.397 -31.352  1.00  0.00     0.277 HD
HETATM   17  H   UNL     1      -9.223   1.552 -30.374  1.00  0.00     0.277 HD
BRANCH  15  18
HETATM   18  C   UNL     1      -9.481   2.693 -32.077  1.00  0.00     0.189 C 
HETATM   19  C   UNL     1      -8.727   3.325 -33.245  1.00  0.00     0.060 C 
HETATM   20  C   UNL     1      -8.362   2.384 -34.389  1.00  0.00     0.237 C 
HETATM   21  N   UNL     1      -8.417   0.945 -33.955  1.00  0.00    -0.067 N 
HETATM   22  H   UNL     1      -7.730   0.807 -33.199  1.00  0.00     0.280 HD
HETATM   23  C   UNL     1      -9.784   0.535 -33.467  1.00  0.00     0.237 C 
HETATM   24  C   UNL     1     -10.431   1.607 -32.584  1.00  0.00     0.060 C 
BRANCH  21  25
HETATM   25  C   UNL     1      -7.879  -0.028 -35.029  1.00  0.00     0.273 C 
BRANCH  25  26
HETATM   26  C   UNL     1      -6.725  -0.897 -34.617  1.00  0.00    -0.033 A 
HETATM   27  C   UNL     1      -5.637  -0.336 -33.926  1.00  0.00     0.009 A 
HETATM   28  C   UNL     1      -4.539  -1.119 -33.576  1.00  0.00     0.001 A 
HETATM   29  C   UNL     1      -4.514  -2.470 -33.906  1.00  0.00     0.000 A 
HETATM   30  C   UNL     1      -5.592  -3.044 -34.577  1.00  0.00     0.001 A 
HETATM   31  C   UNL     1      -6.696  -2.264 -34.927  1.00  0.00     0.009 A 
ENDBRANCH  25  26
ENDBRANCH  21  25
ENDBRANCH  15  18
ENDBRANCH  14  15
ENDBRANCH  12  14
BRANCH  11  32
HETATM   32  O   UNL     1      -6.214   0.688 -30.173  1.00  0.00    -0.359 OA
HETATM   33  H   UNL     1      -6.024   0.625 -29.210  1.00  0.00     0.217 HD
ENDBRANCH  11  32
BRANCH   3  34
HETATM   34  C   UNL     1      -1.586   6.880 -31.856  1.00  0.00     0.156 C 
BRANCH  34  35
HETATM   35  C   UNL     1      -1.425   7.167 -33.337  1.00  0.00     0.262 C 
HETATM   36  O   UNL     1      -1.824   8.178 -33.900  1.00  0.00    -0.265 OA
BRANCH  35  37
HETATM   37  O   UNL     1      -0.726   6.155 -33.919  1.00  0.00    -0.326 OA
HETATM   38  C   UNL     1      -1.454   5.414 -34.901  1.00  0.00     0.213 C 
ENDBRANCH  35  37
ENDBRANCH  34  35
ENDBRANCH   3  34
TORSDOF 9
ENDMDL
MODEL 3
REMARK VINA RESULT:      -9.1      3.684      7.263
REMARK  9 active torsions:
REMARK  status: ('A' for Active; 'I' for Inactive)
REMARK    1  A    between atoms: C_3  and  C_4 
REMARK    2  A    between atoms: C_4  and  C_5 
REMARK    3  A    between atoms: C_5  and  O_6 
REMARK    4  A    between atoms: C_16  and  O_17 
REMARK    5  A    between atoms: C_18  and  C_19 
REMARK    6  A    between atoms: C_19  and  N_20 
REMARK    7  A    between atoms: N_20  and  C_23 
REMARK    8  A    between atoms: N_26  and  C_28 
REMARK    9  A    between atoms: C_28  and  C_29 
ROOT
HETATM    1  C   UNL     1      -5.771   5.150 -34.226  1.00  0.00     0.050 C 
HETATM    2  C   UNL     1      -4.967   4.171 -33.407  1.00  0.00    -0.036 C 
HETATM    3  C   UNL     1      -3.794   4.478 -32.813  1.00  0.00     0.034 C 
HETATM    4  C   UNL     1      -2.987   3.441 -32.115  1.00  0.00     0.295 C 
HETATM    5  O   UNL     1      -2.006   3.729 -31.441  1.00  0.00    -0.259 OA
HETATM    6  O   UNL     1      -3.386   2.128 -32.274  1.00  0.00    -0.274 OA
HETATM    7  C   UNL     1      -4.671   1.798 -32.743  1.00  0.00     0.099 A 
HETATM    8  C   UNL     1      -5.496   2.799 -33.261  1.00  0.00     0.006 A 
HETATM    9  C   UNL     1      -5.082   0.461 -32.586  1.00  0.00     0.007 A 
HETATM   10  C   UNL     1      -4.136  -0.577 -32.041  1.00  0.00     0.054 C 
HETATM   11  C   UNL     1      -6.410   0.158 -32.903  1.00  0.00     0.082 A 
HETATM   12  C   UNL     1      -7.289   1.145 -33.380  1.00  0.00     0.002 A 
HETATM   13  C   UNL     1      -6.816   2.451 -33.581  1.00  0.00     0.026 A 
ENDROOT
BRANCH  12  14
HETATM   14  C   UNL     1      -8.743   0.828 -33.582  1.00  0.00     0.274 C 
BRANCH  14  15
HETATM   15  N   UNL     1      -9.282   1.720 -34.667  1.00  0.00    -0.067 N 
HETATM   16  H   UNL     1      -8.536   2.401 -34.864  1.00  0.00     0.277 HD
HETATM   17  H   UNL     1      -9.276   1.130 -35.517  1.00  0.00     0.277 HD
BRANCH  15  18
HETATM   18  C   UNL     1     -10.643   2.350 -34.561  1.00  0.00     0.189 C 
HETATM   19  C   UNL     1     -11.281   2.289 -33.176  1.00  0.00     0.060 C 
HETATM   20  C   UNL     1     -10.941   3.441 -32.234  1.00  0.00     0.237 C 
HETATM   21  N   UNL     1      -9.707   4.173 -32.686  1.00  0.00    -0.067 N 
HETATM   22  H   UNL     1      -8.916   3.512 -32.677  1.00  0.00     0.280 HD
HETATM   23  C   UNL     1      -9.850   4.760 -34.068  1.00  0.00     0.237 C 
HETATM   24  C   UNL     1     -10.547   3.801 -35.038  1.00  0.00     0.060 C 
BRANCH  21  25
HETATM   25  C   UNL     1      -9.226   5.227 -31.664  1.00  0.00     0.273 C 
BRANCH  25  26
HETATM   26  C   UNL     1      -7.972   4.894 -30.906  1.00  0.00    -0.033 A 
HETATM   27  C   UNL     1      -6.994   5.883 -30.701  1.00  0.00     0.009 A 
HETATM   28  C   UNL     1      -5.807   5.579 -30.039  1.00  0.00     0.001 A 
HETATM   29  C   UNL     1      -5.581   4.289 -29.570  1.00  0.00     0.000 A 
HETATM   30  C   UNL     1      -6.547   3.303 -29.753  1.00  0.00     0.001 A 
HETATM   31  C   UNL     1      -7.741   3.602 -30.413  1.00  0.00     0.009 A 
ENDBRANCH  25  26
ENDBRANCH  21  25
ENDBRANCH  15  18
ENDBRANCH  14  15
ENDBRANCH  12  14
BRANCH  11  32
HETATM   32  O   UNL     1      -6.931  -1.103 -32.692  1.00  0.00    -0.359 OA
HETATM   33  H   UNL     1      -7.138  -1.444 -33.592  1.00  0.00     0.217 HD
ENDBRANCH  11  32
BRANCH   3  34
HETATM   34  C   UNL     1      -3.150   5.846 -32.755  1.00  0.00     0.156 C 
BRANCH  34  35
HETATM   35  C   UNL     1      -2.339   6.117 -34.009  1.00  0.00     0.262 C 
HETATM   36  O   UNL     1      -2.194   5.325 -34.931  1.00  0.00    -0.265 OA
BRANCH  35  37
HETATM   37  O   UNL     1      -1.851   7.386 -33.964  1.00  0.00    -0.326 OA
HETATM   38  C   UNL     1      -1.656   7.905 -32.647  1.00  0.00     0.213 C 
ENDBRANCH  35  37
ENDBRANCH  34  35
ENDBRANCH   3  34
TORSDOF 9
ENDMDL
MODEL 4
REMARK VINA RESULT:      -9.1      3.801      5.837
REMARK  9 active torsions:
REMARK  status: ('A' for Active; 'I' for Inactive)
REMARK    1  A    between atoms: C_3  and  C_4 
REMARK    2  A    between atoms: C_4  and  C_5 
REMARK    3  A    between atoms: C_5  and  O_6 
REMARK    4  A    between atoms: C_16  and  O_17 
REMARK    5  A    between atoms: C_18  and  C_19 
REMARK    6  A    between atoms: C_19  and  N_20 
REMARK    7  A    between atoms: N_20  and  C_23 
REMARK    8  A    between atoms: N_26  and  C_28 
REMARK    9  A    between atoms: C_28  and  C_29 
ROOT
HETATM    1  C   UNL     1      -6.958  -1.999 -34.409  1.00  0.00     0.050 C 
HETATM    2  C   UNL     1      -6.517  -0.836 -33.556  1.00  0.00    -0.036 C 
HETATM    3  C   UNL     1      -5.225  -0.564 -33.272  1.00  0.00     0.034 C 
HETATM    4  C   UNL     1      -4.855   0.527 -32.330  1.00  0.00     0.295 C 
HETATM    5  O   UNL     1      -3.695   0.888 -32.182  1.00  0.00    -0.259 OA
HETATM    6  O   UNL     1      -5.883   1.108 -31.613  1.00  0.00    -0.274 OA
HETATM    7  C   UNL     1      -7.228   0.961 -31.998  1.00  0.00     0.099 A 
HETATM    8  C   UNL     1      -7.565   0.042 -32.996  1.00  0.00     0.006 A 
HETATM    9  C   UNL     1      -8.162   1.823 -31.393  1.00  0.00     0.007 A 
HETATM   10  C   UNL     1      -7.738   2.776 -30.307  1.00  0.00     0.054 C 
HETATM   11  C   UNL     1      -9.472   1.792 -31.883  1.00  0.00     0.082 A 
HETATM   12  C   UNL     1      -9.843   0.919 -32.920  1.00  0.00     0.002 A 
HETATM   13  C   UNL     1      -8.892   0.033 -33.448  1.00  0.00     0.026 A 
ENDROOT
BRANCH  12  14
HETATM   14  C   UNL     1     -11.217   1.001 -33.521  1.00  0.00     0.274 C 
BRANCH  14  15
HETATM   15  N   UNL     1     -11.159   1.896 -34.728  1.00  0.00    -0.067 N 
HETATM   16  H   UNL     1     -10.182   2.211 -34.795  1.00  0.00     0.277 HD
HETATM   17  H   UNL     1     -11.243   1.253 -35.535  1.00  0.00     0.277 HD
BRANCH  15  18
HETATM   18  C   UNL     1     -12.151   3.007 -34.929  1.00  0.00     0.189 C 
HETATM   19  C   UNL     1     -12.599   3.717 -33.654  1.00  0.00     0.060 C 
HETATM   20  C   UNL     1     -11.736   4.895 -33.209  1.00  0.00     0.237 C 
HETATM   21  N   UNL     1     -10.377   4.853 -33.853  1.00  0.00    -0.067 N 
HETATM   22  H   UNL     1      -9.905   3.985 -33.559  1.00  0.00     0.280 HD
HETATM   23  C   UNL     1     -10.443   4.898 -35.359  1.00  0.00     0.237 C 
HETATM   24  C   UNL     1     -11.562   4.014 -35.919  1.00  0.00     0.060 C 
BRANCH  21  25
HETATM   25  C   UNL     1      -9.413   5.922 -33.291  1.00  0.00     0.273 C 
BRANCH  25  26
HETATM   26  C   UNL     1      -7.991   5.487 -33.077  1.00  0.00    -0.033 A 
HETATM   27  C   UNL     1      -7.447   4.459 -33.868  1.00  0.00     0.009 A 
HETATM   28  C   UNL     1      -6.145   4.013 -33.654  1.00  0.00     0.001 A 
HETATM   29  C   UNL     1      -5.368   4.587 -32.654  1.00  0.00     0.000 A 
HETATM   30  C   UNL     1      -5.887   5.617 -31.872  1.00  0.00     0.001 A 
HETATM   31  C   UNL     1      -7.191   6.070 -32.084  1.00  0.00     0.009 A 
ENDBRANCH  25  26
ENDBRANCH  21  25
ENDBRANCH  15  18
ENDBRANCH  14  15
ENDBRANCH  12  14
BRANCH  11  32
HETATM   32  O   UNL     1     -10.434   2.666 -31.419  1.00  0.00    -0.359 OA
HETATM   33  H   UNL     1     -10.224   2.790 -30.465  1.00  0.00     0.217 HD
ENDBRANCH  11  32
BRANCH   3  34
HETATM   34  C   UNL     1      -4.014  -1.274 -33.837  1.00  0.00     0.156 C 
BRANCH  34  35
HETATM   35  C   UNL     1      -3.716  -2.540 -33.056  1.00  0.00     0.262 C 
HETATM   36  O   UNL     1      -3.286  -2.569 -31.910  1.00  0.00    -0.265 OA
BRANCH  35  37
HETATM   37  O   UNL     1      -4.051  -3.623 -33.809  1.00  0.00    -0.326 OA
HETATM   38  C   UNL     1      -3.484  -4.858 -33.364  1.00  0.00     0.213 C 
ENDBRANCH  35  37
ENDBRANCH  34  35
ENDBRANCH   3  34
TORSDOF 9
ENDMDL
MODEL 5
REMARK VINA RESULT:      -9.0      4.584      7.695
REMARK  9 active torsions:
REMARK  status: ('A' for Active; 'I' for Inactive)
REMARK    1  A    between atoms: C_3  and  C_4 
REMARK    2  A    between atoms: C_4  and  C_5 
REMARK    3  A    between atoms: C_5  and  O_6 
REMARK    4  A    between atoms: C_16  and  O_17 
REMARK    5  A    between atoms: C_18  and  C_19 
REMARK    6  A    between atoms: C_19  and  N_20 
REMARK    7  A    between atoms: N_20  and  C_23 
REMARK    8  A    between atoms: N_26  and  C_28 
REMARK    9  A    between atoms: C_28  and  C_29 
ROOT
HETATM    1  C   UNL     1      -5.581   3.149 -34.205  1.00  0.00     0.050 C 
HETATM    2  C   UNL     1      -5.325   3.927 -32.938  1.00  0.00    -0.036 C 
HETATM    3  C   UNL     1      -4.105   4.378 -32.571  1.00  0.00     0.034 C 
HETATM    4  C   UNL     1      -3.891   5.039 -31.255  1.00  0.00     0.295 C 
HETATM    5  O   UNL     1      -2.835   5.590 -30.972  1.00  0.00    -0.259 OA
HETATM    6  O   UNL     1      -4.937   4.989 -30.354  1.00  0.00    -0.274 OA
HETATM    7  C   UNL     1      -6.247   4.675 -30.758  1.00  0.00     0.099 A 
HETATM    8  C   UNL     1      -6.475   4.196 -32.051  1.00  0.00     0.006 A 
HETATM    9  C   UNL     1      -7.279   4.940 -29.839  1.00  0.00     0.007 A 
HETATM   10  C   UNL     1      -6.965   5.434 -28.451  1.00  0.00     0.054 C 
HETATM   11  C   UNL     1      -8.594   4.780 -30.288  1.00  0.00     0.082 A 
HETATM   12  C   UNL     1      -8.870   4.349 -31.597  1.00  0.00     0.002 A 
HETATM   13  C   UNL     1      -7.807   4.035 -32.458  1.00  0.00     0.026 A 
ENDROOT
BRANCH  12  14
HETATM   14  C   UNL     1     -10.285   4.317 -32.099  1.00  0.00     0.274 C 
BRANCH  14  15
HETATM   15  N   UNL     1     -10.732   2.884 -32.182  1.00  0.00    -0.067 N 
HETATM   16  H   UNL     1     -10.066   2.351 -31.607  1.00  0.00     0.277 HD
HETATM   17  H   UNL     1     -11.597   2.846 -31.614  1.00  0.00     0.277 HD
BRANCH  15  18
HETATM   18  C   UNL     1     -11.027   2.228 -33.502  1.00  0.00     0.189 C 
HETATM   19  C   UNL     1      -9.920   2.345 -34.547  1.00  0.00     0.060 C 
HETATM   20  C   UNL     1      -8.856   1.251 -34.516  1.00  0.00     0.237 C 
HETATM   21  N   UNL     1      -8.854   0.526 -33.198  1.00  0.00    -0.067 N 
HETATM   22  H   UNL     1      -8.632   1.205 -32.455  1.00  0.00     0.280 HD
HETATM   23  C   UNL     1     -10.174  -0.135 -32.892  1.00  0.00     0.237 C 
HETATM   24  C   UNL     1     -11.367   0.758 -33.251  1.00  0.00     0.060 C 
BRANCH  21  25
HETATM   25  C   UNL     1      -7.674  -0.464 -33.060  1.00  0.00     0.273 C 
BRANCH  25  26
HETATM   26  C   UNL     1      -6.456   0.051 -32.347  1.00  0.00    -0.033 A 
HETATM   27  C   UNL     1      -5.185  -0.106 -32.929  1.00  0.00     0.009 A 
HETATM   28  C   UNL     1      -4.042   0.326 -32.261  1.00  0.00     0.001 A 
HETATM   29  C   UNL     1      -4.149   0.923 -31.010  1.00  0.00     0.000 A 
HETATM   30  C   UNL     1      -5.402   1.100 -30.428  1.00  0.00     0.001 A 
HETATM   31  C   UNL     1      -6.553   0.672 -31.093  1.00  0.00     0.009 A 
ENDBRANCH  25  26
ENDBRANCH  21  25
ENDBRANCH  15  18
ENDBRANCH  14  15
ENDBRANCH  12  14
BRANCH  11  32
HETATM   32  O   UNL     1      -9.671   5.107 -29.490  1.00  0.00    -0.359 OA
HETATM   33  H   UNL     1      -9.525   4.612 -28.652  1.00  0.00     0.217 HD
ENDBRANCH  11  32
BRANCH   3  34
HETATM   34  C   UNL     1      -2.836   4.300 -33.391  1.00  0.00     0.156 C 
BRANCH  34  35
HETATM   35  C   UNL     1      -2.767   5.437 -34.392  1.00  0.00     0.262 C 
HETATM   36  O   UNL     1      -3.641   5.705 -35.206  1.00  0.00    -0.265 OA
BRANCH  35  37
HETATM   37  O   UNL     1      -1.614   6.134 -34.203  1.00  0.00    -0.326 OA
HETATM   38  C   UNL     1      -1.781   7.404 -33.569  1.00  0.00     0.213 C 
ENDBRANCH  35  37
ENDBRANCH  34  35
ENDBRANCH   3  34
TORSDOF 9
ENDMDL
MODEL 6
REMARK VINA RESULT:      -9.0      3.871      8.964
REMARK  9 active torsions:
REMARK  status: ('A' for Active; 'I' for Inactive)
REMARK    1  A    between atoms: C_3  and  C_4 
REMARK    2  A    between atoms: C_4  and  C_5 
REMARK    3  A    between atoms: C_5  and  O_6 
REMARK    4  A    between atoms: C_16  and  O_17 
REMARK    5  A    between atoms: C_18  and  C_19 
REMARK    6  A    between atoms: C_19  and  N_20 
REMARK    7  A    between atoms: N_20  and  C_23 
REMARK    8  A    between atoms: N_26  and  C_28 
REMARK    9  A    between atoms: C_28  and  C_29 
ROOT
HETATM    1  C   UNL     1      -2.056   8.337 -31.901  1.00  0.00     0.050 C 
HETATM    2  C   UNL     1      -1.875   6.873 -31.586  1.00  0.00    -0.036 C 
HETATM    3  C   UNL     1      -0.767   6.364 -31.007  1.00  0.00     0.034 C 
HETATM    4  C   UNL     1      -0.595   4.897 -30.826  1.00  0.00     0.295 C 
HETATM    5  O   UNL     1       0.325   4.429 -30.167  1.00  0.00    -0.259 OA
HETATM    6  O   UNL     1      -1.516   4.079 -31.451  1.00  0.00    -0.274 OA
HETATM    7  C   UNL     1      -2.748   4.573 -31.916  1.00  0.00     0.099 A 
HETATM    8  C   UNL     1      -2.974   5.952 -31.945  1.00  0.00     0.006 A 
HETATM    9  C   UNL     1      -3.727   3.622 -32.261  1.00  0.00     0.007 A 
HETATM   10  C   UNL     1      -3.414   2.150 -32.231  1.00  0.00     0.054 C 
HETATM   11  C   UNL     1      -5.004   4.102 -32.572  1.00  0.00     0.082 A 
HETATM   12  C   UNL     1      -5.288   5.479 -32.564  1.00  0.00     0.002 A 
HETATM   13  C   UNL     1      -4.262   6.392 -32.277  1.00  0.00     0.026 A 
ENDROOT
BRANCH  12  14
HETATM   14  C   UNL     1      -6.696   5.960 -32.766  1.00  0.00     0.274 C 
BRANCH  14  15
HETATM   15  N   UNL     1      -7.567   5.356 -31.700  1.00  0.00    -0.067 N 
HETATM   16  H   UNL     1      -7.131   4.455 -31.461  1.00  0.00     0.277 HD
HETATM   17  H   UNL     1      -7.381   5.925 -30.856  1.00  0.00     0.277 HD
BRANCH  15  18
HETATM   18  C   UNL     1      -9.059   5.263 -31.864  1.00  0.00     0.189 C 
HETATM   19  C   UNL     1      -9.529   4.558 -33.134  1.00  0.00     0.060 C 
HETATM   20  C   UNL     1      -9.689   3.044 -33.035  1.00  0.00     0.237 C 
HETATM   21  N   UNL     1      -8.935   2.488 -31.858  1.00  0.00    -0.067 N 
HETATM   22  H   UNL     1      -7.934   2.694 -31.987  1.00  0.00     0.280 HD
HETATM   23  C   UNL     1      -9.397   3.067 -30.544  1.00  0.00     0.237 C 
HETATM   24  C   UNL     1      -9.644   4.577 -30.629  1.00  0.00     0.060 C 
BRANCH  21  25
HETATM   25  C   UNL     1      -8.921   0.943 -31.828  1.00  0.00     0.273 C 
BRANCH  25  26
HETATM   26  C   UNL     1      -7.712   0.279 -32.423  1.00  0.00    -0.033 A 
HETATM   27  C   UNL     1      -7.682  -0.018 -33.798  1.00  0.00     0.009 A 
HETATM   28  C   UNL     1      -6.587  -0.673 -34.357  1.00  0.00     0.001 A 
HETATM   29  C   UNL     1      -5.509  -1.036 -33.556  1.00  0.00     0.000 A 
HETATM   30  C   UNL     1      -5.519  -0.735 -32.196  1.00  0.00     0.001 A 
HETATM   31  C   UNL     1      -6.612  -0.076 -31.630  1.00  0.00     0.009 A 
ENDBRANCH  25  26
ENDBRANCH  21  25
ENDBRANCH  15  18
ENDBRANCH  14  15
ENDBRANCH  12  14
BRANCH  11  32
HETATM   32  O   UNL     1      -6.052   3.242 -32.829  1.00  0.00    -0.359 OA
HETATM   33  H   UNL     1      -5.774   2.735 -33.625  1.00  0.00     0.217 HD
ENDBRANCH  11  32
BRANCH   3  34
HETATM   34  C   UNL     1       0.408   7.153 -30.471  1.00  0.00     0.156 C 
BRANCH  34  35
HETATM   35  C   UNL     1       0.128   7.654 -29.067  1.00  0.00     0.262 C 
HETATM   36  O   UNL     1      -0.600   8.601 -28.795  1.00  0.00    -0.265 OA
BRANCH  35  37
HETATM   37  O   UNL     1       0.766   6.856 -28.168  1.00  0.00    -0.326 OA
HETATM   38  C   UNL     1      -0.070   6.336 -27.132  1.00  0.00     0.213 C 
ENDBRANCH  35  37
ENDBRANCH  34  35
ENDBRANCH   3  34
TORSDOF 9
ENDMDL
MODEL 7
REMARK VINA RESULT:      -8.8      3.502      6.178
REMARK  9 active torsions:
REMARK  status: ('A' for Active; 'I' for Inactive)
REMARK    1  A    between atoms: C_3  and  C_4 
REMARK    2  A    between atoms: C_4  and  C_5 
REMARK    3  A    between atoms: C_5  and  O_6 
REMARK    4  A    between atoms: C_16  and  O_17 
REMARK    5  A    between atoms: C_18  and  C_19 
REMARK    6  A    between atoms: C_19  and  N_20 
REMARK    7  A    between atoms: N_20  and  C_23 
REMARK    8  A    between atoms: N_26  and  C_28 
REMARK    9  A    between atoms: C_28  and  C_29 
ROOT
HETATM    1  C   UNL     1      -3.691  -0.342 -33.335  1.00  0.00     0.050 C 
HETATM    2  C   UNL     1      -5.090  -0.895 -33.449  1.00  0.00    -0.036 C 
HETATM    3  C   UNL     1      -5.396  -2.022 -34.129  1.00  0.00     0.034 C 
HETATM    4  C   UNL     1      -6.808  -2.457 -34.306  1.00  0.00     0.295 C 
HETATM    5  O   UNL     1      -7.094  -3.549 -34.780  1.00  0.00    -0.259 OA
HETATM    6  O   UNL     1      -7.789  -1.563 -33.923  1.00  0.00    -0.274 OA
HETATM    7  C   UNL     1      -7.507  -0.473 -33.080  1.00  0.00     0.099 A 
HETATM    8  C   UNL     1      -6.180  -0.152 -32.785  1.00  0.00     0.006 A 
HETATM    9  C   UNL     1      -8.609   0.194 -32.511  1.00  0.00     0.007 A 
HETATM   10  C   UNL     1     -10.017  -0.187 -32.888  1.00  0.00     0.054 C 
HETATM   11  C   UNL     1      -8.338   1.174 -31.552  1.00  0.00     0.082 A 
HETATM   12  C   UNL     1      -7.018   1.495 -31.188  1.00  0.00     0.002 A 
HETATM   13  C   UNL     1      -5.951   0.847 -31.829  1.00  0.00     0.026 A 
ENDROOT
BRANCH  12  14
HETATM   14  C   UNL     1      -6.757   2.450 -30.059  1.00  0.00     0.274 C 
BRANCH  14  15
HETATM   15  N   UNL     1      -7.352   3.785 -30.413  1.00  0.00    -0.067 N 
HETATM   16  H   UNL     1      -8.217   3.576 -30.930  1.00  0.00     0.277 HD
HETATM   17  H   UNL     1      -7.712   4.157 -29.517  1.00  0.00     0.277 HD
BRANCH  15  18
HETATM   18  C   UNL     1      -6.529   4.866 -31.056  1.00  0.00     0.189 C 
HETATM   19  C   UNL     1      -5.978   4.528 -32.439  1.00  0.00     0.060 C 
HETATM   20  C   UNL     1      -6.889   4.856 -33.618  1.00  0.00     0.237 C 
HETATM   21  N   UNL     1      -8.316   5.035 -33.175  1.00  0.00    -0.067 N 
HETATM   22  H   UNL     1      -8.641   4.149 -32.761  1.00  0.00     0.280 HD
HETATM   23  C   UNL     1      -8.480   6.146 -32.168  1.00  0.00     0.237 C 
HETATM   24  C   UNL     1      -7.366   6.145 -31.116  1.00  0.00     0.060 C 
BRANCH  21  25
HETATM   25  C   UNL     1      -9.297   5.188 -34.359  1.00  0.00     0.273 C 
BRANCH  25  26
HETATM   26  C   UNL     1     -10.474   4.255 -34.371  1.00  0.00    -0.033 A 
HETATM   27  C   UNL     1     -11.143   3.986 -35.579  1.00  0.00     0.009 A 
HETATM   28  C   UNL     1     -12.263   3.158 -35.599  1.00  0.00     0.001 A 
HETATM   29  C   UNL     1     -12.727   2.584 -34.420  1.00  0.00     0.000 A 
HETATM   30  C   UNL     1     -12.066   2.828 -33.219  1.00  0.00     0.001 A 
HETATM   31  C   UNL     1     -10.941   3.655 -33.192  1.00  0.00     0.009 A 
ENDBRANCH  25  26
ENDBRANCH  21  25
ENDBRANCH  15  18
ENDBRANCH  14  15
ENDBRANCH  12  14
BRANCH  11  32
HETATM   32  O   UNL     1      -9.353   1.815 -30.871  1.00  0.00    -0.359 OA
HETATM   33  H   UNL     1      -9.928   2.196 -31.573  1.00  0.00     0.217 HD
ENDBRANCH  11  32
BRANCH   3  34
HETATM   34  C   UNL     1      -4.413  -2.973 -34.776  1.00  0.00     0.156 C 
BRANCH  34  35
HETATM   35  C   UNL     1      -3.978  -4.049 -33.800  1.00  0.00     0.262 C 
HETATM   36  O   UNL     1      -4.461  -5.173 -33.738  1.00  0.00    -0.265 OA
BRANCH  35  37
HETATM   37  O   UNL     1      -2.942  -3.585 -33.050  1.00  0.00    -0.326 OA
HETATM   38  C   UNL     1      -3.092  -3.777 -31.641  1.00  0.00     0.213 C 
ENDBRANCH  35  37
ENDBRANCH  34  35
ENDBRANCH   3  34
TORSDOF 9
ENDMDL
MODEL 8
REMARK VINA RESULT:      -8.8      1.706      2.433
REMARK  9 active torsions:
REMARK  status: ('A' for Active; 'I' for Inactive)
REMARK    1  A    between atoms: C_3  and  C_4 
REMARK    2  A    between atoms: C_4  and  C_5 
REMARK    3  A    between atoms: C_5  and  O_6 
REMARK    4  A    between atoms: C_16  and  O_17 
REMARK    5  A    between atoms: C_18  and  C_19 
REMARK    6  A    between atoms: C_19  and  N_20 
REMARK    7  A    between atoms: N_20  and  C_23 
REMARK    8  A    between atoms: N_26  and  C_28 
REMARK    9  A    between atoms: C_28  and  C_29 
ROOT
HETATM    1  C   UNL     1      -3.850   0.556 -32.817  1.00  0.00     0.050 C 
HETATM    2  C   UNL     1      -5.173  -0.138 -33.031  1.00  0.00    -0.036 C 
HETATM    3  C   UNL     1      -5.311  -1.289 -33.724  1.00  0.00     0.034 C 
HETATM    4  C   UNL     1      -6.654  -1.866 -34.002  1.00  0.00     0.295 C 
HETATM    5  O   UNL     1      -6.791  -2.981 -34.489  1.00  0.00    -0.259 OA
HETATM    6  O   UNL     1      -7.747  -1.077 -33.699  1.00  0.00    -0.274 OA
HETATM    7  C   UNL     1      -7.642   0.035 -32.845  1.00  0.00     0.099 A 
HETATM    8  C   UNL     1      -6.380   0.491 -32.454  1.00  0.00     0.006 A 
HETATM    9  C   UNL     1      -8.845   0.586 -32.364  1.00  0.00     0.007 A 
HETATM   10  C   UNL     1     -10.175   0.064 -32.842  1.00  0.00     0.054 C 
HETATM   11  C   UNL     1      -8.747   1.588 -31.394  1.00  0.00     0.082 A 
HETATM   12  C   UNL     1      -7.498   2.041 -30.935  1.00  0.00     0.002 A 
HETATM   13  C   UNL     1      -6.325   1.507 -31.491  1.00  0.00     0.026 A 
ENDROOT
BRANCH  12  14
HETATM   14  C   UNL     1      -7.420   3.018 -29.797  1.00  0.00     0.274 C 
BRANCH  14  15
HETATM   15  N   UNL     1      -7.888   4.361 -30.285  1.00  0.00    -0.067 N 
HETATM   16  H   UNL     1      -8.043   4.252 -31.296  1.00  0.00     0.277 HD
HETATM   17  H   UNL     1      -8.852   4.451 -29.919  1.00  0.00     0.277 HD
BRANCH  15  18
HETATM   18  C   UNL     1      -7.151   5.623 -29.935  1.00  0.00     0.189 C 
HETATM   19  C   UNL     1      -5.741   5.421 -29.384  1.00  0.00     0.060 C 
HETATM   20  C   UNL     1      -4.625   5.344 -30.421  1.00  0.00     0.237 C 
HETATM   21  N   UNL     1      -5.169   5.039 -31.790  1.00  0.00    -0.067 N 
HETATM   22  H   UNL     1      -5.634   4.120 -31.757  1.00  0.00     0.280 HD
HETATM   23  C   UNL     1      -6.149   6.077 -32.274  1.00  0.00     0.237 C 
HETATM   24  C   UNL     1      -7.113   6.525 -31.170  1.00  0.00     0.060 C 
BRANCH  21  25
HETATM   25  C   UNL     1      -4.058   4.772 -32.832  1.00  0.00     0.273 C 
BRANCH  25  26
HETATM   26  C   UNL     1      -2.764   5.506 -32.624  1.00  0.00    -0.033 A 
HETATM   27  C   UNL     1      -1.650   4.825 -32.099  1.00  0.00     0.009 A 
HETATM   28  C   UNL     1      -0.455   5.500 -31.859  1.00  0.00     0.001 A 
HETATM   29  C   UNL     1      -0.354   6.858 -32.141  1.00  0.00     0.000 A 
HETATM   30  C   UNL     1      -1.444   7.542 -32.675  1.00  0.00     0.001 A 
HETATM   31  C   UNL     1      -2.643   6.870 -32.921  1.00  0.00     0.009 A 
ENDBRANCH  25  26
ENDBRANCH  21  25
ENDBRANCH  15  18
ENDBRANCH  14  15
ENDBRANCH  12  14
BRANCH  11  32
HETATM   32  O   UNL     1      -9.871   2.121 -30.795  1.00  0.00    -0.359 OA
HETATM   33  H   UNL     1     -10.519   1.380 -30.769  1.00  0.00     0.217 HD
ENDBRANCH  11  32
BRANCH   3  34
HETATM   34  C   UNL     1      -4.191  -2.134 -34.290  1.00  0.00     0.156 C 
BRANCH  34  35
HETATM   35  C   UNL     1      -3.674  -3.113 -33.252  1.00  0.00     0.262 C 
HETATM   36  O   UNL     1      -3.574  -2.874 -32.056  1.00  0.00    -0.265 OA
BRANCH  35  37
HETATM   37  O   UNL     1      -3.394  -4.301 -33.853  1.00  0.00    -0.326 OA
HETATM   38  C   UNL     1      -4.485  -5.224 -33.887  1.00  0.00     0.213 C 
ENDBRANCH  35  37
ENDBRANCH  34  35
ENDBRANCH   3  34
TORSDOF 9
ENDMDL
MODEL 9
REMARK VINA RESULT:      -8.8      3.690      9.402
REMARK  9 active torsions:
REMARK  status: ('A' for Active; 'I' for Inactive)
REMARK    1  A    between atoms: C_3  and  C_4 
REMARK    2  A    between atoms: C_4  and  C_5 
REMARK    3  A    between atoms: C_5  and  O_6 
REMARK    4  A    between atoms: C_16  and  O_17 
REMARK    5  A    between atoms: C_18  and  C_19 
REMARK    6  A    between atoms: C_19  and  N_20 
REMARK    7  A    between atoms: N_20  and  C_23 
REMARK    8  A    between atoms: N_26  and  C_28 
REMARK    9  A    between atoms: C_28  and  C_29 
ROOT
HETATM    1  C   UNL     1      -4.145   7.266 -29.033  1.00  0.00     0.050 C 
HETATM    2  C   UNL     1      -3.312   6.928 -30.244  1.00  0.00    -0.036 C 
HETATM    3  C   UNL     1      -2.017   7.286 -30.384  1.00  0.00     0.034 C 
HETATM    4  C   UNL     1      -1.277   7.027 -31.650  1.00  0.00     0.295 C 
HETATM    5  O   UNL     1      -0.069   7.201 -31.740  1.00  0.00    -0.259 OA
HETATM    6  O   UNL     1      -2.022   6.594 -32.730  1.00  0.00    -0.274 OA
HETATM    7  C   UNL     1      -3.317   6.069 -32.572  1.00  0.00     0.099 A 
HETATM    8  C   UNL     1      -3.960   6.173 -31.336  1.00  0.00     0.006 A 
HETATM    9  C   UNL     1      -3.867   5.388 -33.675  1.00  0.00     0.007 A 
HETATM   10  C   UNL     1      -3.132   5.330 -34.988  1.00  0.00     0.054 C 
HETATM   11  C   UNL     1      -5.084   4.728 -33.477  1.00  0.00     0.082 A 
HETATM   12  C   UNL     1      -5.741   4.764 -32.235  1.00  0.00     0.002 A 
HETATM   13  C   UNL     1      -5.185   5.510 -31.184  1.00  0.00     0.026 A 
ENDROOT
BRANCH  12  14
HETATM   14  C   UNL     1      -6.973   3.937 -32.007  1.00  0.00     0.274 C 
BRANCH  14  15
HETATM   15  N   UNL     1      -6.597   2.483 -32.095  1.00  0.00    -0.067 N 
HETATM   16  H   UNL     1      -7.441   1.996 -32.426  1.00  0.00     0.277 HD
HETATM   17  H   UNL     1      -5.969   2.424 -32.916  1.00  0.00     0.277 HD
BRANCH  15  18
HETATM   18  C   UNL     1      -5.919   1.777 -30.954  1.00  0.00     0.189 C 
HETATM   19  C   UNL     1      -6.303   0.310 -30.777  1.00  0.00     0.060 C 
HETATM   20  C   UNL     1      -5.476  -0.695 -31.573  1.00  0.00     0.237 C 
HETATM   21  N   UNL     1      -4.743  -0.029 -32.705  1.00  0.00    -0.067 N 
HETATM   22  H   UNL     1      -5.439   0.384 -33.343  1.00  0.00     0.280 HD
HETATM   23  C   UNL     1      -3.796   1.047 -32.234  1.00  0.00     0.237 C 
HETATM   24  C   UNL     1      -4.406   1.912 -31.126  1.00  0.00     0.060 C 
BRANCH  21  25
HETATM   25  C   UNL     1      -4.041  -1.038 -33.642  1.00  0.00     0.273 C 
BRANCH  25  26
HETATM   26  C   UNL     1      -4.845  -2.242 -34.043  1.00  0.00    -0.033 A 
HETATM   27  C   UNL     1      -4.245  -3.514 -34.052  1.00  0.00     0.009 A 
HETATM   28  C   UNL     1      -4.964  -4.634 -34.464  1.00  0.00     0.001 A 
HETATM   29  C   UNL     1      -6.289  -4.502 -34.866  1.00  0.00     0.000 A 
HETATM   30  C   UNL     1      -6.901  -3.251 -34.848  1.00  0.00     0.001 A 
HETATM   31  C   UNL     1      -6.187  -2.125 -34.433  1.00  0.00     0.009 A 
ENDBRANCH  25  26
ENDBRANCH  21  25
ENDBRANCH  15  18
ENDBRANCH  14  15
ENDBRANCH  12  14
BRANCH  11  32
HETATM   32  O   UNL     1      -5.653   3.955 -34.469  1.00  0.00    -0.359 OA
HETATM   33  H   UNL     1      -6.394   3.482 -34.028  1.00  0.00     0.217 HD
ENDBRANCH  11  32
BRANCH   3  34
HETATM   34  C   UNL     1      -1.154   7.959 -29.339  1.00  0.00     0.156 C 
BRANCH  34  35
HETATM   35  C   UNL     1      -0.722   6.968 -28.274  1.00  0.00     0.262 C 
HETATM   36  O   UNL     1      -0.009   5.994 -28.476  1.00  0.00    -0.265 OA
BRANCH  35  37
HETATM   37  O   UNL     1      -1.205   7.366 -27.066  1.00  0.00    -0.326 OA
HETATM   38  C   UNL     1      -1.485   6.300 -26.156  1.00  0.00     0.213 C 
ENDBRANCH  35  37
ENDBRANCH  34  35
ENDBRANCH   3  34
TORSDOF 9
ENDMDL
MODEL 10
REMARK VINA RESULT:      -8.7      3.962      9.132
REMARK  9 active torsions:
REMARK  status: ('A' for Active; 'I' for Inactive)
REMARK    1  A    between atoms: C_3  and  C_4 
REMARK    2  A    between atoms: C_4  and  C_5 
REMARK    3  A    between atoms: C_5  and  O_6 
REMARK    4  A    between atoms: C_16  and  O_17 
REMARK    5  A    between atoms: C_18  and  C_19 
REMARK    6  A    between atoms: C_19  and  N_20 
REMARK    7  A    between atoms: N_20  and  C_23 
REMARK    8  A    between atoms: N_26  and  C_28 
REMARK    9  A    between atoms: C_28  and  C_29 
ROOT
HETATM    1  C   UNL     1      -2.578   3.700 -31.669  1.00  0.00     0.050 C 
HETATM    2  C   UNL     1      -3.022   5.135 -31.801  1.00  0.00    -0.036 C 
HETATM    3  C   UNL     1      -2.192   6.147 -32.138  1.00  0.00     0.034 C 
HETATM    4  C   UNL     1      -2.659   7.560 -32.139  1.00  0.00     0.295 C 
HETATM    5  O   UNL     1      -1.972   8.468 -32.590  1.00  0.00    -0.259 OA
HETATM    6  O   UNL     1      -3.904   7.806 -31.592  1.00  0.00    -0.274 OA
HETATM    7  C   UNL     1      -4.838   6.776 -31.386  1.00  0.00     0.099 A 
HETATM    8  C   UNL     1      -4.442   5.444 -31.534  1.00  0.00     0.006 A 
HETATM    9  C   UNL     1      -6.163   7.162 -31.111  1.00  0.00     0.007 A 
HETATM   10  C   UNL     1      -6.521   8.615 -30.940  1.00  0.00     0.054 C 
HETATM   11  C   UNL     1      -7.128   6.150 -31.061  1.00  0.00     0.082 A 
HETATM   12  C   UNL     1      -6.782   4.802 -31.254  1.00  0.00     0.002 A 
HETATM   13  C   UNL     1      -5.437   4.459 -31.462  1.00  0.00     0.026 A 
ENDROOT
BRANCH  12  14
HETATM   14  C   UNL     1      -7.852   3.751 -31.333  1.00  0.00     0.274 C 
BRANCH  14  15
HETATM   15  N   UNL     1      -7.215   2.448 -31.729  1.00  0.00    -0.067 N 
HETATM   16  H   UNL     1      -7.060   2.510 -32.744  1.00  0.00     0.277 HD
HETATM   17  H   UNL     1      -6.253   2.502 -31.353  1.00  0.00     0.277 HD
BRANCH  15  18
HETATM   18  C   UNL     1      -7.796   1.129 -31.302  1.00  0.00     0.189 C 
HETATM   19  C   UNL     1      -8.878   0.567 -32.221  1.00  0.00     0.060 C 
HETATM   20  C   UNL     1      -8.386  -0.299 -33.377  1.00  0.00     0.237 C 
HETATM   21  N   UNL     1      -6.923  -0.072 -33.649  1.00  0.00    -0.067 N 
HETATM   22  H   UNL     1      -6.792   0.915 -33.915  1.00  0.00     0.280 HD
HETATM   23  C   UNL     1      -6.053  -0.388 -32.459  1.00  0.00     0.237 C 
HETATM   24  C   UNL     1      -6.656   0.121 -31.146  1.00  0.00     0.060 C 
BRANCH  21  25
HETATM   25  C   UNL     1      -6.431  -0.792 -34.925  1.00  0.00     0.273 C 
BRANCH  25  26
HETATM   26  C   UNL     1      -5.937  -2.199 -34.744  1.00  0.00    -0.033 A 
HETATM   27  C   UNL     1      -6.830  -3.277 -34.884  1.00  0.00     0.009 A 
HETATM   28  C   UNL     1      -6.398  -4.586 -34.676  1.00  0.00     0.001 A 
HETATM   29  C   UNL     1      -5.074  -4.836 -34.332  1.00  0.00     0.000 A 
HETATM   30  C   UNL     1      -4.175  -3.780 -34.205  1.00  0.00     0.001 A 
HETATM   31  C   UNL     1      -4.601  -2.466 -34.415  1.00  0.00     0.009 A 
ENDBRANCH  25  26
ENDBRANCH  21  25
ENDBRANCH  15  18
ENDBRANCH  14  15
ENDBRANCH  12  14
BRANCH  11  32
HETATM   32  O   UNL     1      -8.466   6.441 -30.892  1.00  0.00    -0.359 OA
HETATM   33  H   UNL     1      -8.938   5.616 -31.148  1.00  0.00     0.217 HD
ENDBRANCH  11  32
BRANCH   3  34
HETATM   34  C   UNL     1      -0.743   6.017 -32.553  1.00  0.00     0.156 C 
BRANCH  34  35
HETATM   35  C   UNL     1       0.150   5.810 -31.345  1.00  0.00     0.262 C 
HETATM   36  O   UNL     1       0.489   4.719 -30.905  1.00  0.00    -0.265 OA
BRANCH  35  37
HETATM   37  O   UNL     1       0.551   7.020 -30.869  1.00  0.00    -0.326 OA
HETATM   38  C   UNL     1       0.221   7.263 -29.500  1.00  0.00     0.213 C 
ENDBRANCH  35  37
ENDBRANCH  34  35
ENDBRANCH   3  34
TORSDOF 9
ENDMDL
