MODEL 1
REMARK VINA RESULT:      -8.0      0.000      0.000
REMARK  6 active torsions:
REMARK  status: ('A' for Active; 'I' for Inactive)
REMARK    1  A    between atoms: C_2  and  N_3 
REMARK    2  A    between atoms: C_5  and  C_6 
REMARK    3  A    between atoms: C_6  and  N_7 
REMARK       I    between atoms: N_7  and  C_8 
REMARK    4  A    between atoms: C_8  and  C_9 
REMARK    5  A    between atoms: C_9  and  C_10 
REMARK    6  A    between atoms: C_11  and  C_12 
ROOT
HETATM    1  C   UNL     1      -7.679   1.217 -31.708  1.00  0.00     0.005 A 
HETATM    2  C   UNL     1      -6.547   0.587 -32.231  1.00  0.00     0.069 A 
HETATM    3  N   UNL     1      -5.491   1.348 -31.780  1.00  0.00    -0.277 N 
HETATM    4  H   UNL     1      -4.504   1.208 -31.962  1.00  0.00     0.189 HD
HETATM    5  N   UNL     1      -5.841   2.394 -31.027  1.00  0.00    -0.179 NA
HETATM    6  C   UNL     1      -7.163   2.278 -30.901  1.00  0.00     0.059 A 
HETATM    7  C   UNL     1      -7.884   3.222 -30.008  1.00  0.00     0.073 C 
ENDROOT
BRANCH   1   8
HETATM    8  C   UNL     1      -9.127   0.877 -31.875  1.00  0.00     0.146 C 
BRANCH   8   9
HETATM    9  C   UNL     1      -9.788   1.812 -32.881  1.00  0.00     0.222 C 
HETATM   10  N   UNL     1     -10.739   2.676 -32.388  1.00  0.00    -0.359 N 
HETATM   11  H   UNL     1     -11.093   2.506 -31.452  1.00  0.00     0.162 HD
HETATM   12  O   UNL     1      -9.455   1.882 -34.065  1.00  0.00    -0.273 OA
BRANCH  10  13
HETATM   13  C   UNL     1     -11.486   3.596 -33.240  1.00  0.00     0.155 C 
BRANCH  13  14
HETATM   14  C   UNL     1     -12.903   3.131 -33.682  1.00  0.00     0.206 C 
HETATM   15  N   UNL     1     -13.544   2.192 -32.659  1.00  0.00    -0.066 N 
HETATM   16  H   UNL     1     -12.787   1.922 -31.994  1.00  0.00     0.280 HD
HETATM   17  C   UNL     1     -13.943   0.928 -33.380  1.00  0.00     0.235 C 
HETATM   18  C   UNL     1     -13.025   0.889 -34.580  1.00  0.00     0.030 C 
HETATM   19  C   UNL     1     -12.924   2.343 -34.992  1.00  0.00     0.036 C 
BRANCH  15  20
HETATM   20  C   UNL     1     -14.614   2.819 -31.816  1.00  0.00     0.231 C 
HETATM   21  C   UNL     1     -15.969   2.215 -32.136  1.00  0.00     0.034 C 
ENDBRANCH  15  20
ENDBRANCH  13  14
ENDBRANCH  10  13
ENDBRANCH   8   9
ENDBRANCH   1   8
BRANCH   2  22
HETATM   22  C   UNL     1      -6.319  -0.604 -33.064  1.00  0.00    -0.007 A 
HETATM   23  C   UNL     1      -5.066  -1.221 -33.149  1.00  0.00     0.015 A 
HETATM   24  C   UNL     1      -4.870  -2.370 -33.926  1.00  0.00     0.024 A 
HETATM   25  C   UNL     1      -5.936  -2.922 -34.627  1.00  0.00     0.034 A 
HETATM   26 CL   UNL     1      -5.700  -4.341 -35.566  1.00  0.00    -0.084 Cl
HETATM   27  C   UNL     1      -7.190  -2.327 -34.567  1.00  0.00     0.024 A 
HETATM   28  C   UNL     1      -7.377  -1.174 -33.795  1.00  0.00     0.015 A 
ENDBRANCH   2  22
TORSDOF 6
ENDMDL
MODEL 2
REMARK VINA RESULT:      -7.9      1.581      2.351
REMARK  6 active torsions:
REMARK  status: ('A' for Active; 'I' for Inactive)
REMARK    1  A    between atoms: C_2  and  N_3 
REMARK    2  A    between atoms: C_5  and  C_6 
REMARK    3  A    between atoms: C_6  and  N_7 
REMARK       I    between atoms: N_7  and  C_8 
REMARK    4  A    between atoms: C_8  and  C_9 
REMARK    5  A    between atoms: C_9  and  C_10 
REMARK    6  A    between atoms: C_11  and  C_12 
ROOT
HETATM    1  C   UNL     1      -5.690   1.793 -33.093  1.00  0.00     0.005 A 
HETATM    2  C   UNL     1      -5.141   0.516 -32.950  1.00  0.00     0.069 A 
HETATM    3  N   UNL     1      -4.155   0.671 -32.001  1.00  0.00    -0.277 N 
HETATM    4  H   UNL     1      -3.528  -0.038 -31.639  1.00  0.00     0.189 HD
HETATM    5  N   UNL     1      -4.024   1.914 -31.532  1.00  0.00    -0.179 NA
HETATM    6  C   UNL     1      -5.009   2.591 -32.122  1.00  0.00     0.059 A 
HETATM    7  C   UNL     1      -5.242   4.006 -31.730  1.00  0.00     0.073 C 
ENDROOT
BRANCH   1   8
HETATM    8  C   UNL     1      -6.780   2.272 -34.000  1.00  0.00     0.146 C 
BRANCH   8   9
HETATM    9  C   UNL     1      -8.150   1.990 -33.394  1.00  0.00     0.222 C 
HETATM   10  N   UNL     1      -9.029   1.266 -34.166  1.00  0.00    -0.359 N 
HETATM   11  H   UNL     1      -8.807   1.145 -35.148  1.00  0.00     0.162 HD
HETATM   12  O   UNL     1      -8.461   2.302 -32.243  1.00  0.00    -0.273 OA
BRANCH  10  13
HETATM   13  C   UNL     1     -10.390   0.960 -33.734  1.00  0.00     0.155 C 
BRANCH  13  14
HETATM   14  C   UNL     1     -11.480   2.011 -34.089  1.00  0.00     0.206 C 
HETATM   15  N   UNL     1     -12.351   2.363 -32.882  1.00  0.00    -0.066 N 
HETATM   16  H   UNL     1     -12.133   1.657 -32.146  1.00  0.00     0.280 HD
HETATM   17  C   UNL     1     -13.791   2.138 -33.271  1.00  0.00     0.235 C 
HETATM   18  C   UNL     1     -13.711   1.128 -34.393  1.00  0.00     0.030 C 
HETATM   19  C   UNL     1     -12.472   1.549 -35.156  1.00  0.00     0.036 C 
BRANCH  15  20
HETATM   20  C   UNL     1     -12.051   3.694 -32.259  1.00  0.00     0.231 C 
HETATM   21  C   UNL     1     -11.184   4.532 -33.182  1.00  0.00     0.034 C 
ENDBRANCH  15  20
ENDBRANCH  13  14
ENDBRANCH  10  13
ENDBRANCH   8   9
ENDBRANCH   1   8
BRANCH   2  22
HETATM   22  C   UNL     1      -5.412  -0.798 -33.552  1.00  0.00    -0.007 A 
HETATM   23  C   UNL     1      -6.715  -1.245 -33.804  1.00  0.00     0.015 A 
HETATM   24  C   UNL     1      -6.956  -2.488 -34.402  1.00  0.00     0.024 A 
HETATM   25  C   UNL     1      -5.889  -3.302 -34.763  1.00  0.00     0.034 A 
HETATM   26 CL   UNL     1      -6.185  -4.819 -35.512  1.00  0.00    -0.084 Cl
HETATM   27  C   UNL     1      -4.585  -2.888 -34.519  1.00  0.00     0.024 A 
HETATM   28  C   UNL     1      -4.350  -1.647 -33.913  1.00  0.00     0.015 A 
ENDBRANCH   2  22
TORSDOF 6
ENDMDL
MODEL 3
REMARK VINA RESULT:      -7.8      4.162      7.625
REMARK  6 active torsions:
REMARK  status: ('A' for Active; 'I' for Inactive)
REMARK    1  A    between atoms: C_2  and  N_3 
REMARK    2  A    between atoms: C_5  and  C_6 
REMARK    3  A    between atoms: C_6  and  N_7 
REMARK       I    between atoms: N_7  and  C_8 
REMARK    4  A    between atoms: C_8  and  C_9 
REMARK    5  A    between atoms: C_9  and  C_10 
REMARK    6  A    between atoms: C_11  and  C_12 
ROOT
HETATM    1  C   UNL     1      -7.431   1.436 -33.868  1.00  0.00     0.005 A 
HETATM    2  C   UNL     1      -7.461   0.050 -33.695  1.00  0.00     0.069 A 
HETATM    3  N   UNL     1      -8.761  -0.224 -33.334  1.00  0.00    -0.277 N 
HETATM    4  H   UNL     1      -9.166  -1.127 -33.114  1.00  0.00     0.189 HD
HETATM    5  N   UNL     1      -9.555   0.847 -33.260  1.00  0.00    -0.179 NA
HETATM    6  C   UNL     1      -8.784   1.854 -33.667  1.00  0.00     0.059 A 
HETATM    7  C   UNL     1      -9.390   3.202 -33.830  1.00  0.00     0.073 C 
ENDROOT
BRANCH   1   8
HETATM    8  C   UNL     1      -6.290   2.333 -34.231  1.00  0.00     0.146 C 
BRANCH   8   9
HETATM    9  C   UNL     1      -5.553   2.801 -32.981  1.00  0.00     0.222 C 
HETATM   10  N   UNL     1      -4.522   3.692 -33.171  1.00  0.00    -0.359 N 
HETATM   11  H   UNL     1      -4.177   3.823 -34.116  1.00  0.00     0.162 HD
HETATM   12  O   UNL     1      -5.887   2.489 -31.837  1.00  0.00    -0.273 OA
BRANCH  10  13
HETATM   13  C   UNL     1      -3.699   4.191 -32.073  1.00  0.00     0.155 C 
BRANCH  13  14
HETATM   14  C   UNL     1      -2.267   4.672 -32.446  1.00  0.00     0.206 C 
HETATM   15  N   UNL     1      -1.969   6.067 -31.894  1.00  0.00    -0.066 N 
HETATM   16  H   UNL     1      -2.880   6.453 -31.564  1.00  0.00     0.280 HD
HETATM   17  C   UNL     1      -1.533   6.936 -33.047  1.00  0.00     0.235 C 
HETATM   18  C   UNL     1      -2.149   6.271 -34.257  1.00  0.00     0.030 C 
HETATM   19  C   UNL     1      -2.019   4.793 -33.950  1.00  0.00     0.036 C 
BRANCH  15  20
HETATM   20  C   UNL     1      -1.068   6.086 -30.694  1.00  0.00     0.231 C 
HETATM   21  C   UNL     1       0.367   6.352 -31.109  1.00  0.00     0.034 C 
ENDBRANCH  15  20
ENDBRANCH  13  14
ENDBRANCH  10  13
ENDBRANCH   8   9
ENDBRANCH   1   8
BRANCH   2  22
HETATM   22  C   UNL     1      -6.469  -1.029 -33.828  1.00  0.00    -0.007 A 
HETATM   23  C   UNL     1      -5.218  -0.969 -33.203  1.00  0.00     0.015 A 
HETATM   24  C   UNL     1      -4.295  -2.015 -33.319  1.00  0.00     0.024 A 
HETATM   25  C   UNL     1      -4.616  -3.145 -34.061  1.00  0.00     0.034 A 
HETATM   26 CL   UNL     1      -3.490  -4.435 -34.189  1.00  0.00    -0.084 Cl
HETATM   27  C   UNL     1      -5.848  -3.229 -34.699  1.00  0.00     0.024 A 
HETATM   28  C   UNL     1      -6.764  -2.176 -34.587  1.00  0.00     0.015 A 
ENDBRANCH   2  22
TORSDOF 6
ENDMDL
MODEL 4
REMARK VINA RESULT:      -7.8      4.215      6.847
REMARK  6 active torsions:
REMARK  status: ('A' for Active; 'I' for Inactive)
REMARK    1  A    between atoms: C_2  and  N_3 
REMARK    2  A    between atoms: C_5  and  C_6 
REMARK    3  A    between atoms: C_6  and  N_7 
REMARK       I    between atoms: N_7  and  C_8 
REMARK    4  A    between atoms: C_8  and  C_9 
REMARK    5  A    between atoms: C_9  and  C_10 
REMARK    6  A    between atoms: C_11  and  C_12 
ROOT
HETATM    1  C   UNL     1      -6.216   2.162 -31.135  1.00  0.00     0.005 A 
HETATM    2  C   UNL     1      -6.899   1.440 -32.117  1.00  0.00     0.069 A 
HETATM    3  N   UNL     1      -8.103   2.095 -32.250  1.00  0.00    -0.277 N 
HETATM    4  H   UNL     1      -8.873   1.858 -32.865  1.00  0.00     0.189 HD
HETATM    5  N   UNL     1      -8.250   3.156 -31.452  1.00  0.00    -0.179 NA
HETATM    6  C   UNL     1      -7.076   3.263 -30.830  1.00  0.00     0.059 A 
HETATM    7  C   UNL     1      -6.838   4.430 -29.941  1.00  0.00     0.073 C 
ENDROOT
BRANCH   1   8
HETATM    8  C   UNL     1      -4.867   1.921 -30.533  1.00  0.00     0.146 C 
BRANCH   8   9
HETATM    9  C   UNL     1      -3.771   2.523 -31.407  1.00  0.00     0.222 C 
HETATM   10  N   UNL     1      -3.138   3.642 -30.917  1.00  0.00    -0.359 N 
HETATM   11  H   UNL     1      -3.563   4.119 -30.129  1.00  0.00     0.162 HD
HETATM   12  O   UNL     1      -3.384   2.013 -32.460  1.00  0.00    -0.273 OA
BRANCH  10  13
HETATM   13  C   UNL     1      -2.102   4.351 -31.663  1.00  0.00     0.155 C 
BRANCH  13  14
HETATM   14  C   UNL     1      -2.590   5.465 -32.633  1.00  0.00     0.206 C 
HETATM   15  N   UNL     1      -3.573   4.928 -33.675  1.00  0.00    -0.066 N 
HETATM   16  H   UNL     1      -3.528   3.888 -33.612  1.00  0.00     0.280 HD
HETATM   17  C   UNL     1      -3.043   5.292 -35.040  1.00  0.00     0.235 C 
HETATM   18  C   UNL     1      -1.557   5.459 -34.821  1.00  0.00     0.030 C 
HETATM   19  C   UNL     1      -1.474   6.111 -33.456  1.00  0.00     0.036 C 
BRANCH  15  20
HETATM   20  C   UNL     1      -5.008   5.284 -33.424  1.00  0.00     0.231 C 
HETATM   21  C   UNL     1      -5.931   4.337 -34.169  1.00  0.00     0.034 C 
ENDBRANCH  15  20
ENDBRANCH  13  14
ENDBRANCH  10  13
ENDBRANCH   8   9
ENDBRANCH   1   8
BRANCH   2  22
HETATM   22  C   UNL     1      -6.586   0.259 -32.936  1.00  0.00    -0.007 A 
HETATM   23  C   UNL     1      -7.176   0.046 -34.188  1.00  0.00     0.015 A 
HETATM   24  C   UNL     1      -6.849  -1.070 -34.967  1.00  0.00     0.024 A 
HETATM   25  C   UNL     1      -5.917  -1.991 -34.503  1.00  0.00     0.034 A 
HETATM   26 CL   UNL     1      -5.503  -3.351 -35.468  1.00  0.00    -0.084 Cl
HETATM   27  C   UNL     1      -5.321  -1.809 -33.261  1.00  0.00     0.024 A 
HETATM   28  C   UNL     1      -5.658  -0.696 -32.482  1.00  0.00     0.015 A 
ENDBRANCH   2  22
TORSDOF 6
ENDMDL
MODEL 5
REMARK VINA RESULT:      -7.7      2.103      3.175
REMARK  6 active torsions:
REMARK  status: ('A' for Active; 'I' for Inactive)
REMARK    1  A    between atoms: C_2  and  N_3 
REMARK    2  A    between atoms: C_5  and  C_6 
REMARK    3  A    between atoms: C_6  and  N_7 
REMARK       I    between atoms: N_7  and  C_8 
REMARK    4  A    between atoms: C_8  and  C_9 
REMARK    5  A    between atoms: C_9  and  C_10 
REMARK    6  A    between atoms: C_11  and  C_12 
ROOT
HETATM    1  C   UNL     1      -4.758   1.779 -32.662  1.00  0.00     0.005 A 
HETATM    2  C   UNL     1      -4.465   0.413 -32.652  1.00  0.00     0.069 A 
HETATM    3  N   UNL     1      -3.394   0.296 -31.795  1.00  0.00    -0.277 N 
HETATM    4  H   UNL     1      -2.893  -0.547 -31.540  1.00  0.00     0.189 HD
HETATM    5  N   UNL     1      -2.980   1.449 -31.263  1.00  0.00    -0.179 NA
HETATM    6  C   UNL     1      -3.854   2.349 -31.711  1.00  0.00     0.059 A 
HETATM    7  C   UNL     1      -3.767   3.746 -31.211  1.00  0.00     0.073 C 
ENDROOT
BRANCH   1   8
HETATM    8  C   UNL     1      -5.800   2.530 -33.429  1.00  0.00     0.146 C 
BRANCH   8   9
HETATM    9  C   UNL     1      -7.074   2.679 -32.605  1.00  0.00     0.222 C 
HETATM   10  N   UNL     1      -8.018   3.558 -33.084  1.00  0.00    -0.359 N 
HETATM   11  H   UNL     1      -7.738   4.199 -33.818  1.00  0.00     0.162 HD
HETATM   12  O   UNL     1      -7.320   2.002 -31.605  1.00  0.00    -0.273 OA
BRANCH  10  13
HETATM   13  C   UNL     1      -9.265   3.837 -32.378  1.00  0.00     0.155 C 
BRANCH  13  14
HETATM   14  C   UNL     1     -10.448   2.866 -32.655  1.00  0.00     0.206 C 
HETATM   15  N   UNL     1     -10.422   2.324 -34.085  1.00  0.00    -0.066 N 
HETATM   16  H   UNL     1      -9.722   2.897 -34.604  1.00  0.00     0.280 HD
HETATM   17  C   UNL     1     -11.760   2.619 -34.716  1.00  0.00     0.235 C 
HETATM   18  C   UNL     1     -12.280   3.800 -33.929  1.00  0.00     0.030 C 
HETATM   19  C   UNL     1     -11.830   3.505 -32.513  1.00  0.00     0.036 C 
BRANCH  15  20
HETATM   20  C   UNL     1      -9.949   0.906 -34.209  1.00  0.00     0.231 C 
HETATM   21  C   UNL     1     -10.085   0.179 -32.883  1.00  0.00     0.034 C 
ENDBRANCH  15  20
ENDBRANCH  13  14
ENDBRANCH  10  13
ENDBRANCH   8   9
ENDBRANCH   1   8
BRANCH   2  22
HETATM   22  C   UNL     1      -5.041  -0.771 -33.308  1.00  0.00    -0.007 A 
HETATM   23  C   UNL     1      -6.417  -0.904 -33.527  1.00  0.00     0.015 A 
HETATM   24  C   UNL     1      -6.948  -2.025 -34.175  1.00  0.00     0.024 A 
HETATM   25  C   UNL     1      -6.102  -3.033 -34.622  1.00  0.00     0.034 A 
HETATM   26 CL   UNL     1      -6.751  -4.400 -35.433  1.00  0.00    -0.084 Cl
HETATM   27  C   UNL     1      -4.731  -2.932 -34.413  1.00  0.00     0.024 A 
HETATM   28  C   UNL     1      -4.207  -1.813 -33.756  1.00  0.00     0.015 A 
ENDBRANCH   2  22
TORSDOF 6
ENDMDL
MODEL 6
REMARK VINA RESULT:      -7.6      3.877      6.848
REMARK  6 active torsions:
REMARK  status: ('A' for Active; 'I' for Inactive)
REMARK    1  A    between atoms: C_2  and  N_3 
REMARK    2  A    between atoms: C_5  and  C_6 
REMARK    3  A    between atoms: C_6  and  N_7 
REMARK       I    between atoms: N_7  and  C_8 
REMARK    4  A    between atoms: C_8  and  C_9 
REMARK    5  A    between atoms: C_9  and  C_10 
REMARK    6  A    between atoms: C_11  and  C_12 
ROOT
HETATM    1  C   UNL     1      -7.187   2.304 -32.095  1.00  0.00     0.005 A 
HETATM    2  C   UNL     1      -6.562   1.069 -31.903  1.00  0.00     0.069 A 
HETATM    3  N   UNL     1      -6.116   1.108 -30.601  1.00  0.00    -0.277 N 
HETATM    4  H   UNL     1      -5.604   0.392 -30.099  1.00  0.00     0.189 HD
HETATM    5  N   UNL     1      -6.393   2.242 -29.952  1.00  0.00    -0.179 NA
HETATM    6  C   UNL     1      -7.121   2.945 -30.819  1.00  0.00     0.059 A 
HETATM    7  C   UNL     1      -7.715   4.234 -30.378  1.00  0.00     0.073 C 
ENDROOT
BRANCH   1   8
HETATM    8  C   UNL     1      -7.841   2.867 -33.318  1.00  0.00     0.146 C 
BRANCH   8   9
HETATM    9  C   UNL     1      -7.038   4.041 -33.867  1.00  0.00     0.222 C 
HETATM   10  N   UNL     1      -5.693   3.828 -34.067  1.00  0.00    -0.359 N 
HETATM   11  H   UNL     1      -5.278   3.000 -33.652  1.00  0.00     0.162 HD
HETATM   12  O   UNL     1      -7.544   5.111 -34.208  1.00  0.00    -0.273 OA
BRANCH  10  13
HETATM   13  C   UNL     1      -4.792   4.873 -34.544  1.00  0.00     0.155 C 
BRANCH  13  14
HETATM   14  C   UNL     1      -3.854   5.515 -33.481  1.00  0.00     0.206 C 
HETATM   15  N   UNL     1      -2.396   5.096 -33.676  1.00  0.00    -0.066 N 
HETATM   16  H   UNL     1      -2.405   4.310 -34.361  1.00  0.00     0.280 HD
HETATM   17  C   UNL     1      -1.905   4.516 -32.373  1.00  0.00     0.235 C 
HETATM   18  C   UNL     1      -3.167   4.049 -31.684  1.00  0.00     0.030 C 
HETATM   19  C   UNL     1      -4.178   5.120 -32.040  1.00  0.00     0.036 C 
BRANCH  15  20
HETATM   20  C   UNL     1      -1.518   6.148 -34.285  1.00  0.00     0.231 C 
HETATM   21  C   UNL     1      -0.975   7.077 -33.214  1.00  0.00     0.034 C 
ENDBRANCH  15  20
ENDBRANCH  13  14
ENDBRANCH  10  13
ENDBRANCH   8   9
ENDBRANCH   1   8
BRANCH   2  22
HETATM   22  C   UNL     1      -6.341  -0.118 -32.743  1.00  0.00    -0.007 A 
HETATM   23  C   UNL     1      -7.384  -0.740 -33.439  1.00  0.00     0.015 A 
HETATM   24  C   UNL     1      -7.154  -1.854 -34.255  1.00  0.00     0.024 A 
HETATM   25  C   UNL     1      -5.866  -2.361 -34.390  1.00  0.00     0.034 A 
HETATM   26 CL   UNL     1      -5.581  -3.717 -35.404  1.00  0.00    -0.084 Cl
HETATM   27  C   UNL     1      -4.812  -1.769 -33.704  1.00  0.00     0.024 A 
HETATM   28  C   UNL     1      -5.050  -0.660 -32.883  1.00  0.00     0.015 A 
ENDBRANCH   2  22
TORSDOF 6
ENDMDL
MODEL 7
REMARK VINA RESULT:      -7.6      3.148      6.562
REMARK  6 active torsions:
REMARK  status: ('A' for Active; 'I' for Inactive)
REMARK    1  A    between atoms: C_2  and  N_3 
REMARK    2  A    between atoms: C_5  and  C_6 
REMARK    3  A    between atoms: C_6  and  N_7 
REMARK       I    between atoms: N_7  and  C_8 
REMARK    4  A    between atoms: C_8  and  C_9 
REMARK    5  A    between atoms: C_9  and  C_10 
REMARK    6  A    between atoms: C_11  and  C_12 
ROOT
HETATM    1  C   UNL     1      -8.004   0.585 -32.878  1.00  0.00     0.005 A 
HETATM    2  C   UNL     1      -7.501  -0.192 -33.925  1.00  0.00     0.069 A 
HETATM    3  N   UNL     1      -8.163   0.267 -35.042  1.00  0.00    -0.277 N 
HETATM    4  H   UNL     1      -8.069  -0.062 -35.996  1.00  0.00     0.189 HD
HETATM    5  N   UNL     1      -9.033   1.252 -34.808  1.00  0.00    -0.179 NA
HETATM    6  C   UNL     1      -8.885   1.517 -33.510  1.00  0.00     0.059 A 
HETATM    7  C   UNL     1      -9.624   2.665 -32.923  1.00  0.00     0.073 C 
ENDROOT
BRANCH   1   8
HETATM    8  C   UNL     1      -7.694   0.537 -31.415  1.00  0.00     0.146 C 
BRANCH   8   9
HETATM    9  C   UNL     1      -6.805   1.708 -31.013  1.00  0.00     0.222 C 
HETATM   10  N   UNL     1      -5.535   1.727 -31.541  1.00  0.00    -0.359 N 
HETATM   11  H   UNL     1      -5.194   0.880 -31.983  1.00  0.00     0.162 HD
HETATM   12  O   UNL     1      -7.195   2.653 -30.324  1.00  0.00    -0.273 OA
BRANCH  10  13
HETATM   13  C   UNL     1      -4.559   2.761 -31.209  1.00  0.00     0.155 C 
BRANCH  13  14
HETATM   14  C   UNL     1      -3.963   3.558 -32.404  1.00  0.00     0.206 C 
HETATM   15  N   UNL     1      -3.283   4.850 -31.949  1.00  0.00    -0.066 N 
HETATM   16  H   UNL     1      -3.559   4.992 -30.954  1.00  0.00     0.280 HD
HETATM   17  C   UNL     1      -3.894   5.991 -32.724  1.00  0.00     0.235 C 
HETATM   18  C   UNL     1      -5.257   5.471 -33.122  1.00  0.00     0.030 C 
HETATM   19  C   UNL     1      -4.999   4.011 -33.434  1.00  0.00     0.036 C 
BRANCH  15  20
HETATM   20  C   UNL     1      -1.784   4.802 -31.947  1.00  0.00     0.231 C 
HETATM   21  C   UNL     1      -1.226   5.440 -33.206  1.00  0.00     0.034 C 
ENDBRANCH  15  20
ENDBRANCH  13  14
ENDBRANCH  10  13
ENDBRANCH   8   9
ENDBRANCH   1   8
BRANCH   2  22
HETATM   22  C   UNL     1      -6.503  -1.268 -34.026  1.00  0.00    -0.007 A 
HETATM   23  C   UNL     1      -5.195  -1.114 -33.551  1.00  0.00     0.015 A 
HETATM   24  C   UNL     1      -4.264  -2.157 -33.631  1.00  0.00     0.024 A 
HETATM   25  C   UNL     1      -4.634  -3.377 -34.185  1.00  0.00     0.034 A 
HETATM   26 CL   UNL     1      -3.496  -4.661 -34.267  1.00  0.00    -0.084 Cl
HETATM   27  C   UNL     1      -5.923  -3.556 -34.671  1.00  0.00     0.024 A 
HETATM   28  C   UNL     1      -6.848  -2.507 -34.596  1.00  0.00     0.015 A 
ENDBRANCH   2  22
TORSDOF 6
ENDMDL
MODEL 8
REMARK VINA RESULT:      -7.5      4.003      6.670
REMARK  6 active torsions:
REMARK  status: ('A' for Active; 'I' for Inactive)
REMARK    1  A    between atoms: C_2  and  N_3 
REMARK    2  A    between atoms: C_5  and  C_6 
REMARK    3  A    between atoms: C_6  and  N_7 
REMARK       I    between atoms: N_7  and  C_8 
REMARK    4  A    between atoms: C_8  and  C_9 
REMARK    5  A    between atoms: C_9  and  C_10 
REMARK    6  A    between atoms: C_11  and  C_12 
ROOT
HETATM    1  C   UNL     1      -7.407   3.584 -32.290  1.00  0.00     0.005 A 
HETATM    2  C   UNL     1      -6.089   3.919 -31.972  1.00  0.00     0.069 A 
HETATM    3  N   UNL     1      -6.052   3.902 -30.596  1.00  0.00    -0.277 N 
HETATM    4  H   UNL     1      -5.262   4.104 -29.994  1.00  0.00     0.189 HD
HETATM    5  N   UNL     1      -7.213   3.591 -30.013  1.00  0.00    -0.179 NA
HETATM    6  C   UNL     1      -8.025   3.309 -31.030  1.00  0.00     0.059 A 
HETATM    7  C   UNL     1      -9.390   2.797 -30.739  1.00  0.00     0.073 C 
ENDROOT
BRANCH   1   8
HETATM    8  C   UNL     1      -8.072   3.470 -33.627  1.00  0.00     0.146 C 
BRANCH   8   9
HETATM    9  C   UNL     1      -8.126   2.016 -34.080  1.00  0.00     0.222 C 
HETATM   10  N   UNL     1      -6.962   1.486 -34.590  1.00  0.00    -0.359 N 
HETATM   11  H   UNL     1      -6.215   2.128 -34.829  1.00  0.00     0.162 HD
HETATM   12  O   UNL     1      -9.113   1.293 -33.934  1.00  0.00    -0.273 OA
BRANCH  10  13
HETATM   13  C   UNL     1      -6.876   0.122 -35.105  1.00  0.00     0.155 C 
BRANCH  13  14
HETATM   14  C   UNL     1      -6.526  -0.986 -34.071  1.00  0.00     0.206 C 
HETATM   15  N   UNL     1      -5.050  -0.951 -33.672  1.00  0.00    -0.066 N 
HETATM   16  H   UNL     1      -4.578  -0.311 -34.347  1.00  0.00     0.280 HD
HETATM   17  C   UNL     1      -4.473  -2.323 -33.915  1.00  0.00     0.235 C 
HETATM   18  C   UNL     1      -5.378  -2.916 -34.970  1.00  0.00     0.030 C 
HETATM   19  C   UNL     1      -6.752  -2.410 -34.579  1.00  0.00     0.036 C 
BRANCH  15  20
HETATM   20  C   UNL     1      -4.782  -0.369 -32.315  1.00  0.00     0.231 C 
HETATM   21  C   UNL     1      -6.078  -0.181 -31.549  1.00  0.00     0.034 C 
ENDBRANCH  15  20
ENDBRANCH  13  14
ENDBRANCH  10  13
ENDBRANCH   8   9
ENDBRANCH   1   8
BRANCH   2  22
HETATM   22  C   UNL     1      -4.885   4.234 -32.757  1.00  0.00    -0.007 A 
HETATM   23  C   UNL     1      -4.944   4.983 -33.938  1.00  0.00     0.015 A 
HETATM   24  C   UNL     1      -3.786   5.297 -34.660  1.00  0.00     0.024 A 
HETATM   25  C   UNL     1      -2.546   4.866 -34.205  1.00  0.00     0.034 A 
HETATM   26 CL   UNL     1      -1.125   5.265 -35.082  1.00  0.00    -0.084 Cl
HETATM   27  C   UNL     1      -2.458   4.114 -33.039  1.00  0.00     0.024 A 
HETATM   28  C   UNL     1      -3.620   3.796 -32.325  1.00  0.00     0.015 A 
ENDBRANCH   2  22
TORSDOF 6
ENDMDL
MODEL 9
REMARK VINA RESULT:      -7.4      4.642      8.327
REMARK  6 active torsions:
REMARK  status: ('A' for Active; 'I' for Inactive)
REMARK    1  A    between atoms: C_2  and  N_3 
REMARK    2  A    between atoms: C_5  and  C_6 
REMARK    3  A    between atoms: C_6  and  N_7 
REMARK       I    between atoms: N_7  and  C_8 
REMARK    4  A    between atoms: C_8  and  C_9 
REMARK    5  A    between atoms: C_9  and  C_10 
REMARK    6  A    between atoms: C_11  and  C_12 
ROOT
HETATM    1  C   UNL     1      -5.925   2.547 -31.940  1.00  0.00     0.005 A 
HETATM    2  C   UNL     1      -6.478   1.265 -31.911  1.00  0.00     0.069 A 
HETATM    3  N   UNL     1      -7.379   1.302 -30.870  1.00  0.00    -0.277 N 
HETATM    4  H   UNL     1      -7.969   0.550 -30.534  1.00  0.00     0.189 HD
HETATM    5  N   UNL     1      -7.450   2.476 -30.238  1.00  0.00    -0.179 NA
HETATM    6  C   UNL     1      -6.636   3.271 -30.931  1.00  0.00     0.059 A 
HETATM    7  C   UNL     1      -6.564   4.712 -30.575  1.00  0.00     0.073 C 
ENDROOT
BRANCH   1   8
HETATM    8  C   UNL     1      -4.865   3.115 -32.832  1.00  0.00     0.146 C 
BRANCH   8   9
HETATM    9  C   UNL     1      -3.529   3.186 -32.102  1.00  0.00     0.222 C 
HETATM   10  N   UNL     1      -2.967   4.435 -31.965  1.00  0.00    -0.359 N 
HETATM   11  H   UNL     1      -3.351   5.190 -32.523  1.00  0.00     0.162 HD
HETATM   12  O   UNL     1      -2.989   2.212 -31.573  1.00  0.00    -0.273 OA
BRANCH  10  13
HETATM   13  C   UNL     1      -1.670   4.651 -31.330  1.00  0.00     0.155 C 
BRANCH  13  14
HETATM   14  C   UNL     1      -1.358   6.104 -30.874  1.00  0.00     0.206 C 
HETATM   15  N   UNL     1      -1.061   6.183 -29.375  1.00  0.00    -0.066 N 
HETATM   16  H   UNL     1      -1.339   5.262 -28.972  1.00  0.00     0.280 HD
HETATM   17  C   UNL     1      -1.992   7.206 -28.773  1.00  0.00     0.235 C 
HETATM   18  C   UNL     1      -3.161   7.242 -29.731  1.00  0.00     0.030 C 
HETATM   19  C   UNL     1      -2.507   7.089 -31.089  1.00  0.00     0.036 C 
BRANCH  15  20
HETATM   20  C   UNL     1       0.390   6.349 -29.031  1.00  0.00     0.231 C 
HETATM   21  C   UNL     1       0.674   7.773 -28.591  1.00  0.00     0.034 C 
ENDBRANCH  15  20
ENDBRANCH  13  14
ENDBRANCH  10  13
ENDBRANCH   8   9
ENDBRANCH   1   8
BRANCH   2  22
HETATM   22  C   UNL     1      -6.295   0.043 -32.710  1.00  0.00    -0.007 A 
HETATM   23  C   UNL     1      -7.323  -0.492 -33.495  1.00  0.00     0.015 A 
HETATM   24  C   UNL     1      -7.126  -1.641 -34.270  1.00  0.00     0.024 A 
HETATM   25  C   UNL     1      -5.887  -2.271 -34.273  1.00  0.00     0.034 A 
HETATM   26 CL   UNL     1      -5.640  -3.672 -35.237  1.00  0.00    -0.084 Cl
HETATM   27  C   UNL     1      -4.850  -1.767 -33.497  1.00  0.00     0.024 A 
HETATM   28  C   UNL     1      -5.055  -0.622 -32.718  1.00  0.00     0.015 A 
ENDBRANCH   2  22
TORSDOF 6
ENDMDL
MODEL 10
REMARK VINA RESULT:      -7.3      2.523      3.628
REMARK  6 active torsions:
REMARK  status: ('A' for Active; 'I' for Inactive)
REMARK    1  A    between atoms: C_2  and  N_3 
REMARK    2  A    between atoms: C_5  and  C_6 
REMARK    3  A    between atoms: C_6  and  N_7 
REMARK       I    between atoms: N_7  and  C_8 
REMARK    4  A    between atoms: C_8  and  C_9 
REMARK    5  A    between atoms: C_9  and  C_10 
REMARK    6  A    between atoms: C_11  and  C_12 
ROOT
HETATM    1  C   UNL     1      -5.904   0.869 -31.511  1.00  0.00     0.005 A 
HETATM    2  C   UNL     1      -5.205   0.175 -32.501  1.00  0.00     0.069 A 
HETATM    3  N   UNL     1      -4.051   0.904 -32.682  1.00  0.00    -0.277 N 
HETATM    4  H   UNL     1      -3.295   0.717 -33.330  1.00  0.00     0.189 HD
HETATM    5  N   UNL     1      -3.951   1.988 -31.909  1.00  0.00    -0.179 NA
HETATM    6  C   UNL     1      -5.028   1.933 -31.128  1.00  0.00     0.059 A 
HETATM    7  C   UNL     1      -5.180   2.936 -30.041  1.00  0.00     0.073 C 
ENDROOT
BRANCH   1   8
HETATM    8  C   UNL     1      -7.244   0.587 -30.907  1.00  0.00     0.146 C 
BRANCH   8   9
HETATM    9  C   UNL     1      -8.322   1.444 -31.561  1.00  0.00     0.222 C 
HETATM   10  N   UNL     1      -8.877   2.435 -30.784  1.00  0.00    -0.359 N 
HETATM   11  H   UNL     1      -8.701   2.408 -29.786  1.00  0.00     0.162 HD
HETATM   12  O   UNL     1      -8.645   1.343 -32.746  1.00  0.00    -0.273 OA
BRANCH  10  13
HETATM   13  C   UNL     1      -9.950   3.302 -31.262  1.00  0.00     0.155 C 
BRANCH  13  14
HETATM   14  C   UNL     1      -9.514   4.586 -32.023  1.00  0.00     0.206 C 
HETATM   15  N   UNL     1      -9.223   4.307 -33.499  1.00  0.00    -0.066 N 
HETATM   16  H   UNL     1      -9.192   3.270 -33.601  1.00  0.00     0.280 HD
HETATM   17  C   UNL     1      -7.830   4.803 -33.797  1.00  0.00     0.235 C 
HETATM   18  C   UNL     1      -7.141   4.782 -32.451  1.00  0.00     0.030 C 
HETATM   19  C   UNL     1      -8.228   5.223 -31.493  1.00  0.00     0.036 C 
BRANCH  15  20
HETATM   20  C   UNL     1     -10.289   4.771 -34.446  1.00  0.00     0.231 C 
HETATM   21  C   UNL     1     -11.020   3.585 -35.050  1.00  0.00     0.034 C 
ENDBRANCH  15  20
ENDBRANCH  13  14
ENDBRANCH  10  13
ENDBRANCH   8   9
ENDBRANCH   1   8
BRANCH   2  22
HETATM   22  C   UNL     1      -5.454  -1.051 -33.274  1.00  0.00    -0.007 A 
HETATM   23  C   UNL     1      -6.724  -1.373 -33.767  1.00  0.00     0.015 A 
HETATM   24  C   UNL     1      -6.940  -2.531 -34.524  1.00  0.00     0.024 A 
HETATM   25  C   UNL     1      -5.880  -3.386 -34.803  1.00  0.00     0.034 A 
HETATM   26 CL   UNL     1      -6.142  -4.798 -35.745  1.00  0.00    -0.084 Cl
HETATM   27  C   UNL     1      -4.610  -3.096 -34.320  1.00  0.00     0.024 A 
HETATM   28  C   UNL     1      -4.401  -1.940 -33.557  1.00  0.00     0.015 A 
ENDBRANCH   2  22
TORSDOF 6
ENDMDL
