MODEL 1
REMARK VINA RESULT:      -8.5      0.000      0.000
REMARK  7 active torsions:
REMARK  status: ('A' for Active; 'I' for Inactive)
REMARK    1  A    between atoms: C_8  and  C_9 
REMARK    2  A    between atoms: C_9  and  C_10 
REMARK    3  A    between atoms: C_10  and  C_11 
REMARK       I    between atoms: C_11  and  N_12 
REMARK    4  A    between atoms: N_12  and  C_13 
REMARK    5  A    between atoms: C_13  and  C_14 
REMARK    6  A    between atoms: C_14  and  C_15 
REMARK    7  A    between atoms: C_16  and  O_17 
ROOT
HETATM    1  C   UNL     1      -5.613   1.887 -30.966  1.00  0.00     0.217 C 
HETATM    2  N   UNL     1      -5.261   0.691 -31.554  1.00  0.00    -0.360 N 
HETATM    3  O   UNL     1      -6.715   2.110 -30.476  1.00  0.00    -0.274 OA
HETATM    4  H   UNL     1      -4.392   0.652 -32.072  1.00  0.00     0.162 HD
ENDROOT
BRANCH   2   5
HETATM    5  C   UNL     1      -6.221  -0.372 -31.785  1.00  0.00     0.137 C 
BRANCH   5   6
HETATM    6  C   UNL     1      -6.620  -0.567 -33.273  1.00  0.00     0.005 C 
HETATM    7  C   UNL     1      -8.125  -0.271 -33.526  1.00  0.00     0.016 C 
HETATM    8  C   UNL     1      -8.219   0.062 -35.015  1.00  0.00     0.001 C 
HETATM    9  C   UNL     1      -6.869   0.671 -35.379  1.00  0.00     0.001 C 
HETATM   10  C   UNL     1      -6.058   0.643 -34.087  1.00  0.00     0.016 C 
BRANCH   6  11
HETATM   11  C   UNL     1      -6.136  -1.950 -33.786  1.00  0.00    -0.015 A 
HETATM   12  C   UNL     1      -4.783  -2.374 -33.735  1.00  0.00     0.075 A 
HETATM   13  C   UNL     1      -4.416  -3.641 -34.223  1.00  0.00     0.037 A 
HETATM   14  C   UNL     1      -5.362  -4.496 -34.782  1.00  0.00     0.003 A 
HETATM   15  C   UNL     1      -6.681  -4.087 -34.877  1.00  0.00     0.001 A 
HETATM   16  C   UNL     1      -7.057  -2.831 -34.398  1.00  0.00     0.011 A 
BRANCH  12  17
HETATM   17  O   UNL     1      -3.860  -1.483 -33.247  1.00  0.00    -0.355 OA
HETATM   18  C   UNL     1      -3.042  -1.898 -32.161  1.00  0.00     0.210 C 
ENDBRANCH  12  17
ENDBRANCH   6  11
ENDBRANCH   5   6
ENDBRANCH   2   5
BRANCH   1  19
HETATM   19  C   UNL     1      -4.468   2.875 -30.912  1.00  0.00     0.107 C 
BRANCH  19  20
HETATM   20  C   UNL     1      -3.584   2.778 -32.152  1.00  0.00     0.052 C 
BRANCH  20  21
HETATM   21  C   UNL     1      -3.457   4.093 -32.850  1.00  0.00    -0.008 A 
HETATM   22  C   UNL     1      -2.418   5.004 -32.793  1.00  0.00     0.032 A 
HETATM   23  C   UNL     1      -1.131   5.001 -32.061  1.00  0.00     0.070 C 
HETATM   24  N   UNL     1      -2.787   6.042 -33.603  1.00  0.00    -0.282 N 
HETATM   25  H   UNL     1      -2.270   6.891 -33.808  1.00  0.00     0.189 HD
HETATM   26  N   UNL     1      -3.986   5.882 -34.175  1.00  0.00    -0.179 NA
HETATM   27  C   UNL     1      -4.403   4.692 -33.731  1.00  0.00     0.059 A 
HETATM   28  C   UNL     1      -5.718   4.152 -34.161  1.00  0.00     0.073 C 
ENDBRANCH  20  21
ENDBRANCH  19  20
ENDBRANCH   1  19
TORSDOF 7
ENDMDL
MODEL 2
REMARK VINA RESULT:      -8.2      1.689      2.757
REMARK  7 active torsions:
REMARK  status: ('A' for Active; 'I' for Inactive)
REMARK    1  A    between atoms: C_8  and  C_9 
REMARK    2  A    between atoms: C_9  and  C_10 
REMARK    3  A    between atoms: C_10  and  C_11 
REMARK       I    between atoms: C_11  and  N_12 
REMARK    4  A    between atoms: N_12  and  C_13 
REMARK    5  A    between atoms: C_13  and  C_14 
REMARK    6  A    between atoms: C_14  and  C_15 
REMARK    7  A    between atoms: C_16  and  O_17 
ROOT
HETATM    1  C   UNL     1      -5.177   3.823 -32.202  1.00  0.00     0.217 C 
HETATM    2  N   UNL     1      -5.216   2.715 -33.021  1.00  0.00    -0.360 N 
HETATM    3  O   UNL     1      -6.148   4.535 -31.968  1.00  0.00    -0.274 OA
HETATM    4  H   UNL     1      -4.337   2.285 -33.283  1.00  0.00     0.162 HD
ENDROOT
BRANCH   2   5
HETATM    5  C   UNL     1      -6.384   2.376 -33.811  1.00  0.00     0.137 C 
BRANCH   5   6
HETATM    6  C   UNL     1      -7.168   1.136 -33.302  1.00  0.00     0.005 C 
HETATM    7  C   UNL     1      -7.679   1.317 -31.844  1.00  0.00     0.016 C 
HETATM    8  C   UNL     1      -8.855   0.351 -31.713  1.00  0.00     0.001 C 
HETATM    9  C   UNL     1      -9.447   0.242 -33.114  1.00  0.00     0.001 C 
HETATM   10  C   UNL     1      -8.572   1.138 -33.987  1.00  0.00     0.016 C 
BRANCH   6  11
HETATM   11  C   UNL     1      -6.349  -0.161 -33.546  1.00  0.00    -0.015 A 
HETATM   12  C   UNL     1      -5.264  -0.567 -32.727  1.00  0.00     0.075 A 
HETATM   13  C   UNL     1      -4.565  -1.753 -33.011  1.00  0.00     0.037 A 
HETATM   14  C   UNL     1      -4.907  -2.543 -34.106  1.00  0.00     0.003 A 
HETATM   15  C   UNL     1      -5.937  -2.146 -34.940  1.00  0.00     0.001 A 
HETATM   16  C   UNL     1      -6.638  -0.969 -34.669  1.00  0.00     0.011 A 
BRANCH  12  17
HETATM   17  O   UNL     1      -4.903   0.267 -31.699  1.00  0.00    -0.355 OA
HETATM   18  C   UNL     1      -3.659   0.031 -31.053  1.00  0.00     0.210 C 
ENDBRANCH  12  17
ENDBRANCH   6  11
ENDBRANCH   5   6
ENDBRANCH   2   5
BRANCH   1  19
HETATM   19  C   UNL     1      -3.826   4.024 -31.549  1.00  0.00     0.107 C 
BRANCH  19  20
HETATM   20  C   UNL     1      -2.686   3.790 -32.535  1.00  0.00     0.052 C 
BRANCH  20  21
HETATM   21  C   UNL     1      -2.269   5.054 -33.215  1.00  0.00    -0.008 A 
HETATM   22  C   UNL     1      -2.780   5.624 -34.366  1.00  0.00     0.032 A 
HETATM   23  C   UNL     1      -3.865   5.210 -35.284  1.00  0.00     0.070 C 
HETATM   24  N   UNL     1      -2.055   6.765 -34.572  1.00  0.00    -0.282 N 
HETATM   25  H   UNL     1      -2.152   7.443 -35.320  1.00  0.00     0.189 HD
HETATM   26  N   UNL     1      -1.108   6.977 -33.651  1.00  0.00    -0.179 NA
HETATM   27  C   UNL     1      -1.233   5.944 -32.811  1.00  0.00     0.059 A 
HETATM   28  C   UNL     1      -0.340   5.829 -31.630  1.00  0.00     0.073 C 
ENDBRANCH  20  21
ENDBRANCH  19  20
ENDBRANCH   1  19
TORSDOF 7
ENDMDL
MODEL 3
REMARK VINA RESULT:      -8.1      1.709      2.342
REMARK  7 active torsions:
REMARK  status: ('A' for Active; 'I' for Inactive)
REMARK    1  A    between atoms: C_8  and  C_9 
REMARK    2  A    between atoms: C_9  and  C_10 
REMARK    3  A    between atoms: C_10  and  C_11 
REMARK       I    between atoms: C_11  and  N_12 
REMARK    4  A    between atoms: N_12  and  C_13 
REMARK    5  A    between atoms: C_13  and  C_14 
REMARK    6  A    between atoms: C_14  and  C_15 
REMARK    7  A    between atoms: C_16  and  O_17 
ROOT
HETATM    1  C   UNL     1      -5.129   3.859 -32.233  1.00  0.00     0.217 C 
HETATM    2  N   UNL     1      -5.176   2.708 -32.990  1.00  0.00    -0.360 N 
HETATM    3  O   UNL     1      -6.080   4.618 -32.082  1.00  0.00    -0.274 OA
HETATM    4  H   UNL     1      -4.305   2.232 -33.189  1.00  0.00     0.162 HD
ENDROOT
BRANCH   2   5
HETATM    5  C   UNL     1      -6.322   2.365 -33.809  1.00  0.00     0.137 C 
BRANCH   5   6
HETATM    6  C   UNL     1      -7.118   1.126 -33.319  1.00  0.00     0.005 C 
HETATM    7  C   UNL     1      -7.649   1.299 -31.867  1.00  0.00     0.016 C 
HETATM    8  C   UNL     1      -8.830   0.336 -31.759  1.00  0.00     0.001 C 
HETATM    9  C   UNL     1      -9.402   0.237 -33.169  1.00  0.00     0.001 C 
HETATM   10  C   UNL     1      -8.512   1.136 -34.024  1.00  0.00     0.016 C 
BRANCH   6  11
HETATM   11  C   UNL     1      -6.300  -0.173 -33.559  1.00  0.00    -0.015 A 
HETATM   12  C   UNL     1      -5.244  -0.599 -32.713  1.00  0.00     0.075 A 
HETATM   13  C   UNL     1      -4.543  -1.785 -32.995  1.00  0.00     0.037 A 
HETATM   14  C   UNL     1      -4.854  -2.555 -34.114  1.00  0.00     0.003 A 
HETATM   15  C   UNL     1      -5.855  -2.137 -34.973  1.00  0.00     0.001 A 
HETATM   16  C   UNL     1      -6.557  -0.960 -34.705  1.00  0.00     0.011 A 
BRANCH  12  17
HETATM   17  O   UNL     1      -4.910   0.214 -31.660  1.00  0.00    -0.355 OA
HETATM   18  C   UNL     1      -3.590   0.128 -31.142  1.00  0.00     0.210 C 
ENDBRANCH  12  17
ENDBRANCH   6  11
ENDBRANCH   5   6
ENDBRANCH   2   5
BRANCH   1  19
HETATM   19  C   UNL     1      -3.799   4.049 -31.534  1.00  0.00     0.107 C 
BRANCH  19  20
HETATM   20  C   UNL     1      -2.628   3.782 -32.475  1.00  0.00     0.052 C 
BRANCH  20  21
HETATM   21  C   UNL     1      -2.040   5.049 -33.007  1.00  0.00    -0.008 A 
HETATM   22  C   UNL     1      -1.011   5.810 -32.483  1.00  0.00     0.032 A 
HETATM   23  C   UNL     1      -0.170   5.648 -31.276  1.00  0.00     0.070 C 
HETATM   24  N   UNL     1      -0.857   6.867 -33.335  1.00  0.00    -0.282 N 
HETATM   25  H   UNL     1      -0.193   7.632 -33.273  1.00  0.00     0.189 HD
HETATM   26  N   UNL     1      -1.710   6.859 -34.366  1.00  0.00    -0.179 NA
HETATM   27  C   UNL     1      -2.432   5.749 -34.184  1.00  0.00     0.059 A 
HETATM   28  C   UNL     1      -3.500   5.385 -35.149  1.00  0.00     0.073 C 
ENDBRANCH  20  21
ENDBRANCH  19  20
ENDBRANCH   1  19
TORSDOF 7
ENDMDL
MODEL 4
REMARK VINA RESULT:      -8.0      1.825      2.845
REMARK  7 active torsions:
REMARK  status: ('A' for Active; 'I' for Inactive)
REMARK    1  A    between atoms: C_8  and  C_9 
REMARK    2  A    between atoms: C_9  and  C_10 
REMARK    3  A    between atoms: C_10  and  C_11 
REMARK       I    between atoms: C_11  and  N_12 
REMARK    4  A    between atoms: N_12  and  C_13 
REMARK    5  A    between atoms: C_13  and  C_14 
REMARK    6  A    between atoms: C_14  and  C_15 
REMARK    7  A    between atoms: C_16  and  O_17 
ROOT
HETATM    1  C   UNL     1      -6.046   4.376 -33.955  1.00  0.00     0.217 C 
HETATM    2  N   UNL     1      -5.645   3.057 -33.941  1.00  0.00    -0.360 N 
HETATM    3  O   UNL     1      -7.188   4.740 -34.212  1.00  0.00    -0.274 OA
HETATM    4  H   UNL     1      -4.653   2.862 -33.878  1.00  0.00     0.162 HD
ENDROOT
BRANCH   2   5
HETATM    5  C   UNL     1      -6.508   1.979 -34.383  1.00  0.00     0.137 C 
BRANCH   5   6
HETATM    6  C   UNL     1      -6.814   0.913 -33.297  1.00  0.00     0.005 C 
HETATM    7  C   UNL     1      -6.330   1.349 -31.885  1.00  0.00     0.016 C 
HETATM    8  C   UNL     1      -7.179   0.539 -30.906  1.00  0.00     0.001 C 
HETATM    9  C   UNL     1      -8.502   0.296 -31.623  1.00  0.00     0.001 C 
HETATM   10  C   UNL     1      -8.345   0.964 -32.987  1.00  0.00     0.016 C 
BRANCH   6  11
HETATM   11  C   UNL     1      -6.311  -0.484 -33.752  1.00  0.00    -0.015 A 
HETATM   12  C   UNL     1      -4.972  -0.924 -33.590  1.00  0.00     0.075 A 
HETATM   13  C   UNL     1      -4.586  -2.202 -34.030  1.00  0.00     0.037 A 
HETATM   14  C   UNL     1      -5.497  -3.054 -34.650  1.00  0.00     0.003 A 
HETATM   15  C   UNL     1      -6.798  -2.630 -34.853  1.00  0.00     0.001 A 
HETATM   16  C   UNL     1      -7.194  -1.363 -34.422  1.00  0.00     0.011 A 
BRANCH  12  17
HETATM   17  O   UNL     1      -4.078  -0.038 -33.043  1.00  0.00    -0.355 OA
HETATM   18  C   UNL     1      -3.050  -0.556 -32.209  1.00  0.00     0.210 C 
ENDBRANCH  12  17
ENDBRANCH   6  11
ENDBRANCH   5   6
ENDBRANCH   2   5
BRANCH   1  19
HETATM   19  C   UNL     1      -4.947   5.330 -33.536  1.00  0.00     0.107 C 
BRANCH  19  20
HETATM   20  C   UNL     1      -3.584   4.874 -34.047  1.00  0.00     0.052 C 
BRANCH  20  21
HETATM   21  C   UNL     1      -2.525   5.003 -33.000  1.00  0.00    -0.008 A 
HETATM   22  C   UNL     1      -1.515   5.942 -32.906  1.00  0.00     0.032 A 
HETATM   23  C   UNL     1      -1.143   7.093 -33.760  1.00  0.00     0.070 C 
HETATM   24  N   UNL     1      -0.813   5.624 -31.777  1.00  0.00    -0.282 N 
HETATM   25  H   UNL     1      -0.004   6.095 -31.387  1.00  0.00     0.189 HD
HETATM   26  N   UNL     1      -1.281   4.547 -31.135  1.00  0.00    -0.179 NA
HETATM   27  C   UNL     1      -2.333   4.163 -31.866  1.00  0.00     0.059 A 
HETATM   28  C   UNL     1      -3.134   2.980 -31.460  1.00  0.00     0.073 C 
ENDBRANCH  20  21
ENDBRANCH  19  20
ENDBRANCH   1  19
TORSDOF 7
ENDMDL
MODEL 5
REMARK VINA RESULT:      -7.8      2.479      7.437
REMARK  7 active torsions:
REMARK  status: ('A' for Active; 'I' for Inactive)
REMARK    1  A    between atoms: C_8  and  C_9 
REMARK    2  A    between atoms: C_9  and  C_10 
REMARK    3  A    between atoms: C_10  and  C_11 
REMARK       I    between atoms: C_11  and  N_12 
REMARK    4  A    between atoms: N_12  and  C_13 
REMARK    5  A    between atoms: C_13  and  C_14 
REMARK    6  A    between atoms: C_14  and  C_15 
REMARK    7  A    between atoms: C_16  and  O_17 
ROOT
HETATM    1  C   UNL     1      -3.249  -0.399 -31.702  1.00  0.00     0.217 C 
HETATM    2  N   UNL     1      -3.943   0.792 -31.736  1.00  0.00    -0.360 N 
HETATM    3  O   UNL     1      -2.108  -0.514 -31.267  1.00  0.00    -0.274 OA
HETATM    4  H   UNL     1      -4.810   0.823 -32.257  1.00  0.00     0.162 HD
ENDROOT
BRANCH   2   5
HETATM    5  C   UNL     1      -3.324   2.059 -31.399  1.00  0.00     0.137 C 
BRANCH   5   6
HETATM    6  C   UNL     1      -4.094   3.308 -31.909  1.00  0.00     0.005 C 
HETATM    7  C   UNL     1      -5.473   2.941 -32.526  1.00  0.00     0.016 C 
HETATM    8  C   UNL     1      -6.305   4.219 -32.430  1.00  0.00     0.001 C 
HETATM    9  C   UNL     1      -5.773   4.956 -31.205  1.00  0.00     0.001 C 
HETATM   10  C   UNL     1      -4.651   4.073 -30.665  1.00  0.00     0.016 C 
BRANCH   6  11
HETATM   11  C   UNL     1      -3.183   4.171 -32.823  1.00  0.00    -0.015 A 
HETATM   12  C   UNL     1      -1.899   4.634 -32.436  1.00  0.00     0.075 A 
HETATM   13  C   UNL     1      -1.131   5.415 -33.316  1.00  0.00     0.037 A 
HETATM   14  C   UNL     1      -1.615   5.768 -34.573  1.00  0.00     0.003 A 
HETATM   15  C   UNL     1      -2.880   5.359 -34.957  1.00  0.00     0.001 A 
HETATM   16  C   UNL     1      -3.654   4.584 -34.091  1.00  0.00     0.011 A 
BRANCH  12  17
HETATM   17  O   UNL     1      -1.477   4.333 -31.165  1.00  0.00    -0.355 OA
HETATM   18  C   UNL     1      -0.567   5.225 -30.536  1.00  0.00     0.210 C 
ENDBRANCH  12  17
ENDBRANCH   6  11
ENDBRANCH   5   6
ENDBRANCH   2   5
BRANCH   1  19
HETATM   19  C   UNL     1      -4.074  -1.574 -32.181  1.00  0.00     0.107 C 
BRANCH  19  20
HETATM   20  C   UNL     1      -4.052  -1.693 -33.702  1.00  0.00     0.052 C 
BRANCH  20  21
HETATM   21  C   UNL     1      -4.976  -2.760 -34.192  1.00  0.00    -0.008 A 
HETATM   22  C   UNL     1      -6.275  -2.633 -34.649  1.00  0.00     0.032 A 
HETATM   23  C   UNL     1      -7.163  -1.460 -34.810  1.00  0.00     0.070 C 
HETATM   24  N   UNL     1      -6.682  -3.898 -34.971  1.00  0.00    -0.282 N 
HETATM   25  H   UNL     1      -7.579  -4.192 -35.343  1.00  0.00     0.189 HD
HETATM   26  N   UNL     1      -5.755  -4.837 -34.751  1.00  0.00    -0.179 NA
HETATM   27  C   UNL     1      -4.704  -4.155 -34.284  1.00  0.00     0.059 A 
HETATM   28  C   UNL     1      -3.451  -4.866 -33.924  1.00  0.00     0.073 C 
ENDBRANCH  20  21
ENDBRANCH  19  20
ENDBRANCH   1  19
TORSDOF 7
ENDMDL
MODEL 6
REMARK VINA RESULT:      -7.6      3.370      6.069
REMARK  7 active torsions:
REMARK  status: ('A' for Active; 'I' for Inactive)
REMARK    1  A    between atoms: C_8  and  C_9 
REMARK    2  A    between atoms: C_9  and  C_10 
REMARK    3  A    between atoms: C_10  and  C_11 
REMARK       I    between atoms: C_11  and  N_12 
REMARK    4  A    between atoms: N_12  and  C_13 
REMARK    5  A    between atoms: C_13  and  C_14 
REMARK    6  A    between atoms: C_14  and  C_15 
REMARK    7  A    between atoms: C_16  and  O_17 
ROOT
HETATM    1  C   UNL     1      -8.408   3.055 -30.415  1.00  0.00     0.217 C 
HETATM    2  N   UNL     1      -7.947   1.812 -30.792  1.00  0.00    -0.360 N 
HETATM    3  O   UNL     1      -7.785   3.825 -29.691  1.00  0.00    -0.274 OA
HETATM    4  H   UNL     1      -8.593   1.185 -31.255  1.00  0.00     0.162 HD
ENDROOT
BRANCH   2   5
HETATM    5  C   UNL     1      -6.739   1.232 -30.237  1.00  0.00     0.137 C 
BRANCH   5   6
HETATM    6  C   UNL     1      -5.555   1.131 -31.236  1.00  0.00     0.005 C 
HETATM    7  C   UNL     1      -4.671   2.410 -31.237  1.00  0.00     0.016 C 
HETATM    8  C   UNL     1      -3.313   1.955 -31.771  1.00  0.00     0.001 C 
HETATM    9  C   UNL     1      -3.187   0.492 -31.359  1.00  0.00     0.001 C 
HETATM   10  C   UNL     1      -4.485   0.172 -30.622  1.00  0.00     0.016 C 
BRANCH   6  11
HETATM   11  C   UNL     1      -6.063   0.693 -32.637  1.00  0.00    -0.015 A 
HETATM   12  C   UNL     1      -6.484   1.607 -33.637  1.00  0.00     0.075 A 
HETATM   13  C   UNL     1      -6.937   1.138 -34.882  1.00  0.00     0.037 A 
HETATM   14  C   UNL     1      -7.001  -0.226 -35.156  1.00  0.00     0.003 A 
HETATM   15  C   UNL     1      -6.631  -1.136 -34.181  1.00  0.00     0.001 A 
HETATM   16  C   UNL     1      -6.182  -0.683 -32.940  1.00  0.00     0.011 A 
BRANCH  12  17
HETATM   17  O   UNL     1      -6.480   2.941 -33.315  1.00  0.00    -0.355 OA
HETATM   18  C   UNL     1      -5.897   3.849 -34.240  1.00  0.00     0.210 C 
ENDBRANCH  12  17
ENDBRANCH   6  11
ENDBRANCH   5   6
ENDBRANCH   2   5
BRANCH   1  19
HETATM   19  C   UNL     1      -9.732   3.411 -31.057  1.00  0.00     0.107 C 
BRANCH  19  20
HETATM   20  C   UNL     1      -9.719   3.135 -32.558  1.00  0.00     0.052 C 
BRANCH  20  21
HETATM   21  C   UNL     1     -10.870   2.279 -32.976  1.00  0.00    -0.008 A 
HETATM   22  C   UNL     1     -10.928   0.901 -33.079  1.00  0.00     0.032 A 
HETATM   23  C   UNL     1      -9.927  -0.159 -32.824  1.00  0.00     0.070 C 
HETATM   24  N   UNL     1     -12.194   0.612 -33.506  1.00  0.00    -0.282 N 
HETATM   25  H   UNL     1     -12.601  -0.299 -33.690  1.00  0.00     0.189 HD
HETATM   26  N   UNL     1     -12.960   1.692 -33.698  1.00  0.00    -0.179 NA
HETATM   27  C   UNL     1     -12.167   2.717 -33.369  1.00  0.00     0.059 A 
HETATM   28  C   UNL     1     -12.676   4.110 -33.447  1.00  0.00     0.073 C 
ENDBRANCH  20  21
ENDBRANCH  19  20
ENDBRANCH   1  19
TORSDOF 7
ENDMDL
MODEL 7
REMARK VINA RESULT:      -7.6      3.608      5.993
REMARK  7 active torsions:
REMARK  status: ('A' for Active; 'I' for Inactive)
REMARK    1  A    between atoms: C_8  and  C_9 
REMARK    2  A    between atoms: C_9  and  C_10 
REMARK    3  A    between atoms: C_10  and  C_11 
REMARK       I    between atoms: C_11  and  N_12 
REMARK    4  A    between atoms: N_12  and  C_13 
REMARK    5  A    between atoms: C_13  and  C_14 
REMARK    6  A    between atoms: C_14  and  C_15 
REMARK    7  A    between atoms: C_16  and  O_17 
ROOT
HETATM    1  C   UNL     1      -8.968   2.330 -31.217  1.00  0.00     0.217 C 
HETATM    2  N   UNL     1      -8.217   1.270 -31.678  1.00  0.00    -0.360 N 
HETATM    3  O   UNL     1      -8.656   3.022 -30.254  1.00  0.00    -0.274 OA
HETATM    4  H   UNL     1      -8.629   0.660 -32.373  1.00  0.00     0.162 HD
ENDROOT
BRANCH   2   5
HETATM    5  C   UNL     1      -7.054   0.776 -30.966  1.00  0.00     0.137 C 
BRANCH   5   6
HETATM    6  C   UNL     1      -5.702   1.022 -31.689  1.00  0.00     0.005 C 
HETATM    7  C   UNL     1      -5.702   2.343 -32.509  1.00  0.00     0.016 C 
HETATM    8  C   UNL     1      -4.228   2.722 -32.651  1.00  0.00     0.001 C 
HETATM    9  C   UNL     1      -3.545   2.161 -31.408  1.00  0.00     0.001 C 
HETATM   10  C   UNL     1      -4.656   1.472 -30.620  1.00  0.00     0.016 C 
BRANCH   6  11
HETATM   11  C   UNL     1      -5.280  -0.239 -32.492  1.00  0.00    -0.015 A 
HETATM   12  C   UNL     1      -5.955  -0.688 -33.656  1.00  0.00     0.075 A 
HETATM   13  C   UNL     1      -5.519  -1.842 -34.330  1.00  0.00     0.037 A 
HETATM   14  C   UNL     1      -4.433  -2.579 -33.863  1.00  0.00     0.003 A 
HETATM   15  C   UNL     1      -3.784  -2.181 -32.707  1.00  0.00     0.001 A 
HETATM   16  C   UNL     1      -4.209  -1.037 -32.028  1.00  0.00     0.011 A 
BRANCH  12  17
HETATM   17  O   UNL     1      -7.065   0.015 -34.052  1.00  0.00    -0.355 OA
HETATM   18  C   UNL     1      -7.190   0.345 -35.429  1.00  0.00     0.210 C 
ENDBRANCH  12  17
ENDBRANCH   6  11
ENDBRANCH   5   6
ENDBRANCH   2   5
BRANCH   1  19
HETATM   19  C   UNL     1     -10.183   2.607 -32.077  1.00  0.00     0.107 C 
BRANCH  19  20
HETATM   20  C   UNL     1     -10.289   1.619 -33.234  1.00  0.00     0.052 C 
BRANCH  20  21
HETATM   21  C   UNL     1     -11.411   1.962 -34.159  1.00  0.00    -0.008 A 
HETATM   22  C   UNL     1     -11.524   3.041 -35.016  1.00  0.00     0.032 A 
HETATM   23  C   UNL     1     -10.623   4.178 -35.308  1.00  0.00     0.070 C 
HETATM   24  N   UNL     1     -12.736   2.902 -35.634  1.00  0.00    -0.282 N 
HETATM   25  H   UNL     1     -13.158   3.507 -36.331  1.00  0.00     0.189 HD
HETATM   26  N   UNL     1     -13.423   1.824 -35.240  1.00  0.00    -0.179 NA
HETATM   27  C   UNL     1     -12.622   1.235 -34.346  1.00  0.00     0.059 A 
HETATM   28  C   UNL     1     -13.044  -0.023 -33.678  1.00  0.00     0.073 C 
ENDBRANCH  20  21
ENDBRANCH  19  20
ENDBRANCH   1  19
TORSDOF 7
ENDMDL
MODEL 8
REMARK VINA RESULT:      -7.5      2.609      6.795
REMARK  7 active torsions:
REMARK  status: ('A' for Active; 'I' for Inactive)
REMARK    1  A    between atoms: C_8  and  C_9 
REMARK    2  A    between atoms: C_9  and  C_10 
REMARK    3  A    between atoms: C_10  and  C_11 
REMARK       I    between atoms: C_11  and  N_12 
REMARK    4  A    between atoms: N_12  and  C_13 
REMARK    5  A    between atoms: C_13  and  C_14 
REMARK    6  A    between atoms: C_14  and  C_15 
REMARK    7  A    between atoms: C_16  and  O_17 
ROOT
HETATM    1  C   UNL     1      -4.198  -0.694 -31.421  1.00  0.00     0.217 C 
HETATM    2  N   UNL     1      -5.567  -0.600 -31.550  1.00  0.00    -0.360 N 
HETATM    3  O   UNL     1      -3.539  -0.032 -30.626  1.00  0.00    -0.274 OA
HETATM    4  H   UNL     1      -6.003  -1.064 -32.338  1.00  0.00     0.162 HD
ENDROOT
BRANCH   2   5
HETATM    5  C   UNL     1      -6.343   0.411 -30.860  1.00  0.00     0.137 C 
BRANCH   5   6
HETATM    6  C   UNL     1      -6.698   1.652 -31.724  1.00  0.00     0.005 C 
HETATM    7  C   UNL     1      -5.874   1.711 -33.041  1.00  0.00     0.016 C 
HETATM    8  C   UNL     1      -6.703   2.577 -33.989  1.00  0.00     0.001 C 
HETATM    9  C   UNL     1      -8.153   2.363 -33.569  1.00  0.00     0.001 C 
HETATM   10  C   UNL     1      -8.088   1.396 -32.390  1.00  0.00     0.016 C 
BRANCH   6  11
HETATM   11  C   UNL     1      -6.640   2.944 -30.864  1.00  0.00    -0.015 A 
HETATM   12  C   UNL     1      -5.431   3.607 -30.530  1.00  0.00     0.075 A 
HETATM   13  C   UNL     1      -5.454   4.772 -29.743  1.00  0.00     0.037 A 
HETATM   14  C   UNL     1      -6.654   5.289 -29.261  1.00  0.00     0.003 A 
HETATM   15  C   UNL     1      -7.841   4.637 -29.543  1.00  0.00     0.001 A 
HETATM   16  C   UNL     1      -7.831   3.478 -30.322  1.00  0.00     0.011 A 
BRANCH  12  17
HETATM   17  O   UNL     1      -4.259   3.036 -30.956  1.00  0.00    -0.355 OA
HETATM   18  C   UNL     1      -3.295   3.875 -31.580  1.00  0.00     0.210 C 
ENDBRANCH  12  17
ENDBRANCH   6  11
ENDBRANCH   5   6
ENDBRANCH   2   5
BRANCH   1  19
HETATM   19  C   UNL     1      -3.595  -1.766 -32.305  1.00  0.00     0.107 C 
BRANCH  19  20
HETATM   20  C   UNL     1      -4.031  -1.604 -33.758  1.00  0.00     0.052 C 
BRANCH  20  21
HETATM   21  C   UNL     1      -4.916  -2.724 -34.201  1.00  0.00    -0.008 A 
HETATM   22  C   UNL     1      -4.625  -4.073 -34.286  1.00  0.00     0.032 A 
HETATM   23  C   UNL     1      -3.400  -4.847 -33.984  1.00  0.00     0.070 C 
HETATM   24  N   UNL     1      -5.763  -4.672 -34.750  1.00  0.00    -0.282 N 
HETATM   25  H   UNL     1      -5.923  -5.657 -34.934  1.00  0.00     0.189 HD
HETATM   26  N   UNL     1      -6.768  -3.819 -34.981  1.00  0.00    -0.179 NA
HETATM   27  C   UNL     1      -6.268  -2.626 -34.641  1.00  0.00     0.059 A 
HETATM   28  C   UNL     1      -7.105  -1.405 -34.755  1.00  0.00     0.073 C 
ENDBRANCH  20  21
ENDBRANCH  19  20
ENDBRANCH   1  19
TORSDOF 7
ENDMDL
MODEL 9
REMARK VINA RESULT:      -7.5      2.998      7.156
REMARK  7 active torsions:
REMARK  status: ('A' for Active; 'I' for Inactive)
REMARK    1  A    between atoms: C_8  and  C_9 
REMARK    2  A    between atoms: C_9  and  C_10 
REMARK    3  A    between atoms: C_10  and  C_11 
REMARK       I    between atoms: C_11  and  N_12 
REMARK    4  A    between atoms: N_12  and  C_13 
REMARK    5  A    between atoms: C_13  and  C_14 
REMARK    6  A    between atoms: C_14  and  C_15 
REMARK    7  A    between atoms: C_16  and  O_17 
ROOT
HETATM    1  C   UNL     1      -4.515  -0.101 -31.932  1.00  0.00     0.217 C 
HETATM    2  N   UNL     1      -5.786   0.246 -32.338  1.00  0.00    -0.360 N 
HETATM    3  O   UNL     1      -3.774   0.640 -31.296  1.00  0.00    -0.274 OA
HETATM    4  H   UNL     1      -6.260  -0.364 -32.993  1.00  0.00     0.162 HD
ENDROOT
BRANCH   2   5
HETATM    5  C   UNL     1      -6.310   1.589 -32.181  1.00  0.00     0.137 C 
BRANCH   5   6
HETATM    6  C   UNL     1      -7.803   1.748 -32.578  1.00  0.00     0.005 C 
HETATM    7  C   UNL     1      -8.038   1.528 -34.099  1.00  0.00     0.016 C 
HETATM    8  C   UNL     1      -9.511   1.142 -34.222  1.00  0.00     0.001 C 
HETATM    9  C   UNL     1      -9.858   0.445 -32.910  1.00  0.00     0.001 C 
HETATM   10  C   UNL     1      -8.571   0.477 -32.090  1.00  0.00     0.016 C 
BRANCH   6  11
HETATM   11  C   UNL     1      -8.373   3.080 -32.020  1.00  0.00    -0.015 A 
HETATM   12  C   UNL     1      -8.179   4.338 -32.647  1.00  0.00     0.075 A 
HETATM   13  C   UNL     1      -8.721   5.505 -32.082  1.00  0.00     0.037 A 
HETATM   14  C   UNL     1      -9.441   5.458 -30.891  1.00  0.00     0.003 A 
HETATM   15  C   UNL     1      -9.609   4.248 -30.241  1.00  0.00     0.001 A 
HETATM   16  C   UNL     1      -9.073   3.082 -30.792  1.00  0.00     0.011 A 
BRANCH  12  17
HETATM   17  O   UNL     1      -7.405   4.365 -33.780  1.00  0.00    -0.355 OA
HETATM   18  C   UNL     1      -6.174   5.074 -33.732  1.00  0.00     0.210 C 
ENDBRANCH  12  17
ENDBRANCH   6  11
ENDBRANCH   5   6
ENDBRANCH   2   5
BRANCH   1  19
HETATM   19  C   UNL     1      -4.156  -1.530 -32.281  1.00  0.00     0.107 C 
BRANCH  19  20
HETATM   20  C   UNL     1      -4.108  -1.744 -33.791  1.00  0.00     0.052 C 
BRANCH  20  21
HETATM   21  C   UNL     1      -4.958  -2.896 -34.218  1.00  0.00    -0.008 A 
HETATM   22  C   UNL     1      -6.266  -2.884 -34.668  1.00  0.00     0.032 A 
HETATM   23  C   UNL     1      -7.235  -1.785 -34.878  1.00  0.00     0.070 C 
HETATM   24  N   UNL     1      -6.585  -4.188 -34.923  1.00  0.00    -0.282 N 
HETATM   25  H   UNL     1      -7.462  -4.563 -35.270  1.00  0.00     0.189 HD
HETATM   26  N   UNL     1      -5.593  -5.048 -34.665  1.00  0.00    -0.179 NA
HETATM   27  C   UNL     1      -4.590  -4.272 -34.243  1.00  0.00     0.059 A 
HETATM   28  C   UNL     1      -3.287  -4.875 -33.861  1.00  0.00     0.073 C 
ENDBRANCH  20  21
ENDBRANCH  19  20
ENDBRANCH   1  19
TORSDOF 7
ENDMDL
MODEL 10
REMARK VINA RESULT:      -7.4      2.774      6.481
REMARK  7 active torsions:
REMARK  status: ('A' for Active; 'I' for Inactive)
REMARK    1  A    between atoms: C_8  and  C_9 
REMARK    2  A    between atoms: C_9  and  C_10 
REMARK    3  A    between atoms: C_10  and  C_11 
REMARK       I    between atoms: C_11  and  N_12 
REMARK    4  A    between atoms: N_12  and  C_13 
REMARK    5  A    between atoms: C_13  and  C_14 
REMARK    6  A    between atoms: C_14  and  C_15 
REMARK    7  A    between atoms: C_16  and  O_17 
ROOT
HETATM    1  C   UNL     1      -7.964   0.884 -34.695  1.00  0.00     0.217 C 
HETATM    2  N   UNL     1      -7.237   1.972 -34.260  1.00  0.00    -0.360 N 
HETATM    3  O   UNL     1      -9.187   0.874 -34.793  1.00  0.00    -0.274 OA
HETATM    4  H   UNL     1      -6.254   1.837 -34.058  1.00  0.00     0.162 HD
ENDROOT
BRANCH   2   5
HETATM    5  C   UNL     1      -7.868   3.164 -33.728  1.00  0.00     0.137 C 
BRANCH   5   6
HETATM    6  C   UNL     1      -8.057   3.159 -32.186  1.00  0.00     0.005 C 
HETATM    7  C   UNL     1      -8.137   4.595 -31.595  1.00  0.00     0.016 C 
HETATM    8  C   UNL     1      -8.876   4.437 -30.267  1.00  0.00     0.001 C 
HETATM    9  C   UNL     1      -9.800   3.238 -30.458  1.00  0.00     0.001 C 
HETATM   10  C   UNL     1      -9.535   2.755 -31.882  1.00  0.00     0.016 C 
BRANCH   6  11
HETATM   11  C   UNL     1      -7.001   2.239 -31.514  1.00  0.00    -0.015 A 
HETATM   12  C   UNL     1      -5.654   2.627 -31.292  1.00  0.00     0.075 A 
HETATM   13  C   UNL     1      -4.752   1.739 -30.681  1.00  0.00     0.037 A 
HETATM   14  C   UNL     1      -5.150   0.461 -30.298  1.00  0.00     0.003 A 
HETATM   15  C   UNL     1      -6.448   0.048 -30.540  1.00  0.00     0.001 A 
HETATM   16  C   UNL     1      -7.354   0.920 -31.148  1.00  0.00     0.011 A 
BRANCH  12  17
HETATM   17  O   UNL     1      -5.271   3.864 -31.745  1.00  0.00    -0.355 OA
HETATM   18  C   UNL     1      -4.326   3.924 -32.805  1.00  0.00     0.210 C 
ENDBRANCH  12  17
ENDBRANCH   6  11
ENDBRANCH   5   6
ENDBRANCH   2   5
BRANCH   1  19
HETATM   19  C   UNL     1      -7.090  -0.276 -35.122  1.00  0.00     0.107 C 
BRANCH  19  20
HETATM   20  C   UNL     1      -7.082  -1.387 -34.076  1.00  0.00     0.052 C 
BRANCH  20  21
HETATM   21  C   UNL     1      -5.900  -2.287 -34.229  1.00  0.00    -0.008 A 
HETATM   22  C   UNL     1      -5.856  -3.580 -34.719  1.00  0.00     0.032 A 
HETATM   23  C   UNL     1      -6.908  -4.482 -35.240  1.00  0.00     0.070 C 
HETATM   24  N   UNL     1      -4.546  -3.963 -34.645  1.00  0.00    -0.282 N 
HETATM   25  H   UNL     1      -4.136  -4.849 -34.920  1.00  0.00     0.189 HD
HETATM   26  N   UNL     1      -3.736  -3.027 -34.137  1.00  0.00    -0.179 NA
HETATM   27  C   UNL     1      -4.548  -1.994 -33.888  1.00  0.00     0.059 A 
HETATM   28  C   UNL     1      -4.004  -0.737 -33.313  1.00  0.00     0.073 C 
ENDBRANCH  20  21
ENDBRANCH  19  20
ENDBRANCH   1  19
TORSDOF 7
ENDMDL
