MODEL 1
REMARK VINA RESULT:      -8.5      0.000      0.000
REMARK  1 active torsions:
REMARK  status: ('A' for Active; 'I' for Inactive)
REMARK    1  A    between atoms: C_8  and  C_9 
ROOT
HETATM    1  C   UNL     1      -6.404   0.862 -29.926  1.00  0.00     0.073 C 
HETATM    2  C   UNL     1      -6.278   2.330 -30.147  1.00  0.00     0.062 A 
HETATM    3  N   UNL     1      -7.053   3.153 -29.437  1.00  0.00    -0.178 NA
HETATM    4  N   UNL     1      -6.638   4.368 -29.791  1.00  0.00    -0.262 N 
HETATM    5  H   UNL     1      -7.076   5.165 -29.346  1.00  0.00     0.191 HD
HETATM    6  C   UNL     1      -5.655   4.377 -30.746  1.00  0.00     0.134 A 
HETATM    7  C   UNL     1      -5.387   3.045 -31.031  1.00  0.00     0.032 A 
HETATM    8  C   UNL     1      -4.323   2.404 -31.869  1.00  0.00     0.119 C 
HETATM    9  S   UNL     1      -3.126   3.430 -32.744  1.00  0.00    -0.141 SA
HETATM   10  C   UNL     1      -4.080   4.865 -33.312  1.00  0.00     0.136 C 
HETATM   11  C   UNL     1      -5.331   4.611 -34.136  1.00  0.00     0.031 C 
HETATM   12  C   UNL     1      -4.325   5.864 -32.197  1.00  0.00     0.236 C 
HETATM   13  O   UNL     1      -3.877   7.014 -32.274  1.00  0.00    -0.272 OA
HETATM   14  N   UNL     1      -5.144   5.587 -31.145  1.00  0.00    -0.311 N 
HETATM   15  H   UNL     1      -5.341   6.413 -30.591  1.00  0.00     0.170 HD
ENDROOT
BRANCH   8  16
HETATM   16  C   UNL     1      -4.909   1.296 -32.739  1.00  0.00    -0.039 A 
HETATM   17  C   UNL     1      -4.250   0.047 -32.754  1.00  0.00     0.021 A 
HETATM   18  C   UNL     1      -4.743  -1.051 -33.481  1.00  0.00    -0.025 A 
HETATM   19  C   UNL     1      -5.916  -0.897 -34.248  1.00  0.00    -0.026 A 
HETATM   20  C   UNL     1      -4.099  -2.300 -33.452  1.00  0.00     0.012 A 
HETATM   21  C   UNL     1      -6.561   0.347 -34.262  1.00  0.00     0.013 A 
HETATM   22  C   UNL     1      -6.416  -1.994 -34.968  1.00  0.00     0.012 A 
HETATM   23  C   UNL     1      -6.069   1.424 -33.515  1.00  0.00     0.009 A 
HETATM   24  C   UNL     1      -5.769  -3.231 -34.925  1.00  0.00     0.001 A 
HETATM   25  C   UNL     1      -4.613  -3.384 -34.167  1.00  0.00     0.001 A 
ENDBRANCH   8  16
TORSDOF 1
ENDMDL
MODEL 2
REMARK VINA RESULT:      -8.4      2.882      3.771
REMARK  1 active torsions:
REMARK  status: ('A' for Active; 'I' for Inactive)
REMARK    1  A    between atoms: C_8  and  C_9 
ROOT
HETATM    1  C   UNL     1      -4.089   0.924 -30.845  1.00  0.00     0.073 C 
HETATM    2  C   UNL     1      -5.493   1.394 -30.675  1.00  0.00     0.062 A 
HETATM    3  N   UNL     1      -5.904   1.751 -29.456  1.00  0.00    -0.178 NA
HETATM    4  N   UNL     1      -7.141   2.201 -29.656  1.00  0.00    -0.262 N 
HETATM    5  H   UNL     1      -7.648   2.560 -28.856  1.00  0.00     0.191 HD
HETATM    6  C   UNL     1      -7.579   2.105 -30.951  1.00  0.00     0.134 A 
HETATM    7  C   UNL     1      -6.525   1.559 -31.671  1.00  0.00     0.032 A 
HETATM    8  C   UNL     1      -6.332   1.349 -33.141  1.00  0.00     0.119 C 
HETATM    9  S   UNL     1      -7.633   1.818 -34.298  1.00  0.00    -0.141 SA
HETATM   10  C   UNL     1      -9.177   1.390 -33.448  1.00  0.00     0.136 C 
HETATM   11  C   UNL     1      -9.344  -0.033 -32.943  1.00  0.00     0.031 C 
HETATM   12  C   UNL     1      -9.554   2.416 -32.397  1.00  0.00     0.236 C 
HETATM   13  O   UNL     1     -10.606   3.059 -32.494  1.00  0.00    -0.272 OA
HETATM   14  N   UNL     1      -8.832   2.578 -31.253  1.00  0.00    -0.311 N 
HETATM   15  H   UNL     1      -9.312   3.168 -30.583  1.00  0.00     0.170 HD
ENDROOT
BRANCH   8  16
HETATM   16  C   UNL     1      -5.754  -0.035 -33.423  1.00  0.00    -0.039 A 
HETATM   17  C   UNL     1      -6.639  -1.048 -33.854  1.00  0.00     0.021 A 
HETATM   18  C   UNL     1      -6.193  -2.338 -34.189  1.00  0.00    -0.025 A 
HETATM   19  C   UNL     1      -4.823  -2.648 -34.062  1.00  0.00    -0.026 A 
HETATM   20  C   UNL     1      -7.079  -3.322 -34.660  1.00  0.00     0.012 A 
HETATM   21  C   UNL     1      -3.942  -1.658 -33.607  1.00  0.00     0.013 A 
HETATM   22  C   UNL     1      -4.373  -3.933 -34.405  1.00  0.00     0.012 A 
HETATM   23  C   UNL     1      -4.399  -0.371 -33.298  1.00  0.00     0.009 A 
HETATM   24  C   UNL     1      -5.265  -4.899 -34.875  1.00  0.00     0.001 A 
HETATM   25  C   UNL     1      -6.616  -4.594 -35.004  1.00  0.00     0.001 A 
ENDBRANCH   8  16
TORSDOF 1
ENDMDL
MODEL 3
REMARK VINA RESULT:      -8.2      3.991      5.499
REMARK  1 active torsions:
REMARK  status: ('A' for Active; 'I' for Inactive)
REMARK    1  A    between atoms: C_8  and  C_9 
ROOT
HETATM    1  C   UNL     1      -6.958  -0.836 -35.092  1.00  0.00     0.073 C 
HETATM    2  C   UNL     1      -6.034  -0.209 -34.106  1.00  0.00     0.062 A 
HETATM    3  N   UNL     1      -4.927  -0.869 -33.758  1.00  0.00    -0.178 NA
HETATM    4  N   UNL     1      -4.287  -0.019 -32.958  1.00  0.00    -0.262 N 
HETATM    5  H   UNL     1      -3.388  -0.304 -32.589  1.00  0.00     0.191 HD
HETATM    6  C   UNL     1      -4.955   1.154 -32.723  1.00  0.00     0.134 A 
HETATM    7  C   UNL     1      -6.133   1.075 -33.452  1.00  0.00     0.032 A 
HETATM    8  C   UNL     1      -7.202   2.089 -33.725  1.00  0.00     0.119 C 
HETATM    9  S   UNL     1      -7.076   3.743 -33.017  1.00  0.00    -0.141 SA
HETATM   10  C   UNL     1      -6.380   3.481 -31.362  1.00  0.00     0.136 C 
HETATM   11  C   UNL     1      -7.092   2.511 -30.433  1.00  0.00     0.031 C 
HETATM   12  C   UNL     1      -4.884   3.237 -31.404  1.00  0.00     0.236 C 
HETATM   13  O   UNL     1      -4.104   4.016 -30.843  1.00  0.00    -0.272 OA
HETATM   14  N   UNL     1      -4.351   2.102 -31.935  1.00  0.00    -0.311 N 
HETATM   15  H   UNL     1      -3.363   2.013 -31.725  1.00  0.00     0.170 HD
ENDROOT
BRANCH   8  16
HETATM   16  C   UNL     1      -8.589   1.475 -33.564  1.00  0.00    -0.039 A 
HETATM   17  C   UNL     1      -9.653   2.036 -34.305  1.00  0.00     0.021 A 
HETATM   18  C   UNL     1     -10.954   1.507 -34.265  1.00  0.00    -0.025 A 
HETATM   19  C   UNL     1     -11.221   0.398 -33.436  1.00  0.00    -0.026 A 
HETATM   20  C   UNL     1     -11.992   2.050 -35.042  1.00  0.00     0.012 A 
HETATM   21  C   UNL     1     -10.179  -0.147 -32.675  1.00  0.00     0.013 A 
HETATM   22  C   UNL     1     -12.518  -0.139 -33.401  1.00  0.00     0.012 A 
HETATM   23  C   UNL     1      -8.883   0.378 -32.742  1.00  0.00     0.009 A 
HETATM   24  C   UNL     1     -13.538   0.408 -34.182  1.00  0.00     0.001 A 
HETATM   25  C   UNL     1     -13.275   1.500 -35.003  1.00  0.00     0.001 A 
ENDBRANCH   8  16
TORSDOF 1
ENDMDL
MODEL 4
REMARK VINA RESULT:      -8.2      2.236      2.720
REMARK  1 active torsions:
REMARK  status: ('A' for Active; 'I' for Inactive)
REMARK    1  A    between atoms: C_8  and  C_9 
ROOT
HETATM    1  C   UNL     1      -4.603  -0.596 -30.835  1.00  0.00     0.073 C 
HETATM    2  C   UNL     1      -5.506   0.569 -30.620  1.00  0.00     0.062 A 
HETATM    3  N   UNL     1      -5.834   0.902 -29.370  1.00  0.00    -0.178 NA
HETATM    4  N   UNL     1      -6.553   2.014 -29.514  1.00  0.00    -0.262 N 
HETATM    5  H   UNL     1      -6.892   2.469 -28.676  1.00  0.00     0.191 HD
HETATM    6  C   UNL     1      -6.755   2.396 -30.814  1.00  0.00     0.134 A 
HETATM    7  C   UNL     1      -6.091   1.460 -31.595  1.00  0.00     0.032 A 
HETATM    8  C   UNL     1      -5.816   1.410 -33.067  1.00  0.00     0.119 C 
HETATM    9  S   UNL     1      -6.423   2.725 -34.142  1.00  0.00    -0.141 SA
HETATM   10  C   UNL     1      -8.053   3.150 -33.469  1.00  0.00     0.136 C 
HETATM   11  C   UNL     1      -9.069   2.033 -33.298  1.00  0.00     0.031 C 
HETATM   12  C   UNL     1      -7.951   4.022 -32.232  1.00  0.00     0.236 C 
HETATM   13  O   UNL     1      -8.428   5.163 -32.226  1.00  0.00    -0.272 OA
HETATM   14  N   UNL     1      -7.458   3.550 -31.054  1.00  0.00    -0.311 N 
HETATM   15  H   UNL     1      -7.624   4.195 -30.289  1.00  0.00     0.170 HD
ENDROOT
BRANCH   8  16
HETATM   16  C   UNL     1      -6.079   0.014 -33.624  1.00  0.00    -0.039 A 
HETATM   17  C   UNL     1      -5.023  -0.923 -33.592  1.00  0.00     0.021 A 
HETATM   18  C   UNL     1      -5.184  -2.248 -34.032  1.00  0.00    -0.025 A 
HETATM   19  C   UNL     1      -6.430  -2.653 -34.553  1.00  0.00    -0.026 A 
HETATM   20  C   UNL     1      -4.136  -3.181 -33.953  1.00  0.00     0.012 A 
HETATM   21  C   UNL     1      -7.476  -1.722 -34.616  1.00  0.00     0.013 A 
HETATM   22  C   UNL     1      -6.598  -3.979 -34.985  1.00  0.00     0.012 A 
HETATM   23  C   UNL     1      -7.305  -0.412 -34.153  1.00  0.00     0.009 A 
HETATM   24  C   UNL     1      -5.549  -4.896 -34.896  1.00  0.00     0.001 A 
HETATM   25  C   UNL     1      -4.320  -4.498 -34.380  1.00  0.00     0.001 A 
ENDBRANCH   8  16
TORSDOF 1
ENDMDL
MODEL 5
REMARK VINA RESULT:      -8.1      3.591      5.978
REMARK  1 active torsions:
REMARK  status: ('A' for Active; 'I' for Inactive)
REMARK    1  A    between atoms: C_8  and  C_9 
ROOT
HETATM    1  C   UNL     1      -5.113  -0.235 -33.688  1.00  0.00     0.073 C 
HETATM    2  C   UNL     1      -6.429   0.277 -34.163  1.00  0.00     0.062 A 
HETATM    3  N   UNL     1      -6.972  -0.270 -35.252  1.00  0.00    -0.178 NA
HETATM    4  N   UNL     1      -8.158   0.328 -35.352  1.00  0.00    -0.262 N 
HETATM    5  H   UNL     1      -8.769   0.042 -36.107  1.00  0.00     0.191 HD
HETATM    6  C   UNL     1      -8.394   1.285 -34.400  1.00  0.00     0.134 A 
HETATM    7  C   UNL     1      -7.267   1.304 -33.589  1.00  0.00     0.032 A 
HETATM    8  C   UNL     1      -6.980   2.019 -32.305  1.00  0.00     0.119 C 
HETATM    9  S   UNL     1      -8.224   3.106 -31.581  1.00  0.00    -0.141 SA
HETATM   10  C   UNL     1      -8.995   3.929 -33.003  1.00  0.00     0.136 C 
HETATM   11  C   UNL     1      -8.092   4.660 -33.982  1.00  0.00     0.031 C 
HETATM   12  C   UNL     1      -9.993   3.031 -33.709  1.00  0.00     0.236 C 
HETATM   13  O   UNL     1     -11.188   3.346 -33.770  1.00  0.00    -0.272 OA
HETATM   14  N   UNL     1      -9.606   1.929 -34.408  1.00  0.00    -0.311 N 
HETATM   15  H   UNL     1     -10.364   1.547 -34.963  1.00  0.00     0.170 HD
ENDROOT
BRANCH   8  16
HETATM   16  C   UNL     1      -5.586   2.637 -32.325  1.00  0.00    -0.039 A 
HETATM   17  C   UNL     1      -5.270   3.528 -33.375  1.00  0.00     0.021 A 
HETATM   18  C   UNL     1      -4.032   4.189 -33.449  1.00  0.00    -0.025 A 
HETATM   19  C   UNL     1      -3.056   3.934 -32.463  1.00  0.00    -0.026 A 
HETATM   20  C   UNL     1      -3.749   5.106 -34.475  1.00  0.00     0.012 A 
HETATM   21  C   UNL     1      -3.349   3.030 -31.434  1.00  0.00     0.013 A 
HETATM   22  C   UNL     1      -1.821   4.600 -32.530  1.00  0.00     0.012 A 
HETATM   23  C   UNL     1      -4.596   2.396 -31.363  1.00  0.00     0.009 A 
HETATM   24  C   UNL     1      -1.556   5.512 -33.553  1.00  0.00     0.001 A 
HETATM   25  C   UNL     1      -2.520   5.766 -34.524  1.00  0.00     0.001 A 
ENDBRANCH   8  16
TORSDOF 1
ENDMDL
MODEL 6
REMARK VINA RESULT:      -8.0      1.840      2.905
REMARK  1 active torsions:
REMARK  status: ('A' for Active; 'I' for Inactive)
REMARK    1  A    between atoms: C_8  and  C_9 
ROOT
HETATM    1  C   UNL     1      -5.899   3.778 -29.728  1.00  0.00     0.073 C 
HETATM    2  C   UNL     1      -5.442   4.991 -30.463  1.00  0.00     0.062 A 
HETATM    3  N   UNL     1      -6.150   6.116 -30.343  1.00  0.00    -0.178 NA
HETATM    4  N   UNL     1      -5.441   7.013 -31.026  1.00  0.00    -0.262 N 
HETATM    5  H   UNL     1      -5.782   7.966 -31.049  1.00  0.00     0.191 HD
HETATM    6  C   UNL     1      -4.322   6.510 -31.634  1.00  0.00     0.134 A 
HETATM    7  C   UNL     1      -4.280   5.162 -31.305  1.00  0.00     0.032 A 
HETATM    8  C   UNL     1      -3.235   4.115 -31.537  1.00  0.00     0.119 C 
HETATM    9  S   UNL     1      -1.718   4.536 -32.417  1.00  0.00    -0.141 SA
HETATM   10  C   UNL     1      -2.245   5.690 -33.713  1.00  0.00     0.136 C 
HETATM   11  C   UNL     1      -3.352   5.250 -34.656  1.00  0.00     0.031 C 
HETATM   12  C   UNL     1      -2.480   7.087 -33.171  1.00  0.00     0.236 C 
HETATM   13  O   UNL     1      -1.803   8.040 -33.575  1.00  0.00    -0.272 OA
HETATM   14  N   UNL     1      -3.514   7.373 -32.332  1.00  0.00    -0.311 N 
HETATM   15  H   UNL     1      -3.636   8.372 -32.209  1.00  0.00     0.170 HD
ENDROOT
BRANCH   8  16
HETATM   16  C   UNL     1      -3.866   2.814 -32.025  1.00  0.00    -0.039 A 
HETATM   17  C   UNL     1      -4.972   2.900 -32.900  1.00  0.00     0.021 A 
HETATM   18  C   UNL     1      -5.586   1.759 -33.444  1.00  0.00    -0.025 A 
HETATM   19  C   UNL     1      -5.108   0.482 -33.084  1.00  0.00    -0.026 A 
HETATM   20  C   UNL     1      -6.656   1.862 -34.348  1.00  0.00     0.012 A 
HETATM   21  C   UNL     1      -4.031   0.386 -32.193  1.00  0.00     0.013 A 
HETATM   22  C   UNL     1      -5.714  -0.660 -33.633  1.00  0.00     0.012 A 
HETATM   23  C   UNL     1      -3.416   1.533 -31.677  1.00  0.00     0.009 A 
HETATM   24  C   UNL     1      -6.774  -0.542 -34.534  1.00  0.00     0.001 A 
HETATM   25  C   UNL     1      -7.244   0.718 -34.892  1.00  0.00     0.001 A 
ENDBRANCH   8  16
TORSDOF 1
ENDMDL
MODEL 7
REMARK VINA RESULT:      -7.9     16.425     17.643
REMARK  1 active torsions:
REMARK  status: ('A' for Active; 'I' for Inactive)
REMARK    1  A    between atoms: C_8  and  C_9 
ROOT
HETATM    1  C   UNL     1      -4.430 -14.190 -38.456  1.00  0.00     0.073 C 
HETATM    2  C   UNL     1      -4.151 -14.657 -37.069  1.00  0.00     0.062 A 
HETATM    3  N   UNL     1      -3.024 -15.333 -36.837  1.00  0.00    -0.178 NA
HETATM    4  N   UNL     1      -3.028 -15.517 -35.518  1.00  0.00    -0.262 N 
HETATM    5  H   UNL     1      -2.236 -15.994 -35.106  1.00  0.00     0.191 HD
HETATM    6  C   UNL     1      -4.140 -15.034 -34.880  1.00  0.00     0.134 A 
HETATM    7  C   UNL     1      -4.930 -14.463 -35.869  1.00  0.00     0.032 A 
HETATM    8  C   UNL     1      -6.184 -13.648 -35.789  1.00  0.00     0.119 C 
HETATM    9  S   UNL     1      -6.927 -13.291 -34.185  1.00  0.00    -0.141 SA
HETATM   10  C   UNL     1      -6.690 -14.811 -33.223  1.00  0.00     0.136 C 
HETATM   11  C   UNL     1      -7.196 -16.117 -33.812  1.00  0.00     0.031 C 
HETATM   12  C   UNL     1      -5.275 -14.936 -32.692  1.00  0.00     0.236 C 
HETATM   13  O   UNL     1      -5.061 -14.964 -31.474  1.00  0.00    -0.272 OA
HETATM   14  N   UNL     1      -4.211 -15.151 -33.514  1.00  0.00    -0.311 N 
HETATM   15  H   UNL     1      -3.373 -15.388 -32.995  1.00  0.00     0.170 HD
ENDROOT
BRANCH   8  16
HETATM   16  C   UNL     1      -7.201 -14.111 -36.828  1.00  0.00    -0.039 A 
HETATM   17  C   UNL     1      -7.880 -13.124 -37.578  1.00  0.00     0.021 A 
HETATM   18  C   UNL     1      -8.794 -13.452 -38.594  1.00  0.00    -0.025 A 
HETATM   19  C   UNL     1      -9.071 -14.809 -38.857  1.00  0.00    -0.026 A 
HETATM   20  C   UNL     1      -9.427 -12.460 -39.361  1.00  0.00     0.012 A 
HETATM   21  C   UNL     1      -8.426 -15.795 -38.099  1.00  0.00     0.013 A 
HETATM   22  C   UNL     1      -9.977 -15.141 -39.878  1.00  0.00     0.012 A 
HETATM   23  C   UNL     1      -7.501 -15.451 -37.105  1.00  0.00     0.009 A 
HETATM   24  C   UNL     1     -10.596 -14.144 -40.635  1.00  0.00     0.001 A 
HETATM   25  C   UNL     1     -10.320 -12.805 -40.377  1.00  0.00     0.001 A 
ENDBRANCH   8  16
TORSDOF 1
ENDMDL
MODEL 8
REMARK VINA RESULT:      -7.7     15.889     17.033
REMARK  1 active torsions:
REMARK  status: ('A' for Active; 'I' for Inactive)
REMARK    1  A    between atoms: C_8  and  C_9 
ROOT
HETATM    1  C   UNL     1      -7.337 -14.834 -35.174  1.00  0.00     0.073 C 
HETATM    2  C   UNL     1      -6.110 -14.034 -35.444  1.00  0.00     0.062 A 
HETATM    3  N   UNL     1      -5.673 -13.194 -34.502  1.00  0.00    -0.178 NA
HETATM    4  N   UNL     1      -4.535 -12.718 -35.003  1.00  0.00    -0.262 N 
HETATM    5  H   UNL     1      -4.005 -12.069 -34.434  1.00  0.00     0.191 HD
HETATM    6  C   UNL     1      -4.232 -13.171 -36.259  1.00  0.00     0.134 A 
HETATM    7  C   UNL     1      -5.256 -14.041 -36.609  1.00  0.00     0.032 A 
HETATM    8  C   UNL     1      -5.421 -14.959 -37.781  1.00  0.00     0.119 C 
HETATM    9  S   UNL     1      -4.150 -15.027 -39.059  1.00  0.00    -0.141 SA
HETATM   10  C   UNL     1      -3.588 -13.312 -39.237  1.00  0.00     0.136 C 
HETATM   11  C   UNL     1      -4.630 -12.243 -39.521  1.00  0.00     0.031 C 
HETATM   12  C   UNL     1      -2.640 -12.903 -38.125  1.00  0.00     0.236 C 
HETATM   13  O   UNL     1      -1.476 -12.574 -38.381  1.00  0.00    -0.272 OA
HETATM   14  N   UNL     1      -3.058 -12.756 -36.838  1.00  0.00    -0.311 N 
HETATM   15  H   UNL     1      -2.354 -12.310 -36.260  1.00  0.00     0.170 HD
ENDROOT
BRANCH   8  16
HETATM   16  C   UNL     1      -6.835 -14.868 -38.349  1.00  0.00    -0.039 A 
HETATM   17  C   UNL     1      -7.330 -13.591 -38.694  1.00  0.00     0.021 A 
HETATM   18  C   UNL     1      -8.598 -13.411 -39.274  1.00  0.00    -0.025 A 
HETATM   19  C   UNL     1      -9.420 -14.536 -39.492  1.00  0.00    -0.026 A 
HETATM   20  C   UNL     1      -9.059 -12.139 -39.652  1.00  0.00     0.012 A 
HETATM   21  C   UNL     1      -8.949 -15.803 -39.126  1.00  0.00     0.013 A 
HETATM   22  C   UNL     1     -10.684 -14.361 -40.079  1.00  0.00     0.012 A 
HETATM   23  C   UNL     1      -7.675 -15.968 -38.569  1.00  0.00     0.009 A 
HETATM   24  C   UNL     1     -11.127 -13.091 -40.454  1.00  0.00     0.001 A 
HETATM   25  C   UNL     1     -10.314 -11.981 -40.242  1.00  0.00     0.001 A 
ENDBRANCH   8  16
TORSDOF 1
ENDMDL
MODEL 9
REMARK VINA RESULT:      -7.7      2.075      2.710
REMARK  1 active torsions:
REMARK  status: ('A' for Active; 'I' for Inactive)
REMARK    1  A    between atoms: C_8  and  C_9 
ROOT
HETATM    1  C   UNL     1      -9.198   2.955 -34.015  1.00  0.00     0.073 C 
HETATM    2  C   UNL     1      -8.062   3.849 -33.657  1.00  0.00     0.062 A 
HETATM    3  N   UNL     1      -7.951   5.024 -34.281  1.00  0.00    -0.178 NA
HETATM    4  N   UNL     1      -6.917   5.608 -33.679  1.00  0.00    -0.262 N 
HETATM    5  H   UNL     1      -6.663   6.542 -33.978  1.00  0.00     0.191 HD
HETATM    6  C   UNL     1      -6.310   4.842 -32.719  1.00  0.00     0.134 A 
HETATM    7  C   UNL     1      -7.024   3.653 -32.672  1.00  0.00     0.032 A 
HETATM    8  C   UNL     1      -6.947   2.486 -31.736  1.00  0.00     0.119 C 
HETATM    9  S   UNL     1      -5.737   2.481 -30.399  1.00  0.00    -0.141 SA
HETATM   10  C   UNL     1      -4.260   3.253 -31.115  1.00  0.00     0.136 C 
HETATM   11  C   UNL     1      -3.699   2.666 -32.400  1.00  0.00     0.031 C 
HETATM   12  C   UNL     1      -4.381   4.763 -31.183  1.00  0.00     0.236 C 
HETATM   13  O   UNL     1      -3.597   5.485 -30.557  1.00  0.00    -0.272 OA
HETATM   14  N   UNL     1      -5.256   5.381 -32.024  1.00  0.00    -0.311 N 
HETATM   15  H   UNL     1      -5.087   6.379 -32.079  1.00  0.00     0.170 HD
ENDROOT
BRANCH   8  16
HETATM   16  C   UNL     1      -6.995   1.168 -32.503  1.00  0.00    -0.039 A 
HETATM   17  C   UNL     1      -5.769   0.552 -32.841  1.00  0.00     0.021 A 
HETATM   18  C   UNL     1      -5.711  -0.689 -33.498  1.00  0.00    -0.025 A 
HETATM   19  C   UNL     1      -6.912  -1.331 -33.863  1.00  0.00    -0.026 A 
HETATM   20  C   UNL     1      -4.484  -1.309 -33.788  1.00  0.00     0.012 A 
HETATM   21  C   UNL     1      -8.133  -0.714 -33.558  1.00  0.00     0.013 A 
HETATM   22  C   UNL     1      -6.858  -2.575 -34.512  1.00  0.00     0.012 A 
HETATM   23  C   UNL     1      -8.174   0.512 -32.883  1.00  0.00     0.009 A 
HETATM   24  C   UNL     1      -5.631  -3.182 -34.790  1.00  0.00     0.001 A 
HETATM   25  C   UNL     1      -4.446  -2.550 -34.428  1.00  0.00     0.001 A 
ENDBRANCH   8  16
TORSDOF 1
ENDMDL
MODEL 10
REMARK VINA RESULT:      -7.6      3.290      5.663
REMARK  1 active torsions:
REMARK  status: ('A' for Active; 'I' for Inactive)
REMARK    1  A    between atoms: C_8  and  C_9 
ROOT
HETATM    1  C   UNL     1      -5.120   0.641 -32.621  1.00  0.00     0.073 C 
HETATM    2  C   UNL     1      -6.560   0.857 -32.310  1.00  0.00     0.062 A 
HETATM    3  N   UNL     1      -7.433  -0.103 -32.623  1.00  0.00    -0.178 NA
HETATM    4  N   UNL     1      -8.590   0.348 -32.140  1.00  0.00    -0.262 N 
HETATM    5  H   UNL     1      -9.405  -0.244 -32.240  1.00  0.00     0.191 HD
HETATM    6  C   UNL     1      -8.521   1.591 -31.569  1.00  0.00     0.134 A 
HETATM    7  C   UNL     1      -7.194   1.985 -31.668  1.00  0.00     0.032 A 
HETATM    8  C   UNL     1      -6.464   3.164 -31.102  1.00  0.00     0.119 C 
HETATM    9  S   UNL     1      -7.352   4.387 -30.118  1.00  0.00    -0.141 SA
HETATM   10  C   UNL     1      -8.968   4.539 -30.927  1.00  0.00     0.136 C 
HETATM   11  C   UNL     1      -8.997   4.865 -32.411  1.00  0.00     0.031 C 
HETATM   12  C   UNL     1      -9.892   3.387 -30.578  1.00  0.00     0.236 C 
HETATM   13  O   UNL     1     -10.955   3.593 -29.981  1.00  0.00    -0.272 OA
HETATM   14  N   UNL     1      -9.662   2.118 -31.015  1.00  0.00    -0.311 N 
HETATM   15  H   UNL     1     -10.456   1.511 -30.849  1.00  0.00     0.170 HD
ENDROOT
BRANCH   8  16
HETATM   16  C   UNL     1      -5.548   3.791 -32.149  1.00  0.00    -0.039 A 
HETATM   17  C   UNL     1      -4.212   4.066 -31.782  1.00  0.00     0.021 A 
HETATM   18  C   UNL     1      -3.279   4.593 -32.692  1.00  0.00    -0.025 A 
HETATM   19  C   UNL     1      -3.692   4.889 -34.007  1.00  0.00    -0.026 A 
HETATM   20  C   UNL     1      -1.942   4.819 -32.324  1.00  0.00     0.012 A 
HETATM   21  C   UNL     1      -5.023   4.647 -34.372  1.00  0.00     0.013 A 
HETATM   22  C   UNL     1      -2.760   5.407 -34.921  1.00  0.00     0.012 A 
HETATM   23  C   UNL     1      -5.934   4.102 -33.459  1.00  0.00     0.009 A 
HETATM   24  C   UNL     1      -1.434   5.622 -34.543  1.00  0.00     0.001 A 
HETATM   25  C   UNL     1      -1.024   5.328 -33.246  1.00  0.00     0.001 A 
ENDBRANCH   8  16
TORSDOF 1
ENDMDL
