MODEL 1
REMARK VINA RESULT:      -9.2      0.000      0.000
REMARK  5 active torsions:
REMARK  status: ('A' for Active; 'I' for Inactive)
REMARK    1  A    between atoms: C_2  and  C_3 
REMARK    2  A    between atoms: C_5  and  N_6 
REMARK       I    between atoms: N_6  and  C_7 
REMARK    3  A    between atoms: C_7  and  C_8 
REMARK    4  A    between atoms: C_9  and  C_10 
REMARK    5  A    between atoms: C_21  and  O_22 
ROOT
HETATM    1  N   UNL     1      -2.609   3.359 -32.607  1.00  0.00    -0.321 N 
HETATM    2  C   UNL     1      -3.828   2.955 -32.117  1.00  0.00     0.245 C 
HETATM    3  O   UNL     1      -4.612   3.602 -31.435  1.00  0.00    -0.268 OA
HETATM    4  H   UNL     1      -2.126   2.758 -33.266  1.00  0.00     0.169 HD
ENDROOT
BRANCH   1   5
HETATM    5  C   UNL     1      -1.937   4.581 -32.373  1.00  0.00     0.069 A 
HETATM    6  C   UNL     1      -1.461   4.973 -31.116  1.00  0.00     0.040 A 
HETATM    7  C   UNL     1      -0.773   6.190 -30.929  1.00  0.00    -0.048 A 
HETATM    8  C   UNL     1      -0.588   7.005 -32.055  1.00  0.00     0.011 A 
HETATM    9  C   UNL     1      -1.058   6.626 -33.319  1.00  0.00     0.039 A 
HETATM   10  C   UNL     1      -1.728   5.414 -33.487  1.00  0.00     0.095 A 
BRANCH   7  11
HETATM   11  C   UNL     1      -0.242   6.566 -29.533  1.00  0.00    -0.024 C 
HETATM   12  C   UNL     1       0.539   5.371 -28.944  1.00  0.00     0.019 C 
HETATM   13  C   UNL     1      -1.418   6.916 -28.597  1.00  0.00     0.019 C 
HETATM   14  C   UNL     1       0.715   7.780 -29.536  1.00  0.00     0.019 C 
ENDBRANCH   7  11
BRANCH  10  15
HETATM   15  O   UNL     1      -2.222   4.944 -34.683  1.00  0.00    -0.354 OA
HETATM   16  C   UNL     1      -3.505   5.413 -35.079  1.00  0.00     0.210 C 
ENDBRANCH  10  15
ENDBRANCH   1   5
BRANCH   2  17
HETATM   17  C   UNL     1      -4.153   1.568 -32.544  1.00  0.00     0.077 C 
HETATM   18  C   UNL     1      -3.418   0.540 -32.091  1.00  0.00     0.038 C 
BRANCH  18  19
HETATM   19  C   UNL     1      -3.649  -0.850 -32.493  1.00  0.00     0.075 A 
HETATM   20  N   UNL     1      -4.564  -1.083 -33.464  1.00  0.00    -0.245 NA
HETATM   21  C   UNL     1      -4.739  -2.364 -33.844  1.00  0.00     0.086 A 
HETATM   22  C   UNL     1      -4.014  -3.423 -33.243  1.00  0.00     0.085 A 
HETATM   23  C   UNL     1      -5.648  -2.658 -34.855  1.00  0.00     0.034 A 
HETATM   24  N   UNL     1      -3.113  -3.189 -32.270  1.00  0.00    -0.256 NA
HETATM   25  C   UNL     1      -4.238  -4.724 -33.675  1.00  0.00     0.034 A 
HETATM   26  C   UNL     1      -2.940  -1.894 -31.914  1.00  0.00     0.148 A 
HETATM   27  C   UNL     1      -5.153  -5.007 -34.690  1.00  0.00     0.002 A 
HETATM   28  C   UNL     1      -5.859  -3.969 -35.284  1.00  0.00     0.002 A 
ENDBRANCH  18  19
ENDBRANCH   2  17
TORSDOF 5
ENDMDL
MODEL 2
REMARK VINA RESULT:      -9.1      1.028      1.756
REMARK  5 active torsions:
REMARK  status: ('A' for Active; 'I' for Inactive)
REMARK    1  A    between atoms: C_2  and  C_3 
REMARK    2  A    between atoms: C_5  and  N_6 
REMARK       I    between atoms: N_6  and  C_7 
REMARK    3  A    between atoms: C_7  and  C_8 
REMARK    4  A    between atoms: C_9  and  C_10 
REMARK    5  A    between atoms: C_21  and  O_22 
ROOT
HETATM    1  N   UNL     1      -2.593   3.351 -32.474  1.00  0.00    -0.321 N 
HETATM    2  C   UNL     1      -3.677   2.845 -31.797  1.00  0.00     0.245 C 
HETATM    3  O   UNL     1      -4.329   3.390 -30.916  1.00  0.00    -0.268 OA
HETATM    4  H   UNL     1      -2.232   2.834 -33.270  1.00  0.00     0.169 HD
ENDROOT
BRANCH   1   5
HETATM    5  C   UNL     1      -1.925   4.578 -32.259  1.00  0.00     0.069 A 
HETATM    6  C   UNL     1      -1.449   4.991 -31.009  1.00  0.00     0.040 A 
HETATM    7  C   UNL     1      -0.766   6.213 -30.842  1.00  0.00    -0.048 A 
HETATM    8  C   UNL     1      -0.586   7.012 -31.980  1.00  0.00     0.011 A 
HETATM    9  C   UNL     1      -1.056   6.612 -33.237  1.00  0.00     0.039 A 
HETATM   10  C   UNL     1      -1.721   5.396 -33.386  1.00  0.00     0.095 A 
BRANCH   7  11
HETATM   11  C   UNL     1      -0.235   6.612 -29.452  1.00  0.00    -0.024 C 
HETATM   12  C   UNL     1       0.554   5.430 -28.847  1.00  0.00     0.019 C 
HETATM   13  C   UNL     1      -1.411   6.970 -28.519  1.00  0.00     0.019 C 
HETATM   14  C   UNL     1       0.716   7.831 -29.474  1.00  0.00     0.019 C 
ENDBRANCH   7  11
BRANCH  10  15
HETATM   15  O   UNL     1      -2.215   4.905 -34.574  1.00  0.00    -0.354 OA
HETATM   16  C   UNL     1      -3.439   5.459 -35.040  1.00  0.00     0.210 C 
ENDBRANCH  10  15
ENDBRANCH   1   5
BRANCH   2  17
HETATM   17  C   UNL     1      -4.038   1.488 -32.284  1.00  0.00     0.077 C 
HETATM   18  C   UNL     1      -5.114   1.324 -33.070  1.00  0.00     0.038 C 
BRANCH  18  19
HETATM   19  C   UNL     1      -5.560   0.016 -33.560  1.00  0.00     0.075 A 
HETATM   20  N   UNL     1      -4.662  -0.997 -33.556  1.00  0.00    -0.245 NA
HETATM   21  C   UNL     1      -5.098  -2.201 -33.979  1.00  0.00     0.086 A 
HETATM   22  C   UNL     1      -6.429  -2.394 -34.426  1.00  0.00     0.085 A 
HETATM   23  C   UNL     1      -4.226  -3.284 -33.971  1.00  0.00     0.034 A 
HETATM   24  N   UNL     1      -7.316  -1.380 -34.439  1.00  0.00    -0.256 NA
HETATM   25  C   UNL     1      -6.822  -3.656 -34.852  1.00  0.00     0.034 A 
HETATM   26  C   UNL     1      -6.862  -0.183 -33.995  1.00  0.00     0.148 A 
HETATM   27  C   UNL     1      -5.937  -4.736 -34.841  1.00  0.00     0.002 A 
HETATM   28  C   UNL     1      -4.634  -4.549 -34.396  1.00  0.00     0.002 A 
ENDBRANCH  18  19
ENDBRANCH   2  17
TORSDOF 5
ENDMDL
MODEL 3
REMARK VINA RESULT:      -8.7      1.054      1.241
REMARK  5 active torsions:
REMARK  status: ('A' for Active; 'I' for Inactive)
REMARK    1  A    between atoms: C_2  and  C_3 
REMARK    2  A    between atoms: C_5  and  N_6 
REMARK       I    between atoms: N_6  and  C_7 
REMARK    3  A    between atoms: C_7  and  C_8 
REMARK    4  A    between atoms: C_9  and  C_10 
REMARK    5  A    between atoms: C_21  and  O_22 
ROOT
HETATM    1  N   UNL     1      -2.533   3.853 -31.917  1.00  0.00    -0.321 N 
HETATM    2  C   UNL     1      -3.583   3.175 -31.346  1.00  0.00     0.245 C 
HETATM    3  O   UNL     1      -4.556   3.648 -30.774  1.00  0.00    -0.268 OA
HETATM    4  H   UNL     1      -1.860   3.332 -32.469  1.00  0.00     0.169 HD
ENDROOT
BRANCH   1   5
HETATM    5  C   UNL     1      -2.285   5.245 -31.907  1.00  0.00     0.069 A 
HETATM    6  C   UNL     1      -2.138   5.996 -30.736  1.00  0.00     0.040 A 
HETATM    7  C   UNL     1      -1.867   7.380 -30.769  1.00  0.00    -0.048 A 
HETATM    8  C   UNL     1      -1.757   7.984 -32.030  1.00  0.00     0.011 A 
HETATM    9  C   UNL     1      -1.900   7.245 -33.211  1.00  0.00     0.039 A 
HETATM   10  C   UNL     1      -2.159   5.876 -33.159  1.00  0.00     0.095 A 
BRANCH   7  11
HETATM   11  C   UNL     1      -1.685   8.159 -29.453  1.00  0.00    -0.024 C 
HETATM   12  C   UNL     1      -0.218   8.039 -28.986  1.00  0.00     0.019 C 
HETATM   13  C   UNL     1      -2.614   7.583 -28.365  1.00  0.00     0.019 C 
HETATM   14  C   UNL     1      -2.004   9.667 -29.572  1.00  0.00     0.019 C 
ENDBRANCH   7  11
BRANCH  10  15
HETATM   15  O   UNL     1      -2.309   5.057 -34.255  1.00  0.00    -0.354 OA
HETATM   16  C   UNL     1      -3.398   5.341 -35.126  1.00  0.00     0.210 C 
ENDBRANCH  10  15
ENDBRANCH   1   5
BRANCH   2  17
HETATM   17  C   UNL     1      -3.443   1.706 -31.522  1.00  0.00     0.077 C 
HETATM   18  C   UNL     1      -4.121   1.082 -32.498  1.00  0.00     0.038 C 
BRANCH  18  19
HETATM   19  C   UNL     1      -4.068  -0.367 -32.714  1.00  0.00     0.075 A 
HETATM   20  N   UNL     1      -4.911  -0.898 -33.631  1.00  0.00    -0.245 NA
HETATM   21  C   UNL     1      -4.826  -2.228 -33.841  1.00  0.00     0.086 A 
HETATM   22  C   UNL     1      -3.910  -3.036 -33.122  1.00  0.00     0.085 A 
HETATM   23  C   UNL     1      -5.650  -2.823 -34.789  1.00  0.00     0.034 A 
HETATM   24  N   UNL     1      -3.081  -2.505 -32.203  1.00  0.00    -0.256 NA
HETATM   25  C   UNL     1      -3.868  -4.400 -33.380  1.00  0.00     0.034 A 
HETATM   26  C   UNL     1      -3.171  -1.166 -32.019  1.00  0.00     0.148 A 
HETATM   27  C   UNL     1      -4.701  -4.987 -34.334  1.00  0.00     0.002 A 
HETATM   28  C   UNL     1      -5.594  -4.194 -35.043  1.00  0.00     0.002 A 
ENDBRANCH  18  19
ENDBRANCH   2  17
TORSDOF 5
ENDMDL
MODEL 4
REMARK VINA RESULT:      -8.5      1.632      2.318
REMARK  5 active torsions:
REMARK  status: ('A' for Active; 'I' for Inactive)
REMARK    1  A    between atoms: C_2  and  C_3 
REMARK    2  A    between atoms: C_5  and  N_6 
REMARK       I    between atoms: N_6  and  C_7 
REMARK    3  A    between atoms: C_7  and  C_8 
REMARK    4  A    between atoms: C_9  and  C_10 
REMARK    5  A    between atoms: C_21  and  O_22 
ROOT
HETATM    1  N   UNL     1      -3.732   4.491 -32.484  1.00  0.00    -0.321 N 
HETATM    2  C   UNL     1      -3.367   3.239 -32.049  1.00  0.00     0.245 C 
HETATM    3  O   UNL     1      -2.485   2.953 -31.251  1.00  0.00    -0.268 OA
HETATM    4  H   UNL     1      -4.569   4.584 -33.050  1.00  0.00     0.169 HD
ENDROOT
BRANCH   1   5
HETATM    5  C   UNL     1      -3.126   5.731 -32.179  1.00  0.00     0.069 A 
HETATM    6  C   UNL     1      -3.119   6.294 -30.898  1.00  0.00     0.040 A 
HETATM    7  C   UNL     1      -2.482   7.524 -30.630  1.00  0.00    -0.048 A 
HETATM    8  C   UNL     1      -1.858   8.173 -31.705  1.00  0.00     0.011 A 
HETATM    9  C   UNL     1      -1.857   7.622 -32.993  1.00  0.00     0.039 A 
HETATM   10  C   UNL     1      -2.484   6.401 -33.237  1.00  0.00     0.095 A 
BRANCH   7  11
HETATM   11  C   UNL     1      -2.474   8.089 -29.197  1.00  0.00    -0.024 C 
HETATM   12  C   UNL     1      -3.925   8.183 -28.676  1.00  0.00     0.019 C 
HETATM   13  C   UNL     1      -1.838   9.495 -29.187  1.00  0.00     0.019 C 
HETATM   14  C   UNL     1      -1.682   7.225 -28.190  1.00  0.00     0.019 C 
ENDBRANCH   7  11
BRANCH  10  15
HETATM   15  O   UNL     1      -2.535   5.769 -34.459  1.00  0.00    -0.354 OA
HETATM   16  C   UNL     1      -1.299   5.324 -35.006  1.00  0.00     0.210 C 
ENDBRANCH  10  15
ENDBRANCH   1   5
BRANCH   2  17
HETATM   17  C   UNL     1      -4.220   2.183 -32.653  1.00  0.00     0.077 C 
HETATM   18  C   UNL     1      -3.874   0.892 -32.530  1.00  0.00     0.038 C 
BRANCH  18  19
HETATM   19  C   UNL     1      -4.638  -0.207 -33.127  1.00  0.00     0.075 A 
HETATM   20  N   UNL     1      -4.010  -1.395 -33.292  1.00  0.00    -0.245 NA
HETATM   21  C   UNL     1      -4.737  -2.403 -33.813  1.00  0.00     0.086 A 
HETATM   22  C   UNL     1      -6.092  -2.225 -34.189  1.00  0.00     0.085 A 
HETATM   23  C   UNL     1      -4.151  -3.653 -33.980  1.00  0.00     0.034 A 
HETATM   24  N   UNL     1      -6.710  -1.038 -34.035  1.00  0.00    -0.256 NA
HETATM   25  C   UNL     1      -6.792  -3.300 -34.722  1.00  0.00     0.034 A 
HETATM   26  C   UNL     1      -5.966  -0.043 -33.495  1.00  0.00     0.148 A 
HETATM   27  C   UNL     1      -6.191  -4.549 -34.887  1.00  0.00     0.002 A 
HETATM   28  C   UNL     1      -4.866  -4.727 -34.512  1.00  0.00     0.002 A 
ENDBRANCH  18  19
ENDBRANCH   2  17
TORSDOF 5
ENDMDL
MODEL 5
REMARK VINA RESULT:      -8.2      1.897      2.900
REMARK  5 active torsions:
REMARK  status: ('A' for Active; 'I' for Inactive)
REMARK    1  A    between atoms: C_2  and  C_3 
REMARK    2  A    between atoms: C_5  and  N_6 
REMARK       I    between atoms: N_6  and  C_7 
REMARK    3  A    between atoms: C_7  and  C_8 
REMARK    4  A    between atoms: C_9  and  C_10 
REMARK    5  A    between atoms: C_21  and  O_22 
ROOT
HETATM    1  N   UNL     1      -2.736   4.925 -31.176  1.00  0.00    -0.321 N 
HETATM    2  C   UNL     1      -4.062   5.166 -30.909  1.00  0.00     0.245 C 
HETATM    3  O   UNL     1      -4.554   6.164 -30.399  1.00  0.00    -0.268 OA
HETATM    4  H   UNL     1      -2.490   4.105 -31.720  1.00  0.00     0.169 HD
ENDROOT
BRANCH   1   5
HETATM    5  C   UNL     1      -1.621   5.732 -30.851  1.00  0.00     0.069 A 
HETATM    6  C   UNL     1      -1.405   6.278 -29.581  1.00  0.00     0.040 A 
HETATM    7  C   UNL     1      -0.266   7.058 -29.291  1.00  0.00    -0.048 A 
HETATM    8  C   UNL     1       0.647   7.277 -30.333  1.00  0.00     0.011 A 
HETATM    9  C   UNL     1       0.445   6.736 -31.609  1.00  0.00     0.039 A 
HETATM   10  C   UNL     1      -0.682   5.959 -31.875  1.00  0.00     0.095 A 
BRANCH   7  11
HETATM   11  C   UNL     1      -0.057   7.614 -27.869  1.00  0.00    -0.024 C 
HETATM   12  C   UNL     1      -0.362   6.507 -26.837  1.00  0.00     0.019 C 
HETATM   13  C   UNL     1      -1.000   8.811 -27.626  1.00  0.00     0.019 C 
HETATM   14  C   UNL     1       1.383   8.106 -27.599  1.00  0.00     0.019 C 
ENDBRANCH   7  11
BRANCH  10  15
HETATM   15  O   UNL     1      -0.972   5.376 -33.087  1.00  0.00    -0.354 OA
HETATM   16  C   UNL     1      -1.234   6.252 -34.177  1.00  0.00     0.210 C 
ENDBRANCH  10  15
ENDBRANCH   1   5
BRANCH   2  17
HETATM   17  C   UNL     1      -4.920   4.037 -31.355  1.00  0.00     0.077 C 
HETATM   18  C   UNL     1      -4.386   3.032 -32.066  1.00  0.00     0.038 C 
BRANCH  18  19
HETATM   19  C   UNL     1      -5.170   1.903 -32.576  1.00  0.00     0.075 A 
HETATM   20  N   UNL     1      -4.496   0.798 -32.975  1.00  0.00    -0.245 NA
HETATM   21  C   UNL     1      -5.234  -0.244 -33.410  1.00  0.00     0.086 A 
HETATM   22  C   UNL     1      -6.649  -0.179 -33.466  1.00  0.00     0.085 A 
HETATM   23  C   UNL     1      -4.597  -1.413 -33.808  1.00  0.00     0.034 A 
HETATM   24  N   UNL     1      -7.314   0.926 -33.080  1.00  0.00    -0.256 NA
HETATM   25  C   UNL     1      -7.357  -1.283 -33.925  1.00  0.00     0.034 A 
HETATM   26  C   UNL     1      -6.555   1.954 -32.631  1.00  0.00     0.148 A 
HETATM   27  C   UNL     1      -6.705  -2.451 -34.323  1.00  0.00     0.002 A 
HETATM   28  C   UNL     1      -5.319  -2.518 -34.262  1.00  0.00     0.002 A 
ENDBRANCH  18  19
ENDBRANCH   2  17
TORSDOF 5
ENDMDL
MODEL 6
REMARK VINA RESULT:      -8.2      2.322      3.493
REMARK  5 active torsions:
REMARK  status: ('A' for Active; 'I' for Inactive)
REMARK    1  A    between atoms: C_2  and  C_3 
REMARK    2  A    between atoms: C_5  and  N_6 
REMARK       I    between atoms: N_6  and  C_7 
REMARK    3  A    between atoms: C_7  and  C_8 
REMARK    4  A    between atoms: C_9  and  C_10 
REMARK    5  A    between atoms: C_21  and  O_22 
ROOT
HETATM    1  N   UNL     1      -2.719   5.857 -31.003  1.00  0.00    -0.321 N 
HETATM    2  C   UNL     1      -2.005   4.809 -31.533  1.00  0.00     0.245 C 
HETATM    3  O   UNL     1      -0.813   4.570 -31.395  1.00  0.00    -0.268 OA
HETATM    4  H   UNL     1      -3.729   5.855 -31.098  1.00  0.00     0.169 HD
ENDROOT
BRANCH   1   5
HETATM    5  C   UNL     1      -2.234   6.948 -30.246  1.00  0.00     0.069 A 
HETATM    6  C   UNL     1      -1.225   6.832 -29.283  1.00  0.00     0.040 A 
HETATM    7  C   UNL     1      -0.752   7.951 -28.564  1.00  0.00    -0.048 A 
HETATM    8  C   UNL     1      -1.340   9.193 -28.846  1.00  0.00     0.011 A 
HETATM    9  C   UNL     1      -2.350   9.323 -29.807  1.00  0.00     0.039 A 
HETATM   10  C   UNL     1      -2.799   8.208 -30.514  1.00  0.00     0.095 A 
BRANCH   7  11
HETATM   11  C   UNL     1       0.381   7.779 -27.535  1.00  0.00    -0.024 C 
HETATM   12  C   UNL     1       0.892   6.323 -27.574  1.00  0.00     0.019 C 
HETATM   13  C   UNL     1      -0.140   8.098 -26.118  1.00  0.00     0.019 C 
HETATM   14  C   UNL     1       1.598   8.698 -27.789  1.00  0.00     0.019 C 
ENDBRANCH   7  11
BRANCH  10  15
HETATM   15  O   UNL     1      -3.777   8.227 -31.482  1.00  0.00    -0.354 OA
HETATM   16  C   UNL     1      -5.079   8.627 -31.074  1.00  0.00     0.210 C 
ENDBRANCH  10  15
ENDBRANCH   1   5
BRANCH   2  17
HETATM   17  C   UNL     1      -2.877   3.902 -32.325  1.00  0.00     0.077 C 
HETATM   18  C   UNL     1      -3.428   2.826 -31.742  1.00  0.00     0.038 C 
BRANCH  18  19
HETATM   19  C   UNL     1      -4.267   1.863 -32.460  1.00  0.00     0.075 A 
HETATM   20  N   UNL     1      -3.783   0.610 -32.631  1.00  0.00    -0.245 NA
HETATM   21  C   UNL     1      -4.581  -0.272 -33.265  1.00  0.00     0.086 A 
HETATM   22  C   UNL     1      -5.861   0.099 -33.749  1.00  0.00     0.085 A 
HETATM   23  C   UNL     1      -4.146  -1.580 -33.445  1.00  0.00     0.034 A 
HETATM   24  N   UNL     1      -6.334   1.349 -33.588  1.00  0.00    -0.256 NA
HETATM   25  C   UNL     1      -6.639  -0.853 -34.397  1.00  0.00     0.034 A 
HETATM   26  C   UNL     1      -5.523   2.215 -32.934  1.00  0.00     0.148 A 
HETATM   27  C   UNL     1      -6.190  -2.163 -34.572  1.00  0.00     0.002 A 
HETATM   28  C   UNL     1      -4.940  -2.529 -34.092  1.00  0.00     0.002 A 
ENDBRANCH  18  19
ENDBRANCH   2  17
TORSDOF 5
ENDMDL
MODEL 7
REMARK VINA RESULT:      -8.1      2.351      3.849
REMARK  5 active torsions:
REMARK  status: ('A' for Active; 'I' for Inactive)
REMARK    1  A    between atoms: C_2  and  C_3 
REMARK    2  A    between atoms: C_5  and  N_6 
REMARK       I    between atoms: N_6  and  C_7 
REMARK    3  A    between atoms: C_7  and  C_8 
REMARK    4  A    between atoms: C_9  and  C_10 
REMARK    5  A    between atoms: C_21  and  O_22 
ROOT
HETATM    1  N   UNL     1      -1.920   5.143 -30.972  1.00  0.00    -0.321 N 
HETATM    2  C   UNL     1      -1.854   5.020 -32.339  1.00  0.00     0.245 C 
HETATM    3  O   UNL     1      -1.218   5.713 -33.122  1.00  0.00    -0.268 OA
HETATM    4  H   UNL     1      -2.387   4.415 -30.440  1.00  0.00     0.169 HD
ENDROOT
BRANCH   1   5
HETATM    5  C   UNL     1      -1.341   6.142 -30.156  1.00  0.00     0.069 A 
HETATM    6  C   UNL     1      -1.966   7.360 -29.864  1.00  0.00     0.040 A 
HETATM    7  C   UNL     1      -1.364   8.321 -29.026  1.00  0.00    -0.048 A 
HETATM    8  C   UNL     1      -0.102   8.015 -28.497  1.00  0.00     0.011 A 
HETATM    9  C   UNL     1       0.535   6.800 -28.780  1.00  0.00     0.039 A 
HETATM   10  C   UNL     1      -0.079   5.857 -29.603  1.00  0.00     0.095 A 
BRANCH   7  11
HETATM   11  C   UNL     1      -2.103   9.635 -28.710  1.00  0.00    -0.024 C 
HETATM   12  C   UNL     1      -3.454   9.313 -28.034  1.00  0.00     0.019 C 
HETATM   13  C   UNL     1      -2.360  10.423 -30.011  1.00  0.00     0.019 C 
HETATM   14  C   UNL     1      -1.327  10.572 -27.756  1.00  0.00     0.019 C 
ENDBRANCH   7  11
BRANCH  10  15
HETATM   15  O   UNL     1       0.454   4.633 -29.938  1.00  0.00    -0.354 OA
HETATM   16  C   UNL     1       1.560   4.635 -30.833  1.00  0.00     0.210 C 
ENDBRANCH  10  15
ENDBRANCH   1   5
BRANCH   2  17
HETATM   17  C   UNL     1      -2.658   3.866 -32.822  1.00  0.00     0.077 C 
HETATM   18  C   UNL     1      -3.254   3.051 -31.938  1.00  0.00     0.038 C 
BRANCH  18  19
HETATM   19  C   UNL     1      -4.030   1.871 -32.330  1.00  0.00     0.075 A 
HETATM   20  N   UNL     1      -5.063   2.053 -33.187  1.00  0.00    -0.245 NA
HETATM   21  C   UNL     1      -5.746   0.953 -33.563  1.00  0.00     0.086 A 
HETATM   22  C   UNL     1      -5.412  -0.333 -33.069  1.00  0.00     0.085 A 
HETATM   23  C   UNL     1      -6.799   1.077 -34.461  1.00  0.00     0.034 A 
HETATM   24  N   UNL     1      -4.392  -0.508 -32.208  1.00  0.00    -0.256 NA
HETATM   25  C   UNL     1      -6.152  -1.431 -33.490  1.00  0.00     0.034 A 
HETATM   26  C   UNL     1      -3.709   0.607 -31.856  1.00  0.00     0.148 A 
HETATM   27  C   UNL     1      -7.209  -1.293 -34.392  1.00  0.00     0.002 A 
HETATM   28  C   UNL     1      -7.532  -0.034 -34.882  1.00  0.00     0.002 A 
ENDBRANCH  18  19
ENDBRANCH   2  17
TORSDOF 5
ENDMDL
MODEL 8
REMARK VINA RESULT:      -8.0      2.259      3.556
REMARK  5 active torsions:
REMARK  status: ('A' for Active; 'I' for Inactive)
REMARK    1  A    between atoms: C_2  and  C_3 
REMARK    2  A    between atoms: C_5  and  N_6 
REMARK       I    between atoms: N_6  and  C_7 
REMARK    3  A    between atoms: C_7  and  C_8 
REMARK    4  A    between atoms: C_9  and  C_10 
REMARK    5  A    between atoms: C_21  and  O_22 
ROOT
HETATM    1  N   UNL     1      -4.957   3.666 -32.565  1.00  0.00    -0.321 N 
HETATM    2  C   UNL     1      -5.857   3.684 -33.603  1.00  0.00     0.245 C 
HETATM    3  O   UNL     1      -6.386   4.661 -34.117  1.00  0.00    -0.268 OA
HETATM    4  H   UNL     1      -4.504   2.790 -32.329  1.00  0.00     0.169 HD
ENDROOT
BRANCH   1   5
HETATM    5  C   UNL     1      -4.494   4.756 -31.793  1.00  0.00     0.069 A 
HETATM    6  C   UNL     1      -3.419   5.570 -32.169  1.00  0.00     0.040 A 
HETATM    7  C   UNL     1      -3.003   6.663 -31.382  1.00  0.00    -0.048 A 
HETATM    8  C   UNL     1      -3.705   6.905 -30.192  1.00  0.00     0.011 A 
HETATM    9  C   UNL     1      -4.783   6.100 -29.802  1.00  0.00     0.039 A 
HETATM   10  C   UNL     1      -5.187   5.028 -30.598  1.00  0.00     0.095 A 
BRANCH   7  11
HETATM   11  C   UNL     1      -1.833   7.548 -31.852  1.00  0.00    -0.024 C 
HETATM   12  C   UNL     1      -2.076   9.003 -31.397  1.00  0.00     0.019 C 
HETATM   13  C   UNL     1      -1.726   7.508 -33.391  1.00  0.00     0.019 C 
HETATM   14  C   UNL     1      -0.460   7.116 -31.289  1.00  0.00     0.019 C 
ENDBRANCH   7  11
BRANCH  10  15
HETATM   15  O   UNL     1      -6.234   4.182 -30.313  1.00  0.00    -0.354 OA
HETATM   16  C   UNL     1      -7.449   4.784 -29.881  1.00  0.00     0.210 C 
ENDBRANCH  10  15
ENDBRANCH   1   5
BRANCH   2  17
HETATM   17  C   UNL     1      -6.131   2.314 -34.109  1.00  0.00     0.077 C 
HETATM   18  C   UNL     1      -5.731   1.247 -33.400  1.00  0.00     0.038 C 
BRANCH  18  19
HETATM   19  C   UNL     1      -5.928  -0.135 -33.847  1.00  0.00     0.075 A 
HETATM   20  N   UNL     1      -4.922  -1.016 -33.635  1.00  0.00    -0.245 NA
HETATM   21  C   UNL     1      -5.133  -2.290 -34.022  1.00  0.00     0.086 A 
HETATM   22  C   UNL     1      -6.345  -2.687 -34.641  1.00  0.00     0.085 A 
HETATM   23  C   UNL     1      -4.144  -3.242 -33.805  1.00  0.00     0.034 A 
HETATM   24  N   UNL     1      -7.339  -1.806 -34.861  1.00  0.00    -0.256 NA
HETATM   25  C   UNL     1      -6.505  -4.013 -35.020  1.00  0.00     0.034 A 
HETATM   26  C   UNL     1      -7.113  -0.535 -34.449  1.00  0.00     0.148 A 
HETATM   27  C   UNL     1      -5.504  -4.960 -34.798  1.00  0.00     0.002 A 
HETATM   28  C   UNL     1      -4.319  -4.573 -34.185  1.00  0.00     0.002 A 
ENDBRANCH  18  19
ENDBRANCH   2  17
TORSDOF 5
ENDMDL
MODEL 9
REMARK VINA RESULT:      -7.9      7.040     10.349
REMARK  5 active torsions:
REMARK  status: ('A' for Active; 'I' for Inactive)
REMARK    1  A    between atoms: C_2  and  C_3 
REMARK    2  A    between atoms: C_5  and  N_6 
REMARK       I    between atoms: N_6  and  C_7 
REMARK    3  A    between atoms: C_7  and  C_8 
REMARK    4  A    between atoms: C_9  and  C_10 
REMARK    5  A    between atoms: C_21  and  O_22 
ROOT
HETATM    1  N   UNL     1      -8.435   0.111 -32.969  1.00  0.00    -0.321 N 
HETATM    2  C   UNL     1      -8.931   1.163 -33.700  1.00  0.00     0.245 C 
HETATM    3  O   UNL     1      -8.398   1.738 -34.640  1.00  0.00    -0.268 OA
HETATM    4  H   UNL     1      -9.045  -0.348 -32.301  1.00  0.00     0.169 HD
ENDROOT
BRANCH   1   5
HETATM    5  C   UNL     1      -7.164  -0.500 -33.072  1.00  0.00     0.069 A 
HETATM    6  C   UNL     1      -6.928  -1.679 -33.789  1.00  0.00     0.040 A 
HETATM    7  C   UNL     1      -5.640  -2.244 -33.887  1.00  0.00    -0.048 A 
HETATM    8  C   UNL     1      -4.594  -1.581 -33.228  1.00  0.00     0.011 A 
HETATM    9  C   UNL     1      -4.814  -0.400 -32.508  1.00  0.00     0.039 A 
HETATM   10  C   UNL     1      -6.093   0.149 -32.429  1.00  0.00     0.095 A 
BRANCH   7  11
HETATM   11  C   UNL     1      -5.424  -3.527 -34.712  1.00  0.00    -0.024 C 
HETATM   12  C   UNL     1      -4.927  -3.150 -36.125  1.00  0.00     0.019 C 
HETATM   13  C   UNL     1      -6.749  -4.308 -34.830  1.00  0.00     0.019 C 
HETATM   14  C   UNL     1      -4.380  -4.491 -34.103  1.00  0.00     0.019 C 
ENDBRANCH   7  11
BRANCH  10  15
HETATM   15  O   UNL     1      -6.417   1.305 -31.756  1.00  0.00    -0.354 OA
HETATM   16  C   UNL     1      -5.737   2.491 -32.150  1.00  0.00     0.210 C 
ENDBRANCH  10  15
ENDBRANCH   1   5
BRANCH   2  17
HETATM   17  C   UNL     1     -10.289   1.554 -33.238  1.00  0.00     0.077 C 
HETATM   18  C   UNL     1     -11.374   1.026 -33.828  1.00  0.00     0.038 C 
BRANCH  18  19
HETATM   19  C   UNL     1     -12.745   1.387 -33.458  1.00  0.00     0.075 A 
HETATM   20  N   UNL     1     -12.951   2.612 -32.919  1.00  0.00    -0.245 NA
HETATM   21  C   UNL     1     -14.223   2.941 -32.615  1.00  0.00     0.086 A 
HETATM   22  C   UNL     1     -15.294   2.039 -32.832  1.00  0.00     0.085 A 
HETATM   23  C   UNL     1     -14.495   4.196 -32.083  1.00  0.00     0.034 A 
HETATM   24  N   UNL     1     -15.084   0.817 -33.357  1.00  0.00    -0.256 NA
HETATM   25  C   UNL     1     -16.584   2.431 -32.498  1.00  0.00     0.034 A 
HETATM   26  C   UNL     1     -13.802   0.513 -33.671  1.00  0.00     0.148 A 
HETATM   27  C   UNL     1     -16.845   3.694 -31.964  1.00  0.00     0.002 A 
HETATM   28  C   UNL     1     -15.797   4.581 -31.757  1.00  0.00     0.002 A 
ENDBRANCH  18  19
ENDBRANCH   2  17
TORSDOF 5
ENDMDL
MODEL 10
REMARK VINA RESULT:      -7.8      1.718      2.361
REMARK  5 active torsions:
REMARK  status: ('A' for Active; 'I' for Inactive)
REMARK    1  A    between atoms: C_2  and  C_3 
REMARK    2  A    between atoms: C_5  and  N_6 
REMARK       I    between atoms: N_6  and  C_7 
REMARK    3  A    between atoms: C_7  and  C_8 
REMARK    4  A    between atoms: C_9  and  C_10 
REMARK    5  A    between atoms: C_21  and  O_22 
ROOT
HETATM    1  N   UNL     1      -2.600   5.050 -31.201  1.00  0.00    -0.321 N 
HETATM    2  C   UNL     1      -3.790   4.365 -31.170  1.00  0.00     0.245 C 
HETATM    3  O   UNL     1      -4.886   4.785 -30.823  1.00  0.00    -0.268 OA
HETATM    4  H   UNL     1      -1.795   4.609 -31.634  1.00  0.00     0.169 HD
ENDROOT
BRANCH   1   5
HETATM    5  C   UNL     1      -2.342   6.371 -30.766  1.00  0.00     0.069 A 
HETATM    6  C   UNL     1      -1.902   6.688 -29.476  1.00  0.00     0.040 A 
HETATM    7  C   UNL     1      -1.633   8.017 -29.089  1.00  0.00    -0.048 A 
HETATM    8  C   UNL     1      -1.830   9.020 -30.048  1.00  0.00     0.011 A 
HETATM    9  C   UNL     1      -2.269   8.718 -31.344  1.00  0.00     0.039 A 
HETATM   10  C   UNL     1      -2.522   7.397 -31.712  1.00  0.00     0.095 A 
BRANCH   7  11
HETATM   11  C   UNL     1      -1.123   8.314 -27.666  1.00  0.00    -0.024 C 
HETATM   12  C   UNL     1      -2.023   7.594 -26.638  1.00  0.00     0.019 C 
HETATM   13  C   UNL     1      -1.158   9.833 -27.398  1.00  0.00     0.019 C 
HETATM   14  C   UNL     1       0.327   7.841 -27.412  1.00  0.00     0.019 C 
ENDBRANCH   7  11
BRANCH  10  15
HETATM   15  O   UNL     1      -2.947   6.991 -32.957  1.00  0.00    -0.354 OA
HETATM   16  C   UNL     1      -2.032   7.152 -34.034  1.00  0.00     0.210 C 
ENDBRANCH  10  15
ENDBRANCH   1   5
BRANCH   2  17
HETATM   17  C   UNL     1      -3.628   2.970 -31.658  1.00  0.00     0.077 C 
HETATM   18  C   UNL     1      -4.692   2.298 -32.125  1.00  0.00     0.038 C 
BRANCH  18  19
HETATM   19  C   UNL     1      -4.625   0.909 -32.589  1.00  0.00     0.075 A 
HETATM   20  N   UNL     1      -5.701   0.410 -33.242  1.00  0.00    -0.245 NA
HETATM   21  C   UNL     1      -5.610  -0.858 -33.690  1.00  0.00     0.086 A 
HETATM   22  C   UNL     1      -4.449  -1.641 -33.472  1.00  0.00     0.085 A 
HETATM   23  C   UNL     1      -6.675  -1.413 -34.390  1.00  0.00     0.034 A 
HETATM   24  N   UNL     1      -3.385  -1.145 -32.811  1.00  0.00    -0.256 NA
HETATM   25  C   UNL     1      -4.412  -2.943 -33.955  1.00  0.00     0.034 A 
HETATM   26  C   UNL     1      -3.491   0.136 -32.384  1.00  0.00     0.148 A 
HETATM   27  C   UNL     1      -5.489  -3.489 -34.656  1.00  0.00     0.002 A 
HETATM   28  C   UNL     1      -6.624  -2.720 -34.876  1.00  0.00     0.002 A 
ENDBRANCH  18  19
ENDBRANCH   2  17
TORSDOF 5
ENDMDL
