MODEL 1
REMARK VINA RESULT:      -8.7      0.000      0.000
REMARK  9 active torsions:
REMARK  status: ('A' for Active; 'I' for Inactive)
REMARK    1  A    between atoms: C_2  and  O_3 
REMARK    2  A    between atoms: O_3  and  C_4 
REMARK    3  A    between atoms: C_5  and  C_6 
REMARK    4  A    between atoms: N_7  and  C_9 
REMARK    5  A    between atoms: C_9  and  C_10 
REMARK       I    between atoms: C_10  and  N_11 
REMARK    6  A    between atoms: N_11  and  C_12 
REMARK    7  A    between atoms: C_20  and  C_21 
REMARK    8  A    between atoms: C_21  and  O_22 
REMARK    9  A    between atoms: C_28  and  O_29 
ROOT
HETATM    1  C   UNL     1      -4.309   6.113 -31.330  1.00  0.00     0.231 C 
HETATM    2  N   UNL     1      -5.019   4.843 -30.830  1.00  0.00    -0.054 N 
HETATM    3  H   UNL     1      -5.629   4.674 -31.648  1.00  0.00     0.281 HD
HETATM    4  C   UNL     1      -5.936   5.059 -29.670  1.00  0.00     0.239 C 
HETATM    5  C   UNL     1      -5.201   5.728 -28.524  1.00  0.00     0.066 C 
HETATM    6  C   UNL     1      -4.648   7.075 -28.981  1.00  0.00     0.065 C 
HETATM    7  C   UNL     1      -3.649   6.874 -30.147  1.00  0.00     0.055 C 
HETATM    8  C   UNL     1      -3.982   7.829 -27.818  1.00  0.00     0.038 C 
HETATM    9  C   UNL     1      -3.430   9.182 -28.264  1.00  0.00     0.003 C 
HETATM   10  C   UNL     1      -2.488   9.036 -29.452  1.00  0.00     0.001 C 
HETATM   11  C   UNL     1      -3.122   8.259 -30.602  1.00  0.00     0.010 C 
ENDROOT
BRANCH   2  12
HETATM   12  C   UNL     1      -4.170   3.560 -30.732  1.00  0.00     0.338 C 
BRANCH  12  13
HETATM   13  C   UNL     1      -5.007   2.301 -31.027  1.00  0.00     0.248 C 
HETATM   14  N   UNL     1      -4.821   1.875 -32.339  1.00  0.00    -0.319 N 
HETATM   15  H   UNL     1      -4.477   2.535 -33.030  1.00  0.00     0.169 HD
HETATM   16  O   UNL     1      -5.713   1.799 -30.164  1.00  0.00    -0.271 OA
BRANCH  14  17
HETATM   17  C   UNL     1      -5.067   0.613 -32.861  1.00  0.00     0.094 A 
HETATM   18  S   UNL     1      -3.843  -0.563 -32.909  1.00  0.00    -0.075 SA
HETATM   19  C   UNL     1      -4.850  -1.681 -33.684  1.00  0.00    -0.008 A 
HETATM   20  C   UNL     1      -6.126  -1.194 -33.890  1.00  0.00    -0.026 A 
HETATM   21  C   UNL     1      -4.370  -3.045 -34.078  1.00  0.00     0.047 C 
HETATM   22  C   UNL     1      -7.180  -2.017 -34.584  1.00  0.00     0.041 C 
HETATM   23  C   UNL     1      -6.255   0.179 -33.443  1.00  0.00     0.080 A 
HETATM   24  C   UNL     1      -6.779  -3.493 -34.722  1.00  0.00     0.005 C 
HETATM   25  C   UNL     1      -5.311  -3.653 -35.130  1.00  0.00     0.005 C 
BRANCH  23  26
HETATM   26  C   UNL     1      -7.459   0.997 -33.634  1.00  0.00     0.296 C 
HETATM   27  O   UNL     1      -7.901   1.297 -34.734  1.00  0.00    -0.259 OA
BRANCH  26  28
HETATM   28  O   UNL     1      -8.003   1.441 -32.451  1.00  0.00    -0.322 OA
HETATM   29  C   UNL     1      -8.901   0.522 -31.808  1.00  0.00     0.213 C 
ENDBRANCH  26  28
ENDBRANCH  23  26
ENDBRANCH  14  17
ENDBRANCH  12  13
ENDBRANCH   2  12
BRANCH   1  30
HETATM   30  C   UNL     1      -3.447   5.795 -32.548  1.00  0.00     0.006 A 
HETATM   31  C   UNL     1      -4.070   5.625 -33.803  1.00  0.00     0.077 A 
HETATM   32  C   UNL     1      -3.312   5.272 -34.925  1.00  0.00     0.037 A 
HETATM   33  C   UNL     1      -1.933   5.098 -34.814  1.00  0.00     0.003 A 
HETATM   34  C   UNL     1      -1.306   5.257 -33.585  1.00  0.00     0.001 A 
HETATM   35  C   UNL     1      -2.056   5.594 -32.458  1.00  0.00     0.012 A 
BRANCH  31  36
HETATM   36  O   UNL     1      -5.439   5.755 -33.810  1.00  0.00    -0.351 OA
BRANCH  36  37
HETATM   37  C   UNL     1      -6.178   4.549 -34.051  1.00  0.00     0.171 C 
HETATM   38  C   UNL     1      -7.625   4.811 -33.676  1.00  0.00     0.034 C 
ENDBRANCH  36  37
ENDBRANCH  31  36
ENDBRANCH   1  30
BRANCH   6  39
HETATM   39  O   UNL     1      -5.765   7.836 -29.461  1.00  0.00    -0.389 OA
HETATM   40  H   UNL     1      -6.566   7.594 -28.954  1.00  0.00     0.210 HD
ENDBRANCH   6  39
TORSDOF 9
ENDMDL
MODEL 2
REMARK VINA RESULT:      -8.6      2.808      8.222
REMARK  9 active torsions:
REMARK  status: ('A' for Active; 'I' for Inactive)
REMARK    1  A    between atoms: C_2  and  O_3 
REMARK    2  A    between atoms: O_3  and  C_4 
REMARK    3  A    between atoms: C_5  and  C_6 
REMARK    4  A    between atoms: N_7  and  C_9 
REMARK    5  A    between atoms: C_9  and  C_10 
REMARK       I    between atoms: C_10  and  N_11 
REMARK    6  A    between atoms: N_11  and  C_12 
REMARK    7  A    between atoms: C_20  and  C_21 
REMARK    8  A    between atoms: C_21  and  O_22 
REMARK    9  A    between atoms: C_28  and  O_29 
ROOT
HETATM    1  C   UNL     1      -9.001   1.918 -32.972  1.00  0.00     0.231 C 
HETATM    2  N   UNL     1      -8.175   3.140 -32.535  1.00  0.00    -0.054 N 
HETATM    3  H   UNL     1      -7.672   2.711 -31.740  1.00  0.00     0.281 HD
HETATM    4  C   UNL     1      -8.979   4.261 -31.959  1.00  0.00     0.239 C 
HETATM    5  C   UNL     1     -10.069   4.688 -32.923  1.00  0.00     0.066 C 
HETATM    6  C   UNL     1     -10.993   3.508 -33.216  1.00  0.00     0.065 C 
HETATM    7  C   UNL     1     -10.193   2.353 -33.868  1.00  0.00     0.055 C 
HETATM    8  C   UNL     1     -12.169   3.930 -34.112  1.00  0.00     0.038 C 
HETATM    9  C   UNL     1     -13.103   2.757 -34.406  1.00  0.00     0.003 C 
HETATM   10  C   UNL     1     -12.345   1.573 -34.993  1.00  0.00     0.001 C 
HETATM   11  C   UNL     1     -11.152   1.165 -34.133  1.00  0.00     0.010 C 
ENDROOT
BRANCH   2  12
HETATM   12  C   UNL     1      -7.046   3.597 -33.481  1.00  0.00     0.338 C 
BRANCH  12  13
HETATM   13  C   UNL     1      -6.270   4.794 -32.902  1.00  0.00     0.248 C 
HETATM   14  N   UNL     1      -5.472   4.401 -31.832  1.00  0.00    -0.319 N 
HETATM   15  H   UNL     1      -5.696   3.543 -31.337  1.00  0.00     0.169 HD
HETATM   16  O   UNL     1      -6.389   5.912 -33.383  1.00  0.00    -0.271 OA
BRANCH  14  17
HETATM   17  C   UNL     1      -4.367   5.060 -31.313  1.00  0.00     0.094 A 
HETATM   18  S   UNL     1      -4.544   6.231 -30.096  1.00  0.00    -0.075 SA
HETATM   19  C   UNL     1      -2.884   6.566 -30.079  1.00  0.00    -0.008 A 
HETATM   20  C   UNL     1      -2.174   5.780 -30.966  1.00  0.00    -0.026 A 
HETATM   21  C   UNL     1      -2.290   7.603 -29.175  1.00  0.00     0.047 C 
HETATM   22  C   UNL     1      -0.683   5.928 -31.129  1.00  0.00     0.041 C 
HETATM   23  C   UNL     1      -3.047   4.913 -31.732  1.00  0.00     0.080 A 
HETATM   24  C   UNL     1      -0.050   6.771 -30.013  1.00  0.00     0.005 C 
HETATM   25  C   UNL     1      -0.895   8.004 -29.675  1.00  0.00     0.005 C 
BRANCH  23  26
HETATM   26  C   UNL     1      -2.592   4.048 -32.828  1.00  0.00     0.296 C 
HETATM   27  O   UNL     1      -2.651   2.828 -32.792  1.00  0.00    -0.259 OA
BRANCH  26  28
HETATM   28  O   UNL     1      -2.038   4.750 -33.874  1.00  0.00    -0.322 OA
HETATM   29  C   UNL     1      -2.981   5.334 -34.786  1.00  0.00     0.213 C 
ENDBRANCH  26  28
ENDBRANCH  23  26
ENDBRANCH  14  17
ENDBRANCH  12  13
ENDBRANCH   2  12
BRANCH   1  30
HETATM   30  C   UNL     1      -8.082   0.814 -33.489  1.00  0.00     0.006 A 
HETATM   31  C   UNL     1      -7.349   0.043 -32.561  1.00  0.00     0.077 A 
HETATM   32  C   UNL     1      -6.453  -0.934 -33.008  1.00  0.00     0.037 A 
HETATM   33  C   UNL     1      -6.287  -1.162 -34.373  1.00  0.00     0.003 A 
HETATM   34  C   UNL     1      -6.998  -0.408 -35.298  1.00  0.00     0.001 A 
HETATM   35  C   UNL     1      -7.882   0.578 -34.862  1.00  0.00     0.012 A 
BRANCH  31  36
HETATM   36  O   UNL     1      -7.527   0.375 -31.239  1.00  0.00    -0.351 OA
BRANCH  36  37
HETATM   37  C   UNL     1      -6.439   0.052 -30.363  1.00  0.00     0.171 C 
HETATM   38  C   UNL     1      -5.717   1.344 -30.025  1.00  0.00     0.034 C 
ENDBRANCH  36  37
ENDBRANCH  31  36
ENDBRANCH   1  30
BRANCH   6  39
HETATM   39  O   UNL     1     -11.497   3.059 -31.951  1.00  0.00    -0.389 OA
HETATM   40  H   UNL     1     -11.744   3.832 -31.405  1.00  0.00     0.210 HD
ENDBRANCH   6  39
TORSDOF 9
ENDMDL
MODEL 3
REMARK VINA RESULT:      -8.5      2.608      8.001
REMARK  9 active torsions:
REMARK  status: ('A' for Active; 'I' for Inactive)
REMARK    1  A    between atoms: C_2  and  O_3 
REMARK    2  A    between atoms: O_3  and  C_4 
REMARK    3  A    between atoms: C_5  and  C_6 
REMARK    4  A    between atoms: N_7  and  C_9 
REMARK    5  A    between atoms: C_9  and  C_10 
REMARK       I    between atoms: C_10  and  N_11 
REMARK    6  A    between atoms: N_11  and  C_12 
REMARK    7  A    between atoms: C_20  and  C_21 
REMARK    8  A    between atoms: C_21  and  O_22 
REMARK    9  A    between atoms: C_28  and  O_29 
ROOT
HETATM    1  C   UNL     1      -8.914   1.890 -33.053  1.00  0.00     0.231 C 
HETATM    2  N   UNL     1      -8.039   3.117 -32.743  1.00  0.00    -0.054 N 
HETATM    3  H   UNL     1      -7.477   2.716 -31.974  1.00  0.00     0.281 HD
HETATM    4  C   UNL     1      -8.778   4.275 -32.153  1.00  0.00     0.239 C 
HETATM    5  C   UNL     1      -9.941   4.677 -33.041  1.00  0.00     0.066 C 
HETATM    6  C   UNL     1     -10.900   3.500 -33.201  1.00  0.00     0.065 C 
HETATM    7  C   UNL     1     -10.173   2.305 -33.865  1.00  0.00     0.055 C 
HETATM    8  C   UNL     1     -12.143   3.901 -34.013  1.00  0.00     0.038 C 
HETATM    9  C   UNL     1     -13.113   2.731 -34.175  1.00  0.00     0.003 C 
HETATM   10  C   UNL     1     -12.422   1.510 -34.769  1.00  0.00     0.001 C 
HETATM   11  C   UNL     1     -11.165   1.122 -33.994  1.00  0.00     0.010 C 
ENDROOT
BRANCH   2  12
HETATM   12  C   UNL     1      -6.989   3.513 -33.800  1.00  0.00     0.338 C 
BRANCH  12  13
HETATM   13  C   UNL     1      -5.558   3.431 -33.238  1.00  0.00     0.248 C 
HETATM   14  N   UNL     1      -4.905   4.654 -33.352  1.00  0.00    -0.319 N 
HETATM   15  H   UNL     1      -5.237   5.331 -34.033  1.00  0.00     0.169 HD
HETATM   16  O   UNL     1      -5.129   2.389 -32.763  1.00  0.00    -0.271 OA
BRANCH  14  17
HETATM   17  C   UNL     1      -3.799   5.094 -32.638  1.00  0.00     0.094 A 
HETATM   18  S   UNL     1      -2.247   4.504 -32.990  1.00  0.00    -0.075 SA
HETATM   19  C   UNL     1      -1.545   5.404 -31.740  1.00  0.00    -0.008 A 
HETATM   20  C   UNL     1      -2.465   6.181 -31.063  1.00  0.00    -0.026 A 
HETATM   21  C   UNL     1      -0.078   5.343 -31.441  1.00  0.00     0.047 C 
HETATM   22  C   UNL     1      -2.059   7.046 -29.897  1.00  0.00     0.041 C 
HETATM   23  C   UNL     1      -3.811   5.974 -31.560  1.00  0.00     0.080 A 
HETATM   24  C   UNL     1      -0.536   7.202 -29.782  1.00  0.00     0.005 C 
HETATM   25  C   UNL     1       0.197   5.879 -30.027  1.00  0.00     0.005 C 
BRANCH  23  26
HETATM   26  C   UNL     1      -5.010   6.576 -30.963  1.00  0.00     0.296 C 
HETATM   27  O   UNL     1      -5.139   7.777 -30.777  1.00  0.00    -0.259 OA
BRANCH  26  28
HETATM   28  O   UNL     1      -5.947   5.644 -30.580  1.00  0.00    -0.322 OA
HETATM   29  C   UNL     1      -5.626   4.907 -29.390  1.00  0.00     0.213 C 
ENDBRANCH  26  28
ENDBRANCH  23  26
ENDBRANCH  14  17
ENDBRANCH  12  13
ENDBRANCH   2  12
BRANCH   1  30
HETATM   30  C   UNL     1      -8.057   0.750 -33.594  1.00  0.00     0.006 A 
HETATM   31  C   UNL     1      -7.336  -0.056 -32.687  1.00  0.00     0.077 A 
HETATM   32  C   UNL     1      -6.494  -1.068 -33.157  1.00  0.00     0.037 A 
HETATM   33  C   UNL     1      -6.369  -1.298 -34.526  1.00  0.00     0.003 A 
HETATM   34  C   UNL     1      -7.068  -0.511 -35.432  1.00  0.00     0.001 A 
HETATM   35  C   UNL     1      -7.898   0.511 -34.973  1.00  0.00     0.012 A 
BRANCH  31  36
HETATM   36  O   UNL     1      -7.469   0.279 -31.359  1.00  0.00    -0.351 OA
BRANCH  36  37
HETATM   37  C   UNL     1      -6.385  -0.113 -30.506  1.00  0.00     0.171 C 
HETATM   38  C   UNL     1      -5.961   1.105 -29.706  1.00  0.00     0.034 C 
ENDBRANCH  36  37
ENDBRANCH  31  36
ENDBRANCH   1  30
BRANCH   6  39
HETATM   39  O   UNL     1     -11.302   3.116 -31.879  1.00  0.00    -0.389 OA
HETATM   40  H   UNL     1     -11.678   3.890 -31.415  1.00  0.00     0.210 HD
ENDBRANCH   6  39
TORSDOF 9
ENDMDL
MODEL 4
REMARK VINA RESULT:      -8.4      1.860      2.807
REMARK  9 active torsions:
REMARK  status: ('A' for Active; 'I' for Inactive)
REMARK    1  A    between atoms: C_2  and  O_3 
REMARK    2  A    between atoms: O_3  and  C_4 
REMARK    3  A    between atoms: C_5  and  C_6 
REMARK    4  A    between atoms: N_7  and  C_9 
REMARK    5  A    between atoms: C_9  and  C_10 
REMARK       I    between atoms: C_10  and  N_11 
REMARK    6  A    between atoms: N_11  and  C_12 
REMARK    7  A    between atoms: C_20  and  C_21 
REMARK    8  A    between atoms: C_21  and  O_22 
REMARK    9  A    between atoms: C_28  and  O_29 
ROOT
HETATM    1  C   UNL     1      -4.182   6.643 -31.675  1.00  0.00     0.231 C 
HETATM    2  N   UNL     1      -4.431   5.182 -32.085  1.00  0.00    -0.054 N 
HETATM    3  H   UNL     1      -3.798   5.140 -32.901  1.00  0.00     0.281 HD
HETATM    4  C   UNL     1      -5.803   4.908 -32.612  1.00  0.00     0.239 C 
HETATM    5  C   UNL     1      -6.858   5.355 -31.618  1.00  0.00     0.066 C 
HETATM    6  C   UNL     1      -6.714   6.851 -31.350  1.00  0.00     0.065 C 
HETATM    7  C   UNL     1      -5.319   7.154 -30.748  1.00  0.00     0.055 C 
HETATM    8  C   UNL     1      -7.829   7.361 -30.423  1.00  0.00     0.038 C 
HETATM    9  C   UNL     1      -7.698   8.860 -30.152  1.00  0.00     0.003 C 
HETATM   10  C   UNL     1      -6.316   9.211 -29.615  1.00  0.00     0.001 C 
HETATM   11  C   UNL     1      -5.196   8.680 -30.507  1.00  0.00     0.010 C 
ENDROOT
BRANCH   2  12
HETATM   12  C   UNL     1      -3.889   4.089 -31.142  1.00  0.00     0.338 C 
BRANCH  12  13
HETATM   13  C   UNL     1      -3.578   2.786 -31.902  1.00  0.00     0.248 C 
HETATM   14  N   UNL     1      -4.442   1.765 -31.517  1.00  0.00    -0.319 N 
HETATM   15  H   UNL     1      -4.919   1.831 -30.622  1.00  0.00     0.169 HD
HETATM   16  O   UNL     1      -2.677   2.739 -32.727  1.00  0.00    -0.271 OA
BRANCH  14  17
HETATM   17  C   UNL     1      -4.746   0.605 -32.214  1.00  0.00     0.094 A 
HETATM   18  S   UNL     1      -3.671  -0.710 -32.226  1.00  0.00    -0.075 SA
HETATM   19  C   UNL     1      -4.666  -1.605 -33.263  1.00  0.00    -0.008 A 
HETATM   20  C   UNL     1      -5.831  -0.938 -33.589  1.00  0.00    -0.026 A 
HETATM   21  C   UNL     1      -4.290  -2.974 -33.743  1.00  0.00     0.047 C 
HETATM   22  C   UNL     1      -6.851  -1.543 -34.519  1.00  0.00     0.041 C 
HETATM   23  C   UNL     1      -5.870   0.389 -33.006  1.00  0.00     0.080 A 
HETATM   24  C   UNL     1      -6.604  -3.037 -34.771  1.00  0.00     0.005 C 
HETATM   25  C   UNL     1      -5.118  -3.346 -34.982  1.00  0.00     0.005 C 
BRANCH  23  26
HETATM   26  C   UNL     1      -6.929   1.372 -33.269  1.00  0.00     0.296 C 
HETATM   27  O   UNL     1      -7.161   1.830 -34.378  1.00  0.00    -0.259 OA
BRANCH  26  28
HETATM   28  O   UNL     1      -7.592   1.769 -32.131  1.00  0.00    -0.322 OA
HETATM   29  C   UNL     1      -8.475   0.788 -31.564  1.00  0.00     0.213 C 
ENDBRANCH  26  28
ENDBRANCH  23  26
ENDBRANCH  14  17
ENDBRANCH  12  13
ENDBRANCH   2  12
BRANCH   1  30
HETATM   30  C   UNL     1      -2.741   6.826 -31.209  1.00  0.00     0.006 A 
HETATM   31  C   UNL     1      -1.725   6.996 -32.174  1.00  0.00     0.077 A 
HETATM   32  C   UNL     1      -0.387   7.104 -31.779  1.00  0.00     0.037 A 
HETATM   33  C   UNL     1      -0.049   7.057 -30.427  1.00  0.00     0.003 A 
HETATM   34  C   UNL     1      -1.037   6.885 -29.466  1.00  0.00     0.001 A 
HETATM   35  C   UNL     1      -2.371   6.762 -29.852  1.00  0.00     0.012 A 
BRANCH  31  36
HETATM   36  O   UNL     1      -2.139   6.969 -33.485  1.00  0.00    -0.351 OA
BRANCH  36  37
HETATM   37  C   UNL     1      -1.470   6.024 -34.331  1.00  0.00     0.171 C 
HETATM   38  C   UNL     1      -2.533   5.205 -35.041  1.00  0.00     0.034 C 
ENDBRANCH  36  37
ENDBRANCH  31  36
ENDBRANCH   1  30
BRANCH   6  39
HETATM   39  O   UNL     1      -6.817   7.507 -32.621  1.00  0.00    -0.389 OA
HETATM   40  H   UNL     1      -6.543   6.891 -33.329  1.00  0.00     0.210 HD
ENDBRANCH   6  39
TORSDOF 9
ENDMDL
MODEL 5
REMARK VINA RESULT:      -8.3      2.654      5.082
REMARK  9 active torsions:
REMARK  status: ('A' for Active; 'I' for Inactive)
REMARK    1  A    between atoms: C_2  and  O_3 
REMARK    2  A    between atoms: O_3  and  C_4 
REMARK    3  A    between atoms: C_5  and  C_6 
REMARK    4  A    between atoms: N_7  and  C_9 
REMARK    5  A    between atoms: C_9  and  C_10 
REMARK       I    between atoms: C_10  and  N_11 
REMARK    6  A    between atoms: N_11  and  C_12 
REMARK    7  A    between atoms: C_20  and  C_21 
REMARK    8  A    between atoms: C_21  and  O_22 
REMARK    9  A    between atoms: C_28  and  O_29 
ROOT
HETATM    1  C   UNL     1      -1.979   7.910 -28.634  1.00  0.00     0.231 C 
HETATM    2  N   UNL     1      -1.442   6.632 -29.301  1.00  0.00    -0.054 N 
HETATM    3  H   UNL     1      -2.264   6.022 -29.153  1.00  0.00     0.281 HD
HETATM    4  C   UNL     1      -0.309   5.980 -28.576  1.00  0.00     0.239 C 
HETATM    5  C   UNL     1       0.823   6.965 -28.355  1.00  0.00     0.066 C 
HETATM    6  C   UNL     1       0.322   8.153 -27.537  1.00  0.00     0.065 C 
HETATM    7  C   UNL     1      -0.816   8.882 -28.295  1.00  0.00     0.055 C 
HETATM    8  C   UNL     1       1.466   9.126 -27.207  1.00  0.00     0.038 C 
HETATM    9  C   UNL     1       0.977  10.316 -26.383  1.00  0.00     0.003 C 
HETATM   10  C   UNL     1      -0.186  11.026 -27.065  1.00  0.00     0.001 C 
HETATM   11  C   UNL     1      -1.316  10.067 -27.431  1.00  0.00     0.010 C 
ENDROOT
BRANCH   2  12
HETATM   12  C   UNL     1      -1.276   6.659 -30.834  1.00  0.00     0.338 C 
BRANCH  12  13
HETATM   13  C   UNL     1      -1.640   5.304 -31.469  1.00  0.00     0.248 C 
HETATM   14  N   UNL     1      -2.894   4.875 -31.045  1.00  0.00    -0.319 N 
HETATM   15  H   UNL     1      -3.280   5.250 -30.184  1.00  0.00     0.169 HD
HETATM   16  O   UNL     1      -0.873   4.747 -32.242  1.00  0.00    -0.271 OA
BRANCH  14  17
HETATM   17  C   UNL     1      -3.724   3.949 -31.660  1.00  0.00     0.094 A 
HETATM   18  S   UNL     1      -3.590   2.293 -31.309  1.00  0.00    -0.075 SA
HETATM   19  C   UNL     1      -4.798   1.888 -32.424  1.00  0.00    -0.008 A 
HETATM   20  C   UNL     1      -5.336   2.995 -33.051  1.00  0.00    -0.026 A 
HETATM   21  C   UNL     1      -5.215   0.469 -32.666  1.00  0.00     0.047 C 
HETATM   22  C   UNL     1      -6.412   2.861 -34.099  1.00  0.00     0.041 C 
HETATM   23  C   UNL     1      -4.679   4.218 -32.636  1.00  0.00     0.080 A 
HETATM   24  C   UNL     1      -7.030   1.456 -34.132  1.00  0.00     0.005 C 
HETATM   25  C   UNL     1      -5.968   0.359 -34.000  1.00  0.00     0.005 C 
BRANCH  23  26
HETATM   26  C   UNL     1      -4.958   5.539 -33.215  1.00  0.00     0.296 C 
HETATM   27  O   UNL     1      -6.036   6.105 -33.111  1.00  0.00    -0.259 OA
BRANCH  26  28
HETATM   28  O   UNL     1      -3.902   6.046 -33.937  1.00  0.00    -0.322 OA
HETATM   29  C   UNL     1      -3.564   5.311 -35.124  1.00  0.00     0.213 C 
ENDBRANCH  26  28
ENDBRANCH  23  26
ENDBRANCH  14  17
ENDBRANCH  12  13
ENDBRANCH   2  12
BRANCH   1  30
HETATM   30  C   UNL     1      -3.166   8.460 -29.419  1.00  0.00     0.006 A 
HETATM   31  C   UNL     1      -4.349   7.693 -29.502  1.00  0.00     0.077 A 
HETATM   32  C   UNL     1      -5.430   8.143 -30.265  1.00  0.00     0.037 A 
HETATM   33  C   UNL     1      -5.353   9.360 -30.942  1.00  0.00     0.003 A 
HETATM   34  C   UNL     1      -4.196  10.124 -30.875  1.00  0.00     0.001 A 
HETATM   35  C   UNL     1      -3.106   9.675 -30.128  1.00  0.00     0.012 A 
BRANCH  31  36
HETATM   36  O   UNL     1      -4.316   6.479 -28.856  1.00  0.00    -0.351 OA
BRANCH  36  37
HETATM   37  C   UNL     1      -5.539   6.076 -28.224  1.00  0.00     0.171 C 
HETATM   38  C   UNL     1      -6.054   4.849 -28.955  1.00  0.00     0.034 C 
ENDBRANCH  36  37
ENDBRANCH  31  36
ENDBRANCH   1  30
BRANCH   6  39
HETATM   39  O   UNL     1      -0.210   7.617 -26.318  1.00  0.00    -0.389 OA
HETATM   40  H   UNL     1      -1.068   8.044 -26.121  1.00  0.00     0.210 HD
ENDBRANCH   6  39
TORSDOF 9
ENDMDL
MODEL 6
REMARK VINA RESULT:      -8.2      2.191      8.513
REMARK  9 active torsions:
REMARK  status: ('A' for Active; 'I' for Inactive)
REMARK    1  A    between atoms: C_2  and  O_3 
REMARK    2  A    between atoms: O_3  and  C_4 
REMARK    3  A    between atoms: C_5  and  C_6 
REMARK    4  A    between atoms: N_7  and  C_9 
REMARK    5  A    between atoms: C_9  and  C_10 
REMARK       I    between atoms: C_10  and  N_11 
REMARK    6  A    between atoms: N_11  and  C_12 
REMARK    7  A    between atoms: C_20  and  C_21 
REMARK    8  A    between atoms: C_21  and  O_22 
REMARK    9  A    between atoms: C_28  and  O_29 
ROOT
HETATM    1  C   UNL     1      -5.990   0.071 -33.386  1.00  0.00     0.231 C 
HETATM    2  N   UNL     1      -5.172   0.702 -32.246  1.00  0.00    -0.054 N 
HETATM    3  H   UNL     1      -5.149   1.676 -32.592  1.00  0.00     0.281 HD
HETATM    4  C   UNL     1      -3.747   0.253 -32.181  1.00  0.00     0.239 C 
HETATM    5  C   UNL     1      -3.665  -1.260 -32.104  1.00  0.00     0.066 C 
HETATM    6  C   UNL     1      -4.329  -1.876 -33.333  1.00  0.00     0.065 C 
HETATM    7  C   UNL     1      -5.823  -1.473 -33.392  1.00  0.00     0.055 C 
HETATM    8  C   UNL     1      -4.177  -3.406 -33.340  1.00  0.00     0.038 C 
HETATM    9  C   UNL     1      -4.833  -4.033 -34.570  1.00  0.00     0.003 C 
HETATM   10  C   UNL     1      -6.291  -3.613 -34.700  1.00  0.00     0.001 C 
HETATM   11  C   UNL     1      -6.462  -2.096 -34.659  1.00  0.00     0.010 C 
ENDROOT
BRANCH   2  12
HETATM   12  C   UNL     1      -5.859   0.815 -30.871  1.00  0.00     0.338 C 
BRANCH  12  13
HETATM   13  C   UNL     1      -6.135   2.283 -30.493  1.00  0.00     0.248 C 
HETATM   14  N   UNL     1      -4.947   2.997 -30.365  1.00  0.00    -0.319 N 
HETATM   15  H   UNL     1      -4.082   2.492 -30.194  1.00  0.00     0.169 HD
HETATM   16  O   UNL     1      -7.279   2.691 -30.350  1.00  0.00    -0.271 OA
BRANCH  14  17
HETATM   17  C   UNL     1      -4.775   4.372 -30.426  1.00  0.00     0.094 A 
HETATM   18  S   UNL     1      -5.980   5.426 -29.861  1.00  0.00    -0.075 SA
HETATM   19  C   UNL     1      -5.098   6.795 -30.321  1.00  0.00    -0.008 A 
HETATM   20  C   UNL     1      -3.874   6.477 -30.878  1.00  0.00    -0.026 A 
HETATM   21  C   UNL     1      -5.620   8.185 -30.118  1.00  0.00     0.047 C 
HETATM   22  C   UNL     1      -2.935   7.545 -31.377  1.00  0.00     0.041 C 
HETATM   23  C   UNL     1      -3.689   5.043 -30.982  1.00  0.00     0.080 A 
HETATM   24  C   UNL     1      -3.339   8.950 -30.910  1.00  0.00     0.005 C 
HETATM   25  C   UNL     1      -4.852   9.174 -31.007  1.00  0.00     0.005 C 
BRANCH  23  26
HETATM   26  C   UNL     1      -2.537   4.407 -31.635  1.00  0.00     0.296 C 
HETATM   27  O   UNL     1      -2.628   3.726 -32.645  1.00  0.00    -0.259 OA
BRANCH  26  28
HETATM   28  O   UNL     1      -1.356   4.608 -30.959  1.00  0.00    -0.322 OA
HETATM   29  C   UNL     1      -0.294   5.179 -31.740  1.00  0.00     0.213 C 
ENDBRANCH  26  28
ENDBRANCH  23  26
ENDBRANCH  14  17
ENDBRANCH  12  13
ENDBRANCH   2  12
BRANCH   1  30
HETATM   30  C   UNL     1      -7.407   0.638 -33.398  1.00  0.00     0.006 A 
HETATM   31  C   UNL     1      -7.608   1.970 -33.821  1.00  0.00     0.077 A 
HETATM   32  C   UNL     1      -8.887   2.536 -33.784  1.00  0.00     0.037 A 
HETATM   33  C   UNL     1      -9.975   1.785 -33.342  1.00  0.00     0.003 A 
HETATM   34  C   UNL     1      -9.792   0.475 -32.919  1.00  0.00     0.001 A 
HETATM   35  C   UNL     1      -8.518  -0.093 -32.937  1.00  0.00     0.012 A 
BRANCH  31  36
HETATM   36  O   UNL     1      -6.473   2.658 -34.182  1.00  0.00    -0.351 OA
BRANCH  36  37
HETATM   37  C   UNL     1      -6.423   4.033 -33.779  1.00  0.00     0.171 C 
HETATM   38  C   UNL     1      -5.195   4.658 -34.418  1.00  0.00     0.034 C 
ENDBRANCH  36  37
ENDBRANCH  31  36
ENDBRANCH   1  30
BRANCH   6  39
HETATM   39  O   UNL     1      -3.661  -1.329 -34.478  1.00  0.00    -0.389 OA
HETATM   40  H   UNL     1      -3.239  -2.051 -34.985  1.00  0.00     0.210 HD
ENDBRANCH   6  39
TORSDOF 9
ENDMDL
MODEL 7
REMARK VINA RESULT:      -8.2      1.641      4.121
REMARK  9 active torsions:
REMARK  status: ('A' for Active; 'I' for Inactive)
REMARK    1  A    between atoms: C_2  and  O_3 
REMARK    2  A    between atoms: O_3  and  C_4 
REMARK    3  A    between atoms: C_5  and  C_6 
REMARK    4  A    between atoms: N_7  and  C_9 
REMARK    5  A    between atoms: C_9  and  C_10 
REMARK       I    between atoms: C_10  and  N_11 
REMARK    6  A    between atoms: N_11  and  C_12 
REMARK    7  A    between atoms: C_20  and  C_21 
REMARK    8  A    between atoms: C_21  and  O_22 
REMARK    9  A    between atoms: C_28  and  O_29 
ROOT
HETATM    1  C   UNL     1      -3.987   5.540 -30.898  1.00  0.00     0.231 C 
HETATM    2  N   UNL     1      -4.481   4.087 -30.791  1.00  0.00    -0.054 N 
HETATM    3  H   UNL     1      -4.571   4.029 -29.762  1.00  0.00     0.281 HD
HETATM    4  C   UNL     1      -3.468   3.056 -31.174  1.00  0.00     0.239 C 
HETATM    5  C   UNL     1      -2.935   3.322 -32.569  1.00  0.00     0.066 C 
HETATM    6  C   UNL     1      -2.287   4.703 -32.620  1.00  0.00     0.065 C 
HETATM    7  C   UNL     1      -3.331   5.796 -32.283  1.00  0.00     0.055 C 
HETATM    8  C   UNL     1      -1.646   4.968 -33.993  1.00  0.00     0.038 C 
HETATM    9  C   UNL     1      -0.988   6.346 -34.053  1.00  0.00     0.003 C 
HETATM   10  C   UNL     1      -1.967   7.448 -33.667  1.00  0.00     0.001 C 
HETATM   11  C   UNL     1      -2.639   7.182 -32.322  1.00  0.00     0.010 C 
ENDROOT
BRANCH   2  12
HETATM   12  C   UNL     1      -5.904   3.792 -31.303  1.00  0.00     0.338 C 
BRANCH  12  13
HETATM   13  C   UNL     1      -6.196   2.279 -31.330  1.00  0.00     0.248 C 
HETATM   14  N   UNL     1      -6.091   1.774 -32.623  1.00  0.00    -0.319 N 
HETATM   15  H   UNL     1      -6.175   2.409 -33.411  1.00  0.00     0.169 HD
HETATM   16  O   UNL     1      -6.470   1.674 -30.304  1.00  0.00    -0.271 OA
BRANCH  14  17
HETATM   17  C   UNL     1      -5.892   0.454 -33.002  1.00  0.00     0.094 A 
HETATM   18  S   UNL     1      -4.407  -0.318 -32.717  1.00  0.00    -0.075 SA
HETATM   19  C   UNL     1      -4.924  -1.743 -33.471  1.00  0.00    -0.008 A 
HETATM   20  C   UNL     1      -6.228  -1.665 -33.919  1.00  0.00    -0.026 A 
HETATM   21  C   UNL     1      -4.034  -2.941 -33.607  1.00  0.00     0.047 C 
HETATM   22  C   UNL     1      -6.884  -2.815 -34.640  1.00  0.00     0.041 C 
HETATM   23  C   UNL     1      -6.799  -0.353 -33.682  1.00  0.00     0.080 A 
HETATM   24  C   UNL     1      -6.082  -4.119 -34.521  1.00  0.00     0.005 C 
HETATM   25  C   UNL     1      -4.577  -3.884 -34.691  1.00  0.00     0.005 C 
BRANCH  23  26
HETATM   26  C   UNL     1      -8.127   0.063 -34.151  1.00  0.00     0.296 C 
HETATM   27  O   UNL     1      -8.381   0.311 -35.320  1.00  0.00    -0.259 OA
BRANCH  26  28
HETATM   28  O   UNL     1      -9.040   0.202 -33.130  1.00  0.00    -0.322 OA
HETATM   29  C   UNL     1     -10.239   0.913 -33.475  1.00  0.00     0.213 C 
ENDBRANCH  26  28
ENDBRANCH  23  26
ENDBRANCH  14  17
ENDBRANCH  12  13
ENDBRANCH   2  12
BRANCH   1  30
HETATM   30  C   UNL     1      -5.072   6.505 -30.430  1.00  0.00     0.006 A 
HETATM   31  C   UNL     1      -5.151   6.835 -29.060  1.00  0.00     0.077 A 
HETATM   32  C   UNL     1      -6.173   7.668 -28.592  1.00  0.00     0.037 A 
HETATM   33  C   UNL     1      -7.115   8.189 -29.479  1.00  0.00     0.003 A 
HETATM   34  C   UNL     1      -7.053   7.869 -30.829  1.00  0.00     0.001 A 
HETATM   35  C   UNL     1      -6.046   7.027 -31.301  1.00  0.00     0.012 A 
BRANCH  31  36
HETATM   36  O   UNL     1      -4.221   6.229 -28.247  1.00  0.00    -0.351 OA
BRANCH  36  37
HETATM   37  C   UNL     1      -3.451   7.110 -27.417  1.00  0.00     0.171 C 
HETATM   38  C   UNL     1      -2.265   7.594 -28.231  1.00  0.00     0.034 C 
ENDBRANCH  36  37
ENDBRANCH  31  36
ENDBRANCH   1  30
BRANCH   6  39
HETATM   39  O   UNL     1      -1.268   4.715 -31.611  1.00  0.00    -0.389 OA
HETATM   40  H   UNL     1      -0.572   4.068 -31.843  1.00  0.00     0.210 HD
ENDBRANCH   6  39
TORSDOF 9
ENDMDL
MODEL 8
REMARK VINA RESULT:      -8.0      3.072      5.884
REMARK  9 active torsions:
REMARK  status: ('A' for Active; 'I' for Inactive)
REMARK    1  A    between atoms: C_2  and  O_3 
REMARK    2  A    between atoms: O_3  and  C_4 
REMARK    3  A    between atoms: C_5  and  C_6 
REMARK    4  A    between atoms: N_7  and  C_9 
REMARK    5  A    between atoms: C_9  and  C_10 
REMARK       I    between atoms: C_10  and  N_11 
REMARK    6  A    between atoms: N_11  and  C_12 
REMARK    7  A    between atoms: C_20  and  C_21 
REMARK    8  A    between atoms: C_21  and  O_22 
REMARK    9  A    between atoms: C_28  and  O_29 
ROOT
HETATM    1  C   UNL     1      -4.946   5.223 -31.683  1.00  0.00     0.231 C 
HETATM    2  N   UNL     1      -6.031   4.739 -32.661  1.00  0.00    -0.054 N 
HETATM    3  H   UNL     1      -6.419   3.967 -32.093  1.00  0.00     0.281 HD
HETATM    4  C   UNL     1      -5.505   4.108 -33.910  1.00  0.00     0.239 C 
HETATM    5  C   UNL     1      -4.544   5.044 -34.620  1.00  0.00     0.066 C 
HETATM    6  C   UNL     1      -3.375   5.380 -33.699  1.00  0.00     0.065 C 
HETATM    7  C   UNL     1      -3.888   6.089 -32.421  1.00  0.00     0.055 C 
HETATM    8  C   UNL     1      -2.329   6.247 -34.419  1.00  0.00     0.038 C 
HETATM    9  C   UNL     1      -1.150   6.585 -33.507  1.00  0.00     0.003 C 
HETATM   10  C   UNL     1      -1.617   7.230 -32.208  1.00  0.00     0.001 C 
HETATM   11  C   UNL     1      -2.682   6.398 -31.498  1.00  0.00     0.010 C 
ENDROOT
BRANCH   2  12
HETATM   12  C   UNL     1      -7.236   5.673 -32.888  1.00  0.00     0.338 C 
BRANCH  12  13
HETATM   13  C   UNL     1      -8.366   4.965 -33.658  1.00  0.00     0.248 C 
HETATM   14  N   UNL     1      -8.921   3.939 -32.898  1.00  0.00    -0.319 N 
HETATM   15  H   UNL     1      -8.380   3.540 -32.136  1.00  0.00     0.169 HD
HETATM   16  O   UNL     1      -8.680   5.323 -34.784  1.00  0.00    -0.271 OA
BRANCH  14  17
HETATM   17  C   UNL     1     -10.165   3.347 -33.056  1.00  0.00     0.094 A 
HETATM   18  S   UNL     1     -11.589   4.215 -32.737  1.00  0.00    -0.075 SA
HETATM   19  C   UNL     1     -12.566   2.874 -33.074  1.00  0.00    -0.008 A 
HETATM   20  C   UNL     1     -11.835   1.767 -33.459  1.00  0.00    -0.026 A 
HETATM   21  C   UNL     1     -14.060   2.930 -32.964  1.00  0.00     0.047 C 
HETATM   22  C   UNL     1     -12.505   0.456 -33.785  1.00  0.00     0.041 C 
HETATM   23  C   UNL     1     -10.409   2.023 -33.413  1.00  0.00     0.080 A 
HETATM   24  C   UNL     1     -14.025   0.597 -33.951  1.00  0.00     0.005 C 
HETATM   25  C   UNL     1     -14.637   1.508 -32.882  1.00  0.00     0.005 C 
BRANCH  23  26
HETATM   26  C   UNL     1      -9.382   1.003 -33.658  1.00  0.00     0.296 C 
HETATM   27  O   UNL     1      -9.305  -0.040 -33.025  1.00  0.00    -0.259 OA
BRANCH  26  28
HETATM   28  O   UNL     1      -8.480   1.368 -34.631  1.00  0.00    -0.322 OA
HETATM   29  C   UNL     1      -7.652   0.305 -35.127  1.00  0.00     0.213 C 
ENDBRANCH  26  28
ENDBRANCH  23  26
ENDBRANCH  14  17
ENDBRANCH  12  13
ENDBRANCH   2  12
BRANCH   1  30
HETATM   30  C   UNL     1      -5.587   5.795 -30.422  1.00  0.00     0.006 A 
HETATM   31  C   UNL     1      -6.110   4.908 -29.456  1.00  0.00     0.077 A 
HETATM   32  C   UNL     1      -6.757   5.404 -28.320  1.00  0.00     0.037 A 
HETATM   33  C   UNL     1      -6.881   6.779 -28.126  1.00  0.00     0.003 A 
HETATM   34  C   UNL     1      -6.376   7.664 -29.070  1.00  0.00     0.001 A 
HETATM   35  C   UNL     1      -5.742   7.178 -30.213  1.00  0.00     0.012 A 
BRANCH  31  36
HETATM   36  O   UNL     1      -6.000   3.570 -29.756  1.00  0.00    -0.351 OA
BRANCH  36  37
HETATM   37  C   UNL     1      -7.237   2.857 -29.885  1.00  0.00     0.171 C 
HETATM   38  C   UNL     1      -7.004   1.693 -30.832  1.00  0.00     0.034 C 
ENDBRANCH  36  37
ENDBRANCH  31  36
ENDBRANCH   1  30
BRANCH   6  39
HETATM   39  O   UNL     1      -2.777   4.132 -33.322  1.00  0.00    -0.389 OA
HETATM   40  H   UNL     1      -2.045   4.298 -32.695  1.00  0.00     0.210 HD
ENDBRANCH   6  39
TORSDOF 9
ENDMDL
MODEL 9
REMARK VINA RESULT:      -7.9      2.141      8.427
REMARK  9 active torsions:
REMARK  status: ('A' for Active; 'I' for Inactive)
REMARK    1  A    between atoms: C_2  and  O_3 
REMARK    2  A    between atoms: O_3  and  C_4 
REMARK    3  A    between atoms: C_5  and  C_6 
REMARK    4  A    between atoms: N_7  and  C_9 
REMARK    5  A    between atoms: C_9  and  C_10 
REMARK       I    between atoms: C_10  and  N_11 
REMARK    6  A    between atoms: N_11  and  C_12 
REMARK    7  A    between atoms: C_20  and  C_21 
REMARK    8  A    between atoms: C_21  and  O_22 
REMARK    9  A    between atoms: C_28  and  O_29 
ROOT
HETATM    1  C   UNL     1      -5.544   0.636 -32.989  1.00  0.00     0.231 C 
HETATM    2  N   UNL     1      -4.907   1.476 -31.868  1.00  0.00    -0.054 N 
HETATM    3  H   UNL     1      -4.941   2.401 -32.330  1.00  0.00     0.281 HD
HETATM    4  C   UNL     1      -3.460   1.190 -31.623  1.00  0.00     0.239 C 
HETATM    5  C   UNL     1      -3.244  -0.286 -31.352  1.00  0.00     0.066 C 
HETATM    6  C   UNL     1      -3.720  -1.107 -32.548  1.00  0.00     0.065 C 
HETATM    7  C   UNL     1      -5.232  -0.873 -32.788  1.00  0.00     0.055 C 
HETATM    8  C   UNL     1      -3.424  -2.603 -32.351  1.00  0.00     0.038 C 
HETATM    9  C   UNL     1      -3.892  -3.433 -33.546  1.00  0.00     0.003 C 
HETATM   10  C   UNL     1      -5.363  -3.186 -33.856  1.00  0.00     0.001 C 
HETATM   11  C   UNL     1      -5.679  -1.701 -34.019  1.00  0.00     0.010 C 
ENDROOT
BRANCH   2  12
HETATM   12  C   UNL     1      -5.736   1.673 -30.584  1.00  0.00     0.338 C 
BRANCH  12  13
HETATM   13  C   UNL     1      -6.107   3.153 -30.369  1.00  0.00     0.248 C 
HETATM   14  N   UNL     1      -5.019   3.875 -29.889  1.00  0.00    -0.319 N 
HETATM   15  H   UNL     1      -4.260   3.381 -29.429  1.00  0.00     0.169 HD
HETATM   16  O   UNL     1      -7.232   3.561 -30.620  1.00  0.00    -0.271 OA
BRANCH  14  17
HETATM   17  C   UNL     1      -4.825   5.248 -29.942  1.00  0.00     0.094 A 
HETATM   18  S   UNL     1      -3.959   5.957 -31.219  1.00  0.00    -0.075 SA
HETATM   19  C   UNL     1      -4.107   7.506 -30.553  1.00  0.00    -0.008 A 
HETATM   20  C   UNL     1      -4.835   7.513 -29.379  1.00  0.00    -0.026 A 
HETATM   21  C   UNL     1      -3.507   8.714 -31.205  1.00  0.00     0.047 C 
HETATM   22  C   UNL     1      -5.070   8.785 -28.606  1.00  0.00     0.041 C 
HETATM   23  C   UNL     1      -5.231   6.175 -28.986  1.00  0.00     0.080 A 
HETATM   24  C   UNL     1      -4.711  10.040 -29.414  1.00  0.00     0.005 C 
HETATM   25  C   UNL     1      -3.403   9.865 -30.194  1.00  0.00     0.005 C 
BRANCH  23  26
HETATM   26  C   UNL     1      -5.916   5.857 -27.726  1.00  0.00     0.296 C 
HETATM   27  O   UNL     1      -5.391   5.971 -26.628  1.00  0.00    -0.259 OA
BRANCH  26  28
HETATM   28  O   UNL     1      -7.185   5.360 -27.913  1.00  0.00    -0.322 OA
HETATM   29  C   UNL     1      -8.167   6.327 -28.315  1.00  0.00     0.213 C 
ENDBRANCH  26  28
ENDBRANCH  23  26
ENDBRANCH  14  17
ENDBRANCH  12  13
ENDBRANCH   2  12
BRANCH   1  30
HETATM   30  C   UNL     1      -6.999   1.045 -33.197  1.00  0.00     0.006 A 
HETATM   31  C   UNL     1      -7.283   2.228 -33.912  1.00  0.00     0.077 A 
HETATM   32  C   UNL     1      -8.604   2.660 -34.065  1.00  0.00     0.037 A 
HETATM   33  C   UNL     1      -9.652   1.919 -33.522  1.00  0.00     0.003 A 
HETATM   34  C   UNL     1      -9.389   0.755 -32.812  1.00  0.00     0.001 A 
HETATM   35  C   UNL     1      -8.073   0.325 -32.641  1.00  0.00     0.012 A 
BRANCH  31  36
HETATM   36  O   UNL     1      -6.187   2.930 -34.359  1.00  0.00    -0.351 OA
BRANCH  36  37
HETATM   37  C   UNL     1      -6.122   4.305 -33.959  1.00  0.00     0.171 C 
HETATM   38  C   UNL     1      -4.856   4.900 -34.548  1.00  0.00     0.034 C 
ENDBRANCH  36  37
ENDBRANCH  31  36
ENDBRANCH   1  30
BRANCH   6  39
HETATM   39  O   UNL     1      -2.995  -0.627 -33.689  1.00  0.00    -0.389 OA
HETATM   40  H   UNL     1      -2.108  -0.325 -33.408  1.00  0.00     0.210 HD
ENDBRANCH   6  39
TORSDOF 9
ENDMDL
MODEL 10
REMARK VINA RESULT:      -7.9      3.281      5.842
REMARK  9 active torsions:
REMARK  status: ('A' for Active; 'I' for Inactive)
REMARK    1  A    between atoms: C_2  and  O_3 
REMARK    2  A    between atoms: O_3  and  C_4 
REMARK    3  A    between atoms: C_5  and  C_6 
REMARK    4  A    between atoms: N_7  and  C_9 
REMARK    5  A    between atoms: C_9  and  C_10 
REMARK       I    between atoms: C_10  and  N_11 
REMARK    6  A    between atoms: N_11  and  C_12 
REMARK    7  A    between atoms: C_20  and  C_21 
REMARK    8  A    between atoms: C_21  and  O_22 
REMARK    9  A    between atoms: C_28  and  O_29 
ROOT
HETATM    1  C   UNL     1      -4.772   3.141 -33.022  1.00  0.00     0.231 C 
HETATM    2  N   UNL     1      -6.246   3.474 -32.735  1.00  0.00    -0.054 N 
HETATM    3  H   UNL     1      -6.687   2.770 -33.350  1.00  0.00     0.281 HD
HETATM    4  C   UNL     1      -6.693   4.806 -33.247  1.00  0.00     0.239 C 
HETATM    5  C   UNL     1      -5.799   5.911 -32.718  1.00  0.00     0.066 C 
HETATM    6  C   UNL     1      -4.358   5.664 -33.158  1.00  0.00     0.065 C 
HETATM    7  C   UNL     1      -3.850   4.315 -32.591  1.00  0.00     0.055 C 
HETATM    8  C   UNL     1      -3.437   6.817 -32.725  1.00  0.00     0.038 C 
HETATM    9  C   UNL     1      -1.993   6.583 -33.166  1.00  0.00     0.003 C 
HETATM   10  C   UNL     1      -1.473   5.236 -32.680  1.00  0.00     0.001 C 
HETATM   11  C   UNL     1      -2.395   4.084 -33.072  1.00  0.00     0.010 C 
ENDROOT
BRANCH   2  12
HETATM   12  C   UNL     1      -6.783   3.127 -31.332  1.00  0.00     0.338 C 
BRANCH  12  13
HETATM   13  C   UNL     1      -8.320   3.207 -31.276  1.00  0.00     0.248 C 
HETATM   14  N   UNL     1      -8.883   2.856 -32.500  1.00  0.00    -0.319 N 
HETATM   15  H   UNL     1      -8.315   2.914 -33.340  1.00  0.00     0.169 HD
HETATM   16  O   UNL     1      -8.895   3.537 -30.249  1.00  0.00    -0.271 OA
BRANCH  14  17
HETATM   17  C   UNL     1     -10.181   2.432 -32.743  1.00  0.00     0.094 A 
HETATM   18  S   UNL     1     -10.493   0.852 -33.282  1.00  0.00    -0.075 SA
HETATM   19  C   UNL     1     -12.157   1.144 -33.393  1.00  0.00    -0.008 A 
HETATM   20  C   UNL     1     -12.500   2.422 -32.998  1.00  0.00    -0.026 A 
HETATM   21  C   UNL     1     -13.120   0.096 -33.864  1.00  0.00     0.047 C 
HETATM   22  C   UNL     1     -13.929   2.902 -33.038  1.00  0.00     0.041 C 
HETATM   23  C   UNL     1     -11.333   3.207 -32.649  1.00  0.00     0.080 A 
HETATM   24  C   UNL     1     -14.930   1.755 -33.239  1.00  0.00     0.005 C 
HETATM   25  C   UNL     1     -14.445   0.747 -34.287  1.00  0.00     0.005 C 
BRANCH  23  26
HETATM   26  C   UNL     1     -11.374   4.634 -32.302  1.00  0.00     0.296 C 
HETATM   27  O   UNL     1     -11.950   5.070 -31.316  1.00  0.00    -0.259 OA
BRANCH  26  28
HETATM   28  O   UNL     1     -10.751   5.434 -33.232  1.00  0.00    -0.322 OA
HETATM   29  C   UNL     1      -9.916   6.468 -32.688  1.00  0.00     0.213 C 
ENDBRANCH  26  28
ENDBRANCH  23  26
ENDBRANCH  14  17
ENDBRANCH  12  13
ENDBRANCH   2  12
BRANCH   1  30
HETATM   30  C   UNL     1      -4.435   1.742 -32.512  1.00  0.00     0.006 A 
HETATM   31  C   UNL     1      -5.102   0.630 -33.071  1.00  0.00     0.077 A 
HETATM   32  C   UNL     1      -4.860  -0.657 -32.581  1.00  0.00     0.037 A 
HETATM   33  C   UNL     1      -3.948  -0.854 -31.545  1.00  0.00     0.003 A 
HETATM   34  C   UNL     1      -3.287   0.230 -30.982  1.00  0.00     0.001 A 
HETATM   35  C   UNL     1      -3.535   1.520 -31.454  1.00  0.00     0.012 A 
BRANCH  31  36
HETATM   36  O   UNL     1      -6.029   0.921 -34.045  1.00  0.00    -0.351 OA
BRANCH  36  37
HETATM   37  C   UNL     1      -7.246   0.163 -33.993  1.00  0.00     0.171 C 
HETATM   38  C   UNL     1      -7.341  -0.648 -35.273  1.00  0.00     0.034 C 
ENDBRANCH  36  37
ENDBRANCH  31  36
ENDBRANCH   1  30
BRANCH   6  39
HETATM   39  O   UNL     1      -4.374   5.583 -34.590  1.00  0.00    -0.389 OA
HETATM   40  H   UNL     1      -3.476   5.759 -34.936  1.00  0.00     0.210 HD
ENDBRANCH   6  39
TORSDOF 9
ENDMDL
