MODEL 1
REMARK VINA RESULT:      -9.2      0.000      0.000
REMARK  7 active torsions:
REMARK  status: ('A' for Active; 'I' for Inactive)
REMARK    1  A    between atoms: C_4  and  C_5 
REMARK    2  A    between atoms: C_5  and  N_6 
REMARK       I    between atoms: N_6  and  C_7 
REMARK    3  A    between atoms: N_6  and  C_22 
REMARK    4  A    between atoms: C_7  and  C_8 
REMARK    5  A    between atoms: C_13  and  C_14 
REMARK    6  A    between atoms: C_15  and  O_16 
REMARK    7  A    between atoms: C_22  and  C_23 
ROOT
HETATM    1  N   UNL     1      -6.913  -0.174 -33.431  1.00  0.00    -0.343 N 
HETATM    2  C   UNL     1      -6.107   0.440 -32.469  1.00  0.00     0.235 C 
HETATM    3  O   UNL     1      -4.900   0.598 -32.671  1.00  0.00    -0.272 OA
ENDROOT
BRANCH   2   4
HETATM    4  C   UNL     1      -6.741   0.930 -31.186  1.00  0.00     0.195 C 
HETATM    5  C   UNL     1      -5.898   0.842 -29.953  1.00  0.00     0.247 C 
HETATM    6  O   UNL     1      -5.089  -0.020 -29.654  1.00  0.00    -0.271 OA
HETATM    7  N   UNL     1      -6.309   1.869 -29.119  1.00  0.00    -0.290 N 
HETATM    8  N   UNL     1      -7.246   2.728 -29.707  1.00  0.00    -0.228 NA
HETATM    9  H   UNL     1      -5.904   2.001 -28.198  1.00  0.00     0.183 HD
HETATM   10  C   UNL     1      -7.195   2.406 -31.163  1.00  0.00     0.134 C 
HETATM   11  H   UNL     1      -6.947   3.700 -29.570  1.00  0.00     0.147 HD
BRANCH  10  12
HETATM   12  C   UNL     1      -6.413   3.497 -31.885  1.00  0.00    -0.004 A 
HETATM   13  C   UNL     1      -5.172   3.967 -31.413  1.00  0.00     0.073 A 
HETATM   14  C   UNL     1      -4.436   4.922 -32.120  1.00  0.00     0.037 A 
HETATM   15  C   UNL     1      -4.906   5.418 -33.331  1.00  0.00     0.003 A 
HETATM   16  C   UNL     1      -6.112   4.953 -33.837  1.00  0.00     0.001 A 
HETATM   17  C   UNL     1      -6.849   3.996 -33.129  1.00  0.00     0.012 A 
BRANCH  13  18
HETATM   18  O   UNL     1      -4.565   3.528 -30.268  1.00  0.00    -0.360 OA
HETATM   19  H   UNL     1      -3.651   3.844 -30.208  1.00  0.00     0.217 HD
ENDBRANCH  13  18
ENDBRANCH  10  12
ENDBRANCH   2   4
BRANCH   1  20
HETATM   20  C   UNL     1      -6.270  -0.648 -34.661  1.00  0.00     0.164 C 
BRANCH  20  21
HETATM   21  C   UNL     1      -5.882  -2.110 -34.594  1.00  0.00    -0.040 A 
HETATM   22  C   UNL     1      -4.586  -2.487 -34.206  1.00  0.00     0.009 A 
HETATM   23  C   UNL     1      -4.223  -3.834 -34.160  1.00  0.00     0.001 A 
HETATM   24  C   UNL     1      -5.151  -4.820 -34.494  1.00  0.00     0.000 A 
HETATM   25  C   UNL     1      -6.442  -4.460 -34.871  1.00  0.00     0.001 A 
HETATM   26  C   UNL     1      -6.807  -3.112 -34.917  1.00  0.00     0.009 A 
ENDBRANCH  20  21
ENDBRANCH   1  20
BRANCH   1  27
HETATM   27  C   UNL     1      -8.282  -0.641 -33.198  1.00  0.00     0.164 C 
BRANCH  27  28
HETATM   28  C   UNL     1      -9.349   0.376 -33.523  1.00  0.00    -0.040 A 
HETATM   29  C   UNL     1      -9.056   1.539 -34.252  1.00  0.00     0.009 A 
HETATM   30  C   UNL     1     -10.065   2.445 -34.579  1.00  0.00     0.001 A 
HETATM   31  C   UNL     1     -11.381   2.197 -34.191  1.00  0.00     0.000 A 
HETATM   32  C   UNL     1     -11.689   1.040 -33.481  1.00  0.00     0.001 A 
HETATM   33  C   UNL     1     -10.681   0.131 -33.154  1.00  0.00     0.009 A 
ENDBRANCH  27  28
ENDBRANCH   1  27
TORSDOF 7
ENDMDL
MODEL 2
REMARK VINA RESULT:      -9.0      2.086      5.294
REMARK  7 active torsions:
REMARK  status: ('A' for Active; 'I' for Inactive)
REMARK    1  A    between atoms: C_4  and  C_5 
REMARK    2  A    between atoms: C_5  and  N_6 
REMARK       I    between atoms: N_6  and  C_7 
REMARK    3  A    between atoms: N_6  and  C_22 
REMARK    4  A    between atoms: C_7  and  C_8 
REMARK    5  A    between atoms: C_13  and  C_14 
REMARK    6  A    between atoms: C_15  and  O_16 
REMARK    7  A    between atoms: C_22  and  C_23 
ROOT
HETATM    1  N   UNL     1      -7.476   1.104 -33.275  1.00  0.00    -0.343 N 
HETATM    2  C   UNL     1      -6.685   2.213 -32.965  1.00  0.00     0.235 C 
HETATM    3  O   UNL     1      -6.691   3.211 -33.691  1.00  0.00    -0.272 OA
ENDROOT
BRANCH   2   4
HETATM    4  C   UNL     1      -5.839   2.182 -31.710  1.00  0.00     0.195 C 
HETATM    5  C   UNL     1      -4.656   3.099 -31.684  1.00  0.00     0.247 C 
HETATM    6  O   UNL     1      -3.926   3.412 -32.608  1.00  0.00    -0.271 OA
HETATM    7  N   UNL     1      -4.445   3.432 -30.357  1.00  0.00    -0.290 N 
HETATM    8  N   UNL     1      -5.436   2.952 -29.492  1.00  0.00    -0.228 NA
HETATM    9  H   UNL     1      -3.672   4.026 -30.074  1.00  0.00     0.183 HD
HETATM   10  C   UNL     1      -6.555   2.540 -30.390  1.00  0.00     0.134 C 
HETATM   11  H   UNL     1      -5.758   3.716 -28.887  1.00  0.00     0.147 HD
BRANCH  10  12
HETATM   12  C   UNL     1      -7.651   3.597 -30.332  1.00  0.00    -0.004 A 
HETATM   13  C   UNL     1      -9.014   3.271 -30.472  1.00  0.00     0.073 A 
HETATM   14  C   UNL     1     -10.013   4.241 -30.352  1.00  0.00     0.037 A 
HETATM   15  C   UNL     1      -9.682   5.561 -30.066  1.00  0.00     0.003 A 
HETATM   16  C   UNL     1      -8.349   5.908 -29.894  1.00  0.00     0.001 A 
HETATM   17  C   UNL     1      -7.349   4.936 -30.014  1.00  0.00     0.012 A 
BRANCH  13  18
HETATM   18  O   UNL     1      -9.486   2.008 -30.699  1.00  0.00    -0.360 OA
HETATM   19  H   UNL     1     -10.354   1.874 -30.289  1.00  0.00     0.217 HD
ENDBRANCH  13  18
ENDBRANCH  10  12
ENDBRANCH   2   4
BRANCH   1  20
HETATM   20  C   UNL     1      -8.277   1.158 -34.502  1.00  0.00     0.164 C 
BRANCH  20  21
HETATM   21  C   UNL     1      -9.694   1.634 -34.258  1.00  0.00    -0.040 A 
HETATM   22  C   UNL     1     -10.035   2.983 -34.442  1.00  0.00     0.009 A 
HETATM   23  C   UNL     1     -11.338   3.425 -34.201  1.00  0.00     0.001 A 
HETATM   24  C   UNL     1     -12.314   2.524 -33.778  1.00  0.00     0.000 A 
HETATM   25  C   UNL     1     -11.990   1.181 -33.600  1.00  0.00     0.001 A 
HETATM   26  C   UNL     1     -10.688   0.737 -33.842  1.00  0.00     0.009 A 
ENDBRANCH  20  21
ENDBRANCH   1  20
BRANCH   1  27
HETATM   27  C   UNL     1      -7.354  -0.211 -32.642  1.00  0.00     0.164 C 
BRANCH  27  28
HETATM   28  C   UNL     1      -6.451  -1.173 -33.377  1.00  0.00    -0.040 A 
HETATM   29  C   UNL     1      -5.057  -1.126 -33.231  1.00  0.00     0.009 A 
HETATM   30  C   UNL     1      -4.244  -2.052 -33.885  1.00  0.00     0.001 A 
HETATM   31  C   UNL     1      -4.813  -3.041 -34.685  1.00  0.00     0.000 A 
HETATM   32  C   UNL     1      -6.196  -3.109 -34.827  1.00  0.00     0.001 A 
HETATM   33  C   UNL     1      -7.012  -2.185 -34.172  1.00  0.00     0.009 A 
ENDBRANCH  27  28
ENDBRANCH   1  27
TORSDOF 7
ENDMDL
MODEL 3
REMARK VINA RESULT:      -8.6      2.569      5.692
REMARK  7 active torsions:
REMARK  status: ('A' for Active; 'I' for Inactive)
REMARK    1  A    between atoms: C_4  and  C_5 
REMARK    2  A    between atoms: C_5  and  N_6 
REMARK       I    between atoms: N_6  and  C_7 
REMARK    3  A    between atoms: N_6  and  C_22 
REMARK    4  A    between atoms: C_7  and  C_8 
REMARK    5  A    between atoms: C_13  and  C_14 
REMARK    6  A    between atoms: C_15  and  O_16 
REMARK    7  A    between atoms: C_22  and  C_23 
ROOT
HETATM    1  N   UNL     1      -6.541   0.473 -32.965  1.00  0.00    -0.343 N 
HETATM    2  C   UNL     1      -7.874   0.655 -32.587  1.00  0.00     0.235 C 
HETATM    3  O   UNL     1      -8.174   0.792 -31.398  1.00  0.00    -0.272 OA
ENDROOT
BRANCH   2   4
HETATM    4  C   UNL     1      -8.940   0.705 -33.659  1.00  0.00     0.195 C 
HETATM    5  C   UNL     1     -10.301   0.224 -33.265  1.00  0.00     0.247 C 
HETATM    6  O   UNL     1     -10.588  -0.688 -32.509  1.00  0.00    -0.271 OA
HETATM    7  N   UNL     1     -11.208   0.927 -34.040  1.00  0.00    -0.290 N 
HETATM    8  N   UNL     1     -10.620   1.930 -34.822  1.00  0.00    -0.228 NA
HETATM    9  H   UNL     1     -12.206   0.756 -33.979  1.00  0.00     0.183 HD
HETATM   10  C   UNL     1      -9.248   2.094 -34.257  1.00  0.00     0.134 C 
HETATM   11  H   UNL     1     -11.139   2.806 -34.696  1.00  0.00     0.147 HD
BRANCH  10  12
HETATM   12  C   UNL     1      -9.210   3.360 -33.409  1.00  0.00    -0.004 A 
HETATM   13  C   UNL     1     -10.198   3.649 -32.449  1.00  0.00     0.073 A 
HETATM   14  C   UNL     1     -10.115   4.781 -31.633  1.00  0.00     0.037 A 
HETATM   15  C   UNL     1      -9.031   5.645 -31.736  1.00  0.00     0.003 A 
HETATM   16  C   UNL     1      -8.026   5.371 -32.653  1.00  0.00     0.001 A 
HETATM   17  C   UNL     1      -8.109   4.238 -33.470  1.00  0.00     0.012 A 
BRANCH  13  18
HETATM   18  O   UNL     1     -11.288   2.860 -32.201  1.00  0.00    -0.360 OA
HETATM   19  H   UNL     1     -11.053   1.920 -32.202  1.00  0.00     0.217 HD
ENDBRANCH  13  18
ENDBRANCH  10  12
ENDBRANCH   2   4
BRANCH   1  20
HETATM   20  C   UNL     1      -5.530   0.418 -31.904  1.00  0.00     0.164 C 
BRANCH  20  21
HETATM   21  C   UNL     1      -4.833   1.744 -31.689  1.00  0.00    -0.040 A 
HETATM   22  C   UNL     1      -5.428   2.744 -30.903  1.00  0.00     0.009 A 
HETATM   23  C   UNL     1      -4.792   3.973 -30.718  1.00  0.00     0.001 A 
HETATM   24  C   UNL     1      -3.554   4.216 -31.311  1.00  0.00     0.000 A 
HETATM   25  C   UNL     1      -2.949   3.229 -32.085  1.00  0.00     0.001 A 
HETATM   26  C   UNL     1      -3.583   1.998 -32.271  1.00  0.00     0.009 A 
ENDBRANCH  20  21
ENDBRANCH   1  20
BRANCH   1  27
HETATM   27  C   UNL     1      -6.102   0.045 -34.296  1.00  0.00     0.164 C 
BRANCH  27  28
HETATM   28  C   UNL     1      -5.883  -1.442 -34.429  1.00  0.00    -0.040 A 
HETATM   29  C   UNL     1      -4.616  -2.016 -34.248  1.00  0.00     0.009 A 
HETATM   30  C   UNL     1      -4.443  -3.398 -34.332  1.00  0.00     0.001 A 
HETATM   31  C   UNL     1      -5.535  -4.225 -34.589  1.00  0.00     0.000 A 
HETATM   32  C   UNL     1      -6.801  -3.671 -34.757  1.00  0.00     0.001 A 
HETATM   33  C   UNL     1      -6.976  -2.289 -34.671  1.00  0.00     0.009 A 
ENDBRANCH  27  28
ENDBRANCH   1  27
TORSDOF 7
ENDMDL
MODEL 4
REMARK VINA RESULT:      -8.4      2.607      6.400
REMARK  7 active torsions:
REMARK  status: ('A' for Active; 'I' for Inactive)
REMARK    1  A    between atoms: C_4  and  C_5 
REMARK    2  A    between atoms: C_5  and  N_6 
REMARK       I    between atoms: N_6  and  C_7 
REMARK    3  A    between atoms: N_6  and  C_22 
REMARK    4  A    between atoms: C_7  and  C_8 
REMARK    5  A    between atoms: C_13  and  C_14 
REMARK    6  A    between atoms: C_15  and  O_16 
REMARK    7  A    between atoms: C_22  and  C_23 
ROOT
HETATM    1  N   UNL     1      -7.143   4.137 -33.133  1.00  0.00    -0.343 N 
HETATM    2  C   UNL     1      -7.615   2.868 -33.475  1.00  0.00     0.235 C 
HETATM    3  O   UNL     1      -7.173   2.281 -34.467  1.00  0.00    -0.272 OA
ENDROOT
BRANCH   2   4
HETATM    4  C   UNL     1      -8.658   2.212 -32.598  1.00  0.00     0.195 C 
HETATM    5  C   UNL     1      -9.562   1.224 -33.267  1.00  0.00     0.247 C 
HETATM    6  O   UNL     1     -10.010   1.260 -34.400  1.00  0.00    -0.271 OA
HETATM    7  N   UNL     1      -9.926   0.304 -32.298  1.00  0.00    -0.290 N 
HETATM    8  N   UNL     1      -9.262   0.479 -31.078  1.00  0.00    -0.228 NA
HETATM    9  H   UNL     1     -10.567  -0.457 -32.501  1.00  0.00     0.183 HD
HETATM   10  C   UNL     1      -8.134   1.404 -31.392  1.00  0.00     0.134 C 
HETATM   11  H   UNL     1      -8.879  -0.421 -30.768  1.00  0.00     0.147 HD
BRANCH  10  12
HETATM   12  C   UNL     1      -6.840   0.601 -31.465  1.00  0.00    -0.004 A 
HETATM   13  C   UNL     1      -6.622  -0.380 -32.451  1.00  0.00     0.073 A 
HETATM   14  C   UNL     1      -5.406  -1.063 -32.545  1.00  0.00     0.037 A 
HETATM   15  C   UNL     1      -4.364  -0.770 -31.673  1.00  0.00     0.003 A 
HETATM   16  C   UNL     1      -4.539   0.214 -30.709  1.00  0.00     0.001 A 
HETATM   17  C   UNL     1      -5.755   0.898 -30.614  1.00  0.00     0.012 A 
BRANCH  13  18
HETATM   18  O   UNL     1      -7.537  -0.732 -33.405  1.00  0.00    -0.360 OA
HETATM   19  H   UNL     1      -7.748  -1.676 -33.363  1.00  0.00     0.217 HD
ENDBRANCH  13  18
ENDBRANCH  10  12
ENDBRANCH   2   4
BRANCH   1  20
HETATM   20  C   UNL     1      -6.139   4.753 -34.007  1.00  0.00     0.164 C 
BRANCH  20  21
HETATM   21  C   UNL     1      -4.742   4.695 -33.426  1.00  0.00    -0.040 A 
HETATM   22  C   UNL     1      -4.256   3.510 -32.853  1.00  0.00     0.009 A 
HETATM   23  C   UNL     1      -2.973   3.461 -32.303  1.00  0.00     0.001 A 
HETATM   24  C   UNL     1      -2.160   4.593 -32.325  1.00  0.00     0.000 A 
HETATM   25  C   UNL     1      -2.627   5.773 -32.899  1.00  0.00     0.001 A 
HETATM   26  C   UNL     1      -3.910   5.823 -33.451  1.00  0.00     0.009 A 
ENDBRANCH  20  21
ENDBRANCH   1  20
BRANCH   1  27
HETATM   27  C   UNL     1      -7.769   5.022 -32.146  1.00  0.00     0.164 C 
BRANCH  27  28
HETATM   28  C   UNL     1      -6.852   5.446 -31.024  1.00  0.00    -0.040 A 
HETATM   29  C   UNL     1      -6.456   6.782 -30.866  1.00  0.00     0.009 A 
HETATM   30  C   UNL     1      -5.643   7.160 -29.796  1.00  0.00     0.001 A 
HETATM   31  C   UNL     1      -5.224   6.211 -28.866  1.00  0.00     0.000 A 
HETATM   32  C   UNL     1      -5.622   4.883 -29.002  1.00  0.00     0.001 A 
HETATM   33  C   UNL     1      -6.436   4.503 -30.070  1.00  0.00     0.009 A 
ENDBRANCH  27  28
ENDBRANCH   1  27
TORSDOF 7
ENDMDL
MODEL 5
REMARK VINA RESULT:      -8.2      3.485      6.897
REMARK  7 active torsions:
REMARK  status: ('A' for Active; 'I' for Inactive)
REMARK    1  A    between atoms: C_4  and  C_5 
REMARK    2  A    between atoms: C_5  and  N_6 
REMARK       I    between atoms: N_6  and  C_7 
REMARK    3  A    between atoms: N_6  and  C_22 
REMARK    4  A    between atoms: C_7  and  C_8 
REMARK    5  A    between atoms: C_13  and  C_14 
REMARK    6  A    between atoms: C_15  and  O_16 
REMARK    7  A    between atoms: C_22  and  C_23 
ROOT
HETATM    1  N   UNL     1      -4.918   2.950 -31.676  1.00  0.00    -0.343 N 
HETATM    2  C   UNL     1      -4.216   4.091 -32.074  1.00  0.00     0.235 C 
HETATM    3  O   UNL     1      -4.066   5.037 -31.296  1.00  0.00    -0.272 OA
ENDROOT
BRANCH   2   4
HETATM    4  C   UNL     1      -3.623   4.139 -33.465  1.00  0.00     0.195 C 
HETATM    5  C   UNL     1      -4.183   5.174 -34.390  1.00  0.00     0.247 C 
HETATM    6  O   UNL     1      -5.334   5.567 -34.471  1.00  0.00    -0.271 OA
HETATM    7  N   UNL     1      -3.163   5.518 -35.261  1.00  0.00    -0.290 N 
HETATM    8  N   UNL     1      -1.932   4.931 -34.944  1.00  0.00    -0.228 NA
HETATM    9  H   UNL     1      -3.306   6.187 -36.011  1.00  0.00     0.183 HD
HETATM   10  C   UNL     1      -2.106   4.411 -33.556  1.00  0.00     0.134 C 
HETATM   11  H   UNL     1      -1.203   5.652 -34.941  1.00  0.00     0.147 HD
BRANCH  10  12
HETATM   12  C   UNL     1      -1.398   5.347 -32.584  1.00  0.00    -0.004 A 
HETATM   13  C   UNL     1      -1.336   6.738 -32.794  1.00  0.00     0.073 A 
HETATM   14  C   UNL     1      -0.740   7.592 -31.862  1.00  0.00     0.037 A 
HETATM   15  C   UNL     1      -0.209   7.085 -30.681  1.00  0.00     0.003 A 
HETATM   16  C   UNL     1      -0.282   5.721 -30.431  1.00  0.00     0.001 A 
HETATM   17  C   UNL     1      -0.879   4.867 -31.365  1.00  0.00     0.012 A 
BRANCH  13  18
HETATM   18  O   UNL     1      -1.864   7.379 -33.882  1.00  0.00    -0.360 OA
HETATM   19  H   UNL     1      -2.019   8.318 -33.699  1.00  0.00     0.217 HD
ENDBRANCH  13  18
ENDBRANCH  10  12
ENDBRANCH   2   4
BRANCH   1  20
HETATM   20  C   UNL     1      -5.491   2.935 -30.326  1.00  0.00     0.164 C 
BRANCH  20  21
HETATM   21  C   UNL     1      -6.919   3.434 -30.290  1.00  0.00    -0.040 A 
HETATM   22  C   UNL     1      -7.206   4.749 -29.887  1.00  0.00     0.009 A 
HETATM   23  C   UNL     1      -8.524   5.205 -29.838  1.00  0.00     0.001 A 
HETATM   24  C   UNL     1      -9.571   4.356 -30.195  1.00  0.00     0.000 A 
HETATM   25  C   UNL     1      -9.300   3.052 -30.605  1.00  0.00     0.001 A 
HETATM   26  C   UNL     1      -7.981   2.595 -30.656  1.00  0.00     0.009 A 
ENDBRANCH  20  21
ENDBRANCH   1  20
BRANCH   1  27
HETATM   27  C   UNL     1      -5.376   1.894 -32.583  1.00  0.00     0.164 C 
BRANCH  27  28
HETATM   28  C   UNL     1      -4.605   0.601 -32.468  1.00  0.00    -0.040 A 
HETATM   29  C   UNL     1      -3.409   0.522 -31.739  1.00  0.00     0.009 A 
HETATM   30  C   UNL     1      -2.735  -0.693 -31.609  1.00  0.00     0.001 A 
HETATM   31  C   UNL     1      -3.252  -1.846 -32.197  1.00  0.00     0.000 A 
HETATM   32  C   UNL     1      -4.446  -1.786 -32.911  1.00  0.00     0.001 A 
HETATM   33  C   UNL     1      -5.123  -0.572 -33.040  1.00  0.00     0.009 A 
ENDBRANCH  27  28
ENDBRANCH   1  27
TORSDOF 7
ENDMDL
MODEL 6
REMARK VINA RESULT:      -8.0      2.306      3.976
REMARK  7 active torsions:
REMARK  status: ('A' for Active; 'I' for Inactive)
REMARK    1  A    between atoms: C_4  and  C_5 
REMARK    2  A    between atoms: C_5  and  N_6 
REMARK       I    between atoms: N_6  and  C_7 
REMARK    3  A    between atoms: N_6  and  C_22 
REMARK    4  A    between atoms: C_7  and  C_8 
REMARK    5  A    between atoms: C_13  and  C_14 
REMARK    6  A    between atoms: C_15  and  O_16 
REMARK    7  A    between atoms: C_22  and  C_23 
ROOT
HETATM    1  N   UNL     1      -6.580   2.830 -31.279  1.00  0.00    -0.343 N 
HETATM    2  C   UNL     1      -5.612   3.830 -31.166  1.00  0.00     0.235 C 
HETATM    3  O   UNL     1      -4.411   3.547 -31.199  1.00  0.00    -0.272 OA
ENDROOT
BRANCH   2   4
HETATM    4  C   UNL     1      -6.057   5.270 -31.027  1.00  0.00     0.195 C 
HETATM    5  C   UNL     1      -5.514   6.023 -29.853  1.00  0.00     0.247 C 
HETATM    6  O   UNL     1      -5.281   5.603 -28.732  1.00  0.00    -0.271 OA
HETATM    7  N   UNL     1      -5.450   7.353 -30.232  1.00  0.00    -0.290 N 
HETATM    8  N   UNL     1      -5.763   7.568 -31.581  1.00  0.00    -0.228 NA
HETATM    9  H   UNL     1      -5.139   8.075 -29.591  1.00  0.00     0.183 HD
HETATM   10  C   UNL     1      -5.716   6.212 -32.201  1.00  0.00     0.134 C 
HETATM   11  H   UNL     1      -5.038   8.155 -32.007  1.00  0.00     0.147 HD
BRANCH  10  12
HETATM   12  C   UNL     1      -4.419   6.073 -32.991  1.00  0.00    -0.004 A 
HETATM   13  C   UNL     1      -4.349   5.343 -34.193  1.00  0.00     0.073 A 
HETATM   14  C   UNL     1      -3.169   5.278 -34.939  1.00  0.00     0.037 A 
HETATM   15  C   UNL     1      -2.031   5.959 -34.520  1.00  0.00     0.003 A 
HETATM   16  C   UNL     1      -2.078   6.710 -33.354  1.00  0.00     0.001 A 
HETATM   17  C   UNL     1      -3.259   6.776 -32.607  1.00  0.00     0.012 A 
BRANCH  13  18
HETATM   18  O   UNL     1      -5.401   4.672 -34.752  1.00  0.00    -0.360 OA
HETATM   19  H   UNL     1      -5.887   4.159 -34.089  1.00  0.00     0.217 HD
ENDBRANCH  13  18
ENDBRANCH  10  12
ENDBRANCH   2   4
BRANCH   1  20
HETATM   20  C   UNL     1      -6.119   1.443 -31.403  1.00  0.00     0.164 C 
BRANCH  20  21
HETATM   21  C   UNL     1      -6.559   0.792 -32.697  1.00  0.00    -0.040 A 
HETATM   22  C   UNL     1      -6.383   1.453 -33.923  1.00  0.00     0.009 A 
HETATM   23  C   UNL     1      -6.802   0.860 -35.115  1.00  0.00     0.001 A 
HETATM   24  C   UNL     1      -7.397  -0.401 -35.097  1.00  0.00     0.000 A 
HETATM   25  C   UNL     1      -7.568  -1.072 -33.888  1.00  0.00     0.001 A 
HETATM   26  C   UNL     1      -7.148  -0.480 -32.695  1.00  0.00     0.009 A 
ENDBRANCH  20  21
ENDBRANCH   1  20
BRANCH   1  27
HETATM   27  C   UNL     1      -8.006   3.013 -30.997  1.00  0.00     0.164 C 
BRANCH  27  28
HETATM   28  C   UNL     1      -8.879   3.071 -32.227  1.00  0.00    -0.040 A 
HETATM   29  C   UNL     1      -8.730   4.084 -33.185  1.00  0.00     0.009 A 
HETATM   30  C   UNL     1      -9.518   4.094 -34.337  1.00  0.00     0.001 A 
HETATM   31  C   UNL     1     -10.459   3.087 -34.550  1.00  0.00     0.000 A 
HETATM   32  C   UNL     1     -10.607   2.067 -33.614  1.00  0.00     0.001 A 
HETATM   33  C   UNL     1      -9.819   2.054 -32.463  1.00  0.00     0.009 A 
ENDBRANCH  27  28
ENDBRANCH   1  27
TORSDOF 7
ENDMDL
MODEL 7
REMARK VINA RESULT:      -7.9      2.109      3.329
REMARK  7 active torsions:
REMARK  status: ('A' for Active; 'I' for Inactive)
REMARK    1  A    between atoms: C_4  and  C_5 
REMARK    2  A    between atoms: C_5  and  N_6 
REMARK       I    between atoms: N_6  and  C_7 
REMARK    3  A    between atoms: N_6  and  C_22 
REMARK    4  A    between atoms: C_7  and  C_8 
REMARK    5  A    between atoms: C_13  and  C_14 
REMARK    6  A    between atoms: C_15  and  O_16 
REMARK    7  A    between atoms: C_22  and  C_23 
ROOT
HETATM    1  N   UNL     1      -8.010   1.615 -32.887  1.00  0.00    -0.343 N 
HETATM    2  C   UNL     1      -7.792   2.707 -32.043  1.00  0.00     0.235 C 
HETATM    3  O   UNL     1      -7.491   2.533 -30.859  1.00  0.00    -0.272 OA
ENDROOT
BRANCH   2   4
HETATM    4  C   UNL     1      -7.907   4.105 -32.608  1.00  0.00     0.195 C 
HETATM    5  C   UNL     1      -8.285   5.183 -31.641  1.00  0.00     0.247 C 
HETATM    6  O   UNL     1      -9.046   5.110 -30.692  1.00  0.00    -0.271 OA
HETATM    7  N   UNL     1      -7.709   6.352 -32.109  1.00  0.00    -0.290 N 
HETATM    8  N   UNL     1      -6.869   6.163 -33.213  1.00  0.00    -0.228 NA
HETATM    9  H   UNL     1      -7.847   7.240 -31.636  1.00  0.00     0.183 HD
HETATM   10  C   UNL     1      -6.638   4.689 -33.263  1.00  0.00     0.134 C 
HETATM   11  H   UNL     1      -5.975   6.635 -33.045  1.00  0.00     0.147 HD
BRANCH  10  12
HETATM   12  C   UNL     1      -5.244   4.388 -32.722  1.00  0.00    -0.004 A 
HETATM   13  C   UNL     1      -4.534   5.308 -31.928  1.00  0.00     0.073 A 
HETATM   14  C   UNL     1      -3.285   4.993 -31.386  1.00  0.00     0.037 A 
HETATM   15  C   UNL     1      -2.719   3.742 -31.601  1.00  0.00     0.003 A 
HETATM   16  C   UNL     1      -3.409   2.803 -32.355  1.00  0.00     0.001 A 
HETATM   17  C   UNL     1      -4.659   3.118 -32.898  1.00  0.00     0.012 A 
BRANCH  13  18
HETATM   18  O   UNL     1      -4.993   6.552 -31.591  1.00  0.00    -0.360 OA
HETATM   19  H   UNL     1      -4.475   6.937 -30.868  1.00  0.00     0.217 HD
ENDBRANCH  13  18
ENDBRANCH  10  12
ENDBRANCH   2   4
BRANCH   1  20
HETATM   20  C   UNL     1      -7.902   0.271 -32.310  1.00  0.00     0.164 C 
BRANCH  20  21
HETATM   21  C   UNL     1      -6.831  -0.568 -32.974  1.00  0.00    -0.040 A 
HETATM   22  C   UNL     1      -7.170  -1.507 -33.961  1.00  0.00     0.009 A 
HETATM   23  C   UNL     1      -6.185  -2.292 -34.562  1.00  0.00     0.001 A 
HETATM   24  C   UNL     1      -4.850  -2.145 -34.189  1.00  0.00     0.000 A 
HETATM   25  C   UNL     1      -4.498  -1.210 -33.218  1.00  0.00     0.001 A 
HETATM   26  C   UNL     1      -5.483  -0.423 -32.617  1.00  0.00     0.009 A 
ENDBRANCH  20  21
ENDBRANCH   1  20
BRANCH   1  27
HETATM   27  C   UNL     1      -8.616   1.698 -34.219  1.00  0.00     0.164 C 
BRANCH  27  28
HETATM   28  C   UNL     1     -10.125   1.765 -34.210  1.00  0.00    -0.040 A 
HETATM   29  C   UNL     1     -10.902   0.726 -33.680  1.00  0.00     0.009 A 
HETATM   30  C   UNL     1     -12.294   0.828 -33.642  1.00  0.00     0.001 A 
HETATM   31  C   UNL     1     -12.925   1.973 -34.125  1.00  0.00     0.000 A 
HETATM   32  C   UNL     1     -12.165   3.019 -34.641  1.00  0.00     0.001 A 
HETATM   33  C   UNL     1     -10.773   2.920 -34.678  1.00  0.00     0.009 A 
ENDBRANCH  27  28
ENDBRANCH   1  27
TORSDOF 7
ENDMDL
MODEL 8
REMARK VINA RESULT:      -7.7      2.555      6.131
REMARK  7 active torsions:
REMARK  status: ('A' for Active; 'I' for Inactive)
REMARK    1  A    between atoms: C_4  and  C_5 
REMARK    2  A    between atoms: C_5  and  N_6 
REMARK       I    between atoms: N_6  and  C_7 
REMARK    3  A    between atoms: N_6  and  C_22 
REMARK    4  A    between atoms: C_7  and  C_8 
REMARK    5  A    between atoms: C_13  and  C_14 
REMARK    6  A    between atoms: C_15  and  O_16 
REMARK    7  A    between atoms: C_22  and  C_23 
ROOT
HETATM    1  N   UNL     1      -7.017   2.783 -32.907  1.00  0.00    -0.343 N 
HETATM    2  C   UNL     1      -7.845   3.841 -32.525  1.00  0.00     0.235 C 
HETATM    3  O   UNL     1      -7.867   4.887 -33.179  1.00  0.00    -0.272 OA
ENDROOT
BRANCH   2   4
HETATM    4  C   UNL     1      -8.734   3.675 -31.312  1.00  0.00     0.195 C 
HETATM    5  C   UNL     1      -9.300   4.931 -30.727  1.00  0.00     0.247 C 
HETATM    6  O   UNL     1      -8.775   6.028 -30.647  1.00  0.00    -0.271 OA
HETATM    7  N   UNL     1     -10.510   4.586 -30.149  1.00  0.00    -0.290 N 
HETATM    8  N   UNL     1     -10.893   3.261 -30.394  1.00  0.00    -0.228 NA
HETATM    9  H   UNL     1     -11.078   5.267 -29.656  1.00  0.00     0.183 HD
HETATM   10  C   UNL     1      -9.996   2.806 -31.497  1.00  0.00     0.134 C 
HETATM   11  H   UNL     1     -11.864   3.244 -30.726  1.00  0.00     0.147 HD
BRANCH  10  12
HETATM   12  C   UNL     1     -10.781   2.800 -32.804  1.00  0.00    -0.004 A 
HETATM   13  C   UNL     1     -11.138   1.605 -33.457  1.00  0.00     0.073 A 
HETATM   14  C   UNL     1     -11.913   1.612 -34.620  1.00  0.00     0.037 A 
HETATM   15  C   UNL     1     -12.374   2.812 -35.152  1.00  0.00     0.003 A 
HETATM   16  C   UNL     1     -12.063   4.004 -34.514  1.00  0.00     0.001 A 
HETATM   17  C   UNL     1     -11.287   3.997 -33.349  1.00  0.00     0.012 A 
BRANCH  13  18
HETATM   18  O   UNL     1     -10.801   0.354 -33.018  1.00  0.00    -0.360 OA
HETATM   19  H   UNL     1     -10.538  -0.221 -33.752  1.00  0.00     0.217 HD
ENDBRANCH  13  18
ENDBRANCH  10  12
ENDBRANCH   2   4
BRANCH   1  20
HETATM   20  C   UNL     1      -6.159   2.975 -34.082  1.00  0.00     0.164 C 
BRANCH  20  21
HETATM   21  C   UNL     1      -4.910   3.772 -33.772  1.00  0.00    -0.040 A 
HETATM   22  C   UNL     1      -4.606   4.934 -34.499  1.00  0.00     0.009 A 
HETATM   23  C   UNL     1      -3.446   5.661 -34.224  1.00  0.00     0.001 A 
HETATM   24  C   UNL     1      -2.580   5.238 -33.217  1.00  0.00     0.000 A 
HETATM   25  C   UNL     1      -2.874   4.093 -32.481  1.00  0.00     0.001 A 
HETATM   26  C   UNL     1      -4.035   3.365 -32.755  1.00  0.00     0.009 A 
ENDBRANCH  20  21
ENDBRANCH   1  20
BRANCH   1  27
HETATM   27  C   UNL     1      -6.719   1.614 -32.076  1.00  0.00     0.164 C 
BRANCH  27  28
HETATM   28  C   UNL     1      -6.400   0.362 -32.858  1.00  0.00    -0.040 A 
HETATM   29  C   UNL     1      -5.118  -0.206 -32.843  1.00  0.00     0.009 A 
HETATM   30  C   UNL     1      -4.856  -1.388 -33.538  1.00  0.00     0.001 A 
HETATM   31  C   UNL     1      -5.874  -2.022 -34.247  1.00  0.00     0.000 A 
HETATM   32  C   UNL     1      -7.156  -1.478 -34.258  1.00  0.00     0.001 A 
HETATM   33  C   UNL     1      -7.420  -0.297 -33.563  1.00  0.00     0.009 A 
ENDBRANCH  27  28
ENDBRANCH   1  27
TORSDOF 7
ENDMDL
MODEL 9
REMARK VINA RESULT:      -7.7      2.909      7.282
REMARK  7 active torsions:
REMARK  status: ('A' for Active; 'I' for Inactive)
REMARK    1  A    between atoms: C_4  and  C_5 
REMARK    2  A    between atoms: C_5  and  N_6 
REMARK       I    between atoms: N_6  and  C_7 
REMARK    3  A    between atoms: N_6  and  C_22 
REMARK    4  A    between atoms: C_7  and  C_8 
REMARK    5  A    between atoms: C_13  and  C_14 
REMARK    6  A    between atoms: C_15  and  O_16 
REMARK    7  A    between atoms: C_22  and  C_23 
ROOT
HETATM    1  N   UNL     1      -4.664   4.195 -31.610  1.00  0.00    -0.343 N 
HETATM    2  C   UNL     1      -5.433   3.259 -32.306  1.00  0.00     0.235 C 
HETATM    3  O   UNL     1      -4.910   2.250 -32.787  1.00  0.00    -0.272 OA
ENDROOT
BRANCH   2   4
HETATM    4  C   UNL     1      -6.923   3.488 -32.439  1.00  0.00     0.195 C 
HETATM    5  C   UNL     1      -7.370   4.269 -33.635  1.00  0.00     0.247 C 
HETATM    6  O   UNL     1      -6.807   5.205 -34.177  1.00  0.00    -0.271 OA
HETATM    7  N   UNL     1      -8.642   3.820 -33.947  1.00  0.00    -0.290 N 
HETATM    8  N   UNL     1      -9.056   2.725 -33.177  1.00  0.00    -0.228 NA
HETATM    9  H   UNL     1      -9.177   4.221 -34.710  1.00  0.00     0.183 HD
HETATM   10  C   UNL     1      -7.808   2.227 -32.527  1.00  0.00     0.134 C 
HETATM   11  H   UNL     1      -9.423   1.994 -33.797  1.00  0.00     0.147 HD
BRANCH  10  12
HETATM   12  C   UNL     1      -7.341   0.968 -33.249  1.00  0.00    -0.004 A 
HETATM   13  C   UNL     1      -6.737  -0.106 -32.568  1.00  0.00     0.073 A 
HETATM   14  C   UNL     1      -6.373  -1.280 -33.233  1.00  0.00     0.037 A 
HETATM   15  C   UNL     1      -6.623  -1.426 -34.593  1.00  0.00     0.003 A 
HETATM   16  C   UNL     1      -7.244  -0.396 -35.286  1.00  0.00     0.001 A 
HETATM   17  C   UNL     1      -7.609   0.779 -34.620  1.00  0.00     0.012 A 
BRANCH  13  18
HETATM   18  O   UNL     1      -6.481  -0.122 -31.225  1.00  0.00    -0.360 OA
HETATM   19  H   UNL     1      -5.953  -0.895 -30.974  1.00  0.00     0.217 HD
ENDBRANCH  13  18
ENDBRANCH  10  12
ENDBRANCH   2   4
BRANCH   1  20
HETATM   20  C   UNL     1      -3.221   3.952 -31.505  1.00  0.00     0.164 C 
BRANCH  20  21
HETATM   21  C   UNL     1      -2.412   4.800 -32.463  1.00  0.00    -0.040 A 
HETATM   22  C   UNL     1      -1.681   5.904 -31.996  1.00  0.00     0.009 A 
HETATM   23  C   UNL     1      -0.948   6.696 -32.881  1.00  0.00     0.001 A 
HETATM   24  C   UNL     1      -0.932   6.392 -34.242  1.00  0.00     0.000 A 
HETATM   25  C   UNL     1      -1.646   5.294 -34.717  1.00  0.00     0.001 A 
HETATM   26  C   UNL     1      -2.379   4.500 -33.832  1.00  0.00     0.009 A 
ENDBRANCH  20  21
ENDBRANCH   1  20
BRANCH   1  27
HETATM   27  C   UNL     1      -5.122   5.533 -31.228  1.00  0.00     0.164 C 
BRANCH  27  28
HETATM   28  C   UNL     1      -4.922   5.864 -29.769  1.00  0.00    -0.040 A 
HETATM   29  C   UNL     1      -4.002   6.839 -29.357  1.00  0.00     0.009 A 
HETATM   30  C   UNL     1      -3.864   7.160 -28.006  1.00  0.00     0.001 A 
HETATM   31  C   UNL     1      -4.650   6.518 -27.051  1.00  0.00     0.000 A 
HETATM   32  C   UNL     1      -5.578   5.559 -27.446  1.00  0.00     0.001 A 
HETATM   33  C   UNL     1      -5.719   5.238 -28.797  1.00  0.00     0.009 A 
ENDBRANCH  27  28
ENDBRANCH   1  27
TORSDOF 7
ENDMDL
MODEL 10
REMARK VINA RESULT:      -7.7      2.581      6.898
REMARK  7 active torsions:
REMARK  status: ('A' for Active; 'I' for Inactive)
REMARK    1  A    between atoms: C_4  and  C_5 
REMARK    2  A    between atoms: C_5  and  N_6 
REMARK       I    between atoms: N_6  and  C_7 
REMARK    3  A    between atoms: N_6  and  C_22 
REMARK    4  A    between atoms: C_7  and  C_8 
REMARK    5  A    between atoms: C_13  and  C_14 
REMARK    6  A    between atoms: C_15  and  O_16 
REMARK    7  A    between atoms: C_22  and  C_23 
ROOT
HETATM    1  N   UNL     1      -5.134   3.919 -32.661  1.00  0.00    -0.343 N 
HETATM    2  C   UNL     1      -5.986   2.838 -32.899  1.00  0.00     0.235 C 
HETATM    3  O   UNL     1      -6.090   2.358 -34.031  1.00  0.00    -0.272 OA
ENDROOT
BRANCH   2   4
HETATM    4  C   UNL     1      -6.761   2.248 -31.741  1.00  0.00     0.195 C 
HETATM    5  C   UNL     1      -8.252   2.251 -31.870  1.00  0.00     0.247 C 
HETATM    6  O   UNL     1      -8.961   3.096 -32.390  1.00  0.00    -0.271 OA
HETATM    7  N   UNL     1      -8.713   1.162 -31.150  1.00  0.00    -0.290 N 
HETATM    8  N   UNL     1      -7.691   0.340 -30.658  1.00  0.00    -0.228 NA
HETATM    9  H   UNL     1      -9.704   0.965 -31.059  1.00  0.00     0.183 HD
HETATM   10  C   UNL     1      -6.469   0.771 -31.400  1.00  0.00     0.134 C 
HETATM   11  H   UNL     1      -7.897  -0.636 -30.895  1.00  0.00     0.147 HD
BRANCH  10  12
HETATM   12  C   UNL     1      -6.159  -0.257 -32.482  1.00  0.00    -0.004 A 
HETATM   13  C   UNL     1      -7.152  -0.760 -33.344  1.00  0.00     0.073 A 
HETATM   14  C   UNL     1      -6.841  -1.653 -34.373  1.00  0.00     0.037 A 
HETATM   15  C   UNL     1      -5.526  -2.051 -34.587  1.00  0.00     0.003 A 
HETATM   16  C   UNL     1      -4.521  -1.549 -33.772  1.00  0.00     0.001 A 
HETATM   17  C   UNL     1      -4.832  -0.655 -32.742  1.00  0.00     0.012 A 
BRANCH  13  18
HETATM   18  O   UNL     1      -8.474  -0.414 -33.285  1.00  0.00    -0.360 OA
HETATM   19  H   UNL     1      -9.038  -1.190 -33.155  1.00  0.00     0.217 HD
ENDBRANCH  13  18
ENDBRANCH  10  12
ENDBRANCH   2   4
BRANCH   1  20
HETATM   20  C   UNL     1      -4.402   4.477 -33.804  1.00  0.00     0.164 C 
BRANCH  20  21
HETATM   21  C   UNL     1      -3.114   5.161 -33.398  1.00  0.00    -0.040 A 
HETATM   22  C   UNL     1      -2.171   4.491 -32.603  1.00  0.00     0.009 A 
HETATM   23  C   UNL     1      -0.989   5.126 -32.216  1.00  0.00     0.001 A 
HETATM   24  C   UNL     1      -0.735   6.435 -32.622  1.00  0.00     0.000 A 
HETATM   25  C   UNL     1      -1.658   7.108 -33.419  1.00  0.00     0.001 A 
HETATM   26  C   UNL     1      -2.840   6.473 -33.809  1.00  0.00     0.009 A 
ENDBRANCH  20  21
ENDBRANCH   1  20
BRANCH   1  27
HETATM   27  C   UNL     1      -5.126   4.723 -31.436  1.00  0.00     0.164 C 
BRANCH  27  28
HETATM   28  C   UNL     1      -5.820   6.058 -31.566  1.00  0.00    -0.040 A 
HETATM   29  C   UNL     1      -7.122   6.161 -32.077  1.00  0.00     0.009 A 
HETATM   30  C   UNL     1      -7.761   7.400 -32.148  1.00  0.00     0.001 A 
HETATM   31  C   UNL     1      -7.111   8.549 -31.700  1.00  0.00     0.000 A 
HETATM   32  C   UNL     1      -5.824   8.459 -31.177  1.00  0.00     0.001 A 
HETATM   33  C   UNL     1      -5.184   7.221 -31.104  1.00  0.00     0.009 A 
ENDBRANCH  27  28
ENDBRANCH   1  27
TORSDOF 7
ENDMDL
