MODEL 1
REMARK VINA RESULT:      -8.6      0.000      0.000
REMARK  5 active torsions:
REMARK  status: ('A' for Active; 'I' for Inactive)
REMARK    1  A    between atoms: C_8  and  C_9 
REMARK    2  A    between atoms: C_9  and  C_10 
REMARK       I    between atoms: C_10  and  N_11 
REMARK    3  A    between atoms: N_11  and  N_12 
REMARK    4  A    between atoms: C_13  and  C_14 
REMARK    5  A    between atoms: C_15  and  O_16 
ROOT
HETATM    1  C   UNL     1      -5.643   2.176 -31.343  1.00  0.00     0.241 C 
HETATM    2  N   UNL     1      -5.362   2.653 -32.619  1.00  0.00    -0.247 N 
HETATM    3  O   UNL     1      -5.475   2.817 -30.306  1.00  0.00    -0.271 OA
HETATM    4  H   UNL     1      -5.447   2.029 -33.416  1.00  0.00     0.192 HD
ENDROOT
BRANCH   1   5
HETATM    5  C   UNL     1      -6.254   0.782 -31.337  1.00  0.00     0.145 C 
BRANCH   5   6
HETATM    6  C   UNL     1      -5.333  -0.235 -31.936  1.00  0.00    -0.021 A 
HETATM    7  C   UNL     1      -5.628  -1.157 -32.992  1.00  0.00    -0.001 A 
HETATM    8  C   UNL     1      -6.783  -1.449 -33.750  1.00  0.00     0.014 A 
HETATM    9  C   UNL     1      -4.454  -1.854 -33.277  1.00  0.00     0.042 A 
HETATM   10  C   UNL     1      -6.715  -2.410 -34.765  1.00  0.00     0.001 A 
HETATM   11  C   UNL     1      -5.523  -3.080 -35.031  1.00  0.00     0.002 A 
HETATM   12  C   UNL     1      -4.369  -2.816 -34.290  1.00  0.00     0.030 A 
HETATM   13  N   UNL     1      -3.492  -1.405 -32.403  1.00  0.00    -0.365 N 
HETATM   14  H   UNL     1      -2.538  -1.739 -32.377  1.00  0.00     0.165 HD
HETATM   15  C   UNL     1      -4.008  -0.430 -31.595  1.00  0.00     0.097 A 
ENDBRANCH   5   6
ENDBRANCH   1   5
BRANCH   2  16
HETATM   16  N   UNL     1      -4.701   3.833 -32.769  1.00  0.00    -0.184 NA
HETATM   17  C   UNL     1      -3.427   3.729 -32.975  1.00  0.00     0.153 C 
BRANCH  17  18
HETATM   18  C   UNL     1      -2.577   4.931 -33.082  1.00  0.00     0.017 A 
HETATM   19  C   UNL     1      -2.722   5.851 -34.126  1.00  0.00     0.077 A 
HETATM   20  C   UNL     1      -1.928   6.995 -34.168  1.00  0.00     0.039 A 
HETATM   21  C   UNL     1      -0.976   7.218 -33.173  1.00  0.00     0.022 A 
HETATM   22  C   UNL     1      -0.826   6.294 -32.139  1.00  0.00     0.012 A 
HETATM   23 BR   UNL     1       0.469   6.595 -30.793  1.00  0.00    -0.051 Br
HETATM   24  C   UNL     1      -1.623   5.151 -32.083  1.00  0.00     0.034 A 
BRANCH  19  25
HETATM   25  O   UNL     1      -3.633   5.708 -35.137  1.00  0.00    -0.360 OA
HETATM   26  H   UNL     1      -3.451   4.860 -35.605  1.00  0.00     0.217 HD
ENDBRANCH  19  25
ENDBRANCH  17  18
ENDBRANCH   2  16
TORSDOF 5
ENDMDL
MODEL 2
REMARK VINA RESULT:      -8.5      6.017      8.329
REMARK  5 active torsions:
REMARK  status: ('A' for Active; 'I' for Inactive)
REMARK    1  A    between atoms: C_8  and  C_9 
REMARK    2  A    between atoms: C_9  and  C_10 
REMARK       I    between atoms: C_10  and  N_11 
REMARK    3  A    between atoms: N_11  and  N_12 
REMARK    4  A    between atoms: C_13  and  C_14 
REMARK    5  A    between atoms: C_15  and  O_16 
ROOT
HETATM    1  C   UNL     1      -8.600   0.197 -34.177  1.00  0.00     0.241 C 
HETATM    2  N   UNL     1      -9.558   1.100 -34.626  1.00  0.00    -0.247 N 
HETATM    3  O   UNL     1      -8.662  -0.410 -33.108  1.00  0.00    -0.271 OA
HETATM    4  H   UNL     1      -9.388   1.625 -35.480  1.00  0.00     0.192 HD
ENDROOT
BRANCH   1   5
HETATM    5  C   UNL     1      -7.472  -0.036 -35.171  1.00  0.00     0.145 C 
BRANCH   5   6
HETATM    6  C   UNL     1      -6.319  -0.759 -34.547  1.00  0.00    -0.021 A 
HETATM    7  C   UNL     1      -6.051  -2.166 -34.592  1.00  0.00    -0.001 A 
HETATM    8  C   UNL     1      -6.722  -3.279 -35.145  1.00  0.00     0.014 A 
HETATM    9  C   UNL     1      -4.833  -2.379 -33.947  1.00  0.00     0.042 A 
HETATM   10  C   UNL     1      -6.146  -4.551 -35.041  1.00  0.00     0.001 A 
HETATM   11  C   UNL     1      -4.923  -4.727 -34.399  1.00  0.00     0.002 A 
HETATM   12  C   UNL     1      -4.243  -3.644 -33.837  1.00  0.00     0.030 A 
HETATM   13  N   UNL     1      -4.395  -1.159 -33.490  1.00  0.00    -0.365 N 
HETATM   14  H   UNL     1      -3.536  -1.010 -32.978  1.00  0.00     0.165 HD
HETATM   15  C   UNL     1      -5.279  -0.177 -33.847  1.00  0.00     0.097 A 
ENDBRANCH   5   6
ENDBRANCH   1   5
BRANCH   2  16
HETATM   16  N   UNL     1     -10.557   1.497 -33.792  1.00  0.00    -0.184 NA
HETATM   17  C   UNL     1     -11.753   1.408 -34.282  1.00  0.00     0.153 C 
BRANCH  17  18
HETATM   18  C   UNL     1     -12.922   1.872 -33.512  1.00  0.00     0.017 A 
HETATM   19  C   UNL     1     -14.150   1.201 -33.549  1.00  0.00     0.077 A 
HETATM   20  C   UNL     1     -15.217   1.648 -32.774  1.00  0.00     0.039 A 
HETATM   21  C   UNL     1     -15.067   2.777 -31.967  1.00  0.00     0.022 A 
HETATM   22  C   UNL     1     -13.846   3.450 -31.940  1.00  0.00     0.012 A 
HETATM   23 BR   UNL     1     -13.645   4.984 -30.850  1.00  0.00    -0.051 Br
HETATM   24  C   UNL     1     -12.768   3.005 -32.705  1.00  0.00     0.034 A 
BRANCH  19  25
HETATM   25  O   UNL     1     -14.377   0.087 -34.309  1.00  0.00    -0.360 OA
HETATM   26  H   UNL     1     -13.592  -0.066 -34.885  1.00  0.00     0.217 HD
ENDBRANCH  19  25
ENDBRANCH  17  18
ENDBRANCH   2  16
TORSDOF 5
ENDMDL
MODEL 3
REMARK VINA RESULT:      -8.3      1.205      1.791
REMARK  5 active torsions:
REMARK  status: ('A' for Active; 'I' for Inactive)
REMARK    1  A    between atoms: C_8  and  C_9 
REMARK    2  A    between atoms: C_9  and  C_10 
REMARK       I    between atoms: C_10  and  N_11 
REMARK    3  A    between atoms: N_11  and  N_12 
REMARK    4  A    between atoms: C_13  and  C_14 
REMARK    5  A    between atoms: C_15  and  O_16 
ROOT
HETATM    1  C   UNL     1      -4.905   1.691 -30.562  1.00  0.00     0.241 C 
HETATM    2  N   UNL     1      -3.818   1.743 -31.427  1.00  0.00    -0.247 N 
HETATM    3  O   UNL     1      -5.379   2.665 -29.978  1.00  0.00    -0.271 OA
HETATM    4  H   UNL     1      -3.435   0.880 -31.801  1.00  0.00     0.192 HD
ENDROOT
BRANCH   1   5
HETATM    5  C   UNL     1      -5.521   0.305 -30.444  1.00  0.00     0.145 C 
BRANCH   5   6
HETATM    6  C   UNL     1      -6.277  -0.078 -31.678  1.00  0.00    -0.021 A 
HETATM    7  C   UNL     1      -5.843  -0.955 -32.724  1.00  0.00    -0.001 A 
HETATM    8  C   UNL     1      -4.655  -1.675 -32.975  1.00  0.00     0.014 A 
HETATM    9  C   UNL     1      -6.899  -1.082 -33.627  1.00  0.00     0.042 A 
HETATM   10  C   UNL     1      -4.574  -2.497 -34.106  1.00  0.00     0.001 A 
HETATM   11  C   UNL     1      -5.651  -2.609 -34.981  1.00  0.00     0.002 A 
HETATM   12  C   UNL     1      -6.835  -1.900 -34.760  1.00  0.00     0.030 A 
HETATM   13  N   UNL     1      -7.921  -0.282 -33.173  1.00  0.00    -0.365 N 
HETATM   14  H   UNL     1      -8.814  -0.172 -33.634  1.00  0.00     0.165 HD
HETATM   15  C   UNL     1      -7.560   0.324 -32.001  1.00  0.00     0.097 A 
ENDBRANCH   5   6
ENDBRANCH   1   5
BRANCH   2  16
HETATM   16  N   UNL     1      -3.094   2.891 -31.535  1.00  0.00    -0.184 NA
HETATM   17  C   UNL     1      -3.330   3.594 -32.597  1.00  0.00     0.153 C 
BRANCH  17  18
HETATM   18  C   UNL     1      -2.564   4.824 -32.875  1.00  0.00     0.017 A 
HETATM   19  C   UNL     1      -2.881   5.671 -33.943  1.00  0.00     0.077 A 
HETATM   20  C   UNL     1      -2.159   6.844 -34.147  1.00  0.00     0.039 A 
HETATM   21  C   UNL     1      -1.106   7.171 -33.290  1.00  0.00     0.022 A 
HETATM   22  C   UNL     1      -0.785   6.320 -32.233  1.00  0.00     0.012 A 
HETATM   23 BR   UNL     1       0.646   6.761 -31.077  1.00  0.00    -0.051 Br
HETATM   24  C   UNL     1      -1.509   5.147 -32.015  1.00  0.00     0.034 A 
BRANCH  19  25
HETATM   25  O   UNL     1      -3.898   5.424 -34.824  1.00  0.00    -0.360 OA
HETATM   26  H   UNL     1      -4.334   6.279 -35.048  1.00  0.00     0.217 HD
ENDBRANCH  19  25
ENDBRANCH  17  18
ENDBRANCH   2  16
TORSDOF 5
ENDMDL
MODEL 4
REMARK VINA RESULT:      -8.1      2.257      2.819
REMARK  5 active torsions:
REMARK  status: ('A' for Active; 'I' for Inactive)
REMARK    1  A    between atoms: C_8  and  C_9 
REMARK    2  A    between atoms: C_9  and  C_10 
REMARK       I    between atoms: C_10  and  N_11 
REMARK    3  A    between atoms: N_11  and  N_12 
REMARK    4  A    between atoms: C_13  and  C_14 
REMARK    5  A    between atoms: C_15  and  O_16 
ROOT
HETATM    1  C   UNL     1      -4.240   1.710 -31.848  1.00  0.00     0.241 C 
HETATM    2  N   UNL     1      -3.201   2.542 -32.250  1.00  0.00    -0.247 N 
HETATM    3  O   UNL     1      -4.857   1.827 -30.790  1.00  0.00    -0.271 OA
HETATM    4  H   UNL     1      -2.686   2.324 -33.099  1.00  0.00     0.192 HD
ENDROOT
BRANCH   1   5
HETATM    5  C   UNL     1      -4.608   0.655 -32.881  1.00  0.00     0.145 C 
BRANCH   5   6
HETATM    6  C   UNL     1      -4.017  -0.680 -32.551  1.00  0.00    -0.021 A 
HETATM    7  C   UNL     1      -4.286  -1.931 -33.197  1.00  0.00    -0.001 A 
HETATM    8  C   UNL     1      -5.145  -2.335 -34.242  1.00  0.00     0.014 A 
HETATM    9  C   UNL     1      -3.455  -2.888 -32.614  1.00  0.00     0.042 A 
HETATM   10  C   UNL     1      -5.130  -3.668 -34.669  1.00  0.00     0.001 A 
HETATM   11  C   UNL     1      -4.280  -4.595 -34.072  1.00  0.00     0.002 A 
HETATM   12  C   UNL     1      -3.427  -4.224 -33.030  1.00  0.00     0.030 A 
HETATM   13  N   UNL     1      -2.738  -2.256 -31.625  1.00  0.00    -0.365 N 
HETATM   14  H   UNL     1      -2.057  -2.708 -31.030  1.00  0.00     0.165 HD
HETATM   15  C   UNL     1      -3.065  -0.929 -31.580  1.00  0.00     0.097 A 
ENDBRANCH   5   6
ENDBRANCH   1   5
BRANCH   2  16
HETATM   16  N   UNL     1      -2.686   3.451 -31.378  1.00  0.00    -0.184 NA
HETATM   17  C   UNL     1      -2.398   4.605 -31.889  1.00  0.00     0.153 C 
BRANCH  17  18
HETATM   18  C   UNL     1      -1.766   5.658 -31.072  1.00  0.00     0.017 A 
HETATM   19  C   UNL     1      -0.649   5.404 -30.267  1.00  0.00     0.077 A 
HETATM   20  C   UNL     1      -0.057   6.436 -29.543  1.00  0.00     0.039 A 
HETATM   21  C   UNL     1      -0.585   7.726 -29.609  1.00  0.00     0.022 A 
HETATM   22  C   UNL     1      -1.705   7.974 -30.403  1.00  0.00     0.012 A 
HETATM   23 BR   UNL     1      -2.424   9.722 -30.488  1.00  0.00    -0.051 Br
HETATM   24  C   UNL     1      -2.299   6.950 -31.140  1.00  0.00     0.034 A 
BRANCH  19  25
HETATM   25  O   UNL     1      -0.070   4.170 -30.151  1.00  0.00    -0.360 OA
HETATM   26  H   UNL     1       0.315   4.088 -29.247  1.00  0.00     0.217 HD
ENDBRANCH  19  25
ENDBRANCH  17  18
ENDBRANCH   2  16
TORSDOF 5
ENDMDL
MODEL 5
REMARK VINA RESULT:      -8.0      5.409      7.047
REMARK  5 active torsions:
REMARK  status: ('A' for Active; 'I' for Inactive)
REMARK    1  A    between atoms: C_8  and  C_9 
REMARK    2  A    between atoms: C_9  and  C_10 
REMARK       I    between atoms: C_10  and  N_11 
REMARK    3  A    between atoms: N_11  and  N_12 
REMARK    4  A    between atoms: C_13  and  C_14 
REMARK    5  A    between atoms: C_15  and  O_16 
ROOT
HETATM    1  C   UNL     1      -6.905   1.471 -31.373  1.00  0.00     0.241 C 
HETATM    2  N   UNL     1      -8.225   1.273 -30.984  1.00  0.00    -0.247 N 
HETATM    3  O   UNL     1      -6.544   2.276 -32.231  1.00  0.00    -0.271 OA
HETATM    4  H   UNL     1      -8.447   0.528 -30.331  1.00  0.00     0.192 HD
ENDROOT
BRANCH   1   5
HETATM    5  C   UNL     1      -5.907   0.638 -30.582  1.00  0.00     0.145 C 
BRANCH   5   6
HETATM    6  C   UNL     1      -5.083  -0.240 -31.472  1.00  0.00    -0.021 A 
HETATM    7  C   UNL     1      -5.533  -0.991 -32.606  1.00  0.00    -0.001 A 
HETATM    8  C   UNL     1      -6.789  -1.196 -33.216  1.00  0.00     0.014 A 
HETATM    9  C   UNL     1      -4.412  -1.595 -33.177  1.00  0.00     0.042 A 
HETATM   10  C   UNL     1      -6.874  -1.980 -34.373  1.00  0.00     0.001 A 
HETATM   11  C   UNL     1      -5.733  -2.559 -34.923  1.00  0.00     0.002 A 
HETATM   12  C   UNL     1      -4.479  -2.380 -34.333  1.00  0.00     0.030 A 
HETATM   13  N   UNL     1      -3.329  -1.260 -32.399  1.00  0.00    -0.365 N 
HETATM   14  H   UNL     1      -2.380  -1.563 -32.573  1.00  0.00     0.165 HD
HETATM   15  C   UNL     1      -3.719  -0.443 -31.373  1.00  0.00     0.097 A 
ENDBRANCH   5   6
ENDBRANCH   1   5
BRANCH   2  16
HETATM   16  N   UNL     1      -9.232   1.860 -31.687  1.00  0.00    -0.184 NA
HETATM   17  C   UNL     1      -9.751   1.130 -32.622  1.00  0.00     0.153 C 
BRANCH  17  18
HETATM   18  C   UNL     1     -10.800   1.668 -33.508  1.00  0.00     0.017 A 
HETATM   19  C   UNL     1     -10.566   2.748 -34.367  1.00  0.00     0.077 A 
HETATM   20  C   UNL     1     -11.572   3.199 -35.217  1.00  0.00     0.039 A 
HETATM   21  C   UNL     1     -12.824   2.581 -35.205  1.00  0.00     0.022 A 
HETATM   22  C   UNL     1     -13.058   1.512 -34.340  1.00  0.00     0.012 A 
HETATM   23 BR   UNL     1     -14.757   0.679 -34.321  1.00  0.00    -0.051 Br
HETATM   24  C   UNL     1     -12.054   1.046 -33.492  1.00  0.00     0.034 A 
BRANCH  19  25
HETATM   25  O   UNL     1      -9.368   3.405 -34.442  1.00  0.00    -0.360 OA
HETATM   26  H   UNL     1      -8.646   2.737 -34.488  1.00  0.00     0.217 HD
ENDBRANCH  19  25
ENDBRANCH  17  18
ENDBRANCH   2  16
TORSDOF 5
ENDMDL
MODEL 6
REMARK VINA RESULT:      -7.9      1.703      2.423
REMARK  5 active torsions:
REMARK  status: ('A' for Active; 'I' for Inactive)
REMARK    1  A    between atoms: C_8  and  C_9 
REMARK    2  A    between atoms: C_9  and  C_10 
REMARK       I    between atoms: C_10  and  N_11 
REMARK    3  A    between atoms: N_11  and  N_12 
REMARK    4  A    between atoms: C_13  and  C_14 
REMARK    5  A    between atoms: C_15  and  O_16 
ROOT
HETATM    1  C   UNL     1      -3.523   0.396 -31.473  1.00  0.00     0.241 C 
HETATM    2  N   UNL     1      -3.934   1.541 -32.148  1.00  0.00    -0.247 N 
HETATM    3  O   UNL     1      -2.431   0.268 -30.919  1.00  0.00    -0.271 OA
HETATM    4  H   UNL     1      -4.816   1.533 -32.651  1.00  0.00     0.192 HD
ENDROOT
BRANCH   1   5
HETATM    5  C   UNL     1      -4.587  -0.690 -31.414  1.00  0.00     0.145 C 
BRANCH   5   6
HETATM    6  C   UNL     1      -5.287  -0.858 -32.727  1.00  0.00    -0.021 A 
HETATM    7  C   UNL     1      -6.523  -0.257 -33.133  1.00  0.00    -0.001 A 
HETATM    8  C   UNL     1      -7.461   0.589 -32.503  1.00  0.00     0.014 A 
HETATM    9  C   UNL     1      -6.750  -0.629 -34.459  1.00  0.00     0.042 A 
HETATM   10  C   UNL     1      -8.575   1.038 -33.222  1.00  0.00     0.001 A 
HETATM   11  C   UNL     1      -8.766   0.656 -34.548  1.00  0.00     0.002 A 
HETATM   12  C   UNL     1      -7.858  -0.188 -35.192  1.00  0.00     0.030 A 
HETATM   13  N   UNL     1      -5.718  -1.456 -34.833  1.00  0.00    -0.365 N 
HETATM   14  H   UNL     1      -5.623  -1.882 -35.745  1.00  0.00     0.165 HD
HETATM   15  C   UNL     1      -4.830  -1.598 -33.801  1.00  0.00     0.097 A 
ENDBRANCH   5   6
ENDBRANCH   1   5
BRANCH   2  16
HETATM   16  N   UNL     1      -3.045   2.543 -32.384  1.00  0.00    -0.184 NA
HETATM   17  C   UNL     1      -3.558   3.729 -32.464  1.00  0.00     0.153 C 
BRANCH  17  18
HETATM   18  C   UNL     1      -2.717   4.897 -32.788  1.00  0.00     0.017 A 
HETATM   19  C   UNL     1      -2.968   5.706 -33.902  1.00  0.00     0.077 A 
HETATM   20  C   UNL     1      -2.175   6.824 -34.150  1.00  0.00     0.039 A 
HETATM   21  C   UNL     1      -1.119   7.133 -33.290  1.00  0.00     0.022 A 
HETATM   22  C   UNL     1      -0.866   6.320 -32.186  1.00  0.00     0.012 A 
HETATM   23 BR   UNL     1       0.569   6.737 -31.025  1.00  0.00    -0.051 Br
HETATM   24  C   UNL     1      -1.660   5.203 -31.924  1.00  0.00     0.034 A 
BRANCH  19  25
HETATM   25  O   UNL     1      -3.983   5.474 -34.789  1.00  0.00    -0.360 OA
HETATM   26  H   UNL     1      -3.643   5.628 -35.702  1.00  0.00     0.217 HD
ENDBRANCH  19  25
ENDBRANCH  17  18
ENDBRANCH   2  16
TORSDOF 5
ENDMDL
MODEL 7
REMARK VINA RESULT:      -7.8      3.609      7.809
REMARK  5 active torsions:
REMARK  status: ('A' for Active; 'I' for Inactive)
REMARK    1  A    between atoms: C_8  and  C_9 
REMARK    2  A    between atoms: C_9  and  C_10 
REMARK       I    between atoms: C_10  and  N_11 
REMARK    3  A    between atoms: N_11  and  N_12 
REMARK    4  A    between atoms: C_13  and  C_14 
REMARK    5  A    between atoms: C_15  and  O_16 
ROOT
HETATM    1  C   UNL     1      -6.129   2.220 -33.281  1.00  0.00     0.241 C 
HETATM    2  N   UNL     1      -5.857   1.345 -32.235  1.00  0.00    -0.247 N 
HETATM    3  O   UNL     1      -6.474   1.872 -34.410  1.00  0.00    -0.271 OA
HETATM    4  H   UNL     1      -5.494   1.710 -31.360  1.00  0.00     0.192 HD
ENDROOT
BRANCH   1   5
HETATM    5  C   UNL     1      -6.027   3.687 -32.887  1.00  0.00     0.145 C 
BRANCH   5   6
HETATM    6  C   UNL     1      -4.656   4.041 -32.400  1.00  0.00    -0.021 A 
HETATM    7  C   UNL     1      -3.552   4.512 -33.182  1.00  0.00    -0.001 A 
HETATM    8  C   UNL     1      -3.353   4.752 -34.559  1.00  0.00     0.014 A 
HETATM    9  C   UNL     1      -2.506   4.788 -32.302  1.00  0.00     0.042 A 
HETATM   10  C   UNL     1      -2.127   5.268 -34.998  1.00  0.00     0.001 A 
HETATM   11  C   UNL     1      -1.107   5.543 -34.091  1.00  0.00     0.002 A 
HETATM   12  C   UNL     1      -1.276   5.305 -32.724  1.00  0.00     0.030 A 
HETATM   13  N   UNL     1      -2.938   4.460 -31.039  1.00  0.00    -0.365 N 
HETATM   14  H   UNL     1      -2.384   4.552 -30.199  1.00  0.00     0.165 HD
HETATM   15  C   UNL     1      -4.230   4.012 -31.085  1.00  0.00     0.097 A 
ENDBRANCH   5   6
ENDBRANCH   1   5
BRANCH   2  16
HETATM   16  N   UNL     1      -5.791   0.007 -32.474  1.00  0.00    -0.184 NA
HETATM   17  C   UNL     1      -4.609  -0.447 -32.747  1.00  0.00     0.153 C 
BRANCH  17  18
HETATM   18  C   UNL     1      -4.406  -1.865 -33.097  1.00  0.00     0.017 A 
HETATM   19  C   UNL     1      -3.415  -2.646 -32.489  1.00  0.00     0.077 A 
HETATM   20  C   UNL     1      -3.283  -3.993 -32.818  1.00  0.00     0.039 A 
HETATM   21  C   UNL     1      -4.134  -4.565 -33.765  1.00  0.00     0.022 A 
HETATM   22  C   UNL     1      -5.114  -3.782 -34.377  1.00  0.00     0.012 A 
HETATM   23 BR   UNL     1      -6.262  -4.558 -35.664  1.00  0.00    -0.051 Br
HETATM   24  C   UNL     1      -5.260  -2.435 -34.047  1.00  0.00     0.034 A 
BRANCH  19  25
HETATM   25  O   UNL     1      -2.545  -2.163 -31.551  1.00  0.00    -0.360 OA
HETATM   26  H   UNL     1      -1.658  -2.059 -31.968  1.00  0.00     0.217 HD
ENDBRANCH  19  25
ENDBRANCH  17  18
ENDBRANCH   2  16
TORSDOF 5
ENDMDL
MODEL 8
REMARK VINA RESULT:      -7.7      3.273      8.019
REMARK  5 active torsions:
REMARK  status: ('A' for Active; 'I' for Inactive)
REMARK    1  A    between atoms: C_8  and  C_9 
REMARK    2  A    between atoms: C_9  and  C_10 
REMARK       I    between atoms: C_10  and  N_11 
REMARK    3  A    between atoms: N_11  and  N_12 
REMARK    4  A    between atoms: C_13  and  C_14 
REMARK    5  A    between atoms: C_15  and  O_16 
ROOT
HETATM    1  C   UNL     1      -6.395   3.637 -33.099  1.00  0.00     0.241 C 
HETATM    2  N   UNL     1      -5.740   2.516 -32.600  1.00  0.00    -0.247 N 
HETATM    3  O   UNL     1      -7.420   3.601 -33.779  1.00  0.00    -0.271 OA
HETATM    4  H   UNL     1      -4.852   2.628 -32.121  1.00  0.00     0.192 HD
ENDROOT
BRANCH   1   5
HETATM    5  C   UNL     1      -5.761   4.952 -32.668  1.00  0.00     0.145 C 
BRANCH   5   6
HETATM    6  C   UNL     1      -4.573   5.302 -33.510  1.00  0.00    -0.021 A 
HETATM    7  C   UNL     1      -3.381   5.977 -33.089  1.00  0.00    -0.001 A 
HETATM    8  C   UNL     1      -2.947   6.539 -31.870  1.00  0.00     0.014 A 
HETATM    9  C   UNL     1      -2.517   6.016 -34.184  1.00  0.00     0.042 A 
HETATM   10  C   UNL     1      -1.668   7.104 -31.789  1.00  0.00     0.001 A 
HETATM   11  C   UNL     1      -0.826   7.117 -32.898  1.00  0.00     0.002 A 
HETATM   12  C   UNL     1      -1.235   6.575 -34.119  1.00  0.00     0.030 A 
HETATM   13  N   UNL     1      -3.170   5.427 -35.240  1.00  0.00    -0.365 N 
HETATM   14  H   UNL     1      -2.783   5.319 -36.168  1.00  0.00     0.165 HD
HETATM   15  C   UNL     1      -4.406   4.991 -34.846  1.00  0.00     0.097 A 
ENDBRANCH   5   6
ENDBRANCH   1   5
BRANCH   2  16
HETATM   16  N   UNL     1      -6.123   1.274 -33.004  1.00  0.00    -0.184 NA
HETATM   17  C   UNL     1      -5.154   0.459 -33.275  1.00  0.00     0.153 C 
BRANCH  17  18
HETATM   18  C   UNL     1      -5.428  -0.895 -33.792  1.00  0.00     0.017 A 
HETATM   19  C   UNL     1      -6.547  -1.175 -34.585  1.00  0.00     0.077 A 
HETATM   20  C   UNL     1      -6.746  -2.459 -35.089  1.00  0.00     0.039 A 
HETATM   21  C   UNL     1      -5.834  -3.472 -34.793  1.00  0.00     0.022 A 
HETATM   22  C   UNL     1      -4.725  -3.193 -33.994  1.00  0.00     0.012 A 
HETATM   23 BR   UNL     1      -3.492  -4.570 -33.588  1.00  0.00    -0.051 Br
HETATM   24  C   UNL     1      -4.511  -1.909 -33.492  1.00  0.00     0.034 A 
BRANCH  19  25
HETATM   25  O   UNL     1      -7.484  -0.238 -34.923  1.00  0.00    -0.360 OA
HETATM   26  H   UNL     1      -8.368  -0.558 -34.629  1.00  0.00     0.217 HD
ENDBRANCH  19  25
ENDBRANCH  17  18
ENDBRANCH   2  16
TORSDOF 5
ENDMDL
MODEL 9
REMARK VINA RESULT:      -7.5      4.256      5.337
REMARK  5 active torsions:
REMARK  status: ('A' for Active; 'I' for Inactive)
REMARK    1  A    between atoms: C_8  and  C_9 
REMARK    2  A    between atoms: C_9  and  C_10 
REMARK       I    between atoms: C_10  and  N_11 
REMARK    3  A    between atoms: N_11  and  N_12 
REMARK    4  A    between atoms: C_13  and  C_14 
REMARK    5  A    between atoms: C_15  and  O_16 
ROOT
HETATM    1  C   UNL     1      -3.812   0.917 -31.899  1.00  0.00     0.241 C 
HETATM    2  N   UNL     1      -4.713   0.949 -30.841  1.00  0.00    -0.247 N 
HETATM    3  O   UNL     1      -3.343   1.915 -32.446  1.00  0.00    -0.271 OA
HETATM    4  H   UNL     1      -5.119   0.081 -30.503  1.00  0.00     0.192 HD
ENDROOT
BRANCH   1   5
HETATM    5  C   UNL     1      -3.387  -0.490 -32.293  1.00  0.00     0.145 C 
BRANCH   5   6
HETATM    6  C   UNL     1      -4.361  -1.123 -33.238  1.00  0.00    -0.021 A 
HETATM    7  C   UNL     1      -4.433  -2.505 -33.611  1.00  0.00    -0.001 A 
HETATM    8  C   UNL     1      -3.672  -3.651 -33.296  1.00  0.00     0.014 A 
HETATM    9  C   UNL     1      -5.540  -2.652 -34.448  1.00  0.00     0.042 A 
HETATM   10  C   UNL     1      -4.051  -4.894 -33.816  1.00  0.00     0.001 A 
HETATM   11  C   UNL     1      -5.168  -5.008 -34.639  1.00  0.00     0.002 A 
HETATM   12  C   UNL     1      -5.934  -3.888 -34.974  1.00  0.00     0.030 A 
HETATM   13  N   UNL     1      -6.096  -1.406 -34.612  1.00  0.00    -0.365 N 
HETATM   14  H   UNL     1      -6.912  -1.210 -35.175  1.00  0.00     0.165 HD
HETATM   15  C   UNL     1      -5.398  -0.479 -33.887  1.00  0.00     0.097 A 
ENDBRANCH   5   6
ENDBRANCH   1   5
BRANCH   2  16
HETATM   16  N   UNL     1      -5.272   2.132 -30.464  1.00  0.00    -0.184 NA
HETATM   17  C   UNL     1      -6.559   2.114 -30.323  1.00  0.00     0.153 C 
BRANCH  17  18
HETATM   18  C   UNL     1      -7.300   3.345 -29.989  1.00  0.00     0.017 A 
HETATM   19  C   UNL     1      -6.733   4.368 -29.220  1.00  0.00     0.077 A 
HETATM   20  C   UNL     1      -7.452   5.533 -28.962  1.00  0.00     0.039 A 
HETATM   21  C   UNL     1      -8.747   5.676 -29.461  1.00  0.00     0.022 A 
HETATM   22  C   UNL     1      -9.314   4.651 -30.218  1.00  0.00     0.012 A 
HETATM   23 BR   UNL     1     -11.073   4.845 -30.889  1.00  0.00    -0.051 Br
HETATM   24  C   UNL     1      -8.599   3.485 -30.490  1.00  0.00     0.034 A 
BRANCH  19  25
HETATM   25  O   UNL     1      -5.470   4.307 -28.698  1.00  0.00    -0.360 OA
HETATM   26  H   UNL     1      -5.164   3.370 -28.725  1.00  0.00     0.217 HD
ENDBRANCH  19  25
ENDBRANCH  17  18
ENDBRANCH   2  16
TORSDOF 5
ENDMDL
MODEL 10
REMARK VINA RESULT:      -7.4      3.318      8.135
REMARK  5 active torsions:
REMARK  status: ('A' for Active; 'I' for Inactive)
REMARK    1  A    between atoms: C_8  and  C_9 
REMARK    2  A    between atoms: C_9  and  C_10 
REMARK       I    between atoms: C_10  and  N_11 
REMARK    3  A    between atoms: N_11  and  N_12 
REMARK    4  A    between atoms: C_13  and  C_14 
REMARK    5  A    between atoms: C_15  and  O_16 
ROOT
HETATM    1  C   UNL     1      -4.893   4.590 -31.569  1.00  0.00     0.241 C 
HETATM    2  N   UNL     1      -4.160   3.653 -30.849  1.00  0.00    -0.247 N 
HETATM    3  O   UNL     1      -5.852   4.321 -32.292  1.00  0.00    -0.271 OA
HETATM    4  H   UNL     1      -3.330   3.948 -30.345  1.00  0.00     0.192 HD
ENDROOT
BRANCH   1   5
HETATM    5  C   UNL     1      -4.443   6.024 -31.332  1.00  0.00     0.145 C 
BRANCH   5   6
HETATM    6  C   UNL     1      -3.014   6.234 -31.725  1.00  0.00    -0.021 A 
HETATM    7  C   UNL     1      -1.922   6.592 -30.869  1.00  0.00    -0.001 A 
HETATM    8  C   UNL     1      -1.806   6.889 -29.493  1.00  0.00     0.014 A 
HETATM    9  C   UNL     1      -0.765   6.598 -31.649  1.00  0.00     0.042 A 
HETATM   10  C   UNL     1      -0.544   7.166 -28.953  1.00  0.00     0.001 A 
HETATM   11  C   UNL     1       0.592   7.153 -29.759  1.00  0.00     0.002 A 
HETATM   12  C   UNL     1       0.503   6.871 -31.124  1.00  0.00     0.030 A 
HETATM   13  N   UNL     1      -1.141   6.297 -32.937  1.00  0.00    -0.365 N 
HETATM   14  H   UNL     1      -0.507   6.236 -33.722  1.00  0.00     0.165 HD
HETATM   15  C   UNL     1      -2.490   6.073 -32.994  1.00  0.00     0.097 A 
ENDBRANCH   5   6
ENDBRANCH   1   5
BRANCH   2  16
HETATM   16  N   UNL     1      -4.372   2.324 -31.057  1.00  0.00    -0.184 NA
HETATM   17  C   UNL     1      -3.529   1.750 -31.855  1.00  0.00     0.153 C 
BRANCH  17  18
HETATM   18  C   UNL     1      -3.685   0.330 -32.225  1.00  0.00     0.017 A 
HETATM   19  C   UNL     1      -2.848  -0.667 -31.712  1.00  0.00     0.077 A 
HETATM   20  C   UNL     1      -3.055  -2.002 -32.054  1.00  0.00     0.039 A 
HETATM   21  C   UNL     1      -4.094  -2.345 -32.921  1.00  0.00     0.022 A 
HETATM   22  C   UNL     1      -4.920  -1.348 -33.438  1.00  0.00     0.012 A 
HETATM   23 BR   UNL     1      -6.325  -1.814 -34.617  1.00  0.00    -0.051 Br
HETATM   24  C   UNL     1      -4.727  -0.010 -33.094  1.00  0.00     0.034 A 
BRANCH  19  25
HETATM   25  O   UNL     1      -1.811  -0.414 -30.856  1.00  0.00    -0.360 OA
HETATM   26  H   UNL     1      -1.753   0.559 -30.712  1.00  0.00     0.217 HD
ENDBRANCH  19  25
ENDBRANCH  17  18
ENDBRANCH   2  16
TORSDOF 5
ENDMDL
