MODEL 1
REMARK VINA RESULT:      -9.0      0.000      0.000
REMARK  8 active torsions:
REMARK  status: ('A' for Active; 'I' for Inactive)
REMARK    1  A    between atoms: C_4  and  N_5 
REMARK    2  A    between atoms: C_7  and  C_8 
REMARK    3  A    between atoms: C_8  and  N_9 
REMARK       I    between atoms: N_9  and  C_10 
REMARK       I    between atoms: C_10  and  N_11 
REMARK    4  A    between atoms: N_11  and  C_12 
REMARK    5  A    between atoms: C_12  and  C_13 
REMARK    6  A    between atoms: C_13  and  N_14 
REMARK       I    between atoms: N_14  and  C_15 
REMARK    7  A    between atoms: C_15  and  C_16 
REMARK    8  A    between atoms: C_17  and  O_18 
ROOT
HETATM    1  N   UNL     1      -5.402   2.962 -32.996  1.00  0.00    -0.337 N 
HETATM    2  C   UNL     1      -5.010   4.081 -33.665  1.00  0.00     0.316 C 
HETATM    3  N   UNL     1      -3.650   4.229 -33.659  1.00  0.00    -0.342 N 
HETATM    4  O   UNL     1      -5.784   4.863 -34.202  1.00  0.00    -0.248 OA
HETATM    5  H   UNL     1      -4.734   2.216 -32.857  1.00  0.00     0.164 HD
HETATM    6  H   UNL     1      -3.147   3.760 -32.921  1.00  0.00     0.164 HD
ENDROOT
BRANCH   1   7
HETATM    7  C   UNL     1      -6.784   2.542 -33.034  1.00  0.00     0.185 C 
BRANCH   7   8
HETATM    8  C   UNL     1      -6.919   1.270 -33.816  1.00  0.00     0.074 A 
HETATM    9  N   UNL     1      -6.141   0.203 -33.576  1.00  0.00    -0.171 NA
HETATM   10  N   UNL     1      -6.562  -0.750 -34.452  1.00  0.00    -0.245 N 
HETATM   11  C   UNL     1      -7.561  -0.263 -35.268  1.00  0.00     0.121 A 
HETATM   12  C   UNL     1      -7.815   1.028 -34.877  1.00  0.00     0.050 A 
BRANCH  10  13
HETATM   13  C   UNL     1      -5.992  -2.054 -34.447  1.00  0.00     0.058 A 
HETATM   14  C   UNL     1      -4.664  -2.225 -34.026  1.00  0.00     0.031 A 
HETATM   15  C   UNL     1      -4.090  -3.498 -34.000  1.00  0.00     0.002 A 
HETATM   16  C   UNL     1      -4.834  -4.607 -34.396  1.00  0.00     0.000 A 
HETATM   17  C   UNL     1      -6.152  -4.447 -34.818  1.00  0.00     0.002 A 
HETATM   18  C   UNL     1      -6.734  -3.175 -34.845  1.00  0.00     0.031 A 
ENDBRANCH  10  13
ENDBRANCH   7   8
ENDBRANCH   1   7
BRANCH   3  19
HETATM   19  C   UNL     1      -3.025   5.406 -34.241  1.00  0.00     0.144 C 
BRANCH  19  20
HETATM   20  C   UNL     1      -1.497   5.378 -34.113  1.00  0.00     0.142 C 
BRANCH  20  21
HETATM   21  N   UNL     1      -1.024   6.011 -32.887  1.00  0.00    -0.355 N 
HETATM   22  C   UNL     1      -1.027   5.331 -31.689  1.00  0.00     0.254 C 
HETATM   23  O   UNL     1      -1.434   4.175 -31.581  1.00  0.00    -0.268 OA
HETATM   24  H   UNL     1      -0.545   6.894 -32.983  1.00  0.00     0.162 HD
BRANCH  22  25
HETATM   25  C   UNL     1      -0.488   6.023 -30.483  1.00  0.00     0.065 A 
HETATM   26  C   UNL     1       0.323   5.309 -29.585  1.00  0.00     0.081 A 
HETATM   27  C   UNL     1       0.846   5.925 -28.450  1.00  0.00     0.037 A 
HETATM   28  C   UNL     1       0.552   7.261 -28.186  1.00  0.00     0.003 A 
HETATM   29  C   UNL     1      -0.269   7.977 -29.055  1.00  0.00     0.001 A 
HETATM   30  C   UNL     1      -0.792   7.364 -30.198  1.00  0.00     0.020 A 
BRANCH  26  31
HETATM   31  O   UNL     1       0.650   3.988 -29.752  1.00  0.00    -0.360 OA
HETATM   32  H   UNL     1      -0.189   3.479 -29.827  1.00  0.00     0.217 HD
ENDBRANCH  26  31
ENDBRANCH  22  25
ENDBRANCH  20  21
ENDBRANCH  19  20
ENDBRANCH   3  19
TORSDOF 8
ENDMDL
MODEL 2
REMARK VINA RESULT:      -9.0      2.346      3.665
REMARK  8 active torsions:
REMARK  status: ('A' for Active; 'I' for Inactive)
REMARK    1  A    between atoms: C_4  and  N_5 
REMARK    2  A    between atoms: C_7  and  C_8 
REMARK    3  A    between atoms: C_8  and  N_9 
REMARK       I    between atoms: N_9  and  C_10 
REMARK       I    between atoms: C_10  and  N_11 
REMARK    4  A    between atoms: N_11  and  C_12 
REMARK    5  A    between atoms: C_12  and  C_13 
REMARK    6  A    between atoms: C_13  and  N_14 
REMARK       I    between atoms: N_14  and  C_15 
REMARK    7  A    between atoms: C_15  and  C_16 
REMARK    8  A    between atoms: C_17  and  O_18 
ROOT
HETATM    1  N   UNL     1      -9.116   1.180 -31.370  1.00  0.00    -0.337 N 
HETATM    2  C   UNL     1      -8.204   2.189 -31.325  1.00  0.00     0.316 C 
HETATM    3  N   UNL     1      -7.592   2.271 -30.105  1.00  0.00    -0.342 N 
HETATM    4  O   UNL     1      -7.966   2.937 -32.264  1.00  0.00    -0.248 OA
HETATM    5  H   UNL     1      -9.043   0.425 -30.702  1.00  0.00     0.164 HD
HETATM    6  H   UNL     1      -8.087   1.871 -29.322  1.00  0.00     0.164 HD
ENDROOT
BRANCH   1   7
HETATM    7  C   UNL     1      -9.746   0.825 -32.621  1.00  0.00     0.185 C 
BRANCH   7   8
HETATM    8  C   UNL     1      -8.740   0.226 -33.557  1.00  0.00     0.074 A 
HETATM    9  N   UNL     1      -8.035  -0.871 -33.235  1.00  0.00    -0.171 NA
HETATM   10  N   UNL     1      -7.254  -1.124 -34.321  1.00  0.00    -0.245 N 
HETATM   11  C   UNL     1      -7.432  -0.162 -35.293  1.00  0.00     0.121 A 
HETATM   12  C   UNL     1      -8.385   0.712 -34.832  1.00  0.00     0.050 A 
BRANCH  10  13
HETATM   13  C   UNL     1      -6.401  -2.263 -34.360  1.00  0.00     0.058 A 
HETATM   14  C   UNL     1      -6.929  -3.508 -34.738  1.00  0.00     0.031 A 
HETATM   15  C   UNL     1      -6.106  -4.635 -34.796  1.00  0.00     0.002 A 
HETATM   16  C   UNL     1      -4.754  -4.529 -34.477  1.00  0.00     0.000 A 
HETATM   17  C   UNL     1      -4.222  -3.298 -34.098  1.00  0.00     0.002 A 
HETATM   18  C   UNL     1      -5.040  -2.165 -34.039  1.00  0.00     0.031 A 
ENDBRANCH  10  13
ENDBRANCH   7   8
ENDBRANCH   1   7
BRANCH   3  19
HETATM   19  C   UNL     1      -6.647   3.337 -29.813  1.00  0.00     0.144 C 
BRANCH  19  20
HETATM   20  C   UNL     1      -5.191   2.894 -30.003  1.00  0.00     0.142 C 
BRANCH  20  21
HETATM   21  N   UNL     1      -4.408   3.855 -30.772  1.00  0.00    -0.355 N 
HETATM   22  C   UNL     1      -3.222   3.490 -31.370  1.00  0.00     0.254 C 
HETATM   23  O   UNL     1      -2.754   2.356 -31.281  1.00  0.00    -0.268 OA
HETATM   24  H   UNL     1      -4.848   4.738 -30.986  1.00  0.00     0.162 HD
BRANCH  22  25
HETATM   25  C   UNL     1      -2.496   4.511 -32.179  1.00  0.00     0.065 A 
HETATM   26  C   UNL     1      -1.896   5.604 -31.531  1.00  0.00     0.081 A 
HETATM   27  C   UNL     1      -1.207   6.575 -32.255  1.00  0.00     0.037 A 
HETATM   28  C   UNL     1      -1.122   6.477 -33.642  1.00  0.00     0.003 A 
HETATM   29  C   UNL     1      -1.729   5.410 -34.303  1.00  0.00     0.001 A 
HETATM   30  C   UNL     1      -2.417   4.431 -33.579  1.00  0.00     0.020 A 
BRANCH  26  31
HETATM   31  O   UNL     1      -1.945   5.793 -30.174  1.00  0.00    -0.360 OA
HETATM   32  H   UNL     1      -2.765   5.361 -29.840  1.00  0.00     0.217 HD
ENDBRANCH  26  31
ENDBRANCH  22  25
ENDBRANCH  20  21
ENDBRANCH  19  20
ENDBRANCH   3  19
TORSDOF 8
ENDMDL
MODEL 3
REMARK VINA RESULT:      -8.9      4.330      5.551
REMARK  8 active torsions:
REMARK  status: ('A' for Active; 'I' for Inactive)
REMARK    1  A    between atoms: C_4  and  N_5 
REMARK    2  A    between atoms: C_7  and  C_8 
REMARK    3  A    between atoms: C_8  and  N_9 
REMARK       I    between atoms: N_9  and  C_10 
REMARK       I    between atoms: C_10  and  N_11 
REMARK    4  A    between atoms: N_11  and  C_12 
REMARK    5  A    between atoms: C_12  and  C_13 
REMARK    6  A    between atoms: C_13  and  N_14 
REMARK       I    between atoms: N_14  and  C_15 
REMARK    7  A    between atoms: C_15  and  C_16 
REMARK    8  A    between atoms: C_17  and  O_18 
ROOT
HETATM    1  N   UNL     1     -10.009   1.252 -32.346  1.00  0.00    -0.337 N 
HETATM    2  C   UNL     1      -9.785   2.550 -32.001  1.00  0.00     0.316 C 
HETATM    3  N   UNL     1      -9.721   2.714 -30.645  1.00  0.00    -0.342 N 
HETATM    4  O   UNL     1      -9.662   3.460 -32.810  1.00  0.00    -0.248 OA
HETATM    5  H   UNL     1      -9.790   0.524 -31.679  1.00  0.00     0.164 HD
HETATM    6  H   UNL     1     -10.174   2.010 -30.082  1.00  0.00     0.164 HD
ENDROOT
BRANCH   1   7
HETATM    7  C   UNL     1      -9.941   0.848 -33.732  1.00  0.00     0.185 C 
BRANCH   7   8
HETATM    8  C   UNL     1      -8.562   0.364 -34.065  1.00  0.00     0.074 A 
HETATM    9  N   UNL     1      -8.207  -0.923 -33.923  1.00  0.00    -0.171 NA
HETATM   10  N   UNL     1      -6.912  -0.983 -34.336  1.00  0.00    -0.245 N 
HETATM   11  C   UNL     1      -6.446   0.266 -34.685  1.00  0.00     0.121 A 
HETATM   12  C   UNL     1      -7.486   1.149 -34.527  1.00  0.00     0.050 A 
BRANCH  10  13
HETATM   13  C   UNL     1      -6.213  -2.223 -34.377  1.00  0.00     0.058 A 
HETATM   14  C   UNL     1      -6.906  -3.396 -34.712  1.00  0.00     0.031 A 
HETATM   15  C   UNL     1      -6.236  -4.620 -34.772  1.00  0.00     0.002 A 
HETATM   16  C   UNL     1      -4.872  -4.683 -34.495  1.00  0.00     0.000 A 
HETATM   17  C   UNL     1      -4.176  -3.523 -34.158  1.00  0.00     0.002 A 
HETATM   18  C   UNL     1      -4.840  -2.294 -34.099  1.00  0.00     0.031 A 
ENDBRANCH  10  13
ENDBRANCH   7   8
ENDBRANCH   1   7
BRANCH   3  19
HETATM   19  C   UNL     1      -9.578   4.037 -30.058  1.00  0.00     0.144 C 
BRANCH  19  20
HETATM   20  C   UNL     1      -8.119   4.375 -29.729  1.00  0.00     0.142 C 
BRANCH  20  21
HETATM   21  N   UNL     1      -7.226   3.236 -29.907  1.00  0.00    -0.355 N 
HETATM   22  C   UNL     1      -6.401   3.144 -31.007  1.00  0.00     0.254 C 
HETATM   23  O   UNL     1      -6.379   3.995 -31.894  1.00  0.00    -0.268 OA
HETATM   24  H   UNL     1      -7.115   2.613 -29.120  1.00  0.00     0.162 HD
BRANCH  22  25
HETATM   25  C   UNL     1      -5.480   1.975 -31.103  1.00  0.00     0.065 A 
HETATM   26  C   UNL     1      -6.010   0.675 -31.042  1.00  0.00     0.081 A 
HETATM   27  C   UNL     1      -5.178  -0.440 -31.131  1.00  0.00     0.037 A 
HETATM   28  C   UNL     1      -3.803  -0.273 -31.266  1.00  0.00     0.003 A 
HETATM   29  C   UNL     1      -3.259   1.010 -31.306  1.00  0.00     0.001 A 
HETATM   30  C   UNL     1      -4.090   2.132 -31.222  1.00  0.00     0.020 A 
BRANCH  26  31
HETATM   31  O   UNL     1      -7.347   0.413 -30.891  1.00  0.00    -0.360 OA
HETATM   32  H   UNL     1      -7.728   1.118 -30.318  1.00  0.00     0.217 HD
ENDBRANCH  26  31
ENDBRANCH  22  25
ENDBRANCH  20  21
ENDBRANCH  19  20
ENDBRANCH   3  19
TORSDOF 8
ENDMDL
MODEL 4
REMARK VINA RESULT:      -8.9      1.873      2.659
REMARK  8 active torsions:
REMARK  status: ('A' for Active; 'I' for Inactive)
REMARK    1  A    between atoms: C_4  and  N_5 
REMARK    2  A    between atoms: C_7  and  C_8 
REMARK    3  A    between atoms: C_8  and  N_9 
REMARK       I    between atoms: N_9  and  C_10 
REMARK       I    between atoms: C_10  and  N_11 
REMARK    4  A    between atoms: N_11  and  C_12 
REMARK    5  A    between atoms: C_12  and  C_13 
REMARK    6  A    between atoms: C_13  and  N_14 
REMARK       I    between atoms: N_14  and  C_15 
REMARK    7  A    between atoms: C_15  and  C_16 
REMARK    8  A    between atoms: C_17  and  O_18 
ROOT
HETATM    1  N   UNL     1      -3.727   3.321 -32.721  1.00  0.00    -0.337 N 
HETATM    2  C   UNL     1      -2.582   4.057 -32.682  1.00  0.00     0.316 C 
HETATM    3  N   UNL     1      -2.432   4.828 -33.800  1.00  0.00    -0.342 N 
HETATM    4  O   UNL     1      -1.781   4.025 -31.757  1.00  0.00    -0.248 OA
HETATM    5  H   UNL     1      -4.477   3.615 -33.332  1.00  0.00     0.164 HD
HETATM    6  H   UNL     1      -2.929   4.530 -34.626  1.00  0.00     0.164 HD
ENDROOT
BRANCH   1   7
HETATM    7  C   UNL     1      -4.148   2.571 -31.560  1.00  0.00     0.185 C 
BRANCH   7   8
HETATM    8  C   UNL     1      -3.990   1.101 -31.806  1.00  0.00     0.074 A 
HETATM    9  N   UNL     1      -4.810   0.426 -32.627  1.00  0.00    -0.171 NA
HETATM   10  N   UNL     1      -4.351  -0.856 -32.615  1.00  0.00    -0.245 N 
HETATM   11  C   UNL     1      -3.283  -0.990 -31.753  1.00  0.00     0.121 A 
HETATM   12  C   UNL     1      -3.026   0.251 -31.226  1.00  0.00     0.050 A 
BRANCH  10  13
HETATM   13  C   UNL     1      -4.954  -1.857 -33.427  1.00  0.00     0.058 A 
HETATM   14  C   UNL     1      -6.271  -1.679 -33.880  1.00  0.00     0.031 A 
HETATM   15  C   UNL     1      -6.875  -2.644 -34.689  1.00  0.00     0.002 A 
HETATM   16  C   UNL     1      -6.174  -3.792 -35.050  1.00  0.00     0.000 A 
HETATM   17  C   UNL     1      -4.867  -3.979 -34.603  1.00  0.00     0.002 A 
HETATM   18  C   UNL     1      -4.254  -3.016 -33.794  1.00  0.00     0.031 A 
ENDBRANCH  10  13
ENDBRANCH   7   8
ENDBRANCH   1   7
BRANCH   3  19
HETATM   19  C   UNL     1      -1.232   5.625 -34.003  1.00  0.00     0.144 C 
BRANCH  19  20
HETATM   20  C   UNL     1      -1.321   6.997 -33.325  1.00  0.00     0.142 C 
BRANCH  20  21
HETATM   21  N   UNL     1      -0.603   7.044 -32.057  1.00  0.00    -0.355 N 
HETATM   22  C   UNL     1      -1.271   7.243 -30.868  1.00  0.00     0.254 C 
HETATM   23  O   UNL     1      -2.489   7.403 -30.809  1.00  0.00    -0.268 OA
HETATM   24  H   UNL     1       0.366   6.760 -32.068  1.00  0.00     0.162 HD
BRANCH  22  25
HETATM   25  C   UNL     1      -0.480   7.234 -29.604  1.00  0.00     0.065 A 
HETATM   26  C   UNL     1       0.046   6.020 -29.130  1.00  0.00     0.081 A 
HETATM   27  C   UNL     1       0.793   5.976 -27.954  1.00  0.00     0.037 A 
HETATM   28  C   UNL     1       1.011   7.142 -27.225  1.00  0.00     0.003 A 
HETATM   29  C   UNL     1       0.478   8.351 -27.670  1.00  0.00     0.001 A 
HETATM   30  C   UNL     1      -0.268   8.400 -28.852  1.00  0.00     0.020 A 
BRANCH  26  31
HETATM   31  O   UNL     1      -0.133   4.821 -29.769  1.00  0.00    -0.360 OA
HETATM   32  H   UNL     1       0.663   4.655 -30.325  1.00  0.00     0.217 HD
ENDBRANCH  26  31
ENDBRANCH  22  25
ENDBRANCH  20  21
ENDBRANCH  19  20
ENDBRANCH   3  19
TORSDOF 8
ENDMDL
MODEL 5
REMARK VINA RESULT:      -8.9      2.243      9.713
REMARK  8 active torsions:
REMARK  status: ('A' for Active; 'I' for Inactive)
REMARK    1  A    between atoms: C_4  and  N_5 
REMARK    2  A    between atoms: C_7  and  C_8 
REMARK    3  A    between atoms: C_8  and  N_9 
REMARK       I    between atoms: N_9  and  C_10 
REMARK       I    between atoms: C_10  and  N_11 
REMARK    4  A    between atoms: N_11  and  C_12 
REMARK    5  A    between atoms: C_12  and  C_13 
REMARK    6  A    between atoms: C_13  and  N_14 
REMARK       I    between atoms: N_14  and  C_15 
REMARK    7  A    between atoms: C_15  and  C_16 
REMARK    8  A    between atoms: C_17  and  O_18 
ROOT
HETATM    1  N   UNL     1      -4.818   2.741 -32.702  1.00  0.00    -0.337 N 
HETATM    2  C   UNL     1      -5.763   1.820 -32.365  1.00  0.00     0.316 C 
HETATM    3  N   UNL     1      -7.025   2.250 -32.667  1.00  0.00    -0.342 N 
HETATM    4  O   UNL     1      -5.510   0.740 -31.847  1.00  0.00    -0.248 OA
HETATM    5  H   UNL     1      -5.046   3.446 -33.390  1.00  0.00     0.164 HD
HETATM    6  H   UNL     1      -7.157   3.247 -32.749  1.00  0.00     0.164 HD
ENDROOT
BRANCH   1   7
HETATM    7  C   UNL     1      -3.415   2.405 -32.617  1.00  0.00     0.185 C 
BRANCH   7   8
HETATM    8  C   UNL     1      -2.592   3.649 -32.463  1.00  0.00     0.074 A 
HETATM    9  N   UNL     1      -2.118   4.044 -31.271  1.00  0.00    -0.171 NA
HETATM   10  N   UNL     1      -1.414   5.180 -31.526  1.00  0.00    -0.245 N 
HETATM   11  C   UNL     1      -1.491   5.521 -32.860  1.00  0.00     0.121 A 
HETATM   12  C   UNL     1      -2.235   4.551 -33.486  1.00  0.00     0.050 A 
BRANCH  10  13
HETATM   13  C   UNL     1      -0.713   5.857 -30.487  1.00  0.00     0.058 A 
HETATM   14  C   UNL     1      -0.912   7.234 -30.304  1.00  0.00     0.031 A 
HETATM   15  C   UNL     1      -0.245   7.914 -29.282  1.00  0.00     0.002 A 
HETATM   16  C   UNL     1       0.625   7.226 -28.439  1.00  0.00     0.000 A 
HETATM   17  C   UNL     1       0.831   5.859 -28.615  1.00  0.00     0.002 A 
HETATM   18  C   UNL     1       0.165   5.172 -29.636  1.00  0.00     0.031 A 
ENDBRANCH  10  13
ENDBRANCH   7   8
ENDBRANCH   1   7
BRANCH   3  19
HETATM   19  C   UNL     1      -8.190   1.457 -32.307  1.00  0.00     0.144 C 
BRANCH  19  20
HETATM   20  C   UNL     1      -8.683   0.584 -33.467  1.00  0.00     0.142 C 
BRANCH  20  21
HETATM   21  N   UNL     1      -7.981  -0.691 -33.547  1.00  0.00    -0.355 N 
HETATM   22  C   UNL     1      -6.954  -0.883 -34.446  1.00  0.00     0.254 C 
HETATM   23  O   UNL     1      -6.585  -0.010 -35.229  1.00  0.00    -0.268 OA
HETATM   24  H   UNL     1      -8.162  -1.361 -32.814  1.00  0.00     0.162 HD
BRANCH  22  25
HETATM   25  C   UNL     1      -6.250  -2.197 -34.443  1.00  0.00     0.065 A 
HETATM   26  C   UNL     1      -4.894  -2.250 -34.077  1.00  0.00     0.081 A 
HETATM   27  C   UNL     1      -4.205  -3.462 -34.060  1.00  0.00     0.037 A 
HETATM   28  C   UNL     1      -4.857  -4.637 -34.425  1.00  0.00     0.003 A 
HETATM   29  C   UNL     1      -6.196  -4.599 -34.811  1.00  0.00     0.001 A 
HETATM   30  C   UNL     1      -6.892  -3.386 -34.824  1.00  0.00     0.020 A 
BRANCH  26  31
HETATM   31  O   UNL     1      -4.166  -1.144 -33.722  1.00  0.00    -0.360 OA
HETATM   32  H   UNL     1      -3.435  -1.043 -34.375  1.00  0.00     0.217 HD
ENDBRANCH  26  31
ENDBRANCH  22  25
ENDBRANCH  20  21
ENDBRANCH  19  20
ENDBRANCH   3  19
TORSDOF 8
ENDMDL
MODEL 6
REMARK VINA RESULT:      -8.9      1.062      1.357
REMARK  8 active torsions:
REMARK  status: ('A' for Active; 'I' for Inactive)
REMARK    1  A    between atoms: C_4  and  N_5 
REMARK    2  A    between atoms: C_7  and  C_8 
REMARK    3  A    between atoms: C_8  and  N_9 
REMARK       I    between atoms: N_9  and  C_10 
REMARK       I    between atoms: C_10  and  N_11 
REMARK    4  A    between atoms: N_11  and  C_12 
REMARK    5  A    between atoms: C_12  and  C_13 
REMARK    6  A    between atoms: C_13  and  N_14 
REMARK       I    between atoms: N_14  and  C_15 
REMARK    7  A    between atoms: C_15  and  C_16 
REMARK    8  A    between atoms: C_17  and  O_18 
ROOT
HETATM    1  N   UNL     1      -5.649   3.985 -34.252  1.00  0.00    -0.337 N 
HETATM    2  C   UNL     1      -4.667   4.841 -33.856  1.00  0.00     0.316 C 
HETATM    3  N   UNL     1      -3.826   5.164 -34.884  1.00  0.00    -0.342 N 
HETATM    4  O   UNL     1      -4.549   5.263 -32.713  1.00  0.00    -0.248 OA
HETATM    5  H   UNL     1      -5.879   3.925 -35.234  1.00  0.00     0.164 HD
HETATM    6  H   UNL     1      -3.786   4.517 -35.657  1.00  0.00     0.164 HD
ENDROOT
BRANCH   1   7
HETATM    7  C   UNL     1      -6.732   3.658 -33.353  1.00  0.00     0.185 C 
BRANCH   7   8
HETATM    8  C   UNL     1      -6.637   2.225 -32.925  1.00  0.00     0.074 A 
HETATM    9  N   UNL     1      -6.394   1.236 -33.800  1.00  0.00    -0.171 NA
HETATM   10  N   UNL     1      -6.357   0.099 -33.053  1.00  0.00    -0.245 N 
HETATM   11  C   UNL     1      -6.626   0.369 -31.728  1.00  0.00     0.121 A 
HETATM   12  C   UNL     1      -6.802   1.726 -31.616  1.00  0.00     0.050 A 
BRANCH  10  13
HETATM   13  C   UNL     1      -6.062  -1.160 -33.649  1.00  0.00     0.058 A 
HETATM   14  C   UNL     1      -4.730  -1.599 -33.713  1.00  0.00     0.031 A 
HETATM   15  C   UNL     1      -4.422  -2.837 -34.280  1.00  0.00     0.002 A 
HETATM   16  C   UNL     1      -5.437  -3.644 -34.790  1.00  0.00     0.000 A 
HETATM   17  C   UNL     1      -6.762  -3.215 -34.735  1.00  0.00     0.002 A 
HETATM   18  C   UNL     1      -7.078  -1.976 -34.166  1.00  0.00     0.031 A 
ENDBRANCH  10  13
ENDBRANCH   7   8
ENDBRANCH   1   7
BRANCH   3  19
HETATM   19  C   UNL     1      -2.655   5.995 -34.658  1.00  0.00     0.144 C 
BRANCH  19  20
HETATM   20  C   UNL     1      -1.496   5.213 -34.029  1.00  0.00     0.142 C 
BRANCH  20  21
HETATM   21  N   UNL     1      -0.970   5.856 -32.830  1.00  0.00    -0.355 N 
HETATM   22  C   UNL     1      -1.073   5.252 -31.596  1.00  0.00     0.254 C 
HETATM   23  O   UNL     1      -1.616   4.161 -31.433  1.00  0.00    -0.268 OA
HETATM   24  H   UNL     1      -0.387   6.669 -32.965  1.00  0.00     0.162 HD
BRANCH  22  25
HETATM   25  C   UNL     1      -0.473   5.945 -30.419  1.00  0.00     0.065 A 
HETATM   26  C   UNL     1       0.365   5.225 -29.550  1.00  0.00     0.081 A 
HETATM   27  C   UNL     1       0.944   5.842 -28.443  1.00  0.00     0.037 A 
HETATM   28  C   UNL     1       0.682   7.184 -28.178  1.00  0.00     0.003 A 
HETATM   29  C   UNL     1      -0.164   7.906 -29.017  1.00  0.00     0.001 A 
HETATM   30  C   UNL     1      -0.744   7.292 -30.133  1.00  0.00     0.020 A 
BRANCH  26  31
HETATM   31  O   UNL     1       0.664   3.898 -29.721  1.00  0.00    -0.360 OA
HETATM   32  H   UNL     1       1.574   3.841 -30.092  1.00  0.00     0.217 HD
ENDBRANCH  26  31
ENDBRANCH  22  25
ENDBRANCH  20  21
ENDBRANCH  19  20
ENDBRANCH   3  19
TORSDOF 8
ENDMDL
MODEL 7
REMARK VINA RESULT:      -8.6      1.973      2.563
REMARK  8 active torsions:
REMARK  status: ('A' for Active; 'I' for Inactive)
REMARK    1  A    between atoms: C_4  and  N_5 
REMARK    2  A    between atoms: C_7  and  C_8 
REMARK    3  A    between atoms: C_8  and  N_9 
REMARK       I    between atoms: N_9  and  C_10 
REMARK       I    between atoms: C_10  and  N_11 
REMARK    4  A    between atoms: N_11  and  C_12 
REMARK    5  A    between atoms: C_12  and  C_13 
REMARK    6  A    between atoms: C_13  and  N_14 
REMARK       I    between atoms: N_14  and  C_15 
REMARK    7  A    between atoms: C_15  and  C_16 
REMARK    8  A    between atoms: C_17  and  O_18 
ROOT
HETATM    1  N   UNL     1      -5.708   4.098 -32.362  1.00  0.00    -0.337 N 
HETATM    2  C   UNL     1      -5.279   4.323 -33.635  1.00  0.00     0.316 C 
HETATM    3  N   UNL     1      -4.049   4.919 -33.661  1.00  0.00    -0.342 N 
HETATM    4  O   UNL     1      -5.923   4.031 -34.634  1.00  0.00    -0.248 OA
HETATM    5  H   UNL     1      -5.027   4.066 -31.615  1.00  0.00     0.164 HD
HETATM    6  H   UNL     1      -3.773   5.426 -32.834  1.00  0.00     0.164 HD
ENDROOT
BRANCH   1   7
HETATM    7  C   UNL     1      -6.906   3.327 -32.125  1.00  0.00     0.185 C 
BRANCH   7   8
HETATM    8  C   UNL     1      -6.566   1.877 -31.958  1.00  0.00     0.074 A 
HETATM    9  N   UNL     1      -6.493   1.038 -33.004  1.00  0.00    -0.171 NA
HETATM   10  N   UNL     1      -6.146  -0.166 -32.473  1.00  0.00    -0.245 N 
HETATM   11  C   UNL     1      -6.052  -0.092 -31.100  1.00  0.00     0.121 A 
HETATM   12  C   UNL     1      -6.310   1.209 -30.743  1.00  0.00     0.050 A 
BRANCH  10  13
HETATM   13  C   UNL     1      -5.920  -1.297 -33.308  1.00  0.00     0.058 A 
HETATM   14  C   UNL     1      -7.002  -1.883 -33.983  1.00  0.00     0.031 A 
HETATM   15  C   UNL     1      -6.800  -2.985 -34.817  1.00  0.00     0.002 A 
HETATM   16  C   UNL     1      -5.521  -3.510 -34.982  1.00  0.00     0.000 A 
HETATM   17  C   UNL     1      -4.441  -2.937 -34.313  1.00  0.00     0.002 A 
HETATM   18  C   UNL     1      -4.636  -1.832 -33.478  1.00  0.00     0.031 A 
ENDBRANCH  10  13
ENDBRANCH   7   8
ENDBRANCH   1   7
BRANCH   3  19
HETATM   19  C   UNL     1      -3.444   5.328 -34.919  1.00  0.00     0.144 C 
BRANCH  19  20
HETATM   20  C   UNL     1      -1.920   5.469 -34.816  1.00  0.00     0.142 C 
BRANCH  20  21
HETATM   21  N   UNL     1      -1.476   5.783 -33.462  1.00  0.00    -0.355 N 
HETATM   22  C   UNL     1      -1.373   7.088 -33.033  1.00  0.00     0.254 C 
HETATM   23  O   UNL     1      -1.631   8.048 -33.756  1.00  0.00    -0.268 OA
HETATM   24  H   UNL     1      -1.412   5.014 -32.811  1.00  0.00     0.162 HD
BRANCH  22  25
HETATM   25  C   UNL     1      -0.957   7.335 -31.622  1.00  0.00     0.065 A 
HETATM   26  C   UNL     1      -1.763   8.138 -30.797  1.00  0.00     0.081 A 
HETATM   27  C   UNL     1      -1.406   8.388 -29.474  1.00  0.00     0.037 A 
HETATM   28  C   UNL     1      -0.228   7.853 -28.959  1.00  0.00     0.003 A 
HETATM   29  C   UNL     1       0.594   7.072 -29.770  1.00  0.00     0.001 A 
HETATM   30  C   UNL     1       0.237   6.815 -31.098  1.00  0.00     0.020 A 
BRANCH  26  31
HETATM   31  O   UNL     1      -2.929   8.722 -31.222  1.00  0.00    -0.360 OA
HETATM   32  H   UNL     1      -2.733   9.664 -31.434  1.00  0.00     0.217 HD
ENDBRANCH  26  31
ENDBRANCH  22  25
ENDBRANCH  20  21
ENDBRANCH  19  20
ENDBRANCH   3  19
TORSDOF 8
ENDMDL
MODEL 8
REMARK VINA RESULT:      -8.6      3.855      6.605
REMARK  8 active torsions:
REMARK  status: ('A' for Active; 'I' for Inactive)
REMARK    1  A    between atoms: C_4  and  N_5 
REMARK    2  A    between atoms: C_7  and  C_8 
REMARK    3  A    between atoms: C_8  and  N_9 
REMARK       I    between atoms: N_9  and  C_10 
REMARK       I    between atoms: C_10  and  N_11 
REMARK    4  A    between atoms: N_11  and  C_12 
REMARK    5  A    between atoms: C_12  and  C_13 
REMARK    6  A    between atoms: C_13  and  N_14 
REMARK       I    between atoms: N_14  and  C_15 
REMARK    7  A    between atoms: C_15  and  C_16 
REMARK    8  A    between atoms: C_17  and  O_18 
ROOT
HETATM    1  N   UNL     1      -4.525   2.195 -30.679  1.00  0.00    -0.337 N 
HETATM    2  C   UNL     1      -4.897   3.501 -30.591  1.00  0.00     0.316 C 
HETATM    3  N   UNL     1      -5.475   3.788 -29.385  1.00  0.00    -0.342 N 
HETATM    4  O   UNL     1      -4.738   4.319 -31.488  1.00  0.00    -0.248 OA
HETATM    5  H   UNL     1      -4.393   1.665 -29.828  1.00  0.00     0.164 HD
HETATM    6  H   UNL     1      -5.874   3.012 -28.879  1.00  0.00     0.164 HD
ENDROOT
BRANCH   1   7
HETATM    7  C   UNL     1      -3.747   1.736 -31.808  1.00  0.00     0.185 C 
BRANCH   7   8
HETATM    8  C   UNL     1      -4.594   0.894 -32.714  1.00  0.00     0.074 A 
HETATM    9  N   UNL     1      -4.371  -0.420 -32.875  1.00  0.00    -0.171 NA
HETATM   10  N   UNL     1      -5.336  -0.841 -33.739  1.00  0.00    -0.245 N 
HETATM   11  C   UNL     1      -6.122   0.212 -34.153  1.00  0.00     0.121 A 
HETATM   12  C   UNL     1      -5.673   1.337 -33.506  1.00  0.00     0.050 A 
BRANCH  10  13
HETATM   13  C   UNL     1      -5.445  -2.213 -34.103  1.00  0.00     0.058 A 
HETATM   14  C   UNL     1      -6.660  -2.698 -34.613  1.00  0.00     0.031 A 
HETATM   15  C   UNL     1      -6.783  -4.037 -34.989  1.00  0.00     0.002 A 
HETATM   16  C   UNL     1      -5.699  -4.902 -34.856  1.00  0.00     0.000 A 
HETATM   17  C   UNL     1      -4.490  -4.431 -34.348  1.00  0.00     0.002 A 
HETATM   18  C   UNL     1      -4.359  -3.090 -33.971  1.00  0.00     0.031 A 
ENDBRANCH  10  13
ENDBRANCH   7   8
ENDBRANCH   1   7
BRANCH   3  19
HETATM   19  C   UNL     1      -6.026   5.106 -29.115  1.00  0.00     0.144 C 
BRANCH  19  20
HETATM   20  C   UNL     1      -7.556   5.090 -29.019  1.00  0.00     0.142 C 
BRANCH  20  21
HETATM   21  N   UNL     1      -8.150   3.948 -29.704  1.00  0.00    -0.355 N 
HETATM   22  C   UNL     1      -8.457   4.005 -31.046  1.00  0.00     0.254 C 
HETATM   23  O   UNL     1      -8.265   5.009 -31.730  1.00  0.00    -0.268 OA
HETATM   24  H   UNL     1      -8.169   3.072 -29.204  1.00  0.00     0.162 HD
BRANCH  22  25
HETATM   25  C   UNL     1      -9.019   2.786 -31.694  1.00  0.00     0.065 A 
HETATM   26  C   UNL     1      -8.488   1.526 -31.368  1.00  0.00     0.081 A 
HETATM   27  C   UNL     1      -8.992   0.365 -31.952  1.00  0.00     0.037 A 
HETATM   28  C   UNL     1     -10.023   0.447 -32.885  1.00  0.00     0.003 A 
HETATM   29  C   UNL     1     -10.547   1.691 -33.236  1.00  0.00     0.001 A 
HETATM   30  C   UNL     1     -10.047   2.858 -32.648  1.00  0.00     0.020 A 
BRANCH  26  31
HETATM   31  O   UNL     1      -7.461   1.350 -30.477  1.00  0.00    -0.360 OA
HETATM   32  H   UNL     1      -7.852   1.048 -29.625  1.00  0.00     0.217 HD
ENDBRANCH  26  31
ENDBRANCH  22  25
ENDBRANCH  20  21
ENDBRANCH  19  20
ENDBRANCH   3  19
TORSDOF 8
ENDMDL
MODEL 9
REMARK VINA RESULT:      -8.5      2.749      4.139
REMARK  8 active torsions:
REMARK  status: ('A' for Active; 'I' for Inactive)
REMARK    1  A    between atoms: C_4  and  N_5 
REMARK    2  A    between atoms: C_7  and  C_8 
REMARK    3  A    between atoms: C_8  and  N_9 
REMARK       I    between atoms: N_9  and  C_10 
REMARK       I    between atoms: C_10  and  N_11 
REMARK    4  A    between atoms: N_11  and  C_12 
REMARK    5  A    between atoms: C_12  and  C_13 
REMARK    6  A    between atoms: C_13  and  N_14 
REMARK       I    between atoms: N_14  and  C_15 
REMARK    7  A    between atoms: C_15  and  C_16 
REMARK    8  A    between atoms: C_17  and  O_18 
ROOT
HETATM    1  N   UNL     1      -6.295   2.835 -29.519  1.00  0.00    -0.337 N 
HETATM    2  C   UNL     1      -6.361   4.183 -29.341  1.00  0.00     0.316 C 
HETATM    3  N   UNL     1      -5.421   4.627 -28.452  1.00  0.00    -0.342 N 
HETATM    4  O   UNL     1      -7.170   4.908 -29.904  1.00  0.00    -0.248 OA
HETATM    5  H   UNL     1      -5.438   2.352 -29.286  1.00  0.00     0.164 HD
HETATM    6  H   UNL     1      -5.060   3.949 -27.798  1.00  0.00     0.164 HD
ENDROOT
BRANCH   1   7
HETATM    7  C   UNL     1      -7.092   2.199 -30.544  1.00  0.00     0.185 C 
BRANCH   7   8
HETATM    8  C   UNL     1      -6.212   1.444 -31.493  1.00  0.00     0.074 A 
HETATM    9  N   UNL     1      -6.532   0.218 -31.937  1.00  0.00    -0.171 NA
HETATM   10  N   UNL     1      -5.523  -0.130 -32.781  1.00  0.00    -0.245 N 
HETATM   11  C   UNL     1      -4.554   0.850 -32.824  1.00  0.00     0.121 A 
HETATM   12  C   UNL     1      -4.974   1.875 -32.013  1.00  0.00     0.050 A 
BRANCH  10  13
HETATM   13  C   UNL     1      -5.554  -1.364 -33.491  1.00  0.00     0.058 A 
HETATM   14  C   UNL     1      -6.771  -1.828 -34.015  1.00  0.00     0.031 A 
HETATM   15  C   UNL     1      -6.820  -3.029 -34.727  1.00  0.00     0.002 A 
HETATM   16  C   UNL     1      -5.659  -3.775 -34.918  1.00  0.00     0.000 A 
HETATM   17  C   UNL     1      -4.447  -3.323 -34.399  1.00  0.00     0.002 A 
HETATM   18  C   UNL     1      -4.390  -2.120 -33.687  1.00  0.00     0.031 A 
ENDBRANCH  10  13
ENDBRANCH   7   8
ENDBRANCH   1   7
BRANCH   3  19
HETATM   19  C   UNL     1      -5.374   6.023 -28.049  1.00  0.00     0.144 C 
BRANCH  19  20
HETATM   20  C   UNL     1      -4.130   6.744 -28.582  1.00  0.00     0.142 C 
BRANCH  20  21
HETATM   21  N   UNL     1      -3.768   6.316 -29.928  1.00  0.00    -0.355 N 
HETATM   22  C   UNL     1      -2.609   6.759 -30.527  1.00  0.00     0.254 C 
HETATM   23  O   UNL     1      -1.832   7.538 -29.978  1.00  0.00    -0.268 OA
HETATM   24  H   UNL     1      -4.306   5.563 -30.330  1.00  0.00     0.162 HD
BRANCH  22  25
HETATM   25  C   UNL     1      -2.277   6.246 -31.888  1.00  0.00     0.065 A 
HETATM   26  C   UNL     1      -1.878   7.152 -32.886  1.00  0.00     0.081 A 
HETATM   27  C   UNL     1      -1.558   6.707 -34.167  1.00  0.00     0.037 A 
HETATM   28  C   UNL     1      -1.648   5.352 -34.476  1.00  0.00     0.003 A 
HETATM   29  C   UNL     1      -2.063   4.443 -33.503  1.00  0.00     0.001 A 
HETATM   30  C   UNL     1      -2.381   4.885 -32.215  1.00  0.00     0.020 A 
BRANCH  26  31
HETATM   31  O   UNL     1      -1.779   8.504 -32.680  1.00  0.00    -0.360 OA
HETATM   32  H   UNL     1      -1.974   8.678 -31.731  1.00  0.00     0.217 HD
ENDBRANCH  26  31
ENDBRANCH  22  25
ENDBRANCH  20  21
ENDBRANCH  19  20
ENDBRANCH   3  19
TORSDOF 8
ENDMDL
MODEL 10
REMARK VINA RESULT:      -8.4      1.486      1.953
REMARK  8 active torsions:
REMARK  status: ('A' for Active; 'I' for Inactive)
REMARK    1  A    between atoms: C_4  and  N_5 
REMARK    2  A    between atoms: C_7  and  C_8 
REMARK    3  A    between atoms: C_8  and  N_9 
REMARK       I    between atoms: N_9  and  C_10 
REMARK       I    between atoms: C_10  and  N_11 
REMARK    4  A    between atoms: N_11  and  C_12 
REMARK    5  A    between atoms: C_12  and  C_13 
REMARK    6  A    between atoms: C_13  and  N_14 
REMARK       I    between atoms: N_14  and  C_15 
REMARK    7  A    between atoms: C_15  and  C_16 
REMARK    8  A    between atoms: C_17  and  O_18 
ROOT
HETATM    1  N   UNL     1      -4.842   3.386 -32.872  1.00  0.00    -0.337 N 
HETATM    2  C   UNL     1      -3.542   3.498 -32.483  1.00  0.00     0.316 C 
HETATM    3  N   UNL     1      -2.939   4.598 -33.027  1.00  0.00    -0.342 N 
HETATM    4  O   UNL     1      -2.980   2.704 -31.741  1.00  0.00    -0.248 OA
HETATM    5  H   UNL     1      -5.323   4.208 -33.211  1.00  0.00     0.164 HD
HETATM    6  H   UNL     1      -3.350   4.970 -33.870  1.00  0.00     0.164 HD
ENDROOT
BRANCH   1   7
HETATM    7  C   UNL     1      -5.695   2.386 -32.272  1.00  0.00     0.185 C 
BRANCH   7   8
HETATM    8  C   UNL     1      -6.012   1.311 -33.267  1.00  0.00     0.074 A 
HETATM    9  N   UNL     1      -5.544   0.059 -33.134  1.00  0.00    -0.171 NA
HETATM   10  N   UNL     1      -6.050  -0.626 -34.196  1.00  0.00    -0.245 N 
HETATM   11  C   UNL     1      -6.788   0.204 -35.013  1.00  0.00     0.121 A 
HETATM   12  C   UNL     1      -6.786   1.451 -34.437  1.00  0.00     0.050 A 
BRANCH  10  13
HETATM   13  C   UNL     1      -5.804  -2.019 -34.354  1.00  0.00     0.058 A 
HETATM   14  C   UNL     1      -4.515  -2.523 -34.122  1.00  0.00     0.031 A 
HETATM   15  C   UNL     1      -4.256  -3.888 -34.258  1.00  0.00     0.002 A 
HETATM   16  C   UNL     1      -5.278  -4.759 -34.628  1.00  0.00     0.000 A 
HETATM   17  C   UNL     1      -6.561  -4.268 -34.863  1.00  0.00     0.002 A 
HETATM   18  C   UNL     1      -6.828  -2.901 -34.727  1.00  0.00     0.031 A 
ENDBRANCH  10  13
ENDBRANCH   7   8
ENDBRANCH   1   7
BRANCH   3  19
HETATM   19  C   UNL     1      -1.524   4.857 -32.814  1.00  0.00     0.144 C 
BRANCH  19  20
HETATM   20  C   UNL     1      -1.208   6.357 -32.749  1.00  0.00     0.142 C 
BRANCH  20  21
HETATM   21  N   UNL     1      -1.178   6.865 -31.382  1.00  0.00    -0.355 N 
HETATM   22  C   UNL     1      -0.070   6.687 -30.583  1.00  0.00     0.254 C 
HETATM   23  O   UNL     1       0.935   6.089 -30.962  1.00  0.00    -0.268 OA
HETATM   24  H   UNL     1      -1.922   7.488 -31.108  1.00  0.00     0.162 HD
BRANCH  22  25
HETATM   25  C   UNL     1      -0.089   7.272 -29.211  1.00  0.00     0.065 A 
HETATM   26  C   UNL     1      -1.257   7.172 -28.436  1.00  0.00     0.081 A 
HETATM   27  C   UNL     1      -1.308   7.704 -27.149  1.00  0.00     0.037 A 
HETATM   28  C   UNL     1      -0.198   8.360 -26.623  1.00  0.00     0.003 A 
HETATM   29  C   UNL     1       0.961   8.487 -27.386  1.00  0.00     0.001 A 
HETATM   30  C   UNL     1       1.019   7.950 -28.677  1.00  0.00     0.020 A 
BRANCH  26  31
HETATM   31  O   UNL     1      -2.403   6.562 -28.877  1.00  0.00    -0.360 OA
HETATM   32  H   UNL     1      -2.475   6.723 -29.846  1.00  0.00     0.217 HD
ENDBRANCH  26  31
ENDBRANCH  22  25
ENDBRANCH  20  21
ENDBRANCH  19  20
ENDBRANCH   3  19
TORSDOF 8
ENDMDL
