MODEL 1
REMARK VINA RESULT:      -7.7      0.000      0.000
REMARK  7 active torsions:
REMARK  status: ('A' for Active; 'I' for Inactive)
REMARK    1  A    between atoms: O_2  and  C_3 
REMARK    2  A    between atoms: C_4  and  O_5 
REMARK    3  A    between atoms: C_6  and  C_7 
REMARK    4  A    between atoms: C_7  and  N_8 
REMARK    5  A    between atoms: C_11  and  C_12 
REMARK    6  A    between atoms: C_12  and  N_13 
REMARK    7  A    between atoms: N_13  and  C_14 
ROOT
HETATM    1  N   UNL     1      -3.290   3.428 -32.554  1.00  0.00    -0.067 N 
HETATM    2  H   UNL     1      -2.823   2.690 -33.118  1.00  0.00     0.280 HD
HETATM    3  C   UNL     1      -2.280   3.992 -31.586  1.00  0.00     0.241 C 
HETATM    4  C   UNL     1      -2.567   5.489 -31.598  1.00  0.00     0.031 C 
HETATM    5  C   UNL     1      -2.861   5.732 -33.076  1.00  0.00     0.035 C 
HETATM    6  C   UNL     1      -3.728   4.544 -33.474  1.00  0.00     0.235 C 
ENDROOT
BRANCH   1   7
HETATM    7  C   UNL     1      -4.443   2.685 -31.920  1.00  0.00     0.276 C 
BRANCH   7   8
HETATM    8  C   UNL     1      -4.559   1.257 -32.371  1.00  0.00     0.005 A 
HETATM    9  C   UNL     1      -3.657   0.284 -31.931  1.00  0.00     0.107 A 
HETATM   10  C   UNL     1      -3.705  -1.042 -32.385  1.00  0.00     0.103 A 
HETATM   11  C   UNL     1      -4.702  -1.413 -33.283  1.00  0.00     0.058 A 
HETATM   12  C   UNL     1      -5.617  -0.455 -33.725  1.00  0.00     0.014 A 
HETATM   13  C   UNL     1      -5.546   0.871 -33.287  1.00  0.00     0.030 A 
HETATM   14 BR   UNL     1      -6.982  -0.954 -34.936  1.00  0.00    -0.051 Br
BRANCH   9  15
HETATM   15  O   UNL     1      -2.699   0.645 -31.011  1.00  0.00    -0.357 OA
HETATM   16  H   UNL     1      -1.980   1.045 -31.555  1.00  0.00     0.218 HD
ENDBRANCH   9  15
BRANCH  10  17
HETATM   17  O   UNL     1      -2.736  -1.859 -31.865  1.00  0.00    -0.353 OA
HETATM   18  C   UNL     1      -3.002  -3.261 -31.897  1.00  0.00     0.210 C 
ENDBRANCH  10  17
ENDBRANCH   7   8
ENDBRANCH   1   7
BRANCH   4  19
HETATM   19  C   UNL     1      -1.405   6.320 -31.042  1.00  0.00     0.127 C 
BRANCH  19  20
HETATM   20  N   UNL     1      -0.780   5.628 -29.910  1.00  0.00    -0.376 N 
HETATM   21  H   UNL     1      -0.356   4.736 -30.146  1.00  0.00     0.161 HD
BRANCH  20  22
HETATM   22  C   UNL     1      -0.140   6.360 -28.919  1.00  0.00     0.100 A 
HETATM   23  N   UNL     1      -0.287   5.967 -27.639  1.00  0.00    -0.353 N 
HETATM   24  H   UNL     1      -0.862   5.152 -27.450  1.00  0.00     0.166 HD
HETATM   25  C   UNL     1       0.268   6.599 -26.593  1.00  0.00     0.089 A 
HETATM   26  C   UNL     1       1.033   7.736 -26.792  1.00  0.00     0.017 A 
HETATM   27  C   UNL     1       1.199   8.206 -28.086  1.00  0.00     0.005 A 
HETATM   28  C   UNL     1       0.608   7.523 -29.149  1.00  0.00     0.048 A 
ENDBRANCH  20  22
ENDBRANCH  19  20
ENDBRANCH   4  19
TORSDOF 7
ENDMDL
MODEL 2
REMARK VINA RESULT:      -7.6      7.301     10.105
REMARK  7 active torsions:
REMARK  status: ('A' for Active; 'I' for Inactive)
REMARK    1  A    between atoms: O_2  and  C_3 
REMARK    2  A    between atoms: C_4  and  O_5 
REMARK    3  A    between atoms: C_6  and  C_7 
REMARK    4  A    between atoms: C_7  and  N_8 
REMARK    5  A    between atoms: C_11  and  C_12 
REMARK    6  A    between atoms: C_12  and  N_13 
REMARK    7  A    between atoms: N_13  and  C_14 
ROOT
HETATM    1  N   UNL     1      -8.640   0.842 -32.613  1.00  0.00    -0.067 N 
HETATM    2  H   UNL     1      -8.866   1.815 -32.900  1.00  0.00     0.280 HD
HETATM    3  C   UNL     1      -7.385   0.416 -33.334  1.00  0.00     0.241 C 
HETATM    4  C   UNL     1      -6.608  -0.358 -32.276  1.00  0.00     0.031 C 
HETATM    5  C   UNL     1      -6.875   0.479 -31.027  1.00  0.00     0.035 C 
HETATM    6  C   UNL     1      -8.355   0.821 -31.130  1.00  0.00     0.235 C 
ENDROOT
BRANCH   1   7
HETATM    7  C   UNL     1      -9.890   0.083 -32.995  1.00  0.00     0.276 C 
BRANCH   7   8
HETATM    8  C   UNL     1     -10.965   0.951 -33.583  1.00  0.00     0.005 A 
HETATM    9  C   UNL     1     -12.296   0.525 -33.623  1.00  0.00     0.107 A 
HETATM   10  C   UNL     1     -13.309   1.289 -34.223  1.00  0.00     0.103 A 
HETATM   11  C   UNL     1     -12.987   2.526 -34.772  1.00  0.00     0.058 A 
HETATM   12  C   UNL     1     -11.663   2.971 -34.732  1.00  0.00     0.014 A 
HETATM   13  C   UNL     1     -10.655   2.192 -34.155  1.00  0.00     0.030 A 
HETATM   14 BR   UNL     1     -11.219   4.656 -35.466  1.00  0.00    -0.051 Br
BRANCH   9  15
HETATM   15  O   UNL     1     -12.618  -0.679 -33.042  1.00  0.00    -0.357 OA
HETATM   16  H   UNL     1     -13.600  -0.653 -32.957  1.00  0.00     0.218 HD
ENDBRANCH   9  15
BRANCH  10  17
HETATM   17  O   UNL     1     -14.553   0.715 -34.189  1.00  0.00    -0.353 OA
HETATM   18  C   UNL     1     -15.554   1.412 -33.448  1.00  0.00     0.210 C 
ENDBRANCH  10  17
ENDBRANCH   7   8
ENDBRANCH   1   7
BRANCH   4  19
HETATM   19  C   UNL     1      -5.124  -0.512 -32.625  1.00  0.00     0.127 C 
BRANCH  19  20
HETATM   20  N   UNL     1      -4.973  -1.058 -33.978  1.00  0.00    -0.376 N 
HETATM   21  H   UNL     1      -4.284  -0.576 -34.549  1.00  0.00     0.161 HD
BRANCH  20  22
HETATM   22  C   UNL     1      -5.087  -2.425 -34.191  1.00  0.00     0.100 A 
HETATM   23  N   UNL     1      -4.062  -3.217 -33.822  1.00  0.00    -0.353 N 
HETATM   24  H   UNL     1      -3.245  -2.782 -33.405  1.00  0.00     0.166 HD
HETATM   25  C   UNL     1      -4.047  -4.548 -33.989  1.00  0.00     0.089 A 
HETATM   26  C   UNL     1      -5.121  -5.188 -34.583  1.00  0.00     0.017 A 
HETATM   27  C   UNL     1      -6.196  -4.423 -35.010  1.00  0.00     0.005 A 
HETATM   28  C   UNL     1      -6.178  -3.041 -34.820  1.00  0.00     0.048 A 
ENDBRANCH  20  22
ENDBRANCH  19  20
ENDBRANCH   4  19
TORSDOF 7
ENDMDL
MODEL 3
REMARK VINA RESULT:      -7.5      6.244      9.556
REMARK  7 active torsions:
REMARK  status: ('A' for Active; 'I' for Inactive)
REMARK    1  A    between atoms: O_2  and  C_3 
REMARK    2  A    between atoms: C_4  and  O_5 
REMARK    3  A    between atoms: C_6  and  C_7 
REMARK    4  A    between atoms: C_7  and  N_8 
REMARK    5  A    between atoms: C_11  and  C_12 
REMARK    6  A    between atoms: C_12  and  N_13 
REMARK    7  A    between atoms: N_13  and  C_14 
ROOT
HETATM    1  N   UNL     1      -7.415   1.094 -33.252  1.00  0.00    -0.067 N 
HETATM    2  H   UNL     1      -7.278   0.358 -32.531  1.00  0.00     0.280 HD
HETATM    3  C   UNL     1      -8.864   1.078 -33.672  1.00  0.00     0.241 C 
HETATM    4  C   UNL     1      -9.215   2.555 -33.807  1.00  0.00     0.031 C 
HETATM    5  C   UNL     1      -8.468   3.157 -32.619  1.00  0.00     0.035 C 
HETATM    6  C   UNL     1      -7.123   2.443 -32.637  1.00  0.00     0.235 C 
ENDROOT
BRANCH   1   7
HETATM    7  C   UNL     1      -6.429   0.697 -34.326  1.00  0.00     0.276 C 
BRANCH   7   8
HETATM    8  C   UNL     1      -5.838  -0.668 -34.125  1.00  0.00     0.005 A 
HETATM    9  C   UNL     1      -4.746  -0.865 -33.273  1.00  0.00     0.107 A 
HETATM   10  C   UNL     1      -4.135  -2.118 -33.117  1.00  0.00     0.103 A 
HETATM   11  C   UNL     1      -4.648  -3.211 -33.810  1.00  0.00     0.058 A 
HETATM   12  C   UNL     1      -5.744  -3.033 -34.658  1.00  0.00     0.014 A 
HETATM   13  C   UNL     1      -6.331  -1.775 -34.827  1.00  0.00     0.030 A 
HETATM   14 BR   UNL     1      -6.453  -4.515 -35.594  1.00  0.00    -0.051 Br
BRANCH   9  15
HETATM   15  O   UNL     1      -4.270   0.209 -32.558  1.00  0.00    -0.357 OA
HETATM   16  H   UNL     1      -5.008   0.863 -32.584  1.00  0.00     0.218 HD
ENDBRANCH   9  15
BRANCH  10  17
HETATM   17  O   UNL     1      -3.069  -2.130 -32.257  1.00  0.00    -0.353 OA
HETATM   18  C   UNL     1      -2.768  -3.379 -31.635  1.00  0.00     0.210 C 
ENDBRANCH  10  17
ENDBRANCH   7   8
ENDBRANCH   1   7
BRANCH   4  19
HETATM   19  C   UNL     1     -10.727   2.808 -33.794  1.00  0.00     0.127 C 
BRANCH  19  20
HETATM   20  N   UNL     1     -11.432   1.653 -33.227  1.00  0.00    -0.376 N 
HETATM   21  H   UNL     1     -11.033   1.303 -32.362  1.00  0.00     0.161 HD
BRANCH  20  22
HETATM   22  C   UNL     1     -12.813   1.561 -33.340  1.00  0.00     0.100 A 
HETATM   23  N   UNL     1     -13.572   2.298 -32.506  1.00  0.00    -0.353 N 
HETATM   24  H   UNL     1     -13.103   2.891 -31.827  1.00  0.00     0.166 HD
HETATM   25  C   UNL     1     -14.914   2.285 -32.505  1.00  0.00     0.089 A 
HETATM   26  C   UNL     1     -15.602   1.469 -33.388  1.00  0.00     0.017 A 
HETATM   27  C   UNL     1     -14.876   0.666 -34.253  1.00  0.00     0.005 A 
HETATM   28  C   UNL     1     -13.482   0.706 -34.226  1.00  0.00     0.048 A 
ENDBRANCH  20  22
ENDBRANCH  19  20
ENDBRANCH   4  19
TORSDOF 7
ENDMDL
MODEL 4
REMARK VINA RESULT:      -7.4      6.487     10.160
REMARK  7 active torsions:
REMARK  status: ('A' for Active; 'I' for Inactive)
REMARK    1  A    between atoms: O_2  and  C_3 
REMARK    2  A    between atoms: C_4  and  O_5 
REMARK    3  A    between atoms: C_6  and  C_7 
REMARK    4  A    between atoms: C_7  and  N_8 
REMARK    5  A    between atoms: C_11  and  C_12 
REMARK    6  A    between atoms: C_12  and  N_13 
REMARK    7  A    between atoms: N_13  and  C_14 
ROOT
HETATM    1  N   UNL     1      -8.756   1.300 -33.773  1.00  0.00    -0.067 N 
HETATM    2  H   UNL     1      -8.162   1.086 -32.948  1.00  0.00     0.280 HD
HETATM    3  C   UNL     1     -10.099   0.644 -33.572  1.00  0.00     0.241 C 
HETATM    4  C   UNL     1     -11.088   1.685 -34.082  1.00  0.00     0.031 C 
HETATM    5  C   UNL     1     -10.460   2.979 -33.572  1.00  0.00     0.035 C 
HETATM    6  C   UNL     1      -8.974   2.794 -33.846  1.00  0.00     0.235 C 
ENDROOT
BRANCH   1   7
HETATM    7  C   UNL     1      -7.940   0.757 -34.922  1.00  0.00     0.276 C 
BRANCH   7   8
HETATM    8  C   UNL     1      -6.887  -0.228 -34.500  1.00  0.00     0.005 A 
HETATM    9  C   UNL     1      -5.750   0.184 -33.799  1.00  0.00     0.107 A 
HETATM   10  C   UNL     1      -4.723  -0.704 -33.448  1.00  0.00     0.103 A 
HETATM   11  C   UNL     1      -4.850  -2.049 -33.783  1.00  0.00     0.058 A 
HETATM   12  C   UNL     1      -5.984  -2.480 -34.475  1.00  0.00     0.014 A 
HETATM   13  C   UNL     1      -6.991  -1.582 -34.843  1.00  0.00     0.030 A 
HETATM   14 BR   UNL     1      -6.169  -4.308 -34.924  1.00  0.00    -0.051 Br
BRANCH   9  15
HETATM   15  O   UNL     1      -5.649   1.507 -33.433  1.00  0.00    -0.357 OA
HETATM   16  H   UNL     1      -6.303   1.606 -32.701  1.00  0.00     0.218 HD
ENDBRANCH   9  15
BRANCH  10  17
HETATM   17  O   UNL     1      -3.675  -0.129 -32.778  1.00  0.00    -0.353 OA
HETATM   18  C   UNL     1      -3.550  -0.455 -31.395  1.00  0.00     0.210 C 
ENDBRANCH  10  17
ENDBRANCH   7   8
ENDBRANCH   1   7
BRANCH   4  19
HETATM   19  C   UNL     1     -12.517   1.438 -33.584  1.00  0.00     0.127 C 
BRANCH  19  20
HETATM   20  N   UNL     1     -12.871   2.414 -32.548  1.00  0.00    -0.376 N 
HETATM   21  H   UNL     1     -12.171   3.133 -32.393  1.00  0.00     0.161 HD
BRANCH  20  22
HETATM   22  C   UNL     1     -14.192   2.810 -32.393  1.00  0.00     0.100 A 
HETATM   23  N   UNL     1     -14.444   4.110 -32.140  1.00  0.00    -0.353 N 
HETATM   24  H   UNL     1     -13.656   4.746 -32.072  1.00  0.00     0.166 HD
HETATM   25  C   UNL     1     -15.674   4.612 -31.955  1.00  0.00     0.089 A 
HETATM   26  C   UNL     1     -16.781   3.781 -32.005  1.00  0.00     0.017 A 
HETATM   27  C   UNL     1     -16.585   2.428 -32.234  1.00  0.00     0.005 A 
HETATM   28  C   UNL     1     -15.291   1.940 -32.422  1.00  0.00     0.048 A 
ENDBRANCH  20  22
ENDBRANCH  19  20
ENDBRANCH   4  19
TORSDOF 7
ENDMDL
MODEL 5
REMARK VINA RESULT:      -7.3      3.568      9.029
REMARK  7 active torsions:
REMARK  status: ('A' for Active; 'I' for Inactive)
REMARK    1  A    between atoms: O_2  and  C_3 
REMARK    2  A    between atoms: C_4  and  O_5 
REMARK    3  A    between atoms: C_6  and  C_7 
REMARK    4  A    between atoms: C_7  and  N_8 
REMARK    5  A    between atoms: C_11  and  C_12 
REMARK    6  A    between atoms: C_12  and  N_13 
REMARK    7  A    between atoms: N_13  and  C_14 
ROOT
HETATM    1  N   UNL     1      -5.131   2.224 -30.992  1.00  0.00    -0.067 N 
HETATM    2  H   UNL     1      -4.828   2.683 -30.110  1.00  0.00     0.280 HD
HETATM    3  C   UNL     1      -4.046   1.270 -31.425  1.00  0.00     0.241 C 
HETATM    4  C   UNL     1      -4.816   0.053 -31.925  1.00  0.00     0.031 C 
HETATM    5  C   UNL     1      -5.951  -0.031 -30.907  1.00  0.00     0.035 C 
HETATM    6  C   UNL     1      -6.380   1.419 -30.723  1.00  0.00     0.235 C 
ENDROOT
BRANCH   1   7
HETATM    7  C   UNL     1      -5.361   3.398 -31.916  1.00  0.00     0.276 C 
BRANCH   7   8
HETATM    8  C   UNL     1      -4.195   4.341 -31.993  1.00  0.00     0.005 A 
HETATM    9  C   UNL     1      -3.878   5.188 -30.925  1.00  0.00     0.107 A 
HETATM   10  C   UNL     1      -2.835   6.122 -30.995  1.00  0.00     0.103 A 
HETATM   11  C   UNL     1      -2.067   6.193 -32.154  1.00  0.00     0.058 A 
HETATM   12  C   UNL     1      -2.364   5.347 -33.226  1.00  0.00     0.014 A 
HETATM   13  C   UNL     1      -3.423   4.436 -33.157  1.00  0.00     0.030 A 
HETATM   14 BR   UNL     1      -1.318   5.428 -34.799  1.00  0.00    -0.051 Br
BRANCH   9  15
HETATM   15  O   UNL     1      -4.613   5.086 -29.767  1.00  0.00    -0.357 OA
HETATM   16  H   UNL     1      -5.504   4.791 -30.070  1.00  0.00     0.218 HD
ENDBRANCH   9  15
BRANCH  10  17
HETATM   17  O   UNL     1      -2.672   6.883 -29.867  1.00  0.00    -0.353 OA
HETATM   18  C   UNL     1      -1.376   6.866 -29.270  1.00  0.00     0.210 C 
ENDBRANCH  10  17
ENDBRANCH   7   8
ENDBRANCH   1   7
BRANCH   4  19
HETATM   19  C   UNL     1      -3.947  -1.206 -32.006  1.00  0.00     0.127 C 
BRANCH  19  20
HETATM   20  N   UNL     1      -3.817  -1.648 -33.398  1.00  0.00    -0.376 N 
HETATM   21  H   UNL     1      -2.859  -1.704 -33.732  1.00  0.00     0.161 HD
BRANCH  20  22
HETATM   22  C   UNL     1      -4.693  -2.596 -33.909  1.00  0.00     0.100 A 
HETATM   23  N   UNL     1      -4.255  -3.862 -34.046  1.00  0.00    -0.353 N 
HETATM   24  H   UNL     1      -3.301  -4.073 -33.772  1.00  0.00     0.166 HD
HETATM   25  C   UNL     1      -5.000  -4.863 -34.541  1.00  0.00     0.089 A 
HETATM   26  C   UNL     1      -6.298  -4.623 -34.961  1.00  0.00     0.017 A 
HETATM   27  C   UNL     1      -6.797  -3.333 -34.871  1.00  0.00     0.005 A 
HETATM   28  C   UNL     1      -5.994  -2.317 -34.351  1.00  0.00     0.048 A 
ENDBRANCH  20  22
ENDBRANCH  19  20
ENDBRANCH   4  19
TORSDOF 7
ENDMDL
MODEL 6
REMARK VINA RESULT:      -7.3      5.300      9.129
REMARK  7 active torsions:
REMARK  status: ('A' for Active; 'I' for Inactive)
REMARK    1  A    between atoms: O_2  and  C_3 
REMARK    2  A    between atoms: C_4  and  O_5 
REMARK    3  A    between atoms: C_6  and  C_7 
REMARK    4  A    between atoms: C_7  and  N_8 
REMARK    5  A    between atoms: C_11  and  C_12 
REMARK    6  A    between atoms: C_12  and  N_13 
REMARK    7  A    between atoms: N_13  and  C_14 
ROOT
HETATM    1  N   UNL     1      -5.801   2.694 -32.992  1.00  0.00    -0.067 N 
HETATM    2  H   UNL     1      -5.896   3.101 -33.944  1.00  0.00     0.280 HD
HETATM    3  C   UNL     1      -5.772   1.191 -33.122  1.00  0.00     0.241 C 
HETATM    4  C   UNL     1      -4.711   0.764 -32.116  1.00  0.00     0.031 C 
HETATM    5  C   UNL     1      -3.661   1.858 -32.294  1.00  0.00     0.035 C 
HETATM    6  C   UNL     1      -4.484   3.136 -32.399  1.00  0.00     0.235 C 
ENDROOT
BRANCH   1   7
HETATM    7  C   UNL     1      -7.004   3.254 -32.269  1.00  0.00     0.276 C 
BRANCH   7   8
HETATM    8  C   UNL     1      -8.223   3.381 -33.137  1.00  0.00     0.005 A 
HETATM    9  C   UNL     1      -8.406   4.491 -33.969  1.00  0.00     0.107 A 
HETATM   10  C   UNL     1      -9.563   4.665 -34.741  1.00  0.00     0.103 A 
HETATM   11  C   UNL     1     -10.554   3.688 -34.703  1.00  0.00     0.058 A 
HETATM   12  C   UNL     1     -10.383   2.569 -33.885  1.00  0.00     0.014 A 
HETATM   13  C   UNL     1      -9.237   2.416 -33.098  1.00  0.00     0.030 A 
HETATM   14 BR   UNL     1     -11.719   1.232 -33.836  1.00  0.00    -0.051 Br
BRANCH   9  15
HETATM   15  O   UNL     1      -7.405   5.433 -34.035  1.00  0.00    -0.357 OA
HETATM   16  H   UNL     1      -6.990   5.283 -34.917  1.00  0.00     0.218 HD
ENDBRANCH   9  15
BRANCH  10  17
HETATM   17  O   UNL     1      -9.586   5.815 -35.485  1.00  0.00    -0.353 OA
HETATM   18  C   UNL     1     -10.779   6.596 -35.413  1.00  0.00     0.210 C 
ENDBRANCH  10  17
ENDBRANCH   7   8
ENDBRANCH   1   7
BRANCH   4  19
HETATM   19  C   UNL     1      -4.191  -0.655 -32.369  1.00  0.00     0.127 C 
BRANCH  19  20
HETATM   20  N   UNL     1      -4.359  -1.015 -33.781  1.00  0.00    -0.376 N 
HETATM   21  H   UNL     1      -3.602  -0.707 -34.385  1.00  0.00     0.161 HD
BRANCH  20  22
HETATM   22  C   UNL     1      -4.954  -2.222 -34.123  1.00  0.00     0.100 A 
HETATM   23  N   UNL     1      -4.219  -3.347 -34.024  1.00  0.00    -0.353 N 
HETATM   24  H   UNL     1      -3.259  -3.266 -33.705  1.00  0.00     0.166 HD
HETATM   25  C   UNL     1      -4.675  -4.569 -34.339  1.00  0.00     0.089 A 
HETATM   26  C   UNL     1      -5.967  -4.730 -34.810  1.00  0.00     0.017 A 
HETATM   27  C   UNL     1      -6.764  -3.606 -34.961  1.00  0.00     0.005 A 
HETATM   28  C   UNL     1      -6.257  -2.350 -34.623  1.00  0.00     0.048 A 
ENDBRANCH  20  22
ENDBRANCH  19  20
ENDBRANCH   4  19
TORSDOF 7
ENDMDL
MODEL 7
REMARK VINA RESULT:      -7.1      5.423      8.968
REMARK  7 active torsions:
REMARK  status: ('A' for Active; 'I' for Inactive)
REMARK    1  A    between atoms: O_2  and  C_3 
REMARK    2  A    between atoms: C_4  and  O_5 
REMARK    3  A    between atoms: C_6  and  C_7 
REMARK    4  A    between atoms: C_7  and  N_8 
REMARK    5  A    between atoms: C_11  and  C_12 
REMARK    6  A    between atoms: C_12  and  N_13 
REMARK    7  A    between atoms: N_13  and  C_14 
ROOT
HETATM    1  N   UNL     1      -6.538   2.629 -32.218  1.00  0.00    -0.067 N 
HETATM    2  H   UNL     1      -6.600   3.330 -32.982  1.00  0.00     0.280 HD
HETATM    3  C   UNL     1      -6.259   1.281 -32.835  1.00  0.00     0.241 C 
HETATM    4  C   UNL     1      -5.249   0.652 -31.883  1.00  0.00     0.031 C 
HETATM    5  C   UNL     1      -4.373   1.852 -31.529  1.00  0.00     0.035 C 
HETATM    6  C   UNL     1      -5.374   2.982 -31.322  1.00  0.00     0.235 C 
ENDROOT
BRANCH   1   7
HETATM    7  C   UNL     1      -7.880   2.759 -31.536  1.00  0.00     0.276 C 
BRANCH   7   8
HETATM    8  C   UNL     1      -9.046   2.528 -32.454  1.00  0.00     0.005 A 
HETATM    9  C   UNL     1      -9.770   1.332 -32.416  1.00  0.00     0.107 A 
HETATM   10  C   UNL     1     -10.823   1.065 -33.304  1.00  0.00     0.103 A 
HETATM   11  C   UNL     1     -11.181   2.034 -34.237  1.00  0.00     0.058 A 
HETATM   12  C   UNL     1     -10.474   3.238 -34.281  1.00  0.00     0.014 A 
HETATM   13  C   UNL     1      -9.410   3.485 -33.409  1.00  0.00     0.030 A 
HETATM   14 BR   UNL     1     -10.963   4.564 -35.538  1.00  0.00    -0.051 Br
BRANCH   9  15
HETATM   15  O   UNL     1      -9.440   0.394 -31.465  1.00  0.00    -0.357 OA
HETATM   16  H   UNL     1      -8.502   0.165 -31.667  1.00  0.00     0.218 HD
ENDBRANCH   9  15
BRANCH  10  17
HETATM   17  O   UNL     1     -11.412  -0.161 -33.140  1.00  0.00    -0.353 OA
HETATM   18  C   UNL     1     -12.781  -0.265 -33.528  1.00  0.00     0.210 C 
ENDBRANCH  10  17
ENDBRANCH   7   8
ENDBRANCH   1   7
BRANCH   4  19
HETATM   19  C   UNL     1      -4.488  -0.519 -32.515  1.00  0.00     0.127 C 
BRANCH  19  20
HETATM   20  N   UNL     1      -5.072  -0.863 -33.815  1.00  0.00    -0.376 N 
HETATM   21  H   UNL     1      -4.766  -0.271 -34.582  1.00  0.00     0.161 HD
BRANCH  20  22
HETATM   22  C   UNL     1      -5.314  -2.192 -34.135  1.00  0.00     0.100 A 
HETATM   23  N   UNL     1      -4.322  -3.085 -33.952  1.00  0.00    -0.353 N 
HETATM   24  H   UNL     1      -3.436  -2.749 -33.587  1.00  0.00     0.166 HD
HETATM   25  C   UNL     1      -4.428  -4.392 -34.237  1.00  0.00     0.089 A 
HETATM   26  C   UNL     1      -5.604  -4.896 -34.768  1.00  0.00     0.017 A 
HETATM   27  C   UNL     1      -6.653  -4.021 -35.006  1.00  0.00     0.005 A 
HETATM   28  C   UNL     1      -6.508  -2.668 -34.697  1.00  0.00     0.048 A 
ENDBRANCH  20  22
ENDBRANCH  19  20
ENDBRANCH   4  19
TORSDOF 7
ENDMDL
MODEL 8
REMARK VINA RESULT:      -7.0      3.013      3.424
REMARK  7 active torsions:
REMARK  status: ('A' for Active; 'I' for Inactive)
REMARK    1  A    between atoms: O_2  and  C_3 
REMARK    2  A    between atoms: C_4  and  O_5 
REMARK    3  A    between atoms: C_6  and  C_7 
REMARK    4  A    between atoms: C_7  and  N_8 
REMARK    5  A    between atoms: C_11  and  C_12 
REMARK    6  A    between atoms: C_12  and  N_13 
REMARK    7  A    between atoms: N_13  and  C_14 
ROOT
HETATM    1  N   UNL     1      -3.427   4.419 -33.644  1.00  0.00    -0.067 N 
HETATM    2  H   UNL     1      -3.558   3.456 -34.013  1.00  0.00     0.280 HD
HETATM    3  C   UNL     1      -2.663   4.329 -32.347  1.00  0.00     0.241 C 
HETATM    4  C   UNL     1      -1.695   5.503 -32.417  1.00  0.00     0.031 C 
HETATM    5  C   UNL     1      -1.284   5.474 -33.887  1.00  0.00     0.035 C 
HETATM    6  C   UNL     1      -2.591   5.209 -34.623  1.00  0.00     0.235 C 
ENDROOT
BRANCH   1   7
HETATM    7  C   UNL     1      -4.846   4.925 -33.522  1.00  0.00     0.276 C 
BRANCH   7   8
HETATM    8  C   UNL     1      -5.848   3.843 -33.241  1.00  0.00     0.005 A 
HETATM    9  C   UNL     1      -6.547   3.802 -32.030  1.00  0.00     0.107 A 
HETATM   10  C   UNL     1      -7.442   2.769 -31.716  1.00  0.00     0.103 A 
HETATM   11  C   UNL     1      -7.667   1.763 -32.651  1.00  0.00     0.058 A 
HETATM   12  C   UNL     1      -6.983   1.793 -33.869  1.00  0.00     0.014 A 
HETATM   13  C   UNL     1      -6.074   2.814 -34.163  1.00  0.00     0.030 A 
HETATM   14 BR   UNL     1      -7.292   0.436 -35.150  1.00  0.00    -0.051 Br
BRANCH   9  15
HETATM   15  O   UNL     1      -6.354   4.822 -31.126  1.00  0.00    -0.357 OA
HETATM   16  H   UNL     1      -6.071   4.362 -30.301  1.00  0.00     0.218 HD
ENDBRANCH   9  15
BRANCH  10  17
HETATM   17  O   UNL     1      -8.028   2.875 -30.482  1.00  0.00    -0.353 OA
HETATM   18  C   UNL     1      -9.406   3.245 -30.462  1.00  0.00     0.210 C 
ENDBRANCH  10  17
ENDBRANCH   7   8
ENDBRANCH   1   7
BRANCH   4  19
HETATM   19  C   UNL     1      -0.527   5.368 -31.433  1.00  0.00     0.127 C 
BRANCH  19  20
HETATM   20  N   UNL     1      -1.010   5.465 -30.052  1.00  0.00    -0.376 N 
HETATM   21  H   UNL     1      -1.443   4.616 -29.699  1.00  0.00     0.161 HD
BRANCH  20  22
HETATM   22  C   UNL     1      -0.306   6.218 -29.123  1.00  0.00     0.100 A 
HETATM   23  N   UNL     1      -0.370   5.857 -27.827  1.00  0.00    -0.353 N 
HETATM   24  H   UNL     1      -0.932   5.048 -27.581  1.00  0.00     0.166 HD
HETATM   25  C   UNL     1       0.253   6.512 -26.835  1.00  0.00     0.089 A 
HETATM   26  C   UNL     1       1.006   7.642 -27.112  1.00  0.00     0.017 A 
HETATM   27  C   UNL     1       1.086   8.080 -28.424  1.00  0.00     0.005 A 
HETATM   28  C   UNL     1       0.426   7.374 -29.430  1.00  0.00     0.048 A 
ENDBRANCH  20  22
ENDBRANCH  19  20
ENDBRANCH   4  19
TORSDOF 7
ENDMDL
MODEL 9
REMARK VINA RESULT:      -7.0      3.996      9.125
REMARK  7 active torsions:
REMARK  status: ('A' for Active; 'I' for Inactive)
REMARK    1  A    between atoms: O_2  and  C_3 
REMARK    2  A    between atoms: C_4  and  O_5 
REMARK    3  A    between atoms: C_6  and  C_7 
REMARK    4  A    between atoms: C_7  and  N_8 
REMARK    5  A    between atoms: C_11  and  C_12 
REMARK    6  A    between atoms: C_12  and  N_13 
REMARK    7  A    between atoms: N_13  and  C_14 
ROOT
HETATM    1  N   UNL     1      -5.541   2.171 -32.235  1.00  0.00    -0.067 N 
HETATM    2  H   UNL     1      -4.525   2.080 -32.036  1.00  0.00     0.280 HD
HETATM    3  C   UNL     1      -5.897   1.196 -33.330  1.00  0.00     0.241 C 
HETATM    4  C   UNL     1      -7.245   0.639 -32.890  1.00  0.00     0.031 C 
HETATM    5  C   UNL     1      -7.045   0.505 -31.382  1.00  0.00     0.035 C 
HETATM    6  C   UNL     1      -6.320   1.788 -30.999  1.00  0.00     0.235 C 
ENDROOT
BRANCH   1   7
HETATM    7  C   UNL     1      -5.679   3.630 -32.604  1.00  0.00     0.276 C 
BRANCH   7   8
HETATM    8  C   UNL     1      -4.642   4.512 -31.970  1.00  0.00     0.005 A 
HETATM    9  C   UNL     1      -3.280   4.209 -32.062  1.00  0.00     0.107 A 
HETATM   10  C   UNL     1      -2.296   4.980 -31.427  1.00  0.00     0.103 A 
HETATM   11  C   UNL     1      -2.683   6.103 -30.701  1.00  0.00     0.058 A 
HETATM   12  C   UNL     1      -4.039   6.426 -30.607  1.00  0.00     0.014 A 
HETATM   13  C   UNL     1      -5.015   5.636 -31.223  1.00  0.00     0.030 A 
HETATM   14 BR   UNL     1      -4.571   7.957 -29.633  1.00  0.00    -0.051 Br
BRANCH   9  15
HETATM   15  O   UNL     1      -2.900   3.122 -32.815  1.00  0.00    -0.357 OA
HETATM   16  H   UNL     1      -2.334   3.506 -33.526  1.00  0.00     0.218 HD
ENDBRANCH   9  15
BRANCH  10  17
HETATM   17  O   UNL     1      -1.014   4.532 -31.607  1.00  0.00    -0.353 OA
HETATM   18  C   UNL     1       0.023   5.322 -31.026  1.00  0.00     0.210 C 
ENDBRANCH  10  17
ENDBRANCH   7   8
ENDBRANCH   1   7
BRANCH   4  19
HETATM   19  C   UNL     1      -7.603  -0.674 -33.597  1.00  0.00     0.127 C 
BRANCH  19  20
HETATM   20  N   UNL     1      -6.535  -1.060 -34.525  1.00  0.00    -0.376 N 
HETATM   21  H   UNL     1      -5.860  -0.326 -34.716  1.00  0.00     0.161 HD
BRANCH  20  22
HETATM   22  C   UNL     1      -6.034  -2.355 -34.504  1.00  0.00     0.100 A 
HETATM   23  N   UNL     1      -4.764  -2.541 -34.093  1.00  0.00    -0.353 N 
HETATM   24  H   UNL     1      -4.224  -1.727 -33.817  1.00  0.00     0.166 HD
HETATM   25  C   UNL     1      -4.162  -3.739 -34.043  1.00  0.00     0.089 A 
HETATM   26  C   UNL     1      -4.842  -4.878 -34.440  1.00  0.00     0.017 A 
HETATM   27  C   UNL     1      -6.144  -4.747 -34.899  1.00  0.00     0.005 A 
HETATM   28  C   UNL     1      -6.739  -3.486 -34.937  1.00  0.00     0.048 A 
ENDBRANCH  20  22
ENDBRANCH  19  20
ENDBRANCH   4  19
TORSDOF 7
ENDMDL
MODEL 10
REMARK VINA RESULT:      -7.0      2.406      3.104
REMARK  7 active torsions:
REMARK  status: ('A' for Active; 'I' for Inactive)
REMARK    1  A    between atoms: O_2  and  C_3 
REMARK    2  A    between atoms: C_4  and  O_5 
REMARK    3  A    between atoms: C_6  and  C_7 
REMARK    4  A    between atoms: C_7  and  N_8 
REMARK    5  A    between atoms: C_11  and  C_12 
REMARK    6  A    between atoms: C_12  and  N_13 
REMARK    7  A    between atoms: N_13  and  C_14 
ROOT
HETATM    1  N   UNL     1      -4.516   3.046 -32.217  1.00  0.00    -0.067 N 
HETATM    2  H   UNL     1      -5.080   2.971 -33.087  1.00  0.00     0.280 HD
HETATM    3  C   UNL     1      -3.083   3.314 -32.606  1.00  0.00     0.241 C 
HETATM    4  C   UNL     1      -2.619   4.340 -31.579  1.00  0.00     0.031 C 
HETATM    5  C   UNL     1      -3.858   5.222 -31.445  1.00  0.00     0.035 C 
HETATM    6  C   UNL     1      -5.009   4.225 -31.413  1.00  0.00     0.235 C 
ENDROOT
BRANCH   1   7
HETATM    7  C   UNL     1      -4.761   1.716 -31.545  1.00  0.00     0.276 C 
BRANCH   7   8
HETATM    8  C   UNL     1      -5.758   0.852 -32.263  1.00  0.00     0.005 A 
HETATM    9  C   UNL     1      -7.133   1.061 -32.119  1.00  0.00     0.107 A 
HETATM   10  C   UNL     1      -8.085   0.231 -32.728  1.00  0.00     0.103 A 
HETATM   11  C   UNL     1      -7.650  -0.821 -33.528  1.00  0.00     0.058 A 
HETATM   12  C   UNL     1      -6.280  -1.039 -33.691  1.00  0.00     0.014 A 
HETATM   13  C   UNL     1      -5.338  -0.221 -33.059  1.00  0.00     0.030 A 
HETATM   14 BR   UNL     1      -5.681  -2.459 -34.786  1.00  0.00    -0.051 Br
BRANCH   9  15
HETATM   15  O   UNL     1      -7.558   2.128 -31.361  1.00  0.00    -0.357 OA
HETATM   16  H   UNL     1      -7.458   2.905 -31.960  1.00  0.00     0.218 HD
ENDBRANCH   9  15
BRANCH  10  17
HETATM   17  O   UNL     1      -9.387   0.568 -32.468  1.00  0.00    -0.353 OA
HETATM   18  C   UNL     1     -10.177   0.967 -33.588  1.00  0.00     0.210 C 
ENDBRANCH  10  17
ENDBRANCH   7   8
ENDBRANCH   1   7
BRANCH   4  19
HETATM   19  C   UNL     1      -1.357   5.090 -32.020  1.00  0.00     0.127 C 
BRANCH  19  20
HETATM   20  N   UNL     1      -0.241   4.785 -31.118  1.00  0.00    -0.376 N 
HETATM   21  H   UNL     1       0.536   4.305 -31.562  1.00  0.00     0.161 HD
BRANCH  20  22
HETATM   22  C   UNL     1       0.093   5.673 -30.105  1.00  0.00     0.100 A 
HETATM   23  N   UNL     1       0.142   5.210 -28.841  1.00  0.00    -0.353 N 
HETATM   24  H   UNL     1      -0.068   4.230 -28.680  1.00  0.00     0.166 HD
HETATM   25  C   UNL     1       0.438   5.971 -27.775  1.00  0.00     0.089 A 
HETATM   26  C   UNL     1       0.700   7.321 -27.935  1.00  0.00     0.017 A 
HETATM   27  C   UNL     1       0.637   7.863 -29.210  1.00  0.00     0.005 A 
HETATM   28  C   UNL     1       0.328   7.042 -30.295  1.00  0.00     0.048 A 
ENDBRANCH  20  22
ENDBRANCH  19  20
ENDBRANCH   4  19
TORSDOF 7
ENDMDL
