MODEL 1
REMARK VINA RESULT:      -9.5      0.000      0.000
REMARK  7 active torsions:
REMARK  status: ('A' for Active; 'I' for Inactive)
REMARK       I    between atoms: C_2  and  N_3 
REMARK    1  A    between atoms: C_2  and  C_11 
REMARK    2  A    between atoms: N_3  and  C_4 
REMARK    3  A    between atoms: C_4  and  C_5 
REMARK    4  A    between atoms: C_15  and  N_16 
REMARK    5  A    between atoms: N_16  and  C_17 
REMARK    6  A    between atoms: C_17  and  C_18 
REMARK    7  A    between atoms: C_20  and  C_24 
ROOT
HETATM    1  C   UNL     1      -1.192   5.107 -32.009  1.00  0.00     0.033 A 
HETATM    2  C   UNL     1      -1.124   6.019 -33.066  1.00  0.00     0.017 A 
HETATM    3  C   UNL     1      -2.121   6.018 -34.038  1.00  0.00     0.003 A 
HETATM    4  C   UNL     1      -3.171   5.099 -33.958  1.00  0.00     0.023 A 
HETATM    5  C   UNL     1      -3.240   4.150 -32.926  1.00  0.00     0.009 A 
HETATM    6  C   UNL     1      -2.259   4.199 -31.928  1.00  0.00     0.040 A 
ENDROOT
BRANCH   5   7
HETATM    7  N   UNL     1      -4.357   3.307 -32.874  1.00  0.00    -0.286 NA
HETATM    8  H   UNL     1      -4.759   3.174 -33.803  1.00  0.00     0.128 HD
BRANCH   7   9
HETATM    9  C   UNL     1      -4.234   2.013 -32.202  1.00  0.00     0.171 C 
BRANCH   9  10
HETATM   10  C   UNL     1      -4.967   0.933 -32.937  1.00  0.00     0.117 A 
HETATM   11  N   UNL     1      -4.646  -0.344 -32.993  1.00  0.00    -0.232 NA
HETATM   12  C   UNL     1      -5.562  -0.933 -33.836  1.00  0.00     0.084 A 
HETATM   13  C   UNL     1      -6.453   0.011 -34.298  1.00  0.00     0.122 A 
HETATM   14  N   UNL     1      -6.057   1.192 -33.730  1.00  0.00    -0.351 N 
HETATM   15  H   UNL     1      -6.467   2.103 -33.884  1.00  0.00     0.166 HD
BRANCH  12  16
HETATM   16  C   UNL     1      -5.529  -2.349 -34.170  1.00  0.00    -0.003 A 
HETATM   17  C   UNL     1      -6.682  -2.960 -34.670  1.00  0.00     0.033 A 
HETATM   18  C   UNL     1      -6.645  -4.310 -34.975  1.00  0.00     0.117 A 
HETATM   19  N   UNL     1      -5.551  -5.083 -34.818  1.00  0.00    -0.273 NA
HETATM   20  C   UNL     1      -4.447  -4.476 -34.336  1.00  0.00     0.117 A 
HETATM   21  C   UNL     1      -4.385  -3.132 -34.002  1.00  0.00     0.033 A 
ENDBRANCH  12  16
ENDBRANCH   9  10
ENDBRANCH   7   9
ENDBRANCH   5   7
BRANCH   1  22
HETATM   22  C   UNL     1      -0.173   5.103 -30.924  1.00  0.00     0.251 C 
HETATM   23  O   UNL     1       0.946   4.649 -31.134  1.00  0.00    -0.268 OA
HETATM   24  N   UNL     1      -0.571   5.653 -29.725  1.00  0.00    -0.353 N 
HETATM   25  H   UNL     1      -1.407   6.219 -29.702  1.00  0.00     0.163 HD
BRANCH  24  26
HETATM   26  C   UNL     1       0.341   5.780 -28.611  1.00  0.00     0.161 C 
BRANCH  26  27
HETATM   27  C   UNL     1       0.350   7.185 -28.067  1.00  0.00    -0.041 A 
HETATM   28  C   UNL     1      -0.695   8.075 -28.350  1.00  0.00     0.009 A 
HETATM   29  C   UNL     1      -0.673   9.377 -27.843  1.00  0.00     0.001 A 
HETATM   30  C   UNL     1       0.396   9.802 -27.056  1.00  0.00     0.000 A 
HETATM   31  C   UNL     1       1.447   8.930 -26.779  1.00  0.00     0.001 A 
HETATM   32  C   UNL     1       1.427   7.630 -27.284  1.00  0.00     0.009 A 
ENDBRANCH  26  27
ENDBRANCH  24  26
ENDBRANCH   1  22
TORSDOF 7
ENDMDL
MODEL 2
REMARK VINA RESULT:      -9.4      4.456      8.935
REMARK  7 active torsions:
REMARK  status: ('A' for Active; 'I' for Inactive)
REMARK       I    between atoms: C_2  and  N_3 
REMARK    1  A    between atoms: C_2  and  C_11 
REMARK    2  A    between atoms: N_3  and  C_4 
REMARK    3  A    between atoms: C_4  and  C_5 
REMARK    4  A    between atoms: C_15  and  N_16 
REMARK    5  A    between atoms: N_16  and  C_17 
REMARK    6  A    between atoms: C_17  and  C_18 
REMARK    7  A    between atoms: C_20  and  C_24 
ROOT
HETATM    1  C   UNL     1      -3.966   1.566 -31.320  1.00  0.00     0.033 A 
HETATM    2  C   UNL     1      -3.377   2.795 -31.635  1.00  0.00     0.017 A 
HETATM    3  C   UNL     1      -3.978   3.974 -31.206  1.00  0.00     0.003 A 
HETATM    4  C   UNL     1      -5.170   3.924 -30.477  1.00  0.00     0.023 A 
HETATM    5  C   UNL     1      -5.799   2.704 -30.181  1.00  0.00     0.009 A 
HETATM    6  C   UNL     1      -5.154   1.525 -30.573  1.00  0.00     0.040 A 
ENDROOT
BRANCH   5   7
HETATM    7  N   UNL     1      -6.953   2.729 -29.388  1.00  0.00    -0.286 NA
HETATM    8  H   UNL     1      -6.745   3.069 -28.448  1.00  0.00     0.128 HD
BRANCH   7   9
HETATM    9  C   UNL     1      -8.146   3.405 -29.900  1.00  0.00     0.171 C 
BRANCH   9  10
HETATM   10  C   UNL     1      -8.828   2.600 -30.964  1.00  0.00     0.117 A 
HETATM   11  N   UNL     1      -9.704   3.037 -31.846  1.00  0.00    -0.232 NA
HETATM   12  C   UNL     1     -10.105   1.933 -32.567  1.00  0.00     0.084 A 
HETATM   13  C   UNL     1      -9.456   0.808 -32.106  1.00  0.00     0.122 A 
HETATM   14  N   UNL     1      -8.659   1.244 -31.081  1.00  0.00    -0.351 N 
HETATM   15  H   UNL     1      -8.070   0.672 -30.490  1.00  0.00     0.166 HD
BRANCH  12  16
HETATM   16  C   UNL     1     -11.091   2.005 -33.634  1.00  0.00    -0.003 A 
HETATM   17  C   UNL     1     -12.052   0.996 -33.745  1.00  0.00     0.033 A 
HETATM   18  C   UNL     1     -12.980   1.067 -34.770  1.00  0.00     0.117 A 
HETATM   19  N   UNL     1     -13.017   2.061 -35.681  1.00  0.00    -0.273 NA
HETATM   20  C   UNL     1     -12.082   3.027 -35.557  1.00  0.00     0.117 A 
HETATM   21  C   UNL     1     -11.113   3.044 -34.566  1.00  0.00     0.033 A 
ENDBRANCH  12  16
ENDBRANCH   9  10
ENDBRANCH   7   9
ENDBRANCH   5   7
BRANCH   1  22
HETATM   22  C   UNL     1      -3.334   0.280 -31.719  1.00  0.00     0.251 C 
HETATM   23  O   UNL     1      -2.343  -0.127 -31.125  1.00  0.00    -0.268 OA
HETATM   24  N   UNL     1      -3.949  -0.397 -32.751  1.00  0.00    -0.353 N 
HETATM   25  H   UNL     1      -4.884  -0.129 -33.020  1.00  0.00     0.163 HD
BRANCH  24  26
HETATM   26  C   UNL     1      -3.484  -1.693 -33.189  1.00  0.00     0.161 C 
BRANCH  26  27
HETATM   27  C   UNL     1      -4.600  -2.499 -33.801  1.00  0.00    -0.041 A 
HETATM   28  C   UNL     1      -4.400  -3.834 -34.182  1.00  0.00     0.009 A 
HETATM   29  C   UNL     1      -5.442  -4.569 -34.753  1.00  0.00     0.001 A 
HETATM   30  C   UNL     1      -6.687  -3.976 -34.953  1.00  0.00     0.000 A 
HETATM   31  C   UNL     1      -6.893  -2.647 -34.590  1.00  0.00     0.001 A 
HETATM   32  C   UNL     1      -5.854  -1.911 -34.022  1.00  0.00     0.009 A 
ENDBRANCH  26  27
ENDBRANCH  24  26
ENDBRANCH   1  22
TORSDOF 7
ENDMDL
MODEL 3
REMARK VINA RESULT:      -9.0      1.742      2.302
REMARK  7 active torsions:
REMARK  status: ('A' for Active; 'I' for Inactive)
REMARK       I    between atoms: C_2  and  N_3 
REMARK    1  A    between atoms: C_2  and  C_11 
REMARK    2  A    between atoms: N_3  and  C_4 
REMARK    3  A    between atoms: C_4  and  C_5 
REMARK    4  A    between atoms: C_15  and  N_16 
REMARK    5  A    between atoms: N_16  and  C_17 
REMARK    6  A    between atoms: C_17  and  C_18 
REMARK    7  A    between atoms: C_20  and  C_24 
ROOT
HETATM    1  C   UNL     1      -1.976   6.856 -32.146  1.00  0.00     0.033 A 
HETATM    2  C   UNL     1      -1.841   6.804 -33.537  1.00  0.00     0.017 A 
HETATM    3  C   UNL     1      -1.965   5.583 -34.192  1.00  0.00     0.003 A 
HETATM    4  C   UNL     1      -2.210   4.419 -33.458  1.00  0.00     0.023 A 
HETATM    5  C   UNL     1      -2.313   4.442 -32.058  1.00  0.00     0.009 A 
HETATM    6  C   UNL     1      -2.239   5.685 -31.418  1.00  0.00     0.040 A 
ENDROOT
BRANCH   5   7
HETATM    7  N   UNL     1      -2.628   3.248 -31.397  1.00  0.00    -0.286 NA
HETATM    8  H   UNL     1      -2.429   3.318 -30.398  1.00  0.00     0.128 HD
BRANCH   7   9
HETATM    9  C   UNL     1      -3.954   2.662 -31.592  1.00  0.00     0.171 C 
BRANCH   9  10
HETATM   10  C   UNL     1      -3.876   1.199 -31.904  1.00  0.00     0.117 A 
HETATM   11  N   UNL     1      -4.612   0.535 -32.773  1.00  0.00    -0.232 NA
HETATM   12  C   UNL     1      -4.235  -0.785 -32.665  1.00  0.00     0.084 A 
HETATM   13  C   UNL     1      -3.251  -0.918 -31.710  1.00  0.00     0.122 A 
HETATM   14  N   UNL     1      -3.042   0.346 -31.226  1.00  0.00    -0.351 N 
HETATM   15  H   UNL     1      -2.411   0.610 -30.482  1.00  0.00     0.166 HD
BRANCH  12  16
HETATM   16  C   UNL     1      -4.840  -1.845 -33.458  1.00  0.00    -0.003 A 
HETATM   17  C   UNL     1      -6.155  -1.696 -33.906  1.00  0.00     0.033 A 
HETATM   18  C   UNL     1      -6.727  -2.714 -34.651  1.00  0.00     0.117 A 
HETATM   19  N   UNL     1      -6.086  -3.855 -34.977  1.00  0.00    -0.273 NA
HETATM   20  C   UNL     1      -4.816  -3.980 -34.537  1.00  0.00     0.117 A 
HETATM   21  C   UNL     1      -4.158  -3.018 -33.786  1.00  0.00     0.033 A 
ENDBRANCH  12  16
ENDBRANCH   9  10
ENDBRANCH   7   9
ENDBRANCH   5   7
BRANCH   1  22
HETATM   22  C   UNL     1      -1.896   8.146 -31.408  1.00  0.00     0.251 C 
HETATM   23  O   UNL     1      -1.870   9.205 -32.025  1.00  0.00    -0.268 OA
HETATM   24  N   UNL     1      -1.881   8.052 -30.033  1.00  0.00    -0.353 N 
HETATM   25  H   UNL     1      -2.149   7.180 -29.602  1.00  0.00     0.163 HD
BRANCH  24  26
HETATM   26  C   UNL     1      -1.879   9.229 -29.194  1.00  0.00     0.161 C 
BRANCH  26  27
HETATM   27  C   UNL     1      -0.700   9.232 -28.256  1.00  0.00    -0.041 A 
HETATM   28  C   UNL     1      -0.590  10.192 -27.240  1.00  0.00     0.009 A 
HETATM   29  C   UNL     1       0.511  10.188 -26.380  1.00  0.00     0.001 A 
HETATM   30  C   UNL     1       1.512   9.230 -26.531  1.00  0.00     0.000 A 
HETATM   31  C   UNL     1       1.419   8.280 -27.545  1.00  0.00     0.001 A 
HETATM   32  C   UNL     1       0.322   8.283 -28.406  1.00  0.00     0.009 A 
ENDBRANCH  26  27
ENDBRANCH  24  26
ENDBRANCH   1  22
TORSDOF 7
ENDMDL
MODEL 4
REMARK VINA RESULT:      -9.0      2.672     11.212
REMARK  7 active torsions:
REMARK  status: ('A' for Active; 'I' for Inactive)
REMARK       I    between atoms: C_2  and  N_3 
REMARK    1  A    between atoms: C_2  and  C_11 
REMARK    2  A    between atoms: N_3  and  C_4 
REMARK    3  A    between atoms: C_4  and  C_5 
REMARK    4  A    between atoms: C_15  and  N_16 
REMARK    5  A    between atoms: N_16  and  C_17 
REMARK    6  A    between atoms: C_17  and  C_18 
REMARK    7  A    between atoms: C_20  and  C_24 
ROOT
HETATM    1  C   UNL     1      -3.708   4.708 -33.600  1.00  0.00     0.033 A 
HETATM    2  C   UNL     1      -3.125   5.235 -34.757  1.00  0.00     0.017 A 
HETATM    3  C   UNL     1      -1.790   5.627 -34.734  1.00  0.00     0.003 A 
HETATM    4  C   UNL     1      -1.047   5.504 -33.557  1.00  0.00     0.023 A 
HETATM    5  C   UNL     1      -1.622   5.012 -32.374  1.00  0.00     0.009 A 
HETATM    6  C   UNL     1      -2.950   4.573 -32.427  1.00  0.00     0.040 A 
ENDROOT
BRANCH   5   7
HETATM    7  N   UNL     1      -0.797   4.853 -31.253  1.00  0.00    -0.286 NA
HETATM    8  H   UNL     1      -0.394   3.916 -31.224  1.00  0.00     0.128 HD
BRANCH   7   9
HETATM    9  C   UNL     1       0.249   5.845 -31.001  1.00  0.00     0.171 C 
BRANCH   9  10
HETATM   10  C   UNL     1       0.259   6.291 -29.571  1.00  0.00     0.117 A 
HETATM   11  N   UNL     1       0.751   7.419 -29.098  1.00  0.00    -0.232 NA
HETATM   12  C   UNL     1       0.599   7.360 -27.730  1.00  0.00     0.084 A 
HETATM   13  C   UNL     1       0.005   6.169 -27.373  1.00  0.00     0.122 A 
HETATM   14  N   UNL     1      -0.193   5.496 -28.549  1.00  0.00    -0.351 N 
HETATM   15  H   UNL     1      -0.576   4.566 -28.654  1.00  0.00     0.166 HD
BRANCH  12  16
HETATM   16  C   UNL     1       1.043   8.423 -26.842  1.00  0.00    -0.003 A 
HETATM   17  C   UNL     1       1.985   8.136 -25.850  1.00  0.00     0.033 A 
HETATM   18  C   UNL     1       2.393   9.152 -25.002  1.00  0.00     0.117 A 
HETATM   19  N   UNL     1       1.934  10.418 -25.073  1.00  0.00    -0.273 NA
HETATM   20  C   UNL     1       1.026  10.677 -26.038  1.00  0.00     0.117 A 
HETATM   21  C   UNL     1       0.556   9.728 -26.934  1.00  0.00     0.033 A 
ENDBRANCH  12  16
ENDBRANCH   9  10
ENDBRANCH   7   9
ENDBRANCH   5   7
BRANCH   1  22
HETATM   22  C   UNL     1      -5.119   4.235 -33.592  1.00  0.00     0.251 C 
HETATM   23  O   UNL     1      -5.969   4.826 -34.247  1.00  0.00    -0.268 OA
HETATM   24  N   UNL     1      -5.370   3.108 -32.838  1.00  0.00    -0.353 N 
HETATM   25  H   UNL     1      -4.592   2.544 -32.532  1.00  0.00     0.163 HD
BRANCH  24  26
HETATM   26  C   UNL     1      -6.680   2.499 -32.800  1.00  0.00     0.161 C 
BRANCH  26  27
HETATM   27  C   UNL     1      -6.674   1.144 -33.458  1.00  0.00    -0.041 A 
HETATM   28  C   UNL     1      -7.173   0.971 -34.757  1.00  0.00     0.009 A 
HETATM   29  C   UNL     1      -7.167  -0.291 -35.355  1.00  0.00     0.001 A 
HETATM   30  C   UNL     1      -6.669  -1.391 -34.659  1.00  0.00     0.000 A 
HETATM   31  C   UNL     1      -6.182  -1.233 -33.363  1.00  0.00     0.001 A 
HETATM   32  C   UNL     1      -6.189   0.026 -32.764  1.00  0.00     0.009 A 
ENDBRANCH  26  27
ENDBRANCH  24  26
ENDBRANCH   1  22
TORSDOF 7
ENDMDL
MODEL 5
REMARK VINA RESULT:      -9.0      2.209     11.339
REMARK  7 active torsions:
REMARK  status: ('A' for Active; 'I' for Inactive)
REMARK       I    between atoms: C_2  and  N_3 
REMARK    1  A    between atoms: C_2  and  C_11 
REMARK    2  A    between atoms: N_3  and  C_4 
REMARK    3  A    between atoms: C_4  and  C_5 
REMARK    4  A    between atoms: C_15  and  N_16 
REMARK    5  A    between atoms: N_16  and  C_17 
REMARK    6  A    between atoms: C_17  and  C_18 
REMARK    7  A    between atoms: C_20  and  C_24 
ROOT
HETATM    1  C   UNL     1      -5.404   2.552 -33.037  1.00  0.00     0.033 A 
HETATM    2  C   UNL     1      -5.692   3.567 -33.955  1.00  0.00     0.017 A 
HETATM    3  C   UNL     1      -4.836   4.660 -34.061  1.00  0.00     0.003 A 
HETATM    4  C   UNL     1      -3.706   4.741 -33.243  1.00  0.00     0.023 A 
HETATM    5  C   UNL     1      -3.417   3.753 -32.289  1.00  0.00     0.009 A 
HETATM    6  C   UNL     1      -4.257   2.635 -32.232  1.00  0.00     0.040 A 
ENDROOT
BRANCH   5   7
HETATM    7  N   UNL     1      -2.231   3.869 -31.553  1.00  0.00    -0.286 NA
HETATM    8  H   UNL     1      -1.699   2.997 -31.575  1.00  0.00     0.128 HD
BRANCH   7   9
HETATM    9  C   UNL     1      -1.337   4.994 -31.828  1.00  0.00     0.171 C 
BRANCH   9  10
HETATM   10  C   UNL     1      -0.729   5.542 -30.573  1.00  0.00     0.117 A 
HETATM   11  N   UNL     1      -0.786   6.786 -30.145  1.00  0.00    -0.232 NA
HETATM   12  C   UNL     1      -0.029   6.831 -28.995  1.00  0.00     0.084 A 
HETATM   13  C   UNL     1       0.497   5.585 -28.728  1.00  0.00     0.122 A 
HETATM   14  N   UNL     1       0.055   4.780 -29.744  1.00  0.00    -0.351 N 
HETATM   15  H   UNL     1       0.285   3.805 -29.884  1.00  0.00     0.166 HD
BRANCH  12  16
HETATM   16  C   UNL     1       0.169   8.051 -28.228  1.00  0.00    -0.003 A 
HETATM   17  C   UNL     1       1.392   8.265 -27.588  1.00  0.00     0.033 A 
HETATM   18  C   UNL     1       1.568   9.425 -26.851  1.00  0.00     0.117 A 
HETATM   19  N   UNL     1       0.621  10.374 -26.711  1.00  0.00    -0.273 NA
HETATM   20  C   UNL     1      -0.553  10.152 -27.338  1.00  0.00     0.117 A 
HETATM   21  C   UNL     1      -0.825   9.023 -28.098  1.00  0.00     0.033 A 
ENDBRANCH  12  16
ENDBRANCH   9  10
ENDBRANCH   7   9
ENDBRANCH   5   7
BRANCH   1  22
HETATM   22  C   UNL     1      -6.266   1.345 -32.923  1.00  0.00     0.251 C 
HETATM   23  O   UNL     1      -6.962   1.180 -31.928  1.00  0.00    -0.268 OA
HETATM   24  N   UNL     1      -6.235   0.481 -33.996  1.00  0.00    -0.353 N 
HETATM   25  H   UNL     1      -5.837   0.800 -34.867  1.00  0.00     0.163 HD
BRANCH  24  26
HETATM   26  C   UNL     1      -7.078  -0.692 -34.049  1.00  0.00     0.161 C 
BRANCH  26  27
HETATM   27  C   UNL     1      -6.261  -1.950 -34.186  1.00  0.00    -0.041 A 
HETATM   28  C   UNL     1      -4.918  -1.985 -33.784  1.00  0.00     0.009 A 
HETATM   29  C   UNL     1      -4.169  -3.156 -33.920  1.00  0.00     0.001 A 
HETATM   30  C   UNL     1      -4.752  -4.299 -34.464  1.00  0.00     0.000 A 
HETATM   31  C   UNL     1      -6.082  -4.272 -34.879  1.00  0.00     0.001 A 
HETATM   32  C   UNL     1      -6.831  -3.103 -34.744  1.00  0.00     0.009 A 
ENDBRANCH  26  27
ENDBRANCH  24  26
ENDBRANCH   1  22
TORSDOF 7
ENDMDL
MODEL 6
REMARK VINA RESULT:      -8.9      3.685      5.520
REMARK  7 active torsions:
REMARK  status: ('A' for Active; 'I' for Inactive)
REMARK       I    between atoms: C_2  and  N_3 
REMARK    1  A    between atoms: C_2  and  C_11 
REMARK    2  A    between atoms: N_3  and  C_4 
REMARK    3  A    between atoms: C_4  and  C_5 
REMARK    4  A    between atoms: C_15  and  N_16 
REMARK    5  A    between atoms: N_16  and  C_17 
REMARK    6  A    between atoms: C_17  and  C_18 
REMARK    7  A    between atoms: C_20  and  C_24 
ROOT
HETATM    1  C   UNL     1      -6.963   3.817 -30.626  1.00  0.00     0.033 A 
HETATM    2  C   UNL     1      -7.796   4.803 -30.087  1.00  0.00     0.017 A 
HETATM    3  C   UNL     1      -9.172   4.596 -30.055  1.00  0.00     0.003 A 
HETATM    4  C   UNL     1      -9.711   3.414 -30.571  1.00  0.00     0.023 A 
HETATM    5  C   UNL     1      -8.898   2.427 -31.150  1.00  0.00     0.009 A 
HETATM    6  C   UNL     1      -7.512   2.627 -31.127  1.00  0.00     0.040 A 
ENDROOT
BRANCH   5   7
HETATM    7  N   UNL     1      -9.502   1.241 -31.584  1.00  0.00    -0.286 NA
HETATM    8  H   UNL     1     -10.307   1.006 -31.002  1.00  0.00     0.128 HD
BRANCH   7   9
HETATM    9  C   UNL     1      -9.864   1.109 -32.996  1.00  0.00     0.171 C 
BRANCH   9  10
HETATM   10  C   UNL     1      -8.801   0.402 -33.779  1.00  0.00     0.117 A 
HETATM   11  N   UNL     1      -8.195  -0.722 -33.454  1.00  0.00    -0.232 NA
HETATM   12  C   UNL     1      -7.252  -0.946 -34.433  1.00  0.00     0.084 A 
HETATM   13  C   UNL     1      -7.291   0.067 -35.366  1.00  0.00     0.122 A 
HETATM   14  N   UNL     1      -8.269   0.922 -34.932  1.00  0.00    -0.351 N 
HETATM   15  H   UNL     1      -8.538   1.797 -35.361  1.00  0.00     0.166 HD
BRANCH  12  16
HETATM   16  C   UNL     1      -6.358  -2.093 -34.417  1.00  0.00    -0.003 A 
HETATM   17  C   UNL     1      -6.840  -3.341 -34.821  1.00  0.00     0.033 A 
HETATM   18  C   UNL     1      -5.985  -4.430 -34.793  1.00  0.00     0.117 A 
HETATM   19  N   UNL     1      -4.698  -4.362 -34.396  1.00  0.00    -0.273 NA
HETATM   20  C   UNL     1      -4.249  -3.149 -34.012  1.00  0.00     0.117 A 
HETATM   21  C   UNL     1      -5.027  -2.001 -34.005  1.00  0.00     0.033 A 
ENDBRANCH  12  16
ENDBRANCH   9  10
ENDBRANCH   7   9
ENDBRANCH   5   7
BRANCH   1  22
HETATM   22  C   UNL     1      -5.484   3.977 -30.639  1.00  0.00     0.251 C 
HETATM   23  O   UNL     1      -4.948   4.797 -29.902  1.00  0.00    -0.268 OA
HETATM   24  N   UNL     1      -4.797   3.142 -31.494  1.00  0.00    -0.353 N 
HETATM   25  H   UNL     1      -5.274   2.339 -31.878  1.00  0.00     0.163 HD
BRANCH  24  26
HETATM   26  C   UNL     1      -3.353   3.140 -31.553  1.00  0.00     0.161 C 
BRANCH  26  27
HETATM   27  C   UNL     1      -2.844   4.109 -32.587  1.00  0.00    -0.041 A 
HETATM   28  C   UNL     1      -1.598   4.734 -32.439  1.00  0.00     0.009 A 
HETATM   29  C   UNL     1      -1.140   5.635 -33.403  1.00  0.00     0.001 A 
HETATM   30  C   UNL     1      -1.924   5.924 -34.518  1.00  0.00     0.000 A 
HETATM   31  C   UNL     1      -3.169   5.319 -34.669  1.00  0.00     0.001 A 
HETATM   32  C   UNL     1      -3.630   4.420 -33.708  1.00  0.00     0.009 A 
ENDBRANCH  26  27
ENDBRANCH  24  26
ENDBRANCH   1  22
TORSDOF 7
ENDMDL
MODEL 7
REMARK VINA RESULT:      -8.9      2.586     11.049
REMARK  7 active torsions:
REMARK  status: ('A' for Active; 'I' for Inactive)
REMARK       I    between atoms: C_2  and  N_3 
REMARK    1  A    between atoms: C_2  and  C_11 
REMARK    2  A    between atoms: N_3  and  C_4 
REMARK    3  A    between atoms: C_4  and  C_5 
REMARK    4  A    between atoms: C_15  and  N_16 
REMARK    5  A    between atoms: N_16  and  C_17 
REMARK    6  A    between atoms: C_17  and  C_18 
REMARK    7  A    between atoms: C_20  and  C_24 
ROOT
HETATM    1  C   UNL     1      -6.309   1.520 -31.831  1.00  0.00     0.033 A 
HETATM    2  C   UNL     1      -7.060   2.173 -30.848  1.00  0.00     0.017 A 
HETATM    3  C   UNL     1      -6.445   3.113 -30.027  1.00  0.00     0.003 A 
HETATM    4  C   UNL     1      -5.083   3.388 -30.180  1.00  0.00     0.023 A 
HETATM    5  C   UNL     1      -4.301   2.719 -31.135  1.00  0.00     0.009 A 
HETATM    6  C   UNL     1      -4.946   1.816 -31.989  1.00  0.00     0.040 A 
ENDROOT
BRANCH   5   7
HETATM    7  N   UNL     1      -2.960   3.097 -31.277  1.00  0.00    -0.286 NA
HETATM    8  H   UNL     1      -2.343   2.286 -31.217  1.00  0.00     0.128 HD
BRANCH   7   9
HETATM    9  C   UNL     1      -2.576   3.921 -32.423  1.00  0.00     0.171 C 
BRANCH   9  10
HETATM   10  C   UNL     1      -1.986   5.229 -31.995  1.00  0.00     0.117 A 
HETATM   11  N   UNL     1      -1.552   5.545 -30.791  1.00  0.00    -0.232 NA
HETATM   12  C   UNL     1      -1.167   6.866 -30.857  1.00  0.00     0.084 A 
HETATM   13  C   UNL     1      -1.375   7.355 -32.129  1.00  0.00     0.122 A 
HETATM   14  N   UNL     1      -1.906   6.310 -32.836  1.00  0.00    -0.351 N 
HETATM   15  H   UNL     1      -2.217   6.330 -33.799  1.00  0.00     0.166 HD
BRANCH  12  16
HETATM   16  C   UNL     1      -0.643   7.592 -29.711  1.00  0.00    -0.003 A 
HETATM   17  C   UNL     1      -1.427   8.583 -29.113  1.00  0.00     0.033 A 
HETATM   18  C   UNL     1      -0.916   9.276 -28.029  1.00  0.00     0.117 A 
HETATM   19  N   UNL     1       0.306   9.053 -27.505  1.00  0.00    -0.273 NA
HETATM   20  C   UNL     1       1.048   8.091 -28.093  1.00  0.00     0.117 A 
HETATM   21  C   UNL     1       0.625   7.344 -29.182  1.00  0.00     0.033 A 
ENDBRANCH  12  16
ENDBRANCH   9  10
ENDBRANCH   7   9
ENDBRANCH   5   7
BRANCH   1  22
HETATM   22  C   UNL     1      -6.935   0.542 -32.761  1.00  0.00     0.251 C 
HETATM   23  O   UNL     1      -8.122   0.259 -32.646  1.00  0.00    -0.268 OA
HETATM   24  N   UNL     1      -6.108   0.025 -33.735  1.00  0.00    -0.353 N 
HETATM   25  H   UNL     1      -5.226   0.481 -33.918  1.00  0.00     0.163 HD
BRANCH  24  26
HETATM   26  C   UNL     1      -6.605  -0.879 -34.748  1.00  0.00     0.161 C 
BRANCH  26  27
HETATM   27  C   UNL     1      -5.996  -2.249 -34.607  1.00  0.00    -0.041 A 
HETATM   28  C   UNL     1      -4.683  -2.411 -34.142  1.00  0.00     0.009 A 
HETATM   29  C   UNL     1      -4.129  -3.688 -34.020  1.00  0.00     0.001 A 
HETATM   30  C   UNL     1      -4.878  -4.811 -34.366  1.00  0.00     0.000 A 
HETATM   31  C   UNL     1      -6.179  -4.661 -34.840  1.00  0.00     0.001 A 
HETATM   32  C   UNL     1      -6.734  -3.388 -34.965  1.00  0.00     0.009 A 
ENDBRANCH  26  27
ENDBRANCH  24  26
ENDBRANCH   1  22
TORSDOF 7
ENDMDL
MODEL 8
REMARK VINA RESULT:      -8.8      4.385      7.335
REMARK  7 active torsions:
REMARK  status: ('A' for Active; 'I' for Inactive)
REMARK       I    between atoms: C_2  and  N_3 
REMARK    1  A    between atoms: C_2  and  C_11 
REMARK    2  A    between atoms: N_3  and  C_4 
REMARK    3  A    between atoms: C_4  and  C_5 
REMARK    4  A    between atoms: C_15  and  N_16 
REMARK    5  A    between atoms: N_16  and  C_17 
REMARK    6  A    between atoms: C_17  and  C_18 
REMARK    7  A    between atoms: C_20  and  C_24 
ROOT
HETATM    1  C   UNL     1      -4.282  -0.058 -32.512  1.00  0.00     0.033 A 
HETATM    2  C   UNL     1      -3.724  -1.212 -33.072  1.00  0.00     0.017 A 
HETATM    3  C   UNL     1      -4.527  -2.071 -33.816  1.00  0.00     0.003 A 
HETATM    4  C   UNL     1      -5.884  -1.782 -33.989  1.00  0.00     0.023 A 
HETATM    5  C   UNL     1      -6.474  -0.649 -33.406  1.00  0.00     0.009 A 
HETATM    6  C   UNL     1      -5.642   0.232 -32.705  1.00  0.00     0.040 A 
ENDROOT
BRANCH   5   7
HETATM    7  N   UNL     1      -7.823  -0.390 -33.679  1.00  0.00    -0.286 NA
HETATM    8  H   UNL     1      -8.324  -0.123 -32.831  1.00  0.00     0.128 HD
BRANCH   7   9
HETATM    9  C   UNL     1      -8.158   0.540 -34.759  1.00  0.00     0.171 C 
BRANCH   9  10
HETATM   10  C   UNL     1      -9.393   1.329 -34.450  1.00  0.00     0.117 A 
HETATM   11  N   UNL     1     -10.591   0.850 -34.182  1.00  0.00    -0.232 NA
HETATM   12  C   UNL     1     -11.417   1.943 -34.035  1.00  0.00     0.084 A 
HETATM   13  C   UNL     1     -10.699   3.104 -34.220  1.00  0.00     0.122 A 
HETATM   14  N   UNL     1      -9.420   2.700 -34.495  1.00  0.00    -0.351 N 
HETATM   15  H   UNL     1      -8.635   3.296 -34.722  1.00  0.00     0.166 HD
BRANCH  12  16
HETATM   16  C   UNL     1     -12.838   1.823 -33.748  1.00  0.00    -0.003 A 
HETATM   17  C   UNL     1     -13.417   2.672 -32.802  1.00  0.00     0.033 A 
HETATM   18  C   UNL     1     -14.768   2.545 -32.527  1.00  0.00     0.117 A 
HETATM   19  N   UNL     1     -15.572   1.641 -33.123  1.00  0.00    -0.273 NA
HETATM   20  C   UNL     1     -14.996   0.830 -34.035  1.00  0.00     0.117 A 
HETATM   21  C   UNL     1     -13.653   0.881 -34.378  1.00  0.00     0.033 A 
ENDBRANCH  12  16
ENDBRANCH   9  10
ENDBRANCH   7   9
ENDBRANCH   5   7
BRANCH   1  22
HETATM   22  C   UNL     1      -3.452   0.911 -31.747  1.00  0.00     0.251 C 
HETATM   23  O   UNL     1      -2.611   0.506 -30.952  1.00  0.00    -0.268 OA
HETATM   24  N   UNL     1      -3.680   2.243 -32.018  1.00  0.00    -0.353 N 
HETATM   25  H   UNL     1      -4.201   2.489 -32.846  1.00  0.00     0.163 HD
BRANCH  24  26
HETATM   26  C   UNL     1      -2.893   3.286 -31.401  1.00  0.00     0.161 C 
BRANCH  26  27
HETATM   27  C   UNL     1      -2.352   4.246 -32.428  1.00  0.00    -0.041 A 
HETATM   28  C   UNL     1      -2.682   4.113 -33.784  1.00  0.00     0.009 A 
HETATM   29  C   UNL     1      -2.170   5.006 -34.728  1.00  0.00     0.001 A 
HETATM   30  C   UNL     1      -1.320   6.035 -34.327  1.00  0.00     0.000 A 
HETATM   31  C   UNL     1      -0.975   6.169 -32.984  1.00  0.00     0.001 A 
HETATM   32  C   UNL     1      -1.484   5.278 -32.040  1.00  0.00     0.009 A 
ENDBRANCH  26  27
ENDBRANCH  24  26
ENDBRANCH   1  22
TORSDOF 7
ENDMDL
MODEL 9
REMARK VINA RESULT:      -8.8      4.457     10.734
REMARK  7 active torsions:
REMARK  status: ('A' for Active; 'I' for Inactive)
REMARK       I    between atoms: C_2  and  N_3 
REMARK    1  A    between atoms: C_2  and  C_11 
REMARK    2  A    between atoms: N_3  and  C_4 
REMARK    3  A    between atoms: C_4  and  C_5 
REMARK    4  A    between atoms: C_15  and  N_16 
REMARK    5  A    between atoms: N_16  and  C_17 
REMARK    6  A    between atoms: C_17  and  C_18 
REMARK    7  A    between atoms: C_20  and  C_24 
ROOT
HETATM    1  C   UNL     1      -7.990   1.060 -33.876  1.00  0.00     0.033 A 
HETATM    2  C   UNL     1      -7.783   0.071 -34.842  1.00  0.00     0.017 A 
HETATM    3  C   UNL     1      -6.817  -0.907 -34.627  1.00  0.00     0.003 A 
HETATM    4  C   UNL     1      -6.053  -0.886 -33.457  1.00  0.00     0.023 A 
HETATM    5  C   UNL     1      -6.218   0.118 -32.489  1.00  0.00     0.009 A 
HETATM    6  C   UNL     1      -7.230   1.063 -32.696  1.00  0.00     0.040 A 
ENDROOT
BRANCH   5   7
HETATM    7  N   UNL     1      -5.465   0.033 -31.312  1.00  0.00    -0.286 NA
HETATM    8  H   UNL     1      -5.587  -0.875 -30.863  1.00  0.00     0.128 HD
BRANCH   7   9
HETATM    9  C   UNL     1      -4.041   0.368 -31.360  1.00  0.00     0.171 C 
BRANCH   9  10
HETATM   10  C   UNL     1      -3.821   1.843 -31.499  1.00  0.00     0.117 A 
HETATM   11  N   UNL     1      -3.017   2.446 -32.353  1.00  0.00    -0.232 NA
HETATM   12  C   UNL     1      -3.092   3.791 -32.065  1.00  0.00     0.084 A 
HETATM   13  C   UNL     1      -3.958   4.001 -31.015  1.00  0.00     0.122 A 
HETATM   14  N   UNL     1      -4.403   2.757 -30.657  1.00  0.00    -0.351 N 
HETATM   15  H   UNL     1      -5.026   2.536 -29.892  1.00  0.00     0.166 HD
BRANCH  12  16
HETATM   16  C   UNL     1      -2.325   4.794 -32.788  1.00  0.00    -0.003 A 
HETATM   17  C   UNL     1      -1.790   5.879 -32.088  1.00  0.00     0.033 A 
HETATM   18  C   UNL     1      -1.071   6.835 -32.786  1.00  0.00     0.117 A 
HETATM   19  N   UNL     1      -0.850   6.785 -34.115  1.00  0.00    -0.273 NA
HETATM   20  C   UNL     1      -1.373   5.730 -34.774  1.00  0.00     0.117 A 
HETATM   21  C   UNL     1      -2.107   4.722 -34.165  1.00  0.00     0.033 A 
ENDBRANCH  12  16
ENDBRANCH   9  10
ENDBRANCH   7   9
ENDBRANCH   5   7
BRANCH   1  22
HETATM   22  C   UNL     1      -9.043   2.098 -34.043  1.00  0.00     0.251 C 
HETATM   23  O   UNL     1      -8.846   3.242 -33.651  1.00  0.00    -0.268 OA
HETATM   24  N   UNL     1     -10.198   1.686 -34.674  1.00  0.00    -0.353 N 
HETATM   25  H   UNL     1     -10.191   0.813 -35.180  1.00  0.00     0.163 HD
BRANCH  24  26
HETATM   26  C   UNL     1     -11.271   2.609 -34.967  1.00  0.00     0.161 C 
BRANCH  26  27
HETATM   27  C   UNL     1     -12.545   2.207 -34.272  1.00  0.00    -0.041 A 
HETATM   28  C   UNL     1     -13.041   2.949 -33.190  1.00  0.00     0.009 A 
HETATM   29  C   UNL     1     -14.221   2.563 -32.550  1.00  0.00     0.001 A 
HETATM   30  C   UNL     1     -14.912   1.432 -32.981  1.00  0.00     0.000 A 
HETATM   31  C   UNL     1     -14.422   0.681 -34.047  1.00  0.00     0.001 A 
HETATM   32  C   UNL     1     -13.243   1.063 -34.686  1.00  0.00     0.009 A 
ENDBRANCH  26  27
ENDBRANCH  24  26
ENDBRANCH   1  22
TORSDOF 7
ENDMDL
MODEL 10
REMARK VINA RESULT:      -8.7      3.214      9.960
REMARK  7 active torsions:
REMARK  status: ('A' for Active; 'I' for Inactive)
REMARK       I    between atoms: C_2  and  N_3 
REMARK    1  A    between atoms: C_2  and  C_11 
REMARK    2  A    between atoms: N_3  and  C_4 
REMARK    3  A    between atoms: C_4  and  C_5 
REMARK    4  A    between atoms: C_15  and  N_16 
REMARK    5  A    between atoms: N_16  and  C_17 
REMARK    6  A    between atoms: C_17  and  C_18 
REMARK    7  A    between atoms: C_20  and  C_24 
ROOT
HETATM    1  C   UNL     1      -6.052   1.093 -31.301  1.00  0.00     0.033 A 
HETATM    2  C   UNL     1      -7.329   1.048 -31.872  1.00  0.00     0.017 A 
HETATM    3  C   UNL     1      -8.294   1.964 -31.466  1.00  0.00     0.003 A 
HETATM    4  C   UNL     1      -7.988   2.910 -30.484  1.00  0.00     0.023 A 
HETATM    5  C   UNL     1      -6.725   2.951 -29.871  1.00  0.00     0.009 A 
HETATM    6  C   UNL     1      -5.749   2.058 -30.328  1.00  0.00     0.040 A 
ENDROOT
BRANCH   5   7
HETATM    7  N   UNL     1      -6.471   3.971 -28.946  1.00  0.00    -0.286 NA
HETATM    8  H   UNL     1      -5.610   3.789 -28.428  1.00  0.00     0.128 HD
BRANCH   7   9
HETATM    9  C   UNL     1      -6.481   5.360 -29.406  1.00  0.00     0.171 C 
BRANCH   9  10
HETATM   10  C   UNL     1      -5.176   5.749 -30.029  1.00  0.00     0.117 A 
HETATM   11  N   UNL     1      -4.804   5.546 -31.277  1.00  0.00    -0.232 NA
HETATM   12  C   UNL     1      -3.509   6.006 -31.371  1.00  0.00     0.084 A 
HETATM   13  C   UNL     1      -3.093   6.495 -30.151  1.00  0.00     0.122 A 
HETATM   14  N   UNL     1      -4.155   6.314 -29.307  1.00  0.00    -0.351 N 
HETATM   15  H   UNL     1      -4.183   6.527 -28.319  1.00  0.00     0.166 HD
BRANCH  12  16
HETATM   16  C   UNL     1      -2.736   5.938 -32.601  1.00  0.00    -0.003 A 
HETATM   17  C   UNL     1      -1.597   6.737 -32.737  1.00  0.00     0.033 A 
HETATM   18  C   UNL     1      -0.873   6.674 -33.916  1.00  0.00     0.117 A 
HETATM   19  N   UNL     1      -1.202   5.880 -34.956  1.00  0.00    -0.273 NA
HETATM   20  C   UNL     1      -2.303   5.115 -34.806  1.00  0.00     0.117 A 
HETATM   21  C   UNL     1      -3.092   5.108 -33.665  1.00  0.00     0.033 A 
ENDBRANCH  12  16
ENDBRANCH   9  10
ENDBRANCH   7   9
ENDBRANCH   5   7
BRANCH   1  22
HETATM   22  C   UNL     1      -4.976   0.163 -31.737  1.00  0.00     0.251 C 
HETATM   23  O   UNL     1      -4.126  -0.211 -30.938  1.00  0.00    -0.268 OA
HETATM   24  N   UNL     1      -5.031  -0.245 -33.053  1.00  0.00    -0.353 N 
HETATM   25  H   UNL     1      -5.882  -0.095 -33.574  1.00  0.00     0.163 HD
BRANCH  24  26
HETATM   26  C   UNL     1      -4.092  -1.204 -33.589  1.00  0.00     0.161 C 
BRANCH  26  27
HETATM   27  C   UNL     1      -4.787  -2.464 -34.033  1.00  0.00    -0.041 A 
HETATM   28  C   UNL     1      -4.121  -3.698 -34.018  1.00  0.00     0.009 A 
HETATM   29  C   UNL     1      -4.776  -4.859 -34.437  1.00  0.00     0.001 A 
HETATM   30  C   UNL     1      -6.096  -4.796 -34.879  1.00  0.00     0.000 A 
HETATM   31  C   UNL     1      -6.762  -3.574 -34.910  1.00  0.00     0.001 A 
HETATM   32  C   UNL     1      -6.111  -2.413 -34.494  1.00  0.00     0.009 A 
ENDBRANCH  26  27
ENDBRANCH  24  26
ENDBRANCH   1  22
TORSDOF 7
ENDMDL
