MODEL 1
REMARK VINA RESULT:      -7.4      0.000      0.000
REMARK  5 active torsions:
REMARK  status: ('A' for Active; 'I' for Inactive)
REMARK    1  A    between atoms: C_7  and  C_8 
REMARK    2  A    between atoms: C_8  and  N_9 
REMARK    3  A    between atoms: C_12  and  C_13 
REMARK    4  A    between atoms: C_13  and  C_14 
REMARK    5  A    between atoms: C_14  and  O_15 
ROOT
HETATM    1  C   UNL     1      -5.869   0.406 -30.498  1.00  0.00     0.020 A 
HETATM    2  C   UNL     1      -6.792   1.414 -30.662  1.00  0.00     0.117 A 
HETATM    3  N   UNL     1      -7.457   1.645 -31.819  1.00  0.00    -0.260 NA
HETATM    4  C   UNL     1      -7.222   0.822 -32.866  1.00  0.00     0.076 A 
HETATM    5  C   UNL     1      -6.283  -0.235 -32.813  1.00  0.00     0.011 A 
HETATM    6  C   UNL     1      -5.610  -0.420 -31.585  1.00  0.00     0.016 A 
HETATM    7  C   UNL     1      -7.929   1.049 -34.052  1.00  0.00    -0.003 A 
HETATM    8  C   UNL     1      -7.720   0.245 -35.182  1.00  0.00     0.012 A 
HETATM    9  C   UNL     1      -6.792  -0.788 -35.141  1.00  0.00     0.020 A 
HETATM   10  C   UNL     1      -6.079  -1.031 -33.967  1.00  0.00     0.023 A 
HETATM   11 BR   UNL     1      -4.836  -2.471 -34.014  1.00  0.00    -0.050 Br
ENDROOT
BRANCH   7  12
HETATM   12  C   UNL     1      -8.972   2.140 -34.099  1.00  0.00     0.275 C 
BRANCH  12  13
HETATM   13  N   UNL     1     -10.145   1.904 -33.187  1.00  0.00    -0.067 N 
HETATM   14  H   UNL     1      -9.696   1.737 -32.265  1.00  0.00     0.280 HD
HETATM   15  C   UNL     1     -10.978   0.700 -33.538  1.00  0.00     0.240 C 
HETATM   16  C   UNL     1     -12.295   1.288 -34.030  1.00  0.00     0.015 C 
HETATM   17  C   UNL     1     -12.466   2.483 -33.099  1.00  0.00     0.034 C 
HETATM   18  C   UNL     1     -11.076   3.085 -33.042  1.00  0.00     0.235 C 
BRANCH  16  19
HETATM   19  C   UNL     1     -13.428   0.256 -33.997  1.00  0.00     0.032 C 
BRANCH  19  20
HETATM   20  C   UNL     1     -14.818   0.872 -33.880  1.00  0.00     0.164 C 
BRANCH  20  21
HETATM   21  O   UNL     1     -15.630   0.425 -34.952  1.00  0.00    -0.401 OA
HETATM   22  H   UNL     1     -15.227  -0.394 -35.296  1.00  0.00     0.209 HD
ENDBRANCH  20  21
ENDBRANCH  19  20
ENDBRANCH  16  19
ENDBRANCH  12  13
ENDBRANCH   7  12
TORSDOF 5
ENDMDL
MODEL 2
REMARK VINA RESULT:      -7.3      1.986      2.668
REMARK  5 active torsions:
REMARK  status: ('A' for Active; 'I' for Inactive)
REMARK    1  A    between atoms: C_7  and  C_8 
REMARK    2  A    between atoms: C_8  and  N_9 
REMARK    3  A    between atoms: C_12  and  C_13 
REMARK    4  A    between atoms: C_13  and  C_14 
REMARK    5  A    between atoms: C_14  and  O_15 
ROOT
HETATM    1  C   UNL     1      -2.959  -0.402 -31.528  1.00  0.00     0.020 A 
HETATM    2  C   UNL     1      -3.707   0.710 -31.846  1.00  0.00     0.117 A 
HETATM    3  N   UNL     1      -4.698   0.712 -32.769  1.00  0.00    -0.260 NA
HETATM    4  C   UNL     1      -4.990  -0.450 -33.396  1.00  0.00     0.076 A 
HETATM    5  C   UNL     1      -4.276  -1.649 -33.157  1.00  0.00     0.011 A 
HETATM    6  C   UNL     1      -3.244  -1.587 -32.195  1.00  0.00     0.016 A 
HETATM    7  C   UNL     1      -6.031  -0.449 -34.330  1.00  0.00    -0.003 A 
HETATM    8  C   UNL     1      -6.375  -1.616 -35.030  1.00  0.00     0.012 A 
HETATM    9  C   UNL     1      -5.671  -2.793 -34.810  1.00  0.00     0.020 A 
HETATM   10  C   UNL     1      -4.631  -2.814 -33.880  1.00  0.00     0.023 A 
HETATM   11 BR   UNL     1      -3.734  -4.477 -33.650  1.00  0.00    -0.050 Br
ENDROOT
BRANCH   7  12
HETATM   12  C   UNL     1      -6.834   0.811 -34.548  1.00  0.00     0.275 C 
BRANCH  12  13
HETATM   13  N   UNL     1      -7.880   1.061 -33.495  1.00  0.00    -0.067 N 
HETATM   14  H   UNL     1      -7.476   0.608 -32.652  1.00  0.00     0.280 HD
HETATM   15  C   UNL     1      -9.217   0.433 -33.781  1.00  0.00     0.240 C 
HETATM   16  C   UNL     1     -10.133   1.619 -34.062  1.00  0.00     0.015 C 
HETATM   17  C   UNL     1      -9.617   2.650 -33.065  1.00  0.00     0.034 C 
HETATM   18  C   UNL     1      -8.110   2.518 -33.173  1.00  0.00     0.235 C 
BRANCH  16  19
HETATM   19  C   UNL     1     -11.612   1.242 -33.919  1.00  0.00     0.032 C 
BRANCH  19  20
HETATM   20  C   UNL     1     -12.541   2.041 -34.828  1.00  0.00     0.164 C 
BRANCH  20  21
HETATM   21  O   UNL     1     -12.290   1.705 -36.181  1.00  0.00    -0.401 OA
HETATM   22  H   UNL     1     -11.360   1.935 -36.367  1.00  0.00     0.209 HD
ENDBRANCH  20  21
ENDBRANCH  19  20
ENDBRANCH  16  19
ENDBRANCH  12  13
ENDBRANCH   7  12
TORSDOF 5
ENDMDL
MODEL 3
REMARK VINA RESULT:      -7.0      4.825      7.342
REMARK  5 active torsions:
REMARK  status: ('A' for Active; 'I' for Inactive)
REMARK    1  A    between atoms: C_7  and  C_8 
REMARK    2  A    between atoms: C_8  and  N_9 
REMARK    3  A    between atoms: C_12  and  C_13 
REMARK    4  A    between atoms: C_13  and  C_14 
REMARK    5  A    between atoms: C_14  and  O_15 
ROOT
HETATM    1  C   UNL     1      -7.848   0.326 -34.979  1.00  0.00     0.020 A 
HETATM    2  C   UNL     1      -7.666   1.428 -34.173  1.00  0.00     0.117 A 
HETATM    3  N   UNL     1      -6.670   1.537 -33.262  1.00  0.00    -0.260 NA
HETATM    4  C   UNL     1      -5.787   0.519 -33.154  1.00  0.00     0.076 A 
HETATM    5  C   UNL     1      -5.888  -0.666 -33.922  1.00  0.00     0.011 A 
HETATM    6  C   UNL     1      -6.954  -0.730 -34.846  1.00  0.00     0.016 A 
HETATM    7  C   UNL     1      -4.745   0.647 -32.229  1.00  0.00    -0.003 A 
HETATM    8  C   UNL     1      -3.805  -0.379 -32.053  1.00  0.00     0.012 A 
HETATM    9  C   UNL     1      -3.905  -1.550 -32.795  1.00  0.00     0.020 A 
HETATM   10  C   UNL     1      -4.935  -1.695 -33.724  1.00  0.00     0.023 A 
HETATM   11 BR   UNL     1      -4.979  -3.334 -34.691  1.00  0.00    -0.050 Br
ENDROOT
BRANCH   7  12
HETATM   12  C   UNL     1      -4.598   1.930 -31.447  1.00  0.00     0.275 C 
BRANCH  12  13
HETATM   13  N   UNL     1      -4.460   3.158 -32.307  1.00  0.00    -0.067 N 
HETATM   14  H   UNL     1      -5.139   2.984 -33.075  1.00  0.00     0.280 HD
HETATM   15  C   UNL     1      -3.095   3.349 -32.910  1.00  0.00     0.240 C 
HETATM   16  C   UNL     1      -2.536   4.571 -32.190  1.00  0.00     0.015 C 
HETATM   17  C   UNL     1      -3.782   5.438 -32.044  1.00  0.00     0.034 C 
HETATM   18  C   UNL     1      -4.851   4.448 -31.626  1.00  0.00     0.235 C 
BRANCH  16  19
HETATM   19  C   UNL     1      -1.374   5.205 -32.962  1.00  0.00     0.032 C 
BRANCH  19  20
HETATM   20  C   UNL     1      -1.701   5.514 -34.420  1.00  0.00     0.164 C 
BRANCH  20  21
HETATM   21  O   UNL     1      -1.821   6.915 -34.596  1.00  0.00    -0.401 OA
HETATM   22  H   UNL     1      -2.761   7.103 -34.776  1.00  0.00     0.209 HD
ENDBRANCH  20  21
ENDBRANCH  19  20
ENDBRANCH  16  19
ENDBRANCH  12  13
ENDBRANCH   7  12
TORSDOF 5
ENDMDL
MODEL 4
REMARK VINA RESULT:      -6.9     15.651     17.460
REMARK  5 active torsions:
REMARK  status: ('A' for Active; 'I' for Inactive)
REMARK    1  A    between atoms: C_7  and  C_8 
REMARK    2  A    between atoms: C_8  and  N_9 
REMARK    3  A    between atoms: C_12  and  C_13 
REMARK    4  A    between atoms: C_13  and  C_14 
REMARK    5  A    between atoms: C_14  and  O_15 
ROOT
HETATM    1  C   UNL     1      -7.476 -13.952 -36.147  1.00  0.00     0.020 A 
HETATM    2  C   UNL     1      -6.110 -13.898 -35.986  1.00  0.00     0.117 A 
HETATM    3  N   UNL     1      -5.259 -13.429 -36.929  1.00  0.00    -0.260 NA
HETATM    4  C   UNL     1      -5.781 -12.959 -38.085  1.00  0.00     0.076 A 
HETATM    5  C   UNL     1      -7.169 -12.980 -38.362  1.00  0.00     0.011 A 
HETATM    6  C   UNL     1      -8.007 -13.494 -37.347  1.00  0.00     0.016 A 
HETATM    7  C   UNL     1      -4.900 -12.452 -39.046  1.00  0.00    -0.003 A 
HETATM    8  C   UNL     1      -5.373 -11.966 -40.274  1.00  0.00     0.012 A 
HETATM    9  C   UNL     1      -6.733 -11.994 -40.558  1.00  0.00     0.020 A 
HETATM   10  C   UNL     1      -7.627 -12.493 -39.611  1.00  0.00     0.023 A 
HETATM   11 BR   UNL     1      -9.467 -12.484 -40.095  1.00  0.00    -0.050 Br
ENDROOT
BRANCH   7  12
HETATM   12  C   UNL     1      -3.425 -12.375 -38.735  1.00  0.00     0.275 C 
BRANCH  12  13
HETATM   13  N   UNL     1      -2.721 -13.704 -38.772  1.00  0.00    -0.067 N 
HETATM   14  H   UNL     1      -3.380 -14.332 -38.271  1.00  0.00     0.280 HD
HETATM   15  C   UNL     1      -1.397 -13.731 -38.056  1.00  0.00     0.240 C 
HETATM   16  C   UNL     1      -0.371 -13.877 -39.174  1.00  0.00     0.015 C 
HETATM   17  C   UNL     1      -1.096 -14.812 -40.136  1.00  0.00     0.034 C 
HETATM   18  C   UNL     1      -2.510 -14.265 -40.159  1.00  0.00     0.235 C 
BRANCH  16  19
HETATM   19  C   UNL     1       0.976 -14.385 -38.648  1.00  0.00     0.032 C 
BRANCH  19  20
HETATM   20  C   UNL     1       1.482 -15.637 -39.358  1.00  0.00     0.164 C 
BRANCH  20  21
HETATM   21  O   UNL     1       2.664 -15.332 -40.077  1.00  0.00    -0.401 OA
HETATM   22  H   UNL     1       2.724 -15.969 -40.814  1.00  0.00     0.209 HD
ENDBRANCH  20  21
ENDBRANCH  19  20
ENDBRANCH  16  19
ENDBRANCH  12  13
ENDBRANCH   7  12
TORSDOF 5
ENDMDL
MODEL 5
REMARK VINA RESULT:      -6.9     14.363     15.914
REMARK  5 active torsions:
REMARK  status: ('A' for Active; 'I' for Inactive)
REMARK    1  A    between atoms: C_7  and  C_8 
REMARK    2  A    between atoms: C_8  and  N_9 
REMARK    3  A    between atoms: C_12  and  C_13 
REMARK    4  A    between atoms: C_13  and  C_14 
REMARK    5  A    between atoms: C_14  and  O_15 
ROOT
HETATM    1  C   UNL     1      -2.589 -14.901 -42.118  1.00  0.00     0.020 A 
HETATM    2  C   UNL     1      -3.840 -14.334 -42.209  1.00  0.00     0.117 A 
HETATM    3  N   UNL     1      -4.421 -13.627 -41.210  1.00  0.00    -0.260 NA
HETATM    4  C   UNL     1      -3.722 -13.443 -40.067  1.00  0.00     0.076 A 
HETATM    5  C   UNL     1      -2.435 -13.994 -39.861  1.00  0.00     0.011 A 
HETATM    6  C   UNL     1      -1.885 -14.733 -40.931  1.00  0.00     0.016 A 
HETATM    7  C   UNL     1      -4.315 -12.691 -39.048  1.00  0.00    -0.003 A 
HETATM    8  C   UNL     1      -3.654 -12.476 -37.830  1.00  0.00     0.012 A 
HETATM    9  C   UNL     1      -2.395 -13.023 -37.615  1.00  0.00     0.020 A 
HETATM   10  C   UNL     1      -1.785 -13.774 -38.621  1.00  0.00     0.023 A 
HETATM   11 BR   UNL     1      -0.060 -14.475 -38.228  1.00  0.00    -0.050 Br
ENDROOT
BRANCH   7  12
HETATM   12  C   UNL     1      -5.664 -12.054 -39.282  1.00  0.00     0.275 C 
BRANCH  12  13
HETATM   13  N   UNL     1      -6.804 -13.034 -39.334  1.00  0.00    -0.067 N 
HETATM   14  H   UNL     1      -6.331 -13.932 -39.562  1.00  0.00     0.280 HD
HETATM   15  C   UNL     1      -7.826 -12.749 -40.401  1.00  0.00     0.240 C 
HETATM   16  C   UNL     1      -9.067 -12.325 -39.625  1.00  0.00     0.015 C 
HETATM   17  C   UNL     1      -9.002 -13.248 -38.412  1.00  0.00     0.034 C 
HETATM   18  C   UNL     1      -7.537 -13.216 -38.026  1.00  0.00     0.235 C 
BRANCH  16  19
HETATM   19  C   UNL     1     -10.338 -12.439 -40.475  1.00  0.00     0.032 C 
BRANCH  19  20
HETATM   20  C   UNL     1     -11.204 -11.183 -40.457  1.00  0.00     0.164 C 
BRANCH  20  21
HETATM   21  O   UNL     1     -10.793 -10.305 -41.490  1.00  0.00    -0.401 OA
HETATM   22  H   UNL     1     -10.850  -9.397 -41.136  1.00  0.00     0.209 HD
ENDBRANCH  20  21
ENDBRANCH  19  20
ENDBRANCH  16  19
ENDBRANCH  12  13
ENDBRANCH   7  12
TORSDOF 5
ENDMDL
MODEL 6
REMARK VINA RESULT:      -6.7      5.275      7.218
REMARK  5 active torsions:
REMARK  status: ('A' for Active; 'I' for Inactive)
REMARK    1  A    between atoms: C_7  and  C_8 
REMARK    2  A    between atoms: C_8  and  N_9 
REMARK    3  A    between atoms: C_12  and  C_13 
REMARK    4  A    between atoms: C_13  and  C_14 
REMARK    5  A    between atoms: C_14  and  O_15 
ROOT
HETATM    1  C   UNL     1      -3.016  -1.879 -31.981  1.00  0.00     0.020 A 
HETATM    2  C   UNL     1      -2.886  -0.560 -31.607  1.00  0.00     0.117 A 
HETATM    3  N   UNL     1      -3.721   0.424 -32.016  1.00  0.00    -0.260 NA
HETATM    4  C   UNL     1      -4.759   0.091 -32.817  1.00  0.00     0.076 A 
HETATM    5  C   UNL     1      -4.978  -1.231 -33.274  1.00  0.00     0.011 A 
HETATM    6  C   UNL     1      -4.068  -2.213 -32.826  1.00  0.00     0.016 A 
HETATM    7  C   UNL     1      -5.633   1.106 -33.217  1.00  0.00    -0.003 A 
HETATM    8  C   UNL     1      -6.720   0.833 -34.062  1.00  0.00     0.012 A 
HETATM    9  C   UNL     1      -6.935  -0.459 -34.524  1.00  0.00     0.020 A 
HETATM   10  C   UNL     1      -6.075  -1.486 -34.134  1.00  0.00     0.023 A 
HETATM   11 BR   UNL     1      -6.460  -3.219 -34.819  1.00  0.00    -0.050 Br
ENDROOT
BRANCH   7  12
HETATM   12  C   UNL     1      -5.438   2.507 -32.688  1.00  0.00     0.275 C 
BRANCH  12  13
HETATM   13  N   UNL     1      -4.507   3.350 -33.516  1.00  0.00    -0.067 N 
HETATM   14  H   UNL     1      -4.209   2.699 -34.270  1.00  0.00     0.280 HD
HETATM   15  C   UNL     1      -3.281   3.829 -32.786  1.00  0.00     0.240 C 
HETATM   16  C   UNL     1      -3.491   5.332 -32.650  1.00  0.00     0.015 C 
HETATM   17  C   UNL     1      -4.156   5.672 -33.979  1.00  0.00     0.034 C 
HETATM   18  C   UNL     1      -5.155   4.548 -34.169  1.00  0.00     0.235 C 
BRANCH  16  19
HETATM   19  C   UNL     1      -2.178   6.067 -32.360  1.00  0.00     0.032 C 
BRANCH  19  20
HETATM   20  C   UNL     1      -1.405   6.465 -33.614  1.00  0.00     0.164 C 
BRANCH  20  21
HETATM   21  O   UNL     1      -1.559   7.853 -33.849  1.00  0.00    -0.401 OA
HETATM   22  H   UNL     1      -0.899   8.314 -33.297  1.00  0.00     0.209 HD
ENDBRANCH  20  21
ENDBRANCH  19  20
ENDBRANCH  16  19
ENDBRANCH  12  13
ENDBRANCH   7  12
TORSDOF 5
ENDMDL
MODEL 7
REMARK VINA RESULT:      -6.6      3.679      6.336
REMARK  5 active torsions:
REMARK  status: ('A' for Active; 'I' for Inactive)
REMARK    1  A    between atoms: C_7  and  C_8 
REMARK    2  A    between atoms: C_8  and  N_9 
REMARK    3  A    between atoms: C_12  and  C_13 
REMARK    4  A    between atoms: C_13  and  C_14 
REMARK    5  A    between atoms: C_14  and  O_15 
ROOT
HETATM    1  C   UNL     1      -9.426   4.688 -34.457  1.00  0.00     0.020 A 
HETATM    2  C   UNL     1      -8.279   4.318 -33.792  1.00  0.00     0.117 A 
HETATM    3  N   UNL     1      -8.112   3.115 -33.191  1.00  0.00    -0.260 NA
HETATM    4  C   UNL     1      -9.118   2.216 -33.271  1.00  0.00     0.076 A 
HETATM    5  C   UNL     1     -10.346   2.497 -33.917  1.00  0.00     0.011 A 
HETATM    6  C   UNL     1     -10.469   3.771 -34.513  1.00  0.00     0.016 A 
HETATM    7  C   UNL     1      -8.932   0.966 -32.671  1.00  0.00    -0.003 A 
HETATM    8  C   UNL     1      -9.942  -0.007 -32.700  1.00  0.00     0.012 A 
HETATM    9  C   UNL     1     -11.154   0.265 -33.322  1.00  0.00     0.020 A 
HETATM   10  C   UNL     1     -11.358   1.505 -33.929  1.00  0.00     0.023 A 
HETATM   11 BR   UNL     1     -13.050   1.776 -34.756  1.00  0.00    -0.050 Br
ENDROOT
BRANCH   7  12
HETATM   12  C   UNL     1      -7.605   0.639 -32.030  1.00  0.00     0.275 C 
BRANCH  12  13
HETATM   13  N   UNL     1      -6.524   0.275 -33.011  1.00  0.00    -0.067 N 
HETATM   14  H   UNL     1      -6.252   1.194 -33.413  1.00  0.00     0.280 HD
HETATM   15  C   UNL     1      -6.975  -0.622 -34.133  1.00  0.00     0.240 C 
HETATM   16  C   UNL     1      -6.280  -1.949 -33.852  1.00  0.00     0.015 C 
HETATM   17  C   UNL     1      -4.929  -1.483 -33.320  1.00  0.00     0.034 C 
HETATM   18  C   UNL     1      -5.293  -0.342 -32.390  1.00  0.00     0.235 C 
BRANCH  16  19
HETATM   19  C   UNL     1      -6.229  -2.840 -35.097  1.00  0.00     0.032 C 
BRANCH  19  20
HETATM   20  C   UNL     1      -6.739  -4.259 -34.860  1.00  0.00     0.164 C 
BRANCH  20  21
HETATM   21  O   UNL     1      -5.683  -5.184 -35.054  1.00  0.00    -0.401 OA
HETATM   22  H   UNL     1      -6.044  -6.073 -34.879  1.00  0.00     0.209 HD
ENDBRANCH  20  21
ENDBRANCH  19  20
ENDBRANCH  16  19
ENDBRANCH  12  13
ENDBRANCH   7  12
TORSDOF 5
ENDMDL
MODEL 8
REMARK VINA RESULT:      -6.5      3.072      3.559
REMARK  5 active torsions:
REMARK  status: ('A' for Active; 'I' for Inactive)
REMARK    1  A    between atoms: C_7  and  C_8 
REMARK    2  A    between atoms: C_8  and  N_9 
REMARK    3  A    between atoms: C_12  and  C_13 
REMARK    4  A    between atoms: C_13  and  C_14 
REMARK    5  A    between atoms: C_14  and  O_15 
ROOT
HETATM    1  C   UNL     1      -3.374   0.442 -31.759  1.00  0.00     0.020 A 
HETATM    2  C   UNL     1      -4.212   1.477 -32.107  1.00  0.00     0.117 A 
HETATM    3  N   UNL     1      -5.233   1.356 -32.989  1.00  0.00    -0.260 NA
HETATM    4  C   UNL     1      -5.462   0.142 -33.539  1.00  0.00     0.076 A 
HETATM    5  C   UNL     1      -4.653  -0.987 -33.264  1.00  0.00     0.011 A 
HETATM    6  C   UNL     1      -3.595  -0.798 -32.348  1.00  0.00     0.016 A 
HETATM    7  C   UNL     1      -6.533   0.015 -34.430  1.00  0.00    -0.003 A 
HETATM    8  C   UNL     1      -6.815  -1.211 -35.051  1.00  0.00     0.012 A 
HETATM    9  C   UNL     1      -6.019  -2.321 -34.795  1.00  0.00     0.020 A 
HETATM   10  C   UNL     1      -4.948  -2.215 -33.907  1.00  0.00     0.023 A 
HETATM   11 BR   UNL     1      -3.924  -3.793 -33.623  1.00  0.00    -0.050 Br
ENDROOT
BRANCH   7  12
HETATM   12  C   UNL     1      -7.433   1.200 -34.685  1.00  0.00     0.275 C 
BRANCH  12  13
HETATM   13  N   UNL     1      -8.610   1.286 -33.752  1.00  0.00    -0.067 N 
HETATM   14  H   UNL     1      -9.423   1.280 -34.400  1.00  0.00     0.280 HD
HETATM   15  C   UNL     1      -8.665   2.544 -32.928  1.00  0.00     0.240 C 
HETATM   16  C   UNL     1      -8.388   2.070 -31.506  1.00  0.00     0.015 C 
HETATM   17  C   UNL     1      -9.116   0.731 -31.480  1.00  0.00     0.034 C 
HETATM   18  C   UNL     1      -8.757   0.110 -32.816  1.00  0.00     0.235 C 
BRANCH  16  19
HETATM   19  C   UNL     1      -8.849   3.095 -30.464  1.00  0.00     0.032 C 
BRANCH  19  20
HETATM   20  C   UNL     1     -10.140   3.816 -30.840  1.00  0.00     0.164 C 
BRANCH  20  21
HETATM   21  O   UNL     1     -11.192   3.383 -29.996  1.00  0.00    -0.401 OA
HETATM   22  H   UNL     1     -11.901   4.052 -30.053  1.00  0.00     0.209 HD
ENDBRANCH  20  21
ENDBRANCH  19  20
ENDBRANCH  16  19
ENDBRANCH  12  13
ENDBRANCH   7  12
TORSDOF 5
ENDMDL
MODEL 9
REMARK VINA RESULT:      -6.3      4.647      6.530
REMARK  5 active torsions:
REMARK  status: ('A' for Active; 'I' for Inactive)
REMARK    1  A    between atoms: C_7  and  C_8 
REMARK    2  A    between atoms: C_8  and  N_9 
REMARK    3  A    between atoms: C_12  and  C_13 
REMARK    4  A    between atoms: C_13  and  C_14 
REMARK    5  A    between atoms: C_14  and  O_15 
ROOT
HETATM    1  C   UNL     1      -5.118   5.544 -33.509  1.00  0.00     0.020 A 
HETATM    2  C   UNL     1      -5.401   4.480 -34.335  1.00  0.00     0.117 A 
HETATM    3  N   UNL     1      -5.948   3.318 -33.905  1.00  0.00    -0.260 NA
HETATM    4  C   UNL     1      -6.261   3.205 -32.594  1.00  0.00     0.076 A 
HETATM    5  C   UNL     1      -5.999   4.231 -31.654  1.00  0.00     0.011 A 
HETATM    6  C   UNL     1      -5.415   5.414 -32.157  1.00  0.00     0.016 A 
HETATM    7  C   UNL     1      -6.849   2.013 -32.159  1.00  0.00    -0.003 A 
HETATM    8  C   UNL     1      -7.181   1.822 -30.809  1.00  0.00     0.012 A 
HETATM    9  C   UNL     1      -6.918   2.819 -29.879  1.00  0.00     0.020 A 
HETATM   10  C   UNL     1      -6.334   4.016 -30.294  1.00  0.00     0.023 A 
HETATM   11 BR   UNL     1      -6.018   5.319 -28.943  1.00  0.00    -0.050 Br
ENDROOT
BRANCH   7  12
HETATM   12  C   UNL     1      -7.182   0.937 -33.165  1.00  0.00     0.275 C 
BRANCH  12  13
HETATM   13  N   UNL     1      -5.982   0.364 -33.868  1.00  0.00    -0.067 N 
HETATM   14  H   UNL     1      -5.588   1.185 -34.368  1.00  0.00     0.280 HD
HETATM   15  C   UNL     1      -6.300  -0.705 -34.879  1.00  0.00     0.240 C 
HETATM   16  C   UNL     1      -5.749  -1.983 -34.257  1.00  0.00     0.015 C 
HETATM   17  C   UNL     1      -4.476  -1.476 -33.589  1.00  0.00     0.034 C 
HETATM   18  C   UNL     1      -4.912  -0.174 -32.946  1.00  0.00     0.235 C 
BRANCH  16  19
HETATM   19  C   UNL     1      -5.553  -3.086 -35.303  1.00  0.00     0.032 C 
BRANCH  19  20
HETATM   20  C   UNL     1      -5.777  -4.494 -34.761  1.00  0.00     0.164 C 
BRANCH  20  21
HETATM   21  O   UNL     1      -6.948  -5.046 -35.336  1.00  0.00    -0.401 OA
HETATM   22  H   UNL     1      -7.609  -4.330 -35.388  1.00  0.00     0.209 HD
ENDBRANCH  20  21
ENDBRANCH  19  20
ENDBRANCH  16  19
ENDBRANCH  12  13
ENDBRANCH   7  12
TORSDOF 5
ENDMDL
MODEL 10
REMARK VINA RESULT:      -6.3      2.151      2.476
REMARK  5 active torsions:
REMARK  status: ('A' for Active; 'I' for Inactive)
REMARK    1  A    between atoms: C_7  and  C_8 
REMARK    2  A    between atoms: C_8  and  N_9 
REMARK    3  A    between atoms: C_12  and  C_13 
REMARK    4  A    between atoms: C_13  and  C_14 
REMARK    5  A    between atoms: C_14  and  O_15 
ROOT
HETATM    1  C   UNL     1      -4.772   3.940 -33.119  1.00  0.00     0.020 A 
HETATM    2  C   UNL     1      -5.931   4.002 -33.859  1.00  0.00     0.117 A 
HETATM    3  N   UNL     1      -6.732   2.936 -34.095  1.00  0.00    -0.260 NA
HETATM    4  C   UNL     1      -6.389   1.747 -33.550  1.00  0.00     0.076 A 
HETATM    5  C   UNL     1      -5.212   1.566 -32.785  1.00  0.00     0.011 A 
HETATM    6  C   UNL     1      -4.409   2.710 -32.584  1.00  0.00     0.016 A 
HETATM    7  C   UNL     1      -7.232   0.653 -33.775  1.00  0.00    -0.003 A 
HETATM    8  C   UNL     1      -6.928  -0.613 -33.254  1.00  0.00     0.012 A 
HETATM    9  C   UNL     1      -5.769  -0.801 -32.512  1.00  0.00     0.020 A 
HETATM   10  C   UNL     1      -4.917   0.278 -32.274  1.00  0.00     0.023 A 
HETATM   11 BR   UNL     1      -3.358  -0.084 -31.243  1.00  0.00    -0.050 Br
ENDROOT
BRANCH   7  12
HETATM   12  C   UNL     1      -8.518   0.851 -34.543  1.00  0.00     0.275 C 
BRANCH  12  13
HETATM   13  N   UNL     1      -9.576   1.602 -33.782  1.00  0.00    -0.067 N 
HETATM   14  H   UNL     1      -9.070   1.926 -32.934  1.00  0.00     0.280 HD
HETATM   15  C   UNL     1     -10.748   0.764 -33.347  1.00  0.00     0.240 C 
HETATM   16  C   UNL     1     -11.906   1.271 -34.199  1.00  0.00     0.015 C 
HETATM   17  C   UNL     1     -11.612   2.766 -34.258  1.00  0.00     0.034 C 
HETATM   18  C   UNL     1     -10.116   2.820 -34.493  1.00  0.00     0.235 C 
BRANCH  16  19
HETATM   19  C   UNL     1     -13.264   0.886 -33.601  1.00  0.00     0.032 C 
BRANCH  19  20
HETATM   20  C   UNL     1     -14.028   2.063 -33.002  1.00  0.00     0.164 C 
BRANCH  20  21
HETATM   21  O   UNL     1     -14.808   1.618 -31.906  1.00  0.00    -0.401 OA
HETATM   22  H   UNL     1     -15.002   2.399 -31.355  1.00  0.00     0.209 HD
ENDBRANCH  20  21
ENDBRANCH  19  20
ENDBRANCH  16  19
ENDBRANCH  12  13
ENDBRANCH   7  12
TORSDOF 5
ENDMDL
