MODEL 1
REMARK VINA RESULT:      -9.0      0.000      0.000
REMARK  6 active torsions:
REMARK  status: ('A' for Active; 'I' for Inactive)
REMARK    1  A    between atoms: N_2  and  C_5 
REMARK    2  A    between atoms: C_10  and  N_11 
REMARK       I    between atoms: N_11  and  C_12 
REMARK    3  A    between atoms: C_12  and  C_14 
REMARK    4  A    between atoms: C_18  and  C_20 
REMARK       I    between atoms: N_24  and  C_25 
REMARK    5  A    between atoms: C_25  and  C_27 
REMARK    6  A    between atoms: C_32  and  O_33 
ROOT
HETATM    1  C   UNL     1      -1.947   5.125 -32.381  1.00  0.00     0.033 A 
HETATM    2  C   UNL     1      -1.379   6.073 -33.241  1.00  0.00     0.017 A 
HETATM    3  C   UNL     1      -0.655   7.147 -32.727  1.00  0.00     0.002 A 
HETATM    4  C   UNL     1      -0.491   7.283 -31.349  1.00  0.00     0.009 A 
HETATM    5  C   UNL     1      -1.048   6.345 -30.466  1.00  0.00    -0.034 A 
HETATM    6  C   UNL     1      -1.759   5.253 -30.997  1.00  0.00     0.026 A 
ENDROOT
BRANCH   5   7
HETATM    7  C   UNL     1      -0.908   6.494 -28.965  1.00  0.00     0.120 C 
HETATM    8  C   UNL     1       0.564   6.435 -28.524  1.00  0.00     0.032 C 
HETATM    9  C   UNL     1       0.575   7.252 -27.240  1.00  0.00     0.022 C 
HETATM   10  C   UNL     1      -0.403   8.375 -27.547  1.00  0.00     0.127 C 
HETATM   11  N   UNL     1      -1.395   7.766 -28.417  1.00  0.00    -0.339 N 
HETATM   12  C   UNL     1      -2.659   8.323 -28.512  1.00  0.00     0.254 C 
HETATM   13  O   UNL     1      -2.984   9.375 -27.971  1.00  0.00    -0.267 OA
BRANCH  12  14
HETATM   14  C   UNL     1      -3.666   7.632 -29.336  1.00  0.00     0.033 A 
HETATM   15  C   UNL     1      -3.957   8.144 -30.601  1.00  0.00     0.018 A 
HETATM   16  C   UNL     1      -4.842   7.459 -31.431  1.00  0.00     0.013 A 
HETATM   17  C   UNL     1      -5.460   6.276 -30.996  1.00  0.00    -0.023 A 
HETATM   18  C   UNL     1      -6.335   5.568 -31.834  1.00  0.00     0.048 A 
HETATM   19  C   UNL     1      -5.203   5.793 -29.688  1.00  0.00    -0.025 A 
HETATM   20  C   UNL     1      -6.953   4.409 -31.376  1.00  0.00     0.066 A 
HETATM   21  C   UNL     1      -6.725   3.941 -30.089  1.00  0.00     0.037 A 
HETATM   22  C   UNL     1      -5.850   4.627 -29.247  1.00  0.00     0.015 A 
HETATM   23  C   UNL     1      -4.304   6.483 -28.862  1.00  0.00     0.029 A 
BRANCH  20  24
HETATM   24  O   UNL     1      -7.801   3.694 -32.171  1.00  0.00    -0.361 OA
HETATM   25  H   UNL     1      -8.636   4.189 -32.249  1.00  0.00     0.217 HD
ENDBRANCH  20  24
ENDBRANCH  12  14
ENDBRANCH   5   7
BRANCH   1  26
HETATM   26  C   UNL     1      -2.687   3.976 -32.988  1.00  0.00     0.257 C 
HETATM   27  N   UNL     1      -3.489   3.257 -32.128  1.00  0.00    -0.301 N 
HETATM   28  H   UNL     1      -3.673   3.572 -31.188  1.00  0.00     0.171 HD
HETATM   29  O   UNL     1      -2.535   3.766 -34.187  1.00  0.00    -0.267 OA
BRANCH  27  30
HETATM   30  C   UNL     1      -4.106   2.102 -32.523  1.00  0.00     0.174 A 
HETATM   31  N   UNL     1      -5.276   1.933 -33.088  1.00  0.00    -0.228 NA
HETATM   32  C   UNL     1      -5.480   0.604 -33.342  1.00  0.00     0.050 A 
HETATM   33  C   UNL     1      -6.741   0.132 -33.978  1.00  0.00     0.062 C 
HETATM   34  C   UNL     1      -4.432  -0.226 -33.006  1.00  0.00     0.013 A 
HETATM   35  C   UNL     1      -6.892  -1.394 -33.832  1.00  0.00     0.039 C 
HETATM   36  C   UNL     1      -5.565  -2.114 -34.160  1.00  0.00     0.192 C 
HETATM   37  C   UNL     1      -4.411  -1.704 -33.198  1.00  0.00     0.081 C 
HETATM   38  S   UNL     1      -3.176   0.680 -32.292  1.00  0.00    -0.055 SA
BRANCH  36  39
HETATM   39  N   UNL     1      -5.732  -3.639 -34.191  1.00  0.00    -0.074 N 
HETATM   40  C   UNL     1      -6.641  -4.181 -35.266  1.00  0.00     0.269 C 
HETATM   41  H   UNL     1      -6.173  -3.893 -33.295  1.00  0.00     0.279 HD
HETATM   42  C   UNL     1      -4.409  -4.369 -34.190  1.00  0.00     0.269 C 
ENDBRANCH  36  39
ENDBRANCH  27  30
ENDBRANCH   1  26
TORSDOF 6
ENDMDL
MODEL 2
REMARK VINA RESULT:      -9.0      1.993      4.526
REMARK  6 active torsions:
REMARK  status: ('A' for Active; 'I' for Inactive)
REMARK    1  A    between atoms: N_2  and  C_5 
REMARK    2  A    between atoms: C_10  and  N_11 
REMARK       I    between atoms: N_11  and  C_12 
REMARK    3  A    between atoms: C_12  and  C_14 
REMARK    4  A    between atoms: C_18  and  C_20 
REMARK       I    between atoms: N_24  and  C_25 
REMARK    5  A    between atoms: C_25  and  C_27 
REMARK    6  A    between atoms: C_32  and  O_33 
ROOT
HETATM    1  C   UNL     1      -4.900   5.326 -31.024  1.00  0.00     0.033 A 
HETATM    2  C   UNL     1      -4.968   5.166 -29.635  1.00  0.00     0.017 A 
HETATM    3  C   UNL     1      -5.103   6.276 -28.802  1.00  0.00     0.002 A 
HETATM    4  C   UNL     1      -5.171   7.556 -29.351  1.00  0.00     0.009 A 
HETATM    5  C   UNL     1      -5.107   7.743 -30.741  1.00  0.00    -0.034 A 
HETATM    6  C   UNL     1      -4.992   6.614 -31.572  1.00  0.00     0.026 A 
ENDROOT
BRANCH   5   7
HETATM    7  C   UNL     1      -5.146   9.128 -31.353  1.00  0.00     0.120 C 
HETATM    8  C   UNL     1      -6.580   9.679 -31.417  1.00  0.00     0.032 C 
HETATM    9  C   UNL     1      -6.376  11.187 -31.369  1.00  0.00     0.022 C 
HETATM   10  C   UNL     1      -5.216  11.339 -30.398  1.00  0.00     0.127 C 
HETATM   11  N   UNL     1      -4.400  10.156 -30.618  1.00  0.00    -0.339 N 
HETATM   12  C   UNL     1      -3.059  10.175 -30.275  1.00  0.00     0.254 C 
HETATM   13  O   UNL     1      -2.514  11.111 -29.699  1.00  0.00    -0.267 OA
BRANCH  12  14
HETATM   14  C   UNL     1      -2.241   8.990 -30.589  1.00  0.00     0.033 A 
HETATM   15  C   UNL     1      -2.030   8.661 -31.928  1.00  0.00     0.018 A 
HETATM   16  C   UNL     1      -1.190   7.597 -32.249  1.00  0.00     0.013 A 
HETATM   17  C   UNL     1      -0.577   6.840 -31.238  1.00  0.00    -0.023 A 
HETATM   18  C   UNL     1       0.289   5.781 -31.552  1.00  0.00     0.048 A 
HETATM   19  C   UNL     1      -0.840   7.146 -29.878  1.00  0.00    -0.025 A 
HETATM   20  C   UNL     1       0.871   5.031 -30.535  1.00  0.00     0.066 A 
HETATM   21  C   UNL     1       0.600   5.308 -29.202  1.00  0.00     0.037 A 
HETATM   22  C   UNL     1      -0.249   6.364 -28.872  1.00  0.00     0.015 A 
HETATM   23  C   UNL     1      -1.680   8.224 -29.564  1.00  0.00     0.029 A 
BRANCH  20  24
HETATM   24  O   UNL     1       1.723   4.002 -30.810  1.00  0.00    -0.361 OA
HETATM   25  H   UNL     1       1.676   3.814 -31.764  1.00  0.00     0.217 HD
ENDBRANCH  20  24
ENDBRANCH  12  14
ENDBRANCH   5   7
BRANCH   1  26
HETATM   26  C   UNL     1      -4.787   4.099 -31.870  1.00  0.00     0.257 C 
HETATM   27  N   UNL     1      -5.739   3.127 -31.647  1.00  0.00    -0.301 N 
HETATM   28  H   UNL     1      -6.538   3.294 -31.056  1.00  0.00     0.171 HD
HETATM   29  O   UNL     1      -3.876   4.050 -32.691  1.00  0.00    -0.267 OA
BRANCH  27  30
HETATM   30  C   UNL     1      -5.664   1.901 -32.250  1.00  0.00     0.174 A 
HETATM   31  N   UNL     1      -6.315   1.445 -33.292  1.00  0.00    -0.228 NA
HETATM   32  C   UNL     1      -5.903   0.170 -33.573  1.00  0.00     0.050 A 
HETATM   33  C   UNL     1      -6.490  -0.591 -34.711  1.00  0.00     0.062 C 
HETATM   34  C   UNL     1      -4.900  -0.316 -32.760  1.00  0.00     0.013 A 
HETATM   35  C   UNL     1      -6.145  -2.088 -34.607  1.00  0.00     0.039 C 
HETATM   36  C   UNL     1      -4.654  -2.288 -34.254  1.00  0.00     0.192 C 
HETATM   37  C   UNL     1      -4.280  -1.666 -32.876  1.00  0.00     0.081 C 
HETATM   38  S   UNL     1      -4.505   0.838 -31.569  1.00  0.00    -0.055 SA
BRANCH  36  39
HETATM   39  N   UNL     1      -4.243  -3.765 -34.314  1.00  0.00    -0.074 N 
HETATM   40  C   UNL     1      -3.465  -4.282 -33.130  1.00  0.00     0.269 C 
HETATM   41  H   UNL     1      -3.613  -3.851 -35.124  1.00  0.00     0.279 HD
HETATM   42  C   UNL     1      -5.404  -4.679 -34.631  1.00  0.00     0.269 C 
ENDBRANCH  36  39
ENDBRANCH  27  30
ENDBRANCH   1  26
TORSDOF 6
ENDMDL
MODEL 3
REMARK VINA RESULT:      -8.9      5.468      8.901
REMARK  6 active torsions:
REMARK  status: ('A' for Active; 'I' for Inactive)
REMARK    1  A    between atoms: N_2  and  C_5 
REMARK    2  A    between atoms: C_10  and  N_11 
REMARK       I    between atoms: N_11  and  C_12 
REMARK    3  A    between atoms: C_12  and  C_14 
REMARK    4  A    between atoms: C_18  and  C_20 
REMARK       I    between atoms: N_24  and  C_25 
REMARK    5  A    between atoms: C_25  and  C_27 
REMARK    6  A    between atoms: C_32  and  O_33 
ROOT
HETATM    1  C   UNL     1      -8.564   0.298 -33.617  1.00  0.00     0.033 A 
HETATM    2  C   UNL     1      -8.249   0.454 -34.972  1.00  0.00     0.017 A 
HETATM    3  C   UNL     1      -6.959   0.197 -35.432  1.00  0.00     0.002 A 
HETATM    4  C   UNL     1      -5.971  -0.219 -34.540  1.00  0.00     0.009 A 
HETATM    5  C   UNL     1      -6.261  -0.385 -33.176  1.00  0.00    -0.034 A 
HETATM    6  C   UNL     1      -7.573  -0.143 -32.728  1.00  0.00     0.026 A 
ENDROOT
BRANCH   5   7
HETATM    7  C   UNL     1      -5.193  -0.805 -32.187  1.00  0.00     0.120 C 
HETATM    8  C   UNL     1      -4.571  -2.160 -32.566  1.00  0.00     0.032 C 
HETATM    9  C   UNL     1      -3.174  -2.080 -31.967  1.00  0.00     0.022 C 
HETATM   10  C   UNL     1      -2.791  -0.627 -32.200  1.00  0.00     0.127 C 
HETATM   11  N   UNL     1      -4.043   0.102 -32.090  1.00  0.00    -0.339 N 
HETATM   12  C   UNL     1      -4.027   1.450 -31.774  1.00  0.00     0.254 C 
HETATM   13  O   UNL     1      -3.001   2.114 -31.667  1.00  0.00    -0.267 OA
BRANCH  12  14
HETATM   14  C   UNL     1      -5.317   2.139 -31.587  1.00  0.00     0.033 A 
HETATM   15  C   UNL     1      -5.943   2.054 -30.344  1.00  0.00     0.018 A 
HETATM   16  C   UNL     1      -7.119   2.768 -30.118  1.00  0.00     0.013 A 
HETATM   17  C   UNL     1      -7.688   3.549 -31.137  1.00  0.00    -0.023 A 
HETATM   18  C   UNL     1      -8.858   4.289 -30.911  1.00  0.00     0.048 A 
HETATM   19  C   UNL     1      -7.074   3.585 -32.415  1.00  0.00    -0.025 A 
HETATM   20  C   UNL     1      -9.417   5.041 -31.940  1.00  0.00     0.066 A 
HETATM   21  C   UNL     1      -8.836   5.064 -33.201  1.00  0.00     0.037 A 
HETATM   22  C   UNL     1      -7.667   4.342 -33.439  1.00  0.00     0.015 A 
HETATM   23  C   UNL     1      -5.887   2.871 -32.632  1.00  0.00     0.029 A 
BRANCH  20  24
HETATM   24  O   UNL     1     -10.549   5.777 -31.748  1.00  0.00    -0.361 OA
HETATM   25  H   UNL     1     -10.356   6.701 -31.983  1.00  0.00     0.217 HD
ENDBRANCH  20  24
ENDBRANCH  12  14
ENDBRANCH   5   7
BRANCH   1  26
HETATM   26  C   UNL     1      -9.972   0.559 -33.186  1.00  0.00     0.257 C 
HETATM   27  N   UNL     1     -10.561   1.688 -33.712  1.00  0.00    -0.301 N 
HETATM   28  H   UNL     1     -10.122   2.221 -34.447  1.00  0.00     0.171 HD
HETATM   29  O   UNL     1     -10.492  -0.241 -32.414  1.00  0.00    -0.267 OA
BRANCH  27  30
HETATM   30  C   UNL     1     -11.790   2.116 -33.290  1.00  0.00     0.174 A 
HETATM   31  N   UNL     1     -12.124   3.243 -32.710  1.00  0.00    -0.228 NA
HETATM   32  C   UNL     1     -13.475   3.266 -32.489  1.00  0.00     0.050 A 
HETATM   33  C   UNL     1     -14.123   4.436 -31.833  1.00  0.00     0.062 C 
HETATM   34  C   UNL     1     -14.165   2.164 -32.949  1.00  0.00     0.013 A 
HETATM   35  C   UNL     1     -15.551   4.086 -31.372  1.00  0.00     0.039 C 
HETATM   36  C   UNL     1     -16.314   3.321 -32.476  1.00  0.00     0.192 C 
HETATM   37  C   UNL     1     -15.637   1.965 -32.837  1.00  0.00     0.081 C 
HETATM   38  S   UNL     1     -13.079   1.037 -33.625  1.00  0.00    -0.055 SA
BRANCH  36  39
HETATM   39  N   UNL     1     -17.790   3.112 -32.112  1.00  0.00    -0.074 N 
HETATM   40  C   UNL     1     -18.380   4.112 -31.149  1.00  0.00     0.269 C 
HETATM   41  H   UNL     1     -17.838   2.200 -31.635  1.00  0.00     0.279 HD
HETATM   42  C   UNL     1     -18.673   2.957 -33.329  1.00  0.00     0.269 C 
ENDBRANCH  36  39
ENDBRANCH  27  30
ENDBRANCH   1  26
TORSDOF 6
ENDMDL
MODEL 4
REMARK VINA RESULT:      -8.9      2.392      5.447
REMARK  6 active torsions:
REMARK  status: ('A' for Active; 'I' for Inactive)
REMARK    1  A    between atoms: N_2  and  C_5 
REMARK    2  A    between atoms: C_10  and  N_11 
REMARK       I    between atoms: N_11  and  C_12 
REMARK    3  A    between atoms: C_12  and  C_14 
REMARK    4  A    between atoms: C_18  and  C_20 
REMARK       I    between atoms: N_24  and  C_25 
REMARK    5  A    between atoms: C_25  and  C_27 
REMARK    6  A    between atoms: C_32  and  O_33 
ROOT
HETATM    1  C   UNL     1      -1.810   6.200 -30.689  1.00  0.00     0.033 A 
HETATM    2  C   UNL     1      -0.489   6.646 -30.559  1.00  0.00     0.017 A 
HETATM    3  C   UNL     1      -0.212   7.853 -29.918  1.00  0.00     0.002 A 
HETATM    4  C   UNL     1      -1.252   8.624 -29.403  1.00  0.00     0.009 A 
HETATM    5  C   UNL     1      -2.585   8.198 -29.519  1.00  0.00    -0.034 A 
HETATM    6  C   UNL     1      -2.851   6.968 -30.148  1.00  0.00     0.026 A 
ENDROOT
BRANCH   5   7
HETATM    7  C   UNL     1      -3.731   9.038 -28.994  1.00  0.00     0.120 C 
HETATM    8  C   UNL     1      -4.754   9.355 -30.099  1.00  0.00     0.032 C 
HETATM    9  C   UNL     1      -6.052   9.543 -29.326  1.00  0.00     0.022 C 
HETATM   10  C   UNL     1      -5.951   8.487 -28.236  1.00  0.00     0.127 C 
HETATM   11  N   UNL     1      -4.531   8.410 -27.936  1.00  0.00    -0.339 N 
HETATM   12  C   UNL     1      -4.115   7.928 -26.707  1.00  0.00     0.254 C 
HETATM   13  O   UNL     1      -4.875   7.463 -25.863  1.00  0.00    -0.267 OA
BRANCH  12  14
HETATM   14  C   UNL     1      -2.673   7.941 -26.402  1.00  0.00     0.033 A 
HETATM   15  C   UNL     1      -1.951   6.757 -26.543  1.00  0.00     0.018 A 
HETATM   16  C   UNL     1      -0.572   6.766 -26.344  1.00  0.00     0.013 A 
HETATM   17  C   UNL     1       0.089   7.950 -25.979  1.00  0.00    -0.023 A 
HETATM   18  C   UNL     1       1.481   7.973 -25.800  1.00  0.00     0.048 A 
HETATM   19  C   UNL     1      -0.660   9.138 -25.783  1.00  0.00    -0.025 A 
HETATM   20  C   UNL     1       2.114   9.152 -25.418  1.00  0.00     0.066 A 
HETATM   21  C   UNL     1       1.386  10.314 -25.201  1.00  0.00     0.037 A 
HETATM   22  C   UNL     1       0.004  10.310 -25.385  1.00  0.00     0.015 A 
HETATM   23  C   UNL     1      -2.047   9.122 -25.994  1.00  0.00     0.029 A 
BRANCH  20  24
HETATM   24  O   UNL     1       3.466   9.207 -25.244  1.00  0.00    -0.361 OA
HETATM   25  H   UNL     1       3.776  10.084 -25.531  1.00  0.00     0.217 HD
ENDBRANCH  20  24
ENDBRANCH  12  14
ENDBRANCH   5   7
BRANCH   1  26
HETATM   26  C   UNL     1      -2.046   4.883 -31.357  1.00  0.00     0.257 C 
HETATM   27  N   UNL     1      -3.247   4.271 -31.068  1.00  0.00    -0.301 N 
HETATM   28  H   UNL     1      -3.973   4.746 -30.555  1.00  0.00     0.171 HD
HETATM   29  O   UNL     1      -1.173   4.456 -32.105  1.00  0.00    -0.267 OA
BRANCH  27  30
HETATM   30  C   UNL     1      -3.524   3.002 -31.499  1.00  0.00     0.174 A 
HETATM   31  N   UNL     1      -2.952   1.869 -31.173  1.00  0.00    -0.228 NA
HETATM   32  C   UNL     1      -3.572   0.834 -31.821  1.00  0.00     0.050 A 
HETATM   33  C   UNL     1      -3.113  -0.570 -31.634  1.00  0.00     0.062 C 
HETATM   34  C   UNL     1      -4.649   1.193 -32.603  1.00  0.00     0.013 A 
HETATM   35  C   UNL     1      -3.709  -1.491 -32.715  1.00  0.00     0.039 C 
HETATM   36  C   UNL     1      -5.215  -1.208 -32.913  1.00  0.00     0.192 C 
HETATM   37  C   UNL     1      -5.489   0.249 -33.392  1.00  0.00     0.081 C 
HETATM   38  S   UNL     1      -4.853   2.885 -32.575  1.00  0.00    -0.055 SA
BRANCH  36  39
HETATM   39  N   UNL     1      -5.870  -2.224 -33.857  1.00  0.00    -0.074 N 
HETATM   40  C   UNL     1      -6.840  -1.659 -34.864  1.00  0.00     0.269 C 
HETATM   41  H   UNL     1      -6.422  -2.853 -33.256  1.00  0.00     0.279 HD
HETATM   42  C   UNL     1      -4.862  -3.124 -34.533  1.00  0.00     0.269 C 
ENDBRANCH  36  39
ENDBRANCH  27  30
ENDBRANCH   1  26
TORSDOF 6
ENDMDL
MODEL 5
REMARK VINA RESULT:      -8.8      5.562      9.830
REMARK  6 active torsions:
REMARK  status: ('A' for Active; 'I' for Inactive)
REMARK    1  A    between atoms: N_2  and  C_5 
REMARK    2  A    between atoms: C_10  and  N_11 
REMARK       I    between atoms: N_11  and  C_12 
REMARK    3  A    between atoms: C_12  and  C_14 
REMARK    4  A    between atoms: C_18  and  C_20 
REMARK       I    between atoms: N_24  and  C_25 
REMARK    5  A    between atoms: C_25  and  C_27 
REMARK    6  A    between atoms: C_32  and  O_33 
ROOT
HETATM    1  C   UNL     1      -8.727   0.500 -33.848  1.00  0.00     0.033 A 
HETATM    2  C   UNL     1      -8.265   1.183 -34.980  1.00  0.00     0.017 A 
HETATM    3  C   UNL     1      -7.155   0.717 -35.683  1.00  0.00     0.002 A 
HETATM    4  C   UNL     1      -6.496  -0.436 -35.260  1.00  0.00     0.009 A 
HETATM    5  C   UNL     1      -6.940  -1.141 -34.129  1.00  0.00    -0.034 A 
HETATM    6  C   UNL     1      -8.074  -0.673 -33.441  1.00  0.00     0.026 A 
ENDROOT
BRANCH   5   7
HETATM    7  C   UNL     1      -6.217  -2.377 -33.635  1.00  0.00     0.120 C 
HETATM    8  C   UNL     1      -6.359  -3.549 -34.622  1.00  0.00     0.032 C 
HETATM    9  C   UNL     1      -5.104  -4.372 -34.367  1.00  0.00     0.022 C 
HETATM   10  C   UNL     1      -4.048  -3.307 -34.118  1.00  0.00     0.127 C 
HETATM   11  N   UNL     1      -4.767  -2.225 -33.466  1.00  0.00    -0.339 N 
HETATM   12  C   UNL     1      -4.077  -1.318 -32.682  1.00  0.00     0.254 C 
HETATM   13  O   UNL     1      -2.855  -1.305 -32.567  1.00  0.00    -0.267 OA
BRANCH  12  14
HETATM   14  C   UNL     1      -4.847  -0.285 -31.967  1.00  0.00     0.033 A 
HETATM   15  C   UNL     1      -5.458  -0.624 -30.760  1.00  0.00     0.018 A 
HETATM   16  C   UNL     1      -6.118   0.358 -30.024  1.00  0.00     0.013 A 
HETATM   17  C   UNL     1      -6.194   1.677 -30.500  1.00  0.00    -0.023 A 
HETATM   18  C   UNL     1      -6.836   2.677 -29.755  1.00  0.00     0.048 A 
HETATM   19  C   UNL     1      -5.618   2.002 -31.755  1.00  0.00    -0.025 A 
HETATM   20  C   UNL     1      -6.917   3.974 -30.254  1.00  0.00     0.066 A 
HETATM   21  C   UNL     1      -6.377   4.296 -31.491  1.00  0.00     0.037 A 
HETATM   22  C   UNL     1      -5.726   3.316 -32.240  1.00  0.00     0.015 A 
HETATM   23  C   UNL     1      -4.948   1.009 -32.484  1.00  0.00     0.029 A 
BRANCH  20  24
HETATM   24  O   UNL     1      -7.528   4.969 -29.548  1.00  0.00    -0.361 OA
HETATM   25  H   UNL     1      -6.888   5.690 -29.420  1.00  0.00     0.217 HD
ENDBRANCH  20  24
ENDBRANCH  12  14
ENDBRANCH   5   7
BRANCH   1  26
HETATM   26  C   UNL     1      -9.940   1.028 -33.153  1.00  0.00     0.257 C 
HETATM   27  N   UNL     1     -11.068   1.164 -33.934  1.00  0.00    -0.301 N 
HETATM   28  H   UNL     1     -11.109   0.798 -34.873  1.00  0.00     0.171 HD
HETATM   29  O   UNL     1      -9.847   1.290 -31.958  1.00  0.00    -0.267 OA
BRANCH  27  30
HETATM   30  C   UNL     1     -12.199   1.768 -33.458  1.00  0.00     0.174 A 
HETATM   31  N   UNL     1     -12.366   2.988 -33.011  1.00  0.00    -0.228 NA
HETATM   32  C   UNL     1     -13.677   3.179 -32.665  1.00  0.00     0.050 A 
HETATM   33  C   UNL     1     -14.142   4.484 -32.118  1.00  0.00     0.062 C 
HETATM   34  C   UNL     1     -14.508   2.104 -32.898  1.00  0.00     0.013 A 
HETATM   35  C   UNL     1     -15.535   4.346 -31.477  1.00  0.00     0.039 C 
HETATM   36  C   UNL     1     -16.481   3.526 -32.383  1.00  0.00     0.192 C 
HETATM   37  C   UNL     1     -15.971   2.073 -32.616  1.00  0.00     0.081 C 
HETATM   38  S   UNL     1     -13.608   0.793 -33.512  1.00  0.00    -0.055 SA
BRANCH  36  39
HETATM   39  N   UNL     1     -17.920   3.520 -31.852  1.00  0.00    -0.074 N 
HETATM   40  C   UNL     1     -18.319   4.708 -31.013  1.00  0.00     0.269 C 
HETATM   41  H   UNL     1     -17.989   2.701 -31.231  1.00  0.00     0.279 HD
HETATM   42  C   UNL     1     -18.940   3.266 -32.938  1.00  0.00     0.269 C 
ENDBRANCH  36  39
ENDBRANCH  27  30
ENDBRANCH   1  26
TORSDOF 6
ENDMDL
MODEL 6
REMARK VINA RESULT:      -8.8      2.889      8.968
REMARK  6 active torsions:
REMARK  status: ('A' for Active; 'I' for Inactive)
REMARK    1  A    between atoms: N_2  and  C_5 
REMARK    2  A    between atoms: C_10  and  N_11 
REMARK       I    between atoms: N_11  and  C_12 
REMARK    3  A    between atoms: C_12  and  C_14 
REMARK    4  A    between atoms: C_18  and  C_20 
REMARK       I    between atoms: N_24  and  C_25 
REMARK    5  A    between atoms: C_25  and  C_27 
REMARK    6  A    between atoms: C_32  and  O_33 
ROOT
HETATM    1  C   UNL     1      -4.513   4.513 -32.685  1.00  0.00     0.033 A 
HETATM    2  C   UNL     1      -5.519   4.854 -33.597  1.00  0.00     0.017 A 
HETATM    3  C   UNL     1      -6.290   3.862 -34.202  1.00  0.00     0.002 A 
HETATM    4  C   UNL     1      -6.060   2.521 -33.901  1.00  0.00     0.009 A 
HETATM    5  C   UNL     1      -5.059   2.152 -32.989  1.00  0.00    -0.034 A 
HETATM    6  C   UNL     1      -4.303   3.163 -32.368  1.00  0.00     0.026 A 
ENDROOT
BRANCH   5   7
HETATM    7  C   UNL     1      -4.774   0.698 -32.674  1.00  0.00     0.120 C 
HETATM    8  C   UNL     1      -3.353   0.294 -33.101  1.00  0.00     0.032 C 
HETATM    9  C   UNL     1      -3.014  -0.843 -32.147  1.00  0.00     0.022 C 
HETATM   10  C   UNL     1      -3.648  -0.389 -30.842  1.00  0.00     0.127 C 
HETATM   11  N   UNL     1      -4.834   0.346 -31.250  1.00  0.00    -0.339 N 
HETATM   12  C   UNL     1      -5.888   0.493 -30.365  1.00  0.00     0.254 C 
HETATM   13  O   UNL     1      -5.857   0.117 -29.197  1.00  0.00    -0.267 OA
BRANCH  12  14
HETATM   14  C   UNL     1      -7.108   1.170 -30.838  1.00  0.00     0.033 A 
HETATM   15  C   UNL     1      -7.321   2.497 -30.468  1.00  0.00     0.018 A 
HETATM   16  C   UNL     1      -8.423   3.183 -30.974  1.00  0.00     0.013 A 
HETATM   17  C   UNL     1      -9.332   2.542 -31.830  1.00  0.00    -0.023 A 
HETATM   18  C   UNL     1     -10.432   3.232 -32.363  1.00  0.00     0.048 A 
HETATM   19  C   UNL     1      -9.140   1.175 -32.158  1.00  0.00    -0.025 A 
HETATM   20  C   UNL     1     -11.332   2.572 -33.195  1.00  0.00     0.066 A 
HETATM   21  C   UNL     1     -11.164   1.228 -33.502  1.00  0.00     0.037 A 
HETATM   22  C   UNL     1     -10.071   0.531 -32.989  1.00  0.00     0.015 A 
HETATM   23  C   UNL     1      -8.023   0.495 -31.652  1.00  0.00     0.029 A 
BRANCH  20  24
HETATM   24  O   UNL     1     -12.406   3.218 -33.734  1.00  0.00    -0.361 OA
HETATM   25  H   UNL     1     -12.312   4.170 -33.551  1.00  0.00     0.217 HD
ENDBRANCH  20  24
ENDBRANCH  12  14
ENDBRANCH   5   7
BRANCH   1  26
HETATM   26  C   UNL     1      -3.740   5.620 -32.042  1.00  0.00     0.257 C 
HETATM   27  N   UNL     1      -3.052   5.284 -30.896  1.00  0.00    -0.301 N 
HETATM   28  H   UNL     1      -2.962   4.326 -30.594  1.00  0.00     0.171 HD
HETATM   29  O   UNL     1      -3.768   6.724 -32.576  1.00  0.00    -0.267 OA
BRANCH  27  30
HETATM   30  C   UNL     1      -2.424   6.232 -30.135  1.00  0.00     0.174 A 
HETATM   31  N   UNL     1      -2.942   7.170 -29.381  1.00  0.00    -0.228 NA
HETATM   32  C   UNL     1      -1.941   7.877 -28.770  1.00  0.00     0.050 A 
HETATM   33  C   UNL     1      -2.253   9.012 -27.857  1.00  0.00     0.062 C 
HETATM   34  C   UNL     1      -0.662   7.434 -29.035  1.00  0.00     0.013 A 
HETATM   35  C   UNL     1      -0.997   9.862 -27.588  1.00  0.00     0.039 C 
HETATM   36  C   UNL     1       0.223   8.963 -27.286  1.00  0.00     0.192 C 
HETATM   37  C   UNL     1       0.585   8.031 -28.480  1.00  0.00     0.081 C 
HETATM   38  S   UNL     1      -0.713   6.129 -30.131  1.00  0.00    -0.055 SA
BRANCH  36  39
HETATM   39  N   UNL     1       1.443   9.783 -26.846  1.00  0.00    -0.074 N 
HETATM   40  C   UNL     1       1.168  11.209 -26.440  1.00  0.00     0.269 C 
HETATM   41  H   UNL     1       2.059   9.838 -27.670  1.00  0.00     0.279 HD
HETATM   42  C   UNL     1       2.268   9.077 -25.795  1.00  0.00     0.269 C 
ENDBRANCH  36  39
ENDBRANCH  27  30
ENDBRANCH   1  26
TORSDOF 6
ENDMDL
MODEL 7
REMARK VINA RESULT:      -8.8      3.173      9.640
REMARK  6 active torsions:
REMARK  status: ('A' for Active; 'I' for Inactive)
REMARK    1  A    between atoms: N_2  and  C_5 
REMARK    2  A    between atoms: C_10  and  N_11 
REMARK       I    between atoms: N_11  and  C_12 
REMARK    3  A    between atoms: C_12  and  C_14 
REMARK    4  A    between atoms: C_18  and  C_20 
REMARK       I    between atoms: N_24  and  C_25 
REMARK    5  A    between atoms: C_25  and  C_27 
REMARK    6  A    between atoms: C_32  and  O_33 
ROOT
HETATM    1  C   UNL     1      -5.780   6.116 -30.031  1.00  0.00     0.033 A 
HETATM    2  C   UNL     1      -6.490   7.113 -30.711  1.00  0.00     0.017 A 
HETATM    3  C   UNL     1      -7.547   6.776 -31.555  1.00  0.00     0.002 A 
HETATM    4  C   UNL     1      -7.903   5.439 -31.727  1.00  0.00     0.009 A 
HETATM    5  C   UNL     1      -7.209   4.421 -31.055  1.00  0.00    -0.034 A 
HETATM    6  C   UNL     1      -6.158   4.775 -30.189  1.00  0.00     0.026 A 
ENDROOT
BRANCH   5   7
HETATM    7  C   UNL     1      -7.560   2.961 -31.254  1.00  0.00     0.120 C 
HETATM    8  C   UNL     1      -9.023   2.673 -30.872  1.00  0.00     0.032 C 
HETATM    9  C   UNL     1      -9.377   1.472 -31.738  1.00  0.00     0.022 C 
HETATM   10  C   UNL     1      -8.652   1.770 -33.041  1.00  0.00     0.127 C 
HETATM   11  N   UNL     1      -7.448   2.476 -32.635  1.00  0.00    -0.339 N 
HETATM   12  C   UNL     1      -6.344   2.485 -33.469  1.00  0.00     0.254 C 
HETATM   13  O   UNL     1      -6.338   2.006 -34.599  1.00  0.00    -0.267 OA
BRANCH  12  14
HETATM   14  C   UNL     1      -5.113   3.138 -32.991  1.00  0.00     0.033 A 
HETATM   15  C   UNL     1      -4.271   2.427 -32.136  1.00  0.00     0.018 A 
HETATM   16  C   UNL     1      -3.060   2.991 -31.740  1.00  0.00     0.013 A 
HETATM   17  C   UNL     1      -2.693   4.275 -32.175  1.00  0.00    -0.023 A 
HETATM   18  C   UNL     1      -1.465   4.841 -31.801  1.00  0.00     0.048 A 
HETATM   19  C   UNL     1      -3.580   5.014 -33.000  1.00  0.00    -0.025 A 
HETATM   20  C   UNL     1      -1.130   6.122 -32.226  1.00  0.00     0.066 A 
HETATM   21  C   UNL     1      -2.001   6.862 -33.014  1.00  0.00     0.037 A 
HETATM   22  C   UNL     1      -3.221   6.310 -33.404  1.00  0.00     0.015 A 
HETATM   23  C   UNL     1      -4.793   4.435 -33.400  1.00  0.00     0.029 A 
BRANCH  20  24
HETATM   24  O   UNL     1       0.061   6.695 -31.885  1.00  0.00    -0.361 OA
HETATM   25  H   UNL     1       0.020   7.641 -32.110  1.00  0.00     0.217 HD
ENDBRANCH  20  24
ENDBRANCH  12  14
ENDBRANCH   5   7
BRANCH   1  26
HETATM   26  C   UNL     1      -4.676   6.538 -29.115  1.00  0.00     0.257 C 
HETATM   27  N   UNL     1      -3.611   7.178 -29.713  1.00  0.00    -0.301 N 
HETATM   28  H   UNL     1      -3.642   7.467 -30.679  1.00  0.00     0.171 HD
HETATM   29  O   UNL     1      -4.799   6.295 -27.919  1.00  0.00    -0.267 OA
BRANCH  27  30
HETATM   30  C   UNL     1      -2.477   7.485 -29.013  1.00  0.00     0.174 A 
HETATM   31  N   UNL     1      -1.369   6.799 -28.880  1.00  0.00    -0.228 NA
HETATM   32  C   UNL     1      -0.478   7.502 -28.114  1.00  0.00     0.050 A 
HETATM   33  C   UNL     1       0.867   6.945 -27.800  1.00  0.00     0.062 C 
HETATM   34  C   UNL     1      -0.908   8.748 -27.708  1.00  0.00     0.013 A 
HETATM   35  C   UNL     1       1.532   7.730 -26.654  1.00  0.00     0.039 C 
HETATM   36  C   UNL     1       1.376   9.253 -26.865  1.00  0.00     0.192 C 
HETATM   37  C   UNL     1      -0.116   9.701 -26.881  1.00  0.00     0.081 C 
HETATM   38  S   UNL     1      -2.500   9.021 -28.251  1.00  0.00    -0.055 SA
BRANCH  36  39
HETATM   39  N   UNL     1       2.176  10.059 -25.833  1.00  0.00    -0.074 N 
HETATM   40  C   UNL     1       1.473  11.256 -25.243  1.00  0.00     0.269 C 
HETATM   41  H   UNL     1       2.992  10.434 -26.338  1.00  0.00     0.279 HD
HETATM   42  C   UNL     1       2.761   9.192 -24.744  1.00  0.00     0.269 C 
ENDBRANCH  36  39
ENDBRANCH  27  30
ENDBRANCH   1  26
TORSDOF 6
ENDMDL
MODEL 8
REMARK VINA RESULT:      -8.3      3.308      9.481
REMARK  6 active torsions:
REMARK  status: ('A' for Active; 'I' for Inactive)
REMARK    1  A    between atoms: N_2  and  C_5 
REMARK    2  A    between atoms: C_10  and  N_11 
REMARK       I    between atoms: N_11  and  C_12 
REMARK    3  A    between atoms: C_12  and  C_14 
REMARK    4  A    between atoms: C_18  and  C_20 
REMARK       I    between atoms: N_24  and  C_25 
REMARK    5  A    between atoms: C_25  and  C_27 
REMARK    6  A    between atoms: C_32  and  O_33 
ROOT
HETATM    1  C   UNL     1      -7.381   4.753 -32.249  1.00  0.00     0.033 A 
HETATM    2  C   UNL     1      -7.439   5.388 -33.496  1.00  0.00     0.017 A 
HETATM    3  C   UNL     1      -8.631   5.417 -34.219  1.00  0.00     0.002 A 
HETATM    4  C   UNL     1      -9.775   4.811 -33.702  1.00  0.00     0.009 A 
HETATM    5  C   UNL     1      -9.744   4.169 -32.454  1.00  0.00    -0.034 A 
HETATM    6  C   UNL     1      -8.541   4.166 -31.724  1.00  0.00     0.026 A 
ENDROOT
BRANCH   5   7
HETATM    7  C   UNL     1     -10.968   3.478 -31.891  1.00  0.00     0.120 C 
HETATM    8  C   UNL     1     -12.034   4.491 -31.440  1.00  0.00     0.032 C 
HETATM    9  C   UNL     1     -13.335   3.712 -31.582  1.00  0.00     0.022 C 
HETATM   10  C   UNL     1     -13.103   2.897 -32.845  1.00  0.00     0.127 C 
HETATM   11  N   UNL     1     -11.679   2.605 -32.833  1.00  0.00    -0.339 N 
HETATM   12  C   UNL     1     -11.196   1.517 -33.540  1.00  0.00     0.254 C 
HETATM   13  O   UNL     1     -11.889   0.815 -34.270  1.00  0.00    -0.267 OA
BRANCH  12  14
HETATM   14  C   UNL     1      -9.761   1.200 -33.438  1.00  0.00     0.033 A 
HETATM   15  C   UNL     1      -8.964   1.348 -34.573  1.00  0.00     0.018 A 
HETATM   16  C   UNL     1      -7.590   1.137 -34.478  1.00  0.00     0.013 A 
HETATM   17  C   UNL     1      -7.008   0.752 -33.260  1.00  0.00    -0.023 A 
HETATM   18  C   UNL     1      -5.622   0.560 -33.151  1.00  0.00     0.048 A 
HETATM   19  C   UNL     1      -7.832   0.549 -32.124  1.00  0.00    -0.025 A 
HETATM   20  C   UNL     1      -5.068   0.160 -31.939  1.00  0.00     0.066 A 
HETATM   21  C   UNL     1      -5.870  -0.065 -30.828  1.00  0.00     0.037 A 
HETATM   22  C   UNL     1      -7.248   0.132 -30.918  1.00  0.00     0.015 A 
HETATM   23  C   UNL     1      -9.213   0.773 -32.226  1.00  0.00     0.029 A 
BRANCH  20  24
HETATM   24  O   UNL     1      -3.723  -0.027 -31.800  1.00  0.00    -0.361 OA
HETATM   25  H   UNL     1      -3.360  -0.285 -32.665  1.00  0.00     0.217 HD
ENDBRANCH  20  24
ENDBRANCH  12  14
ENDBRANCH   5   7
BRANCH   1  26
HETATM   26  C   UNL     1      -6.085   4.780 -31.504  1.00  0.00     0.257 C 
HETATM   27  N   UNL     1      -5.381   5.963 -31.569  1.00  0.00    -0.301 N 
HETATM   28  H   UNL     1      -5.781   6.797 -31.972  1.00  0.00     0.171 HD
HETATM   29  O   UNL     1      -5.753   3.768 -30.896  1.00  0.00    -0.267 OA
BRANCH  27  30
HETATM   30  C   UNL     1      -4.118   6.073 -31.053  1.00  0.00     0.174 A 
HETATM   31  N   UNL     1      -2.974   5.691 -31.564  1.00  0.00    -0.228 NA
HETATM   32  C   UNL     1      -1.953   6.029 -30.718  1.00  0.00     0.050 A 
HETATM   33  C   UNL     1      -0.539   5.702 -31.055  1.00  0.00     0.062 C 
HETATM   34  C   UNL     1      -2.333   6.712 -29.582  1.00  0.00     0.013 A 
HETATM   35  C   UNL     1       0.368   5.847 -29.819  1.00  0.00     0.039 C 
HETATM   36  C   UNL     1       0.056   7.153 -29.055  1.00  0.00     0.192 C 
HETATM   37  C   UNL     1      -1.406   7.195 -28.520  1.00  0.00     0.081 C 
HETATM   38  S   UNL     1      -4.029   6.882 -29.544  1.00  0.00    -0.055 SA
BRANCH  36  39
HETATM   39  N   UNL     1       1.058   7.407 -27.922  1.00  0.00    -0.074 N 
HETATM   40  C   UNL     1       1.638   8.798 -27.853  1.00  0.00     0.269 C 
HETATM   41  H   UNL     1       1.855   6.779 -28.102  1.00  0.00     0.279 HD
HETATM   42  C   UNL     1       0.529   6.982 -26.572  1.00  0.00     0.269 C 
ENDBRANCH  36  39
ENDBRANCH  27  30
ENDBRANCH   1  26
TORSDOF 6
ENDMDL
MODEL 9
REMARK VINA RESULT:      -8.3      4.124      9.638
REMARK  6 active torsions:
REMARK  status: ('A' for Active; 'I' for Inactive)
REMARK    1  A    between atoms: N_2  and  C_5 
REMARK    2  A    between atoms: C_10  and  N_11 
REMARK       I    between atoms: N_11  and  C_12 
REMARK    3  A    between atoms: C_12  and  C_14 
REMARK    4  A    between atoms: C_18  and  C_20 
REMARK       I    between atoms: N_24  and  C_25 
REMARK    5  A    between atoms: C_25  and  C_27 
REMARK    6  A    between atoms: C_32  and  O_33 
ROOT
HETATM    1  C   UNL     1      -9.391   5.008 -33.767  1.00  0.00     0.033 A 
HETATM    2  C   UNL     1      -9.780   5.288 -35.083  1.00  0.00     0.017 A 
HETATM    3  C   UNL     1     -11.037   4.899 -35.546  1.00  0.00     0.002 A 
HETATM    4  C   UNL     1     -11.915   4.227 -34.698  1.00  0.00     0.009 A 
HETATM    5  C   UNL     1     -11.550   3.936 -33.374  1.00  0.00    -0.034 A 
HETATM    6  C   UNL     1     -10.288   4.352 -32.911  1.00  0.00     0.026 A 
ENDROOT
BRANCH   5   7
HETATM    7  C   UNL     1     -12.479   3.178 -32.448  1.00  0.00     0.120 C 
HETATM    8  C   UNL     1     -13.724   4.007 -32.090  1.00  0.00     0.032 C 
HETATM    9  C   UNL     1     -14.776   2.946 -31.799  1.00  0.00     0.022 C 
HETATM   10  C   UNL     1     -14.468   1.874 -32.832  1.00  0.00     0.127 C 
HETATM   11  N   UNL     1     -13.025   1.931 -32.997  1.00  0.00    -0.339 N 
HETATM   12  C   UNL     1     -12.345   0.824 -33.476  1.00  0.00     0.254 C 
HETATM   13  O   UNL     1     -12.897  -0.199 -33.870  1.00  0.00    -0.267 OA
BRANCH  12  14
HETATM   14  C   UNL     1     -10.875   0.886 -33.551  1.00  0.00     0.033 A 
HETATM   15  C   UNL     1     -10.284   1.252 -34.759  1.00  0.00     0.018 A 
HETATM   16  C   UNL     1      -8.900   1.401 -34.829  1.00  0.00     0.013 A 
HETATM   17  C   UNL     1      -8.097   1.161 -33.703  1.00  0.00    -0.023 A 
HETATM   18  C   UNL     1      -6.705   1.331 -33.758  1.00  0.00     0.048 A 
HETATM   19  C   UNL     1      -8.701   0.735 -32.492  1.00  0.00    -0.025 A 
HETATM   20  C   UNL     1      -5.927   1.068 -32.635  1.00  0.00     0.066 A 
HETATM   21  C   UNL     1      -6.506   0.628 -31.453  1.00  0.00     0.037 A 
HETATM   22  C   UNL     1      -7.889   0.464 -31.378  1.00  0.00     0.015 A 
HETATM   23  C   UNL     1     -10.095   0.596 -32.428  1.00  0.00     0.029 A 
BRANCH  20  24
HETATM   24  O   UNL     1      -4.572   1.232 -32.656  1.00  0.00    -0.361 OA
HETATM   25  H   UNL     1      -4.355   2.040 -32.160  1.00  0.00     0.217 HD
ENDBRANCH  20  24
ENDBRANCH  12  14
ENDBRANCH   5   7
BRANCH   1  26
HETATM   26  C   UNL     1      -8.045   5.476 -33.316  1.00  0.00     0.257 C 
HETATM   27  N   UNL     1      -6.965   4.857 -33.908  1.00  0.00    -0.301 N 
HETATM   28  H   UNL     1      -7.077   4.234 -34.694  1.00  0.00     0.171 HD
HETATM   29  O   UNL     1      -8.001   6.365 -32.472  1.00  0.00    -0.267 OA
BRANCH  27  30
HETATM   30  C   UNL     1      -5.686   5.090 -33.483  1.00  0.00     0.174 A 
HETATM   31  N   UNL     1      -4.680   5.630 -34.126  1.00  0.00    -0.228 NA
HETATM   32  C   UNL     1      -3.588   5.698 -33.303  1.00  0.00     0.050 A 
HETATM   33  C   UNL     1      -2.300   6.266 -33.788  1.00  0.00     0.062 C 
HETATM   34  C   UNL     1      -3.792   5.245 -32.017  1.00  0.00     0.013 A 
HETATM   35  C   UNL     1      -1.147   5.910 -32.830  1.00  0.00     0.039 C 
HETATM   36  C   UNL     1      -1.564   6.130 -31.359  1.00  0.00     0.192 C 
HETATM   37  C   UNL     1      -2.764   5.230 -30.939  1.00  0.00     0.081 C 
HETATM   38  S   UNL     1      -5.385   4.660 -31.851  1.00  0.00    -0.055 SA
BRANCH  36  39
HETATM   39  N   UNL     1      -0.384   5.949 -30.395  1.00  0.00    -0.074 N 
HETATM   40  C   UNL     1       0.810   5.212 -30.946  1.00  0.00     0.269 C 
HETATM   41  H   UNL     1      -0.738   5.371 -29.620  1.00  0.00     0.279 HD
HETATM   42  C   UNL     1       0.040   7.246 -29.746  1.00  0.00     0.269 C 
ENDBRANCH  36  39
ENDBRANCH  27  30
ENDBRANCH   1  26
TORSDOF 6
ENDMDL
MODEL 10
REMARK VINA RESULT:      -8.2      3.068      9.676
REMARK  6 active torsions:
REMARK  status: ('A' for Active; 'I' for Inactive)
REMARK    1  A    between atoms: N_2  and  C_5 
REMARK    2  A    between atoms: C_10  and  N_11 
REMARK       I    between atoms: N_11  and  C_12 
REMARK    3  A    between atoms: C_12  and  C_14 
REMARK    4  A    between atoms: C_18  and  C_20 
REMARK       I    between atoms: N_24  and  C_25 
REMARK    5  A    between atoms: C_25  and  C_27 
REMARK    6  A    between atoms: C_32  and  O_33 
ROOT
HETATM    1  C   UNL     1      -5.555   4.491 -31.994  1.00  0.00     0.033 A 
HETATM    2  C   UNL     1      -5.318   4.605 -33.370  1.00  0.00     0.017 A 
HETATM    3  C   UNL     1      -6.332   4.331 -34.286  1.00  0.00     0.002 A 
HETATM    4  C   UNL     1      -7.592   3.941 -33.835  1.00  0.00     0.009 A 
HETATM    5  C   UNL     1      -7.856   3.822 -32.462  1.00  0.00    -0.034 A 
HETATM    6  C   UNL     1      -6.831   4.122 -31.546  1.00  0.00     0.026 A 
ENDROOT
BRANCH   5   7
HETATM    7  C   UNL     1      -9.210   3.368 -31.954  1.00  0.00     0.120 C 
HETATM    8  C   UNL     1     -10.281   4.455 -32.147  1.00  0.00     0.032 C 
HETATM    9  C   UNL     1     -11.571   3.655 -32.262  1.00  0.00     0.022 C 
HETATM   10  C   UNL     1     -11.138   2.430 -33.052  1.00  0.00     0.127 C 
HETATM   11  N   UNL     1      -9.767   2.191 -32.633  1.00  0.00    -0.339 N 
HETATM   12  C   UNL     1      -9.219   0.928 -32.767  1.00  0.00     0.254 C 
HETATM   13  O   UNL     1      -9.791  -0.011 -33.313  1.00  0.00    -0.267 OA
BRANCH  12  14
HETATM   14  C   UNL     1      -7.856   0.700 -32.255  1.00  0.00     0.033 A 
HETATM   15  C   UNL     1      -7.657   0.684 -30.875  1.00  0.00     0.018 A 
HETATM   16  C   UNL     1      -6.394   0.384 -30.367  1.00  0.00     0.013 A 
HETATM   17  C   UNL     1      -5.319   0.125 -31.232  1.00  0.00    -0.023 A 
HETATM   18  C   UNL     1      -4.050  -0.201 -30.729  1.00  0.00     0.048 A 
HETATM   19  C   UNL     1      -5.517   0.198 -32.634  1.00  0.00    -0.025 A 
HETATM   20  C   UNL     1      -2.993  -0.434 -31.604  1.00  0.00     0.066 A 
HETATM   21  C   UNL     1      -3.172  -0.342 -32.977  1.00  0.00     0.037 A 
HETATM   22  C   UNL     1      -4.429  -0.030 -33.493  1.00  0.00     0.015 A 
HETATM   23  C   UNL     1      -6.793   0.491 -33.137  1.00  0.00     0.029 A 
BRANCH  20  24
HETATM   24  O   UNL     1      -1.750  -0.760 -31.145  1.00  0.00    -0.361 OA
HETATM   25  H   UNL     1      -1.091  -0.355 -31.734  1.00  0.00     0.217 HD
ENDBRANCH  20  24
ENDBRANCH  12  14
ENDBRANCH   5   7
BRANCH   1  26
HETATM   26  C   UNL     1      -4.439   4.827 -31.057  1.00  0.00     0.257 C 
HETATM   27  N   UNL     1      -4.217   6.172 -30.846  1.00  0.00    -0.301 N 
HETATM   28  H   UNL     1      -4.855   6.874 -31.190  1.00  0.00     0.171 HD
HETATM   29  O   UNL     1      -3.819   3.900 -30.548  1.00  0.00    -0.267 OA
BRANCH  27  30
HETATM   30  C   UNL     1      -3.141   6.615 -30.127  1.00  0.00     0.174 A 
HETATM   31  N   UNL     1      -1.873   6.634 -30.454  1.00  0.00    -0.228 NA
HETATM   32  C   UNL     1      -1.142   7.196 -29.442  1.00  0.00     0.050 A 
HETATM   33  C   UNL     1       0.337   7.336 -29.552  1.00  0.00     0.062 C 
HETATM   34  C   UNL     1      -1.878   7.643 -28.365  1.00  0.00     0.013 A 
HETATM   35  C   UNL     1       0.962   7.649 -28.179  1.00  0.00     0.039 C 
HETATM   36  C   UNL     1       0.153   8.739 -27.441  1.00  0.00     0.192 C 
HETATM   37  C   UNL     1      -1.313   8.299 -27.152  1.00  0.00     0.081 C 
HETATM   38  S   UNL     1      -3.530   7.294 -28.602  1.00  0.00    -0.055 SA
BRANCH  36  39
HETATM   39  N   UNL     1       0.849   9.193 -26.151  1.00  0.00    -0.074 N 
HETATM   40  C   UNL     1       2.126   8.472 -25.801  1.00  0.00     0.269 C 
HETATM   41  H   UNL     1       0.190   8.986 -25.386  1.00  0.00     0.279 HD
HETATM   42  C   UNL     1       1.048  10.690 -26.094  1.00  0.00     0.269 C 
ENDBRANCH  36  39
ENDBRANCH  27  30
ENDBRANCH   1  26
TORSDOF 6
ENDMDL
