MODEL 1
REMARK VINA RESULT:      -7.9      0.000      0.000
REMARK  4 active torsions:
REMARK  status: ('A' for Active; 'I' for Inactive)
REMARK    1  A    between atoms: C_2  and  C_3 
REMARK    2  A    between atoms: C_3  and  N_4 
REMARK    3  A    between atoms: N_4  and  N_5 
REMARK    4  A    between atoms: C_10  and  C_11 
ROOT
HETATM    1  N   UNL     1      -7.939   1.252 -32.985  1.00  0.00    -0.231 N 
HETATM    2  C   UNL     1      -9.281   1.349 -32.667  1.00  0.00     0.211 A 
HETATM    3  S   UNL     1     -10.615   1.218 -33.643  1.00  0.00    -0.038 SA
HETATM    4  N   UNL     1      -9.320   1.585 -31.300  1.00  0.00    -0.250 N 
HETATM    5  N   UNL     1      -8.054   1.605 -30.780  1.00  0.00    -0.152 NA
HETATM    6  C   UNL     1      -7.259   1.390 -31.799  1.00  0.00     0.177 A 
HETATM    7  H   UNL     1     -10.144   1.693 -30.721  1.00  0.00     0.191 HD
ENDROOT
BRANCH   1   8
HETATM    8  N   UNL     1      -7.438   1.019 -34.271  1.00  0.00    -0.225 NA
HETATM    9  H   UNL     1      -6.415   1.037 -34.197  1.00  0.00     0.147 HD
BRANCH   8  10
HETATM   10  C   UNL     1      -7.821  -0.309 -34.769  1.00  0.00     0.149 C 
BRANCH  10  11
HETATM   11  C   UNL     1      -6.703  -1.308 -34.558  1.00  0.00    -0.041 A 
HETATM   12  C   UNL     1      -5.404  -0.860 -34.216  1.00  0.00     0.011 A 
HETATM   13  C   UNL     1      -4.355  -1.766 -34.024  1.00  0.00     0.040 A 
HETATM   14  C   UNL     1      -4.628  -3.107 -34.181  1.00  0.00     0.105 A 
HETATM   15  C   UNL     1      -5.885  -3.556 -34.506  1.00  0.00     0.105 A 
HETATM   16  O   UNL     1      -3.733  -4.121 -34.046  1.00  0.00    -0.323 OA
HETATM   17  C   UNL     1      -6.940  -2.688 -34.693  1.00  0.00     0.048 A 
HETATM   18  O   UNL     1      -5.941  -4.910 -34.619  1.00  0.00    -0.323 OA
HETATM   19  C   UNL     1      -4.569  -5.260 -34.341  1.00  0.00     0.352 A 
ENDBRANCH  10  11
ENDBRANCH   8  10
ENDBRANCH   1   8
BRANCH   6  20
HETATM   20  C   UNL     1      -5.786   1.329 -31.645  1.00  0.00     0.016 A 
HETATM   21  C   UNL     1      -5.256   0.242 -30.945  1.00  0.00     0.034 A 
HETATM   22  C   UNL     1      -3.883   0.153 -30.797  1.00  0.00     0.117 A 
HETATM   23  N   UNL     1      -3.021   1.063 -31.292  1.00  0.00    -0.273 NA
HETATM   24  C   UNL     1      -3.553   2.094 -31.982  1.00  0.00     0.117 A 
HETATM   25  C   UNL     1      -4.911   2.265 -32.193  1.00  0.00     0.034 A 
ENDBRANCH   6  20
TORSDOF 4
ENDMDL
MODEL 2
REMARK VINA RESULT:      -7.9      2.707      3.793
REMARK  4 active torsions:
REMARK  status: ('A' for Active; 'I' for Inactive)
REMARK    1  A    between atoms: C_2  and  C_3 
REMARK    2  A    between atoms: C_3  and  N_4 
REMARK    3  A    between atoms: N_4  and  N_5 
REMARK    4  A    between atoms: C_10  and  C_11 
ROOT
HETATM    1  N   UNL     1      -4.634   2.183 -31.579  1.00  0.00    -0.231 N 
HETATM    2  C   UNL     1      -5.259   1.998 -30.359  1.00  0.00     0.211 A 
HETATM    3  S   UNL     1      -5.841   0.609 -29.666  1.00  0.00    -0.038 SA
HETATM    4  N   UNL     1      -5.313   3.257 -29.777  1.00  0.00    -0.250 N 
HETATM    5  N   UNL     1      -4.719   4.186 -30.587  1.00  0.00    -0.152 NA
HETATM    6  C   UNL     1      -4.313   3.518 -31.640  1.00  0.00     0.177 A 
HETATM    7  H   UNL     1      -5.691   3.495 -28.868  1.00  0.00     0.191 HD
ENDROOT
BRANCH   1   8
HETATM    8  N   UNL     1      -4.372   1.167 -32.504  1.00  0.00    -0.225 NA
HETATM    9  H   UNL     1      -4.160   0.321 -31.964  1.00  0.00     0.147 HD
BRANCH   8  10
HETATM   10  C   UNL     1      -5.549   0.876 -33.336  1.00  0.00     0.149 C 
BRANCH  10  11
HETATM   11  C   UNL     1      -5.576  -0.584 -33.738  1.00  0.00    -0.041 A 
HETATM   12  C   UNL     1      -6.689  -1.107 -34.439  1.00  0.00     0.011 A 
HETATM   13  C   UNL     1      -6.738  -2.454 -34.815  1.00  0.00     0.040 A 
HETATM   14  C   UNL     1      -5.668  -3.254 -34.477  1.00  0.00     0.105 A 
HETATM   15  C   UNL     1      -4.579  -2.757 -33.803  1.00  0.00     0.105 A 
HETATM   16  O   UNL     1      -5.551  -4.581 -34.749  1.00  0.00    -0.323 OA
HETATM   17  C   UNL     1      -4.499  -1.433 -33.429  1.00  0.00     0.048 A 
HETATM   18  O   UNL     1      -3.638  -3.709 -33.563  1.00  0.00    -0.323 OA
HETATM   19  C   UNL     1      -4.268  -4.866 -34.152  1.00  0.00     0.352 A 
ENDBRANCH  10  11
ENDBRANCH   8  10
ENDBRANCH   1   8
BRANCH   6  20
HETATM   20  C   UNL     1      -3.604   4.178 -32.761  1.00  0.00     0.016 A 
HETATM   21  C   UNL     1      -4.377   4.647 -33.827  1.00  0.00     0.034 A 
HETATM   22  C   UNL     1      -3.741   5.279 -34.881  1.00  0.00     0.117 A 
HETATM   23  N   UNL     1      -2.408   5.469 -34.940  1.00  0.00    -0.273 NA
HETATM   24  C   UNL     1      -1.683   5.027 -33.891  1.00  0.00     0.117 A 
HETATM   25  C   UNL     1      -2.228   4.393 -32.786  1.00  0.00     0.034 A 
ENDBRANCH   6  20
TORSDOF 4
ENDMDL
MODEL 3
REMARK VINA RESULT:      -7.7      3.815      6.257
REMARK  4 active torsions:
REMARK  status: ('A' for Active; 'I' for Inactive)
REMARK    1  A    between atoms: C_2  and  C_3 
REMARK    2  A    between atoms: C_3  and  N_4 
REMARK    3  A    between atoms: N_4  and  N_5 
REMARK    4  A    between atoms: C_10  and  C_11 
ROOT
HETATM    1  N   UNL     1      -5.001  -2.595 -34.037  1.00  0.00    -0.231 N 
HETATM    2  C   UNL     1      -4.777  -3.945 -34.237  1.00  0.00     0.211 A 
HETATM    3  S   UNL     1      -3.419  -4.849 -33.941  1.00  0.00    -0.038 SA
HETATM    4  N   UNL     1      -5.963  -4.443 -34.757  1.00  0.00    -0.250 N 
HETATM    5  N   UNL     1      -6.901  -3.450 -34.850  1.00  0.00    -0.152 NA
HETATM    6  C   UNL     1      -6.307  -2.371 -34.402  1.00  0.00     0.177 A 
HETATM    7  H   UNL     1      -6.166  -5.403 -35.007  1.00  0.00     0.191 HD
ENDROOT
BRANCH   1   8
HETATM    8  N   UNL     1      -4.059  -1.696 -33.525  1.00  0.00    -0.225 NA
HETATM    9  H   UNL     1      -4.266  -0.781 -33.939  1.00  0.00     0.147 HD
BRANCH   8  10
HETATM   10  C   UNL     1      -4.181  -1.557 -32.066  1.00  0.00     0.149 C 
BRANCH  10  11
HETATM   11  C   UNL     1      -4.317  -0.101 -31.673  1.00  0.00    -0.041 A 
HETATM   12  C   UNL     1      -5.406   0.320 -30.873  1.00  0.00     0.011 A 
HETATM   13  C   UNL     1      -5.555   1.662 -30.504  1.00  0.00     0.040 A 
HETATM   14  C   UNL     1      -4.607   2.558 -30.947  1.00  0.00     0.105 A 
HETATM   15  C   UNL     1      -3.542   2.161 -31.718  1.00  0.00     0.105 A 
HETATM   16  O   UNL     1      -4.599   3.894 -30.697  1.00  0.00    -0.323 OA
HETATM   17  C   UNL     1      -3.364   0.846 -32.089  1.00  0.00     0.048 A 
HETATM   18  O   UNL     1      -2.728   3.198 -32.052  1.00  0.00    -0.323 OA
HETATM   19  C   UNL     1      -3.413   4.296 -31.415  1.00  0.00     0.352 A 
ENDBRANCH  10  11
ENDBRANCH   8  10
ENDBRANCH   1   8
BRANCH   6  20
HETATM   20  C   UNL     1      -7.003  -1.064 -34.334  1.00  0.00     0.016 A 
HETATM   21  C   UNL     1      -7.917  -0.875 -33.293  1.00  0.00     0.034 A 
HETATM   22  C   UNL     1      -8.572   0.341 -33.197  1.00  0.00     0.117 A 
HETATM   23  N   UNL     1      -8.377   1.360 -34.057  1.00  0.00    -0.273 NA
HETATM   24  C   UNL     1      -7.476   1.163 -35.042  1.00  0.00     0.117 A 
HETATM   25  C   UNL     1      -6.763  -0.013 -35.215  1.00  0.00     0.034 A 
ENDBRANCH   6  20
TORSDOF 4
ENDMDL
MODEL 4
REMARK VINA RESULT:      -7.7      2.247      3.147
REMARK  4 active torsions:
REMARK  status: ('A' for Active; 'I' for Inactive)
REMARK    1  A    between atoms: C_2  and  C_3 
REMARK    2  A    between atoms: C_3  and  N_4 
REMARK    3  A    between atoms: N_4  and  N_5 
REMARK    4  A    between atoms: C_10  and  C_11 
ROOT
HETATM    1  N   UNL     1      -6.397   2.397 -32.835  1.00  0.00    -0.231 N 
HETATM    2  C   UNL     1      -7.440   2.322 -31.931  1.00  0.00     0.211 A 
HETATM    3  S   UNL     1      -8.537   1.104 -31.678  1.00  0.00    -0.038 SA
HETATM    4  N   UNL     1      -7.404   3.515 -31.225  1.00  0.00    -0.250 N 
HETATM    5  N   UNL     1      -6.361   4.293 -31.650  1.00  0.00    -0.152 NA
HETATM    6  C   UNL     1      -5.774   3.598 -32.594  1.00  0.00     0.177 A 
HETATM    7  H   UNL     1      -8.015   3.797 -30.467  1.00  0.00     0.191 HD
ENDROOT
BRANCH   1   8
HETATM    8  N   UNL     1      -6.066   1.400 -33.759  1.00  0.00    -0.225 NA
HETATM    9  H   UNL     1      -5.650   1.872 -34.569  1.00  0.00     0.147 HD
BRANCH   8  10
HETATM   10  C   UNL     1      -5.058   0.476 -33.221  1.00  0.00     0.149 C 
BRANCH  10  11
HETATM   11  C   UNL     1      -5.319  -0.940 -33.691  1.00  0.00    -0.041 A 
HETATM   12  C   UNL     1      -6.574  -1.285 -34.247  1.00  0.00     0.011 A 
HETATM   13  C   UNL     1      -6.839  -2.589 -34.680  1.00  0.00     0.040 A 
HETATM   14  C   UNL     1      -5.838  -3.526 -34.544  1.00  0.00     0.105 A 
HETATM   15  C   UNL     1      -4.613  -3.203 -34.013  1.00  0.00     0.105 A 
HETATM   16  O   UNL     1      -5.922  -4.835 -34.898  1.00  0.00    -0.323 OA
HETATM   17  C   UNL     1      -4.320  -1.925 -33.586  1.00  0.00     0.048 A 
HETATM   18  O   UNL     1      -3.771  -4.270 -33.963  1.00  0.00    -0.323 OA
HETATM   19  C   UNL     1      -4.614  -5.305 -34.512  1.00  0.00     0.352 A 
ENDBRANCH  10  11
ENDBRANCH   8  10
ENDBRANCH   1   8
BRANCH   6  20
HETATM   20  C   UNL     1      -4.579   4.103 -33.310  1.00  0.00     0.016 A 
HETATM   21  C   UNL     1      -4.790   4.827 -34.487  1.00  0.00     0.034 A 
HETATM   22  C   UNL     1      -3.692   5.321 -35.169  1.00  0.00     0.117 A 
HETATM   23  N   UNL     1      -2.420   5.142 -34.760  1.00  0.00    -0.273 NA
HETATM   24  C   UNL     1      -2.240   4.459 -33.610  1.00  0.00     0.117 A 
HETATM   25  C   UNL     1      -3.274   3.935 -32.852  1.00  0.00     0.034 A 
ENDBRANCH   6  20
TORSDOF 4
ENDMDL
MODEL 5
REMARK VINA RESULT:      -7.6      4.746      7.192
REMARK  4 active torsions:
REMARK  status: ('A' for Active; 'I' for Inactive)
REMARK    1  A    between atoms: C_2  and  C_3 
REMARK    2  A    between atoms: C_3  and  N_4 
REMARK    3  A    between atoms: N_4  and  N_5 
REMARK    4  A    between atoms: C_10  and  C_11 
ROOT
HETATM    1  N   UNL     1      -5.403   1.793 -31.423  1.00  0.00    -0.231 N 
HETATM    2  C   UNL     1      -5.838   2.380 -30.248  1.00  0.00     0.211 A 
HETATM    3  S   UNL     1      -5.766   3.964 -29.765  1.00  0.00    -0.038 SA
HETATM    4  N   UNL     1      -6.383   1.347 -29.500  1.00  0.00    -0.250 N 
HETATM    5  N   UNL     1      -6.319   0.167 -30.191  1.00  0.00    -0.152 NA
HETATM    6  C   UNL     1      -5.747   0.466 -31.332  1.00  0.00     0.177 A 
HETATM    7  H   UNL     1      -6.816   1.415 -28.586  1.00  0.00     0.191 HD
ENDROOT
BRANCH   1   8
HETATM    8  N   UNL     1      -4.779   2.475 -32.473  1.00  0.00    -0.225 NA
HETATM    9  H   UNL     1      -5.177   3.421 -32.490  1.00  0.00     0.147 HD
BRANCH   8  10
HETATM   10  C   UNL     1      -3.333   2.610 -32.250  1.00  0.00     0.149 C 
BRANCH  10  11
HETATM   11  C   UNL     1      -2.852   3.992 -32.641  1.00  0.00    -0.041 A 
HETATM   12  C   UNL     1      -2.416   4.244 -33.964  1.00  0.00     0.011 A 
HETATM   13  C   UNL     1      -1.961   5.511 -34.345  1.00  0.00     0.040 A 
HETATM   14  C   UNL     1      -1.951   6.503 -33.389  1.00  0.00     0.105 A 
HETATM   15  C   UNL     1      -2.378   6.274 -32.104  1.00  0.00     0.105 A 
HETATM   16  O   UNL     1      -1.533   7.783 -33.577  1.00  0.00    -0.323 OA
HETATM   17  C   UNL     1      -2.840   5.038 -31.702  1.00  0.00     0.048 A 
HETATM   18  O   UNL     1      -2.282   7.380 -31.319  1.00  0.00    -0.323 OA
HETATM   19  C   UNL     1      -1.731   8.329 -32.255  1.00  0.00     0.352 A 
ENDBRANCH  10  11
ENDBRANCH   8  10
ENDBRANCH   1   8
BRANCH   6  20
HETATM   20  C   UNL     1      -5.501  -0.556 -32.377  1.00  0.00     0.016 A 
HETATM   21  C   UNL     1      -4.283  -1.240 -32.335  1.00  0.00     0.034 A 
HETATM   22  C   UNL     1      -4.033  -2.209 -33.291  1.00  0.00     0.117 A 
HETATM   23  N   UNL     1      -4.903  -2.533 -34.267  1.00  0.00    -0.273 NA
HETATM   24  C   UNL     1      -6.082  -1.875 -34.276  1.00  0.00     0.117 A 
HETATM   25  C   UNL     1      -6.429  -0.898 -33.358  1.00  0.00     0.034 A 
ENDBRANCH   6  20
TORSDOF 4
ENDMDL
MODEL 6
REMARK VINA RESULT:      -7.4      3.513      5.623
REMARK  4 active torsions:
REMARK  status: ('A' for Active; 'I' for Inactive)
REMARK    1  A    between atoms: C_2  and  C_3 
REMARK    2  A    between atoms: C_3  and  N_4 
REMARK    3  A    between atoms: N_4  and  N_5 
REMARK    4  A    between atoms: C_10  and  C_11 
ROOT
HETATM    1  N   UNL     1      -8.715   1.675 -33.366  1.00  0.00    -0.231 N 
HETATM    2  C   UNL     1     -10.054   1.951 -33.158  1.00  0.00     0.211 A 
HETATM    3  S   UNL     1     -10.879   3.381 -33.318  1.00  0.00    -0.038 SA
HETATM    4  N   UNL     1     -10.624   0.746 -32.773  1.00  0.00    -0.250 N 
HETATM    5  N   UNL     1      -9.685  -0.250 -32.769  1.00  0.00    -0.152 NA
HETATM    6  C   UNL     1      -8.568   0.328 -33.139  1.00  0.00     0.177 A 
HETATM    7  H   UNL     1     -11.598   0.572 -32.557  1.00  0.00     0.191 HD
ENDROOT
BRANCH   1   8
HETATM    8  N   UNL     1      -7.758   2.615 -33.766  1.00  0.00    -0.225 NA
HETATM    9  H   UNL     1      -8.252   3.323 -34.320  1.00  0.00     0.147 HD
BRANCH   8  10
HETATM   10  C   UNL     1      -7.155   3.298 -32.613  1.00  0.00     0.149 C 
BRANCH  10  11
HETATM   11  C   UNL     1      -5.704   3.637 -32.884  1.00  0.00    -0.041 A 
HETATM   12  C   UNL     1      -4.676   2.992 -32.155  1.00  0.00     0.011 A 
HETATM   13  C   UNL     1      -3.329   3.295 -32.386  1.00  0.00     0.040 A 
HETATM   14  C   UNL     1      -3.039   4.242 -33.343  1.00  0.00     0.105 A 
HETATM   15  C   UNL     1      -4.027   4.870 -34.061  1.00  0.00     0.105 A 
HETATM   16  O   UNL     1      -1.795   4.668 -33.688  1.00  0.00    -0.323 OA
HETATM   17  C   UNL     1      -5.361   4.586 -33.863  1.00  0.00     0.048 A 
HETATM   18  O   UNL     1      -3.530   5.772 -34.950  1.00  0.00    -0.323 OA
HETATM   19  C   UNL     1      -2.115   5.649 -34.696  1.00  0.00     0.352 A 
ENDBRANCH  10  11
ENDBRANCH   8  10
ENDBRANCH   1   8
BRANCH   6  20
HETATM   20  C   UNL     1      -7.300  -0.428 -33.267  1.00  0.00     0.016 A 
HETATM   21  C   UNL     1      -7.128  -1.210 -34.413  1.00  0.00     0.034 A 
HETATM   22  C   UNL     1      -5.948  -1.916 -34.564  1.00  0.00     0.117 A 
HETATM   23  N   UNL     1      -4.947  -1.894 -33.662  1.00  0.00    -0.273 NA
HETATM   24  C   UNL     1      -5.125  -1.117 -32.573  1.00  0.00     0.117 A 
HETATM   25  C   UNL     1      -6.264  -0.366 -32.337  1.00  0.00     0.034 A 
ENDBRANCH   6  20
TORSDOF 4
ENDMDL
MODEL 7
REMARK VINA RESULT:      -7.1      3.846      6.509
REMARK  4 active torsions:
REMARK  status: ('A' for Active; 'I' for Inactive)
REMARK    1  A    between atoms: C_2  and  C_3 
REMARK    2  A    between atoms: C_3  and  N_4 
REMARK    3  A    between atoms: N_4  and  N_5 
REMARK    4  A    between atoms: C_10  and  C_11 
ROOT
HETATM    1  N   UNL     1      -4.383  -0.472 -32.721  1.00  0.00    -0.231 N 
HETATM    2  C   UNL     1      -3.561   0.229 -31.857  1.00  0.00     0.211 A 
HETATM    3  S   UNL     1      -3.667   1.797 -31.331  1.00  0.00    -0.038 SA
HETATM    4  N   UNL     1      -2.572  -0.668 -31.481  1.00  0.00    -0.250 N 
HETATM    5  N   UNL     1      -2.784  -1.889 -32.062  1.00  0.00    -0.152 NA
HETATM    6  C   UNL     1      -3.872  -1.746 -32.779  1.00  0.00     0.177 A 
HETATM    7  H   UNL     1      -1.806  -0.501 -30.839  1.00  0.00     0.191 HD
ENDROOT
BRANCH   1   8
HETATM    8  N   UNL     1      -5.518   0.056 -33.348  1.00  0.00    -0.225 NA
HETATM    9  H   UNL     1      -5.712  -0.540 -34.159  1.00  0.00     0.147 HD
BRANCH   8  10
HETATM   10  C   UNL     1      -6.695   0.004 -32.470  1.00  0.00     0.149 C 
BRANCH  10  11
HETATM   11  C   UNL     1      -7.836   0.816 -33.048  1.00  0.00    -0.041 A 
HETATM   12  C   UNL     1      -9.070   0.193 -33.350  1.00  0.00     0.011 A 
HETATM   13  C   UNL     1     -10.134   0.923 -33.891  1.00  0.00     0.040 A 
HETATM   14  C   UNL     1      -9.938   2.267 -34.123  1.00  0.00     0.105 A 
HETATM   15  C   UNL     1      -8.747   2.885 -33.829  1.00  0.00     0.105 A 
HETATM   16  O   UNL     1     -10.852   3.123 -34.652  1.00  0.00    -0.323 OA
HETATM   17  C   UNL     1      -7.685   2.194 -33.286  1.00  0.00     0.048 A 
HETATM   18  O   UNL     1      -8.759   4.209 -34.137  1.00  0.00    -0.323 OA
HETATM   19  C   UNL     1     -10.091   4.350 -34.673  1.00  0.00     0.352 A 
ENDBRANCH  10  11
ENDBRANCH   8  10
ENDBRANCH   1   8
BRANCH   6  20
HETATM   20  C   UNL     1      -4.445  -2.863 -33.566  1.00  0.00     0.016 A 
HETATM   21  C   UNL     1      -3.884  -4.131 -33.389  1.00  0.00     0.034 A 
HETATM   22  C   UNL     1      -4.408  -5.195 -34.102  1.00  0.00     0.117 A 
HETATM   23  N   UNL     1      -5.435  -5.077 -34.966  1.00  0.00    -0.273 NA
HETATM   24  C   UNL     1      -5.975  -3.848 -35.107  1.00  0.00     0.117 A 
HETATM   25  C   UNL     1      -5.529  -2.725 -34.430  1.00  0.00     0.034 A 
ENDBRANCH   6  20
TORSDOF 4
ENDMDL
MODEL 8
REMARK VINA RESULT:      -7.0     13.558     15.150
REMARK  4 active torsions:
REMARK  status: ('A' for Active; 'I' for Inactive)
REMARK    1  A    between atoms: C_2  and  C_3 
REMARK    2  A    between atoms: C_3  and  N_4 
REMARK    3  A    between atoms: N_4  and  N_5 
REMARK    4  A    between atoms: C_10  and  C_11 
ROOT
HETATM    1  N   UNL     1      -6.416 -12.664 -38.826  1.00  0.00    -0.231 N 
HETATM    2  C   UNL     1      -5.085 -12.464 -39.144  1.00  0.00     0.211 A 
HETATM    3  S   UNL     1      -3.766 -12.330 -38.148  1.00  0.00    -0.038 SA
HETATM    4  N   UNL     1      -5.043 -12.396 -40.528  1.00  0.00    -0.250 N 
HETATM    5  N   UNL     1      -6.292 -12.576 -41.057  1.00  0.00    -0.152 NA
HETATM    6  C   UNL     1      -7.082 -12.747 -40.024  1.00  0.00     0.177 A 
HETATM    7  H   UNL     1      -4.222 -12.273 -41.110  1.00  0.00     0.191 HD
ENDROOT
BRANCH   1   8
HETATM    8  N   UNL     1      -6.916 -12.789 -37.525  1.00  0.00    -0.225 NA
HETATM    9  H   UNL     1      -7.852 -12.369 -37.526  1.00  0.00     0.147 HD
BRANCH   8  10
HETATM   10  C   UNL     1      -7.066 -14.198 -37.135  1.00  0.00     0.149 C 
BRANCH  10  11
HETATM   11  C   UNL     1      -6.736 -14.391 -35.669  1.00  0.00    -0.041 A 
HETATM   12  C   UNL     1      -6.182 -13.325 -34.920  1.00  0.00     0.011 A 
HETATM   13  C   UNL     1      -5.864 -13.484 -33.566  1.00  0.00     0.040 A 
HETATM   14  C   UNL     1      -6.105 -14.712 -32.990  1.00  0.00     0.105 A 
HETATM   15  C   UNL     1      -6.649 -15.751 -33.704  1.00  0.00     0.105 A 
HETATM   16  O   UNL     1      -5.848 -15.047 -31.698  1.00  0.00    -0.323 OA
HETATM   17  C   UNL     1      -6.981 -15.622 -35.036  1.00  0.00     0.048 A 
HETATM   18  O   UNL     1      -6.801 -16.874 -32.953  1.00  0.00    -0.323 OA
HETATM   19  C   UNL     1      -6.277 -16.425 -31.686  1.00  0.00     0.352 A 
ENDBRANCH  10  11
ENDBRANCH   8  10
ENDBRANCH   1   8
BRANCH   6  20
HETATM   20  C   UNL     1      -8.536 -12.984 -40.181  1.00  0.00     0.016 A 
HETATM   21  C   UNL     1      -8.950 -14.287 -40.473  1.00  0.00     0.034 A 
HETATM   22  C   UNL     1     -10.303 -14.539 -40.611  1.00  0.00     0.117 A 
HETATM   23  N   UNL     1     -11.253 -13.592 -40.482  1.00  0.00    -0.273 NA
HETATM   24  C   UNL     1     -10.834 -12.346 -40.180  1.00  0.00     0.117 A 
HETATM   25  C   UNL     1      -9.504 -11.997 -40.011  1.00  0.00     0.034 A 
ENDBRANCH   6  20
TORSDOF 4
ENDMDL
MODEL 9
REMARK VINA RESULT:      -7.0      2.218      3.048
REMARK  4 active torsions:
REMARK  status: ('A' for Active; 'I' for Inactive)
REMARK    1  A    between atoms: C_2  and  C_3 
REMARK    2  A    between atoms: C_3  and  N_4 
REMARK    3  A    between atoms: N_4  and  N_5 
REMARK    4  A    between atoms: C_10  and  C_11 
ROOT
HETATM    1  N   UNL     1      -9.600   2.417 -32.590  1.00  0.00    -0.231 N 
HETATM    2  C   UNL     1     -10.686   3.035 -33.183  1.00  0.00     0.211 A 
HETATM    3  S   UNL     1     -12.244   2.497 -33.363  1.00  0.00    -0.038 SA
HETATM    4  N   UNL     1     -10.216   4.263 -33.625  1.00  0.00    -0.250 N 
HETATM    5  N   UNL     1      -8.897   4.420 -33.295  1.00  0.00    -0.152 NA
HETATM    6  C   UNL     1      -8.565   3.317 -32.670  1.00  0.00     0.177 A 
HETATM    7  H   UNL     1     -10.747   4.989 -34.092  1.00  0.00     0.191 HD
ENDROOT
BRANCH   1   8
HETATM    8  N   UNL     1      -9.625   1.146 -32.006  1.00  0.00    -0.225 NA
HETATM    9  H   UNL     1     -10.543   1.042 -31.561  1.00  0.00     0.147 HD
BRANCH   8  10
HETATM   10  C   UNL     1      -9.501   0.084 -33.016  1.00  0.00     0.149 C 
BRANCH  10  11
HETATM   11  C   UNL     1      -8.047  -0.265 -33.256  1.00  0.00    -0.041 A 
HETATM   12  C   UNL     1      -7.580  -0.495 -34.572  1.00  0.00     0.011 A 
HETATM   13  C   UNL     1      -6.242  -0.826 -34.816  1.00  0.00     0.040 A 
HETATM   14  C   UNL     1      -5.397  -0.923 -33.732  1.00  0.00     0.105 A 
HETATM   15  C   UNL     1      -5.837  -0.696 -32.450  1.00  0.00     0.105 A 
HETATM   16  O   UNL     1      -4.077  -1.244 -33.779  1.00  0.00    -0.323 OA
HETATM   17  C   UNL     1      -7.146  -0.359 -32.180  1.00  0.00     0.048 A 
HETATM   18  O   UNL     1      -4.849  -0.847 -31.528  1.00  0.00    -0.323 OA
HETATM   19  C   UNL     1      -3.740  -1.210 -32.376  1.00  0.00     0.352 A 
ENDBRANCH  10  11
ENDBRANCH   8  10
ENDBRANCH   1   8
BRANCH   6  20
HETATM   20  C   UNL     1      -7.198   3.099 -32.138  1.00  0.00     0.016 A 
HETATM   21  C   UNL     1      -6.152   3.017 -33.062  1.00  0.00     0.034 A 
HETATM   22  C   UNL     1      -4.865   2.827 -32.593  1.00  0.00     0.117 A 
HETATM   23  N   UNL     1      -4.559   2.716 -31.285  1.00  0.00    -0.273 NA
HETATM   24  C   UNL     1      -5.581   2.819 -30.409  1.00  0.00     0.117 A 
HETATM   25  C   UNL     1      -6.900   3.019 -30.780  1.00  0.00     0.034 A 
ENDBRANCH   6  20
TORSDOF 4
ENDMDL
MODEL 10
REMARK VINA RESULT:      -6.9     13.894     15.574
REMARK  4 active torsions:
REMARK  status: ('A' for Active; 'I' for Inactive)
REMARK    1  A    between atoms: C_2  and  C_3 
REMARK    2  A    between atoms: C_3  and  N_4 
REMARK    3  A    between atoms: N_4  and  N_5 
REMARK    4  A    between atoms: C_10  and  C_11 
ROOT
HETATM    1  N   UNL     1      -5.770 -13.689 -37.137  1.00  0.00    -0.231 N 
HETATM    2  C   UNL     1      -5.366 -13.350 -35.858  1.00  0.00     0.211 A 
HETATM    3  S   UNL     1      -6.055 -13.722 -34.396  1.00  0.00    -0.038 SA
HETATM    4  N   UNL     1      -4.210 -12.602 -36.021  1.00  0.00    -0.250 N 
HETATM    5  N   UNL     1      -3.886 -12.503 -37.348  1.00  0.00    -0.152 NA
HETATM    6  C   UNL     1      -4.820 -13.169 -37.982  1.00  0.00     0.177 A 
HETATM    7  H   UNL     1      -3.631 -12.202 -35.292  1.00  0.00     0.191 HD
ENDROOT
BRANCH   1   8
HETATM    8  N   UNL     1      -6.906 -14.447 -37.442  1.00  0.00    -0.225 NA
HETATM    9  H   UNL     1      -6.990 -15.162 -36.711  1.00  0.00     0.147 HD
BRANCH   8  10
HETATM   10  C   UNL     1      -8.128 -13.631 -37.403  1.00  0.00     0.149 C 
BRANCH  10  11
HETATM   11  C   UNL     1      -9.015 -13.932 -38.592  1.00  0.00    -0.041 A 
HETATM   12  C   UNL     1      -9.642 -12.876 -39.296  1.00  0.00     0.011 A 
HETATM   13  C   UNL     1     -10.471 -13.132 -40.394  1.00  0.00     0.040 A 
HETATM   14  C   UNL     1     -10.659 -14.446 -40.764  1.00  0.00     0.105 A 
HETATM   15  C   UNL     1     -10.052 -15.479 -40.093  1.00  0.00     0.105 A 
HETATM   16  O   UNL     1     -11.437 -14.879 -41.792  1.00  0.00    -0.323 OA
HETATM   17  C   UNL     1      -9.222 -15.257 -39.015  1.00  0.00     0.048 A 
HETATM   18  O   UNL     1     -10.371 -16.695 -40.613  1.00  0.00    -0.323 OA
HETATM   19  C   UNL     1     -11.262 -16.307 -41.680  1.00  0.00     0.352 A 
ENDBRANCH  10  11
ENDBRANCH   8  10
ENDBRANCH   1   8
BRANCH   6  20
HETATM   20  C   UNL     1      -4.820 -13.304 -39.458  1.00  0.00     0.016 A 
HETATM   21  C   UNL     1      -3.724 -13.939 -40.048  1.00  0.00     0.034 A 
HETATM   22  C   UNL     1      -3.705 -14.091 -41.423  1.00  0.00     0.117 A 
HETATM   23  N   UNL     1      -4.691 -13.656 -42.233  1.00  0.00    -0.273 NA
HETATM   24  C   UNL     1      -5.749 -13.064 -41.641  1.00  0.00     0.117 A 
HETATM   25  C   UNL     1      -5.866 -12.876 -40.273  1.00  0.00     0.034 A 
ENDBRANCH   6  20
TORSDOF 4
ENDMDL
