MODEL 1
REMARK VINA RESULT:      -7.4      0.000      0.000
REMARK  8 active torsions:
REMARK  status: ('A' for Active; 'I' for Inactive)
REMARK    1  A    between atoms: C_7  and  C_8 
REMARK    2  A    between atoms: C_11  and  N_12 
REMARK       I    between atoms: N_12  and  C_13 
REMARK    3  A    between atoms: C_13  and  C_14 
REMARK    4  A    between atoms: C_14  and  N_15 
REMARK    5  A    between atoms: N_15  and  C_18 
REMARK    6  A    between atoms: C_18  and  C_19 
REMARK    7  A    between atoms: C_19  and  C_20 
REMARK    8  A    between atoms: C_20  and  O_21 
ROOT
HETATM    1  C   UNL     1      -4.543   1.775 -31.967  1.00  0.00    -0.000 A 
HETATM    2  C   UNL     1      -5.414   2.457 -31.107  1.00  0.00     0.016 A 
HETATM    3  C   UNL     1      -5.084   3.717 -30.588  1.00  0.00     0.030 A 
HETATM    4  C   UNL     1      -3.876   4.330 -30.918  1.00  0.00     0.034 A 
HETATM    5  C   UNL     1      -2.988   3.647 -31.756  1.00  0.00     0.030 A 
HETATM    6  C   UNL     1      -3.322   2.390 -32.278  1.00  0.00     0.016 A 
ENDROOT
BRANCH   4   7
HETATM    7  N   UNL     1      -3.496   5.621 -30.483  1.00  0.00    -0.326 N 
HETATM    8  C   UNL     1      -3.600   6.791 -31.203  1.00  0.00     0.247 C 
HETATM    9  O   UNL     1      -4.087   6.945 -32.324  1.00  0.00    -0.271 OA
HETATM   10  H   UNL     1      -3.070   5.646 -29.563  1.00  0.00     0.169 HD
BRANCH   8  11
HETATM   11  C   UNL     1      -2.993   8.021 -30.524  1.00  0.00     0.334 C 
BRANCH  11  12
HETATM   12  N   UNL     1      -1.509   7.802 -30.344  1.00  0.00    -0.067 N 
HETATM   13  H   UNL     1      -1.113   8.654 -29.920  1.00  0.00     0.277 HD
HETATM   14  H   UNL     1      -1.405   7.098 -29.594  1.00  0.00     0.277 HD
BRANCH  12  15
HETATM   15  C   UNL     1      -0.757   7.396 -31.560  1.00  0.00     0.235 C 
BRANCH  15  16
HETATM   16  C   UNL     1       0.519   6.682 -31.132  1.00  0.00     0.053 C 
BRANCH  16  17
HETATM   17  C   UNL     1       0.255   5.217 -30.816  1.00  0.00     0.165 C 
BRANCH  17  18
HETATM   18  O   UNL     1      -0.508   5.146 -29.624  1.00  0.00    -0.401 OA
HETATM   19  H   UNL     1      -0.757   6.060 -29.383  1.00  0.00     0.209 HD
ENDBRANCH  17  18
ENDBRANCH  16  17
ENDBRANCH  15  16
ENDBRANCH  12  15
ENDBRANCH  11  12
ENDBRANCH   8  11
ENDBRANCH   4   7
BRANCH   1  20
HETATM   20  C   UNL     1      -4.878   0.482 -32.594  1.00  0.00     0.109 A 
HETATM   21  N   UNL     1      -4.042  -0.535 -32.653  1.00  0.00    -0.240 NA
HETATM   22  C   UNL     1      -4.610  -1.588 -33.352  1.00  0.00     0.075 A 
HETATM   23  C   UNL     1      -5.914  -1.375 -33.795  1.00  0.00     0.036 A 
HETATM   24  C   UNL     1      -3.987  -2.816 -33.648  1.00  0.00     0.033 A 
HETATM   25  C   UNL     1      -6.622  -2.345 -34.526  1.00  0.00     0.028 A 
HETATM   26  S   UNL     1      -6.419   0.193 -33.305  1.00  0.00    -0.067 SA
HETATM   27  C   UNL     1      -5.985  -3.561 -34.820  1.00  0.00    -0.061 A 
HETATM   28  C   UNL     1      -6.695  -4.618 -35.617  1.00  0.00     0.048 C 
HETATM   29  C   UNL     1      -4.678  -3.788 -34.382  1.00  0.00     0.009 A 
ENDBRANCH   1  20
TORSDOF 8
ENDMDL
MODEL 2
REMARK VINA RESULT:      -7.2      0.829      1.267
REMARK  8 active torsions:
REMARK  status: ('A' for Active; 'I' for Inactive)
REMARK    1  A    between atoms: C_7  and  C_8 
REMARK    2  A    between atoms: C_11  and  N_12 
REMARK       I    between atoms: N_12  and  C_13 
REMARK    3  A    between atoms: C_13  and  C_14 
REMARK    4  A    between atoms: C_14  and  N_15 
REMARK    5  A    between atoms: N_15  and  C_18 
REMARK    6  A    between atoms: C_18  and  C_19 
REMARK    7  A    between atoms: C_19  and  C_20 
REMARK    8  A    between atoms: C_20  and  O_21 
ROOT
HETATM    1  C   UNL     1      -4.440   2.030 -32.258  1.00  0.00    -0.000 A 
HETATM    2  C   UNL     1      -3.175   2.606 -32.439  1.00  0.00     0.016 A 
HETATM    3  C   UNL     1      -2.843   3.830 -31.841  1.00  0.00     0.030 A 
HETATM    4  C   UNL     1      -3.765   4.510 -31.046  1.00  0.00     0.034 A 
HETATM    5  C   UNL     1      -5.039   3.956 -30.881  1.00  0.00     0.030 A 
HETATM    6  C   UNL     1      -5.368   2.730 -31.473  1.00  0.00     0.016 A 
ENDROOT
BRANCH   4   7
HETATM    7  N   UNL     1      -3.488   5.718 -30.365  1.00  0.00    -0.326 N 
HETATM    8  C   UNL     1      -3.275   6.952 -30.939  1.00  0.00     0.247 C 
HETATM    9  O   UNL     1      -3.341   7.248 -32.132  1.00  0.00    -0.271 OA
HETATM   10  H   UNL     1      -3.401   5.622 -29.359  1.00  0.00     0.169 HD
BRANCH   8  11
HETATM   11  C   UNL     1      -2.872   8.056 -29.960  1.00  0.00     0.334 C 
BRANCH  11  12
HETATM   12  N   UNL     1      -1.941   7.477 -28.921  1.00  0.00    -0.067 N 
HETATM   13  H   UNL     1      -2.336   7.684 -27.991  1.00  0.00     0.277 HD
HETATM   14  H   UNL     1      -2.030   6.449 -28.988  1.00  0.00     0.277 HD
BRANCH  12  15
HETATM   15  C   UNL     1      -0.517   7.893 -29.015  1.00  0.00     0.235 C 
BRANCH  15  16
HETATM   16  C   UNL     1       0.192   6.993 -30.020  1.00  0.00     0.053 C 
BRANCH  16  17
HETATM   17  C   UNL     1       0.169   5.539 -29.574  1.00  0.00     0.165 C 
BRANCH  17  18
HETATM   18  O   UNL     1       0.041   5.504 -28.163  1.00  0.00    -0.401 OA
HETATM   19  H   UNL     1       0.657   4.821 -27.832  1.00  0.00     0.209 HD
ENDBRANCH  17  18
ENDBRANCH  16  17
ENDBRANCH  15  16
ENDBRANCH  12  15
ENDBRANCH  11  12
ENDBRANCH   8  11
ENDBRANCH   4   7
BRANCH   1  20
HETATM   20  C   UNL     1      -4.810   0.711 -32.806  1.00  0.00     0.109 A 
HETATM   21  N   UNL     1      -4.004  -0.332 -32.796  1.00  0.00    -0.240 NA
HETATM   22  C   UNL     1      -4.599  -1.409 -33.431  1.00  0.00     0.075 A 
HETATM   23  C   UNL     1      -5.895  -1.187 -33.895  1.00  0.00     0.036 A 
HETATM   24  C   UNL     1      -4.011  -2.671 -33.645  1.00  0.00     0.033 A 
HETATM   25  C   UNL     1      -6.627  -2.181 -34.567  1.00  0.00     0.028 A 
HETATM   26  S   UNL     1      -6.355   0.422 -33.506  1.00  0.00    -0.067 SA
HETATM   27  C   UNL     1      -6.025  -3.430 -34.781  1.00  0.00    -0.061 A 
HETATM   28  C   UNL     1      -6.762  -4.514 -35.515  1.00  0.00     0.048 C 
HETATM   29  C   UNL     1      -4.727  -3.667 -34.321  1.00  0.00     0.009 A 
ENDBRANCH   1  20
TORSDOF 8
ENDMDL
MODEL 3
REMARK VINA RESULT:      -7.1      1.452      1.656
REMARK  8 active torsions:
REMARK  status: ('A' for Active; 'I' for Inactive)
REMARK    1  A    between atoms: C_7  and  C_8 
REMARK    2  A    between atoms: C_11  and  N_12 
REMARK       I    between atoms: N_12  and  C_13 
REMARK    3  A    between atoms: C_13  and  C_14 
REMARK    4  A    between atoms: C_14  and  N_15 
REMARK    5  A    between atoms: N_15  and  C_18 
REMARK    6  A    between atoms: C_18  and  C_19 
REMARK    7  A    between atoms: C_19  and  C_20 
REMARK    8  A    between atoms: C_20  and  O_21 
ROOT
HETATM    1  C   UNL     1      -4.352   2.126 -32.234  1.00  0.00    -0.000 A 
HETATM    2  C   UNL     1      -5.121   2.822 -31.292  1.00  0.00     0.016 A 
HETATM    3  C   UNL     1      -4.754   4.105 -30.860  1.00  0.00     0.030 A 
HETATM    4  C   UNL     1      -3.610   4.725 -31.359  1.00  0.00     0.034 A 
HETATM    5  C   UNL     1      -2.821   4.028 -32.281  1.00  0.00     0.030 A 
HETATM    6  C   UNL     1      -3.193   2.750 -32.717  1.00  0.00     0.016 A 
ENDROOT
BRANCH   4   7
HETATM    7  N   UNL     1      -3.204   6.036 -31.017  1.00  0.00    -0.326 N 
HETATM    8  C   UNL     1      -1.958   6.418 -30.573  1.00  0.00     0.247 C 
HETATM    9  O   UNL     1      -0.956   5.714 -30.444  1.00  0.00    -0.271 OA
HETATM   10  H   UNL     1      -3.940   6.732 -31.075  1.00  0.00     0.169 HD
BRANCH   8  11
HETATM   11  C   UNL     1      -1.844   7.887 -30.159  1.00  0.00     0.334 C 
BRANCH  11  12
HETATM   12  N   UNL     1      -1.785   7.970 -28.651  1.00  0.00    -0.067 N 
HETATM   13  H   UNL     1      -2.684   8.349 -28.319  1.00  0.00     0.277 HD
HETATM   14  H   UNL     1      -1.800   6.997 -28.303  1.00  0.00     0.277 HD
BRANCH  12  15
HETATM   15  C   UNL     1      -0.633   8.719 -28.084  1.00  0.00     0.235 C 
BRANCH  15  16
HETATM   16  C   UNL     1       0.639   7.912 -28.315  1.00  0.00     0.053 C 
BRANCH  16  17
HETATM   17  C   UNL     1       0.766   6.778 -27.308  1.00  0.00     0.165 C 
BRANCH  17  18
HETATM   18  O   UNL     1      -0.105   5.730 -27.699  1.00  0.00    -0.401 OA
HETATM   19  H   UNL     1      -0.971   5.900 -27.278  1.00  0.00     0.209 HD
ENDBRANCH  17  18
ENDBRANCH  16  17
ENDBRANCH  15  16
ENDBRANCH  12  15
ENDBRANCH  11  12
ENDBRANCH   8  11
ENDBRANCH   4   7
BRANCH   1  20
HETATM   20  C   UNL     1      -4.738   0.807 -32.773  1.00  0.00     0.109 A 
HETATM   21  N   UNL     1      -3.943  -0.244 -32.759  1.00  0.00    -0.240 NA
HETATM   22  C   UNL     1      -4.551  -1.319 -33.386  1.00  0.00     0.075 A 
HETATM   23  C   UNL     1      -5.845  -1.085 -33.849  1.00  0.00     0.036 A 
HETATM   24  C   UNL     1      -3.977  -2.588 -33.594  1.00  0.00     0.033 A 
HETATM   25  C   UNL     1      -6.589  -2.075 -34.514  1.00  0.00     0.028 A 
HETATM   26  S   UNL     1      -6.288   0.531 -33.469  1.00  0.00    -0.067 SA
HETATM   27  C   UNL     1      -6.002  -3.332 -34.721  1.00  0.00    -0.061 A 
HETATM   28  C   UNL     1      -6.752  -4.412 -35.448  1.00  0.00     0.048 C 
HETATM   29  C   UNL     1      -4.705  -3.580 -34.263  1.00  0.00     0.009 A 
ENDBRANCH   1  20
TORSDOF 8
ENDMDL
MODEL 4
REMARK VINA RESULT:      -7.0      1.341      1.663
REMARK  8 active torsions:
REMARK  status: ('A' for Active; 'I' for Inactive)
REMARK    1  A    between atoms: C_7  and  C_8 
REMARK    2  A    between atoms: C_11  and  N_12 
REMARK       I    between atoms: N_12  and  C_13 
REMARK    3  A    between atoms: C_13  and  C_14 
REMARK    4  A    between atoms: C_14  and  N_15 
REMARK    5  A    between atoms: N_15  and  C_18 
REMARK    6  A    between atoms: C_18  and  C_19 
REMARK    7  A    between atoms: C_19  and  C_20 
REMARK    8  A    between atoms: C_20  and  O_21 
ROOT
HETATM    1  C   UNL     1      -4.401   2.048 -32.053  1.00  0.00    -0.000 A 
HETATM    2  C   UNL     1      -5.299   2.757 -31.244  1.00  0.00     0.016 A 
HETATM    3  C   UNL     1      -4.950   3.993 -30.682  1.00  0.00     0.030 A 
HETATM    4  C   UNL     1      -3.694   4.554 -30.915  1.00  0.00     0.034 A 
HETATM    5  C   UNL     1      -2.781   3.843 -31.701  1.00  0.00     0.030 A 
HETATM    6  C   UNL     1      -3.133   2.610 -32.267  1.00  0.00     0.016 A 
ENDROOT
BRANCH   4   7
HETATM    7  N   UNL     1      -3.288   5.820 -30.432  1.00  0.00    -0.326 N 
HETATM    8  C   UNL     1      -3.181   6.980 -31.167  1.00  0.00     0.247 C 
HETATM    9  O   UNL     1      -3.467   7.150 -32.352  1.00  0.00    -0.271 OA
HETATM   10  H   UNL     1      -3.016   5.830 -29.455  1.00  0.00     0.169 HD
BRANCH   8  11
HETATM   11  C   UNL     1      -2.597   8.172 -30.405  1.00  0.00     0.334 C 
BRANCH  11  12
HETATM   12  N   UNL     1      -1.135   7.909 -30.127  1.00  0.00    -0.067 N 
HETATM   13  H   UNL     1      -0.930   6.938 -30.405  1.00  0.00     0.277 HD
HETATM   14  H   UNL     1      -0.601   8.466 -30.815  1.00  0.00     0.277 HD
BRANCH  12  15
HETATM   15  C   UNL     1      -0.673   8.192 -28.742  1.00  0.00     0.235 C 
BRANCH  15  16
HETATM   16  C   UNL     1      -0.630   6.883 -27.963  1.00  0.00     0.053 C 
BRANCH  16  17
HETATM   17  C   UNL     1       0.351   5.900 -28.585  1.00  0.00     0.165 C 
BRANCH  17  18
HETATM   18  O   UNL     1      -0.348   5.103 -29.526  1.00  0.00    -0.401 OA
HETATM   19  H   UNL     1      -0.119   5.437 -30.416  1.00  0.00     0.209 HD
ENDBRANCH  17  18
ENDBRANCH  16  17
ENDBRANCH  15  16
ENDBRANCH  12  15
ENDBRANCH  11  12
ENDBRANCH   8  11
ENDBRANCH   4   7
BRANCH   1  20
HETATM   20  C   UNL     1      -4.748   0.781 -32.724  1.00  0.00     0.109 A 
HETATM   21  N   UNL     1      -5.957   0.504 -33.172  1.00  0.00    -0.240 NA
HETATM   22  C   UNL     1      -5.997  -0.777 -33.697  1.00  0.00     0.075 A 
HETATM   23  C   UNL     1      -4.785  -1.466 -33.682  1.00  0.00     0.036 A 
HETATM   24  C   UNL     1      -7.134  -1.421 -34.223  1.00  0.00     0.033 A 
HETATM   25  C   UNL     1      -4.666  -2.778 -34.172  1.00  0.00     0.028 A 
HETATM   26  S   UNL     1      -3.580  -0.454 -32.989  1.00  0.00    -0.067 SA
HETATM   27  C   UNL     1      -5.809  -3.410 -34.684  1.00  0.00    -0.061 A 
HETATM   28  C   UNL     1      -5.733  -4.819 -35.198  1.00  0.00     0.048 C 
HETATM   29  C   UNL     1      -7.030  -2.731 -34.706  1.00  0.00     0.009 A 
ENDBRANCH   1  20
TORSDOF 8
ENDMDL
MODEL 5
REMARK VINA RESULT:      -6.8      3.591      4.506
REMARK  8 active torsions:
REMARK  status: ('A' for Active; 'I' for Inactive)
REMARK    1  A    between atoms: C_7  and  C_8 
REMARK    2  A    between atoms: C_11  and  N_12 
REMARK       I    between atoms: N_12  and  C_13 
REMARK    3  A    between atoms: C_13  and  C_14 
REMARK    4  A    between atoms: C_14  and  N_15 
REMARK    5  A    between atoms: N_15  and  C_18 
REMARK    6  A    between atoms: C_18  and  C_19 
REMARK    7  A    between atoms: C_19  and  C_20 
REMARK    8  A    between atoms: C_20  and  O_21 
ROOT
HETATM    1  C   UNL     1      -5.796   2.821 -32.398  1.00  0.00    -0.000 A 
HETATM    2  C   UNL     1      -4.646   2.026 -32.486  1.00  0.00     0.016 A 
HETATM    3  C   UNL     1      -3.396   2.507 -32.068  1.00  0.00     0.030 A 
HETATM    4  C   UNL     1      -3.266   3.795 -31.549  1.00  0.00     0.034 A 
HETATM    5  C   UNL     1      -4.404   4.605 -31.480  1.00  0.00     0.030 A 
HETATM    6  C   UNL     1      -5.652   4.121 -31.892  1.00  0.00     0.016 A 
ENDROOT
BRANCH   4   7
HETATM    7  N   UNL     1      -2.054   4.331 -31.055  1.00  0.00    -0.326 N 
HETATM    8  C   UNL     1      -1.084   4.977 -31.790  1.00  0.00     0.247 C 
HETATM    9  O   UNL     1      -1.110   5.257 -32.989  1.00  0.00    -0.271 OA
HETATM   10  H   UNL     1      -1.895   4.170 -30.066  1.00  0.00     0.169 HD
BRANCH   8  11
HETATM   11  C   UNL     1       0.180   5.341 -31.008  1.00  0.00     0.334 C 
BRANCH  11  12
HETATM   12  N   UNL     1      -0.033   5.013 -29.548  1.00  0.00    -0.067 N 
HETATM   13  H   UNL     1      -1.048   4.942 -29.385  1.00  0.00     0.277 HD
HETATM   14  H   UNL     1       0.293   4.041 -29.416  1.00  0.00     0.277 HD
BRANCH  12  15
HETATM   15  C   UNL     1       0.616   5.928 -28.573  1.00  0.00     0.235 C 
BRANCH  15  16
HETATM   16  C   UNL     1      -0.443   6.444 -27.605  1.00  0.00     0.053 C 
BRANCH  16  17
HETATM   17  C   UNL     1      -1.461   7.324 -28.316  1.00  0.00     0.165 C 
BRANCH  17  18
HETATM   18  O   UNL     1      -2.443   6.488 -28.905  1.00  0.00    -0.401 OA
HETATM   19  H   UNL     1      -2.494   5.675 -28.365  1.00  0.00     0.209 HD
ENDBRANCH  17  18
ENDBRANCH  16  17
ENDBRANCH  15  16
ENDBRANCH  12  15
ENDBRANCH  11  12
ENDBRANCH   8  11
ENDBRANCH   4   7
BRANCH   1  20
HETATM   20  C   UNL     1      -7.142   2.333 -32.756  1.00  0.00     0.109 A 
HETATM   21  N   UNL     1      -7.966   2.989 -33.549  1.00  0.00    -0.240 NA
HETATM   22  C   UNL     1      -9.174   2.320 -33.652  1.00  0.00     0.075 A 
HETATM   23  C   UNL     1      -9.250   1.115 -32.954  1.00  0.00     0.036 A 
HETATM   24  C   UNL     1     -10.300   2.753 -34.379  1.00  0.00     0.033 A 
HETATM   25  C   UNL     1     -10.412   0.325 -32.954  1.00  0.00     0.028 A 
HETATM   26  S   UNL     1      -7.751   0.837 -32.161  1.00  0.00    -0.067 SA
HETATM   27  C   UNL     1     -11.529   0.774 -33.676  1.00  0.00    -0.061 A 
HETATM   28  C   UNL     1     -12.801  -0.027 -33.685  1.00  0.00     0.048 C 
HETATM   29  C   UNL     1     -11.467   1.979 -34.380  1.00  0.00     0.009 A 
ENDBRANCH   1  20
TORSDOF 8
ENDMDL
MODEL 6
REMARK VINA RESULT:      -6.5      2.251      3.058
REMARK  8 active torsions:
REMARK  status: ('A' for Active; 'I' for Inactive)
REMARK    1  A    between atoms: C_7  and  C_8 
REMARK    2  A    between atoms: C_11  and  N_12 
REMARK       I    between atoms: N_12  and  C_13 
REMARK    3  A    between atoms: C_13  and  C_14 
REMARK    4  A    between atoms: C_14  and  N_15 
REMARK    5  A    between atoms: N_15  and  C_18 
REMARK    6  A    between atoms: C_18  and  C_19 
REMARK    7  A    between atoms: C_19  and  C_20 
REMARK    8  A    between atoms: C_20  and  O_21 
ROOT
HETATM    1  C   UNL     1      -4.058   3.757 -32.057  1.00  0.00    -0.000 A 
HETATM    2  C   UNL     1      -2.677   3.956 -31.929  1.00  0.00     0.016 A 
HETATM    3  C   UNL     1      -2.162   5.099 -31.301  1.00  0.00     0.030 A 
HETATM    4  C   UNL     1      -3.015   6.073 -30.783  1.00  0.00     0.034 A 
HETATM    5  C   UNL     1      -4.395   5.897 -30.928  1.00  0.00     0.030 A 
HETATM    6  C   UNL     1      -4.908   4.751 -31.550  1.00  0.00     0.016 A 
ENDROOT
BRANCH   4   7
HETATM    7  N   UNL     1      -2.576   7.224 -30.087  1.00  0.00    -0.326 N 
HETATM    8  C   UNL     1      -2.769   7.495 -28.750  1.00  0.00     0.247 C 
HETATM    9  O   UNL     1      -3.301   6.775 -27.905  1.00  0.00    -0.271 OA
HETATM   10  H   UNL     1      -2.116   7.916 -30.668  1.00  0.00     0.169 HD
BRANCH   8  11
HETATM   11  C   UNL     1      -2.292   8.877 -28.299  1.00  0.00     0.334 C 
BRANCH  11  12
HETATM   12  N   UNL     1      -1.140   8.710 -27.336  1.00  0.00    -0.067 N 
HETATM   13  H   UNL     1      -1.238   9.423 -26.598  1.00  0.00     0.277 HD
HETATM   14  H   UNL     1      -1.309   7.825 -26.827  1.00  0.00     0.277 HD
BRANCH  12  15
HETATM   15  C   UNL     1       0.221   8.726 -27.936  1.00  0.00     0.235 C 
BRANCH  15  16
HETATM   16  C   UNL     1       0.996   7.517 -27.424  1.00  0.00     0.053 C 
BRANCH  16  17
HETATM   17  C   UNL     1       0.429   6.219 -27.981  1.00  0.00     0.165 C 
BRANCH  17  18
HETATM   18  O   UNL     1      -0.487   5.689 -27.038  1.00  0.00    -0.401 OA
HETATM   19  H   UNL     1      -0.022   5.634 -26.180  1.00  0.00     0.209 HD
ENDBRANCH  17  18
ENDBRANCH  16  17
ENDBRANCH  15  16
ENDBRANCH  12  15
ENDBRANCH  11  12
ENDBRANCH   8  11
ENDBRANCH   4   7
BRANCH   1  20
HETATM   20  C   UNL     1      -4.646   2.538 -32.644  1.00  0.00     0.109 A 
HETATM   21  N   UNL     1      -5.670   2.551 -33.473  1.00  0.00    -0.240 NA
HETATM   22  C   UNL     1      -6.039   1.259 -33.808  1.00  0.00     0.075 A 
HETATM   23  C   UNL     1      -5.253   0.251 -33.251  1.00  0.00     0.036 A 
HETATM   24  C   UNL     1      -7.119   0.895 -34.635  1.00  0.00     0.033 A 
HETATM   25  C   UNL     1      -5.507  -1.110 -33.489  1.00  0.00     0.028 A 
HETATM   26  S   UNL     1      -4.024   0.973 -32.290  1.00  0.00    -0.067 SA
HETATM   27  C   UNL     1      -6.591  -1.458 -34.309  1.00  0.00    -0.061 A 
HETATM   28  C   UNL     1      -6.913  -2.902 -34.573  1.00  0.00     0.048 C 
HETATM   29  C   UNL     1      -7.387  -0.459 -34.874  1.00  0.00     0.009 A 
ENDBRANCH   1  20
TORSDOF 8
ENDMDL
MODEL 7
REMARK VINA RESULT:      -6.2      5.412      6.749
REMARK  8 active torsions:
REMARK  status: ('A' for Active; 'I' for Inactive)
REMARK    1  A    between atoms: C_7  and  C_8 
REMARK    2  A    between atoms: C_11  and  N_12 
REMARK       I    between atoms: N_12  and  C_13 
REMARK    3  A    between atoms: C_13  and  C_14 
REMARK    4  A    between atoms: C_14  and  N_15 
REMARK    5  A    between atoms: N_15  and  C_18 
REMARK    6  A    between atoms: C_18  and  C_19 
REMARK    7  A    between atoms: C_19  and  C_20 
REMARK    8  A    between atoms: C_20  and  O_21 
ROOT
HETATM    1  C   UNL     1      -8.047   2.621 -31.231  1.00  0.00    -0.000 A 
HETATM    2  C   UNL     1      -9.395   2.764 -30.875  1.00  0.00     0.016 A 
HETATM    3  C   UNL     1      -9.869   3.947 -30.289  1.00  0.00     0.030 A 
HETATM    4  C   UNL     1      -9.009   5.017 -30.044  1.00  0.00     0.034 A 
HETATM    5  C   UNL     1      -7.657   4.875 -30.373  1.00  0.00     0.030 A 
HETATM    6  C   UNL     1      -7.185   3.696 -30.965  1.00  0.00     0.016 A 
ENDROOT
BRANCH   4   7
HETATM    7  N   UNL     1      -9.421   6.260 -29.510  1.00  0.00    -0.326 N 
HETATM    8  C   UNL     1      -8.904   6.884 -28.396  1.00  0.00     0.247 C 
HETATM    9  O   UNL     1      -7.962   6.514 -27.695  1.00  0.00    -0.271 OA
HETATM   10  H   UNL     1     -10.205   6.686 -29.993  1.00  0.00     0.169 HD
BRANCH   8  11
HETATM   11  C   UNL     1      -9.632   8.164 -27.980  1.00  0.00     0.334 C 
BRANCH  11  12
HETATM   12  N   UNL     1     -10.908   7.793 -27.259  1.00  0.00    -0.067 N 
HETATM   13  H   UNL     1     -11.655   7.703 -27.964  1.00  0.00     0.277 HD
HETATM   14  H   UNL     1     -10.784   6.821 -26.927  1.00  0.00     0.277 HD
BRANCH  12  15
HETATM   15  C   UNL     1     -11.312   8.688 -26.144  1.00  0.00     0.235 C 
BRANCH  15  16
HETATM   16  C   UNL     1     -11.228   7.910 -24.836  1.00  0.00     0.053 C 
BRANCH  16  17
HETATM   17  C   UNL     1     -12.601   7.432 -24.386  1.00  0.00     0.165 C 
BRANCH  17  18
HETATM   18  O   UNL     1     -13.198   6.715 -25.452  1.00  0.00    -0.401 OA
HETATM   19  H   UNL     1     -13.195   5.769 -25.204  1.00  0.00     0.209 HD
ENDBRANCH  17  18
ENDBRANCH  16  17
ENDBRANCH  15  16
ENDBRANCH  12  15
ENDBRANCH  11  12
ENDBRANCH   8  11
ENDBRANCH   4   7
BRANCH   1  20
HETATM   20  C   UNL     1      -7.517   1.427 -31.917  1.00  0.00     0.109 A 
HETATM   21  N   UNL     1      -6.242   1.092 -31.912  1.00  0.00    -0.240 NA
HETATM   22  C   UNL     1      -6.036  -0.037 -32.687  1.00  0.00     0.075 A 
HETATM   23  C   UNL     1      -7.183  -0.588 -33.257  1.00  0.00     0.036 A 
HETATM   24  C   UNL     1      -4.793  -0.649 -32.943  1.00  0.00     0.033 A 
HETATM   25  C   UNL     1      -7.136  -1.729 -34.076  1.00  0.00     0.028 A 
HETATM   26  S   UNL     1      -8.543   0.353 -32.787  1.00  0.00    -0.067 SA
HETATM   27  C   UNL     1      -5.890  -2.323 -34.329  1.00  0.00    -0.061 A 
HETATM   28  C   UNL     1      -5.788  -3.530 -35.217  1.00  0.00     0.048 C 
HETATM   29  C   UNL     1      -4.732  -1.781 -33.765  1.00  0.00     0.009 A 
ENDBRANCH   1  20
TORSDOF 8
ENDMDL
MODEL 8
REMARK VINA RESULT:      -6.2      6.074      7.614
REMARK  8 active torsions:
REMARK  status: ('A' for Active; 'I' for Inactive)
REMARK    1  A    between atoms: C_7  and  C_8 
REMARK    2  A    between atoms: C_11  and  N_12 
REMARK       I    between atoms: N_12  and  C_13 
REMARK    3  A    between atoms: C_13  and  C_14 
REMARK    4  A    between atoms: C_14  and  N_15 
REMARK    5  A    between atoms: N_15  and  C_18 
REMARK    6  A    between atoms: C_18  and  C_19 
REMARK    7  A    between atoms: C_19  and  C_20 
REMARK    8  A    between atoms: C_20  and  O_21 
ROOT
HETATM    1  C   UNL     1      -8.363   0.866 -33.580  1.00  0.00    -0.000 A 
HETATM    2  C   UNL     1      -8.328   1.709 -32.462  1.00  0.00     0.016 A 
HETATM    3  C   UNL     1      -9.275   2.730 -32.292  1.00  0.00     0.030 A 
HETATM    4  C   UNL     1     -10.282   2.933 -33.235  1.00  0.00     0.034 A 
HETATM    5  C   UNL     1     -10.310   2.113 -34.368  1.00  0.00     0.030 A 
HETATM    6  C   UNL     1      -9.368   1.089 -34.533  1.00  0.00     0.016 A 
ENDROOT
BRANCH   4   7
HETATM    7  N   UNL     1     -11.305   3.901 -33.107  1.00  0.00    -0.326 N 
HETATM    8  C   UNL     1     -12.642   3.655 -32.887  1.00  0.00     0.247 C 
HETATM    9  O   UNL     1     -13.187   2.566 -32.704  1.00  0.00    -0.271 OA
HETATM   10  H   UNL     1     -10.996   4.858 -33.239  1.00  0.00     0.169 HD
BRANCH   8  11
HETATM   11  C   UNL     1     -13.538   4.895 -32.918  1.00  0.00     0.334 C 
BRANCH  11  12
HETATM   12  N   UNL     1     -13.700   5.350 -34.350  1.00  0.00    -0.067 N 
HETATM   13  H   UNL     1     -13.245   4.652 -34.957  1.00  0.00     0.277 HD
HETATM   14  H   UNL     1     -14.702   5.240 -34.580  1.00  0.00     0.277 HD
BRANCH  12  15
HETATM   15  C   UNL     1     -13.233   6.728 -34.655  1.00  0.00     0.235 C 
BRANCH  15  16
HETATM   16  C   UNL     1     -12.088   6.647 -35.657  1.00  0.00     0.053 C 
BRANCH  16  17
HETATM   17  C   UNL     1     -10.761   7.022 -35.013  1.00  0.00     0.165 C 
BRANCH  17  18
HETATM   18  O   UNL     1      -9.711   6.518 -35.821  1.00  0.00    -0.401 OA
HETATM   19  H   UNL     1      -9.825   6.898 -36.715  1.00  0.00     0.209 HD
ENDBRANCH  17  18
ENDBRANCH  16  17
ENDBRANCH  15  16
ENDBRANCH  12  15
ENDBRANCH  11  12
ENDBRANCH   8  11
ENDBRANCH   4   7
BRANCH   1  20
HETATM   20  C   UNL     1      -7.435  -0.266 -33.765  1.00  0.00     0.109 A 
HETATM   21  N   UNL     1      -7.769  -1.389 -34.370  1.00  0.00    -0.240 NA
HETATM   22  C   UNL     1      -6.716  -2.287 -34.339  1.00  0.00     0.075 A 
HETATM   23  C   UNL     1      -5.550  -1.820 -33.732  1.00  0.00     0.036 A 
HETATM   24  C   UNL     1      -6.732  -3.600 -34.849  1.00  0.00     0.033 A 
HETATM   25  C   UNL     1      -4.398  -2.617 -33.616  1.00  0.00     0.028 A 
HETATM   26  S   UNL     1      -5.810  -0.206 -33.201  1.00  0.00    -0.067 SA
HETATM   27  C   UNL     1      -4.433  -3.925 -34.121  1.00  0.00    -0.061 A 
HETATM   28  C   UNL     1      -3.233  -4.821 -33.998  1.00  0.00     0.048 C 
HETATM   29  C   UNL     1      -5.594  -4.407 -34.731  1.00  0.00     0.009 A 
ENDBRANCH   1  20
TORSDOF 8
ENDMDL
MODEL 9
REMARK VINA RESULT:      -6.2      6.610      9.805
REMARK  8 active torsions:
REMARK  status: ('A' for Active; 'I' for Inactive)
REMARK    1  A    between atoms: C_7  and  C_8 
REMARK    2  A    between atoms: C_11  and  N_12 
REMARK       I    between atoms: N_12  and  C_13 
REMARK    3  A    between atoms: C_13  and  C_14 
REMARK    4  A    between atoms: C_14  and  N_15 
REMARK    5  A    between atoms: N_15  and  C_18 
REMARK    6  A    between atoms: C_18  and  C_19 
REMARK    7  A    between atoms: C_19  and  C_20 
REMARK    8  A    between atoms: C_20  and  O_21 
ROOT
HETATM    1  C   UNL     1       0.312   8.364 -27.707  1.00  0.00    -0.000 A 
HETATM    2  C   UNL     1      -0.087   9.662 -27.362  1.00  0.00     0.016 A 
HETATM    3  C   UNL     1       0.628  10.414 -26.418  1.00  0.00     0.030 A 
HETATM    4  C   UNL     1       1.760   9.888 -25.797  1.00  0.00     0.034 A 
HETATM    5  C   UNL     1       2.152   8.584 -26.116  1.00  0.00     0.030 A 
HETATM    6  C   UNL     1       1.441   7.836 -27.064  1.00  0.00     0.016 A 
ENDROOT
BRANCH   4   7
HETATM    7  N   UNL     1       2.566  10.602 -24.879  1.00  0.00    -0.326 N 
HETATM    8  C   UNL     1       2.533  10.497 -23.506  1.00  0.00     0.247 C 
HETATM    9  O   UNL     1       1.848   9.733 -22.826  1.00  0.00    -0.271 OA
HETATM   10  H   UNL     1       3.187  11.281 -25.305  1.00  0.00     0.169 HD
BRANCH   8  11
HETATM   11  C   UNL     1       3.433  11.486 -22.763  1.00  0.00     0.334 C 
BRANCH  11  12
HETATM   12  N   UNL     1       4.877  11.158 -23.063  1.00  0.00    -0.067 N 
HETATM   13  H   UNL     1       4.931  10.826 -24.038  1.00  0.00     0.277 HD
HETATM   14  H   UNL     1       5.382  12.060 -23.096  1.00  0.00     0.277 HD
BRANCH  12  15
HETATM   15  C   UNL     1       5.540  10.213 -22.126  1.00  0.00     0.235 C 
BRANCH  15  16
HETATM   16  C   UNL     1       6.329   9.191 -22.936  1.00  0.00     0.053 C 
BRANCH  16  17
HETATM   17  C   UNL     1       5.727   7.800 -22.808  1.00  0.00     0.165 C 
BRANCH  17  18
HETATM   18  O   UNL     1       4.331   7.891 -23.038  1.00  0.00    -0.401 OA
HETATM   19  H   UNL     1       3.889   7.344 -22.359  1.00  0.00     0.209 HD
ENDBRANCH  17  18
ENDBRANCH  16  17
ENDBRANCH  15  16
ENDBRANCH  12  15
ENDBRANCH  11  12
ENDBRANCH   8  11
ENDBRANCH   4   7
BRANCH   1  20
HETATM   20  C   UNL     1      -0.364   7.564 -28.747  1.00  0.00     0.109 A 
HETATM   21  N   UNL     1       0.281   6.884 -29.674  1.00  0.00    -0.240 NA
HETATM   22  C   UNL     1      -0.614   6.283 -30.544  1.00  0.00     0.075 A 
HETATM   23  C   UNL     1      -1.961   6.482 -30.245  1.00  0.00     0.036 A 
HETATM   24  C   UNL     1      -0.279   5.518 -31.678  1.00  0.00     0.033 A 
HETATM   25  C   UNL     1      -2.989   5.944 -31.038  1.00  0.00     0.028 A 
HETATM   26  S   UNL     1      -2.079   7.446 -28.827  1.00  0.00    -0.067 SA
HETATM   27  C   UNL     1      -2.640   5.190 -32.169  1.00  0.00    -0.061 A 
HETATM   28  C   UNL     1      -3.705   4.615 -33.059  1.00  0.00     0.048 C 
HETATM   29  C   UNL     1      -1.294   4.984 -32.481  1.00  0.00     0.009 A 
ENDBRANCH   1  20
TORSDOF 8
ENDMDL
MODEL 10
REMARK VINA RESULT:      -6.1      2.721      3.729
REMARK  8 active torsions:
REMARK  status: ('A' for Active; 'I' for Inactive)
REMARK    1  A    between atoms: C_7  and  C_8 
REMARK    2  A    between atoms: C_11  and  N_12 
REMARK       I    between atoms: N_12  and  C_13 
REMARK    3  A    between atoms: C_13  and  C_14 
REMARK    4  A    between atoms: C_14  and  N_15 
REMARK    5  A    between atoms: N_15  and  C_18 
REMARK    6  A    between atoms: C_18  and  C_19 
REMARK    7  A    between atoms: C_19  and  C_20 
REMARK    8  A    between atoms: C_20  and  O_21 
ROOT
HETATM    1  C   UNL     1      -3.622   3.775 -31.767  1.00  0.00    -0.000 A 
HETATM    2  C   UNL     1      -2.294   4.180 -31.958  1.00  0.00     0.016 A 
HETATM    3  C   UNL     1      -1.824   5.396 -31.442  1.00  0.00     0.030 A 
HETATM    4  C   UNL     1      -2.669   6.239 -30.721  1.00  0.00     0.034 A 
HETATM    5  C   UNL     1      -4.003   5.856 -30.546  1.00  0.00     0.030 A 
HETATM    6  C   UNL     1      -4.469   4.638 -31.057  1.00  0.00     0.016 A 
ENDROOT
BRANCH   4   7
HETATM    7  N   UNL     1      -2.257   7.452 -30.121  1.00  0.00    -0.326 N 
HETATM    8  C   UNL     1      -1.742   7.604 -28.852  1.00  0.00     0.247 C 
HETATM    9  O   UNL     1      -1.492   6.722 -28.030  1.00  0.00    -0.271 OA
HETATM   10  H   UNL     1      -2.409   8.276 -30.692  1.00  0.00     0.169 HD
BRANCH   8  11
HETATM   11  C   UNL     1      -1.500   9.054 -28.426  1.00  0.00     0.334 C 
BRANCH  11  12
HETATM   12  N   UNL     1      -2.386   9.375 -27.245  1.00  0.00    -0.067 N 
HETATM   13  H   UNL     1      -2.966  10.189 -27.497  1.00  0.00     0.277 HD
HETATM   14  H   UNL     1      -3.077   8.608 -27.181  1.00  0.00     0.277 HD
BRANCH  12  15
HETATM   15  C   UNL     1      -1.694   9.576 -25.945  1.00  0.00     0.235 C 
BRANCH  15  16
HETATM   16  C   UNL     1      -2.739   9.635 -24.837  1.00  0.00     0.053 C 
BRANCH  16  17
HETATM   17  C   UNL     1      -2.913   8.280 -24.167  1.00  0.00     0.165 C 
BRANCH  17  18
HETATM   18  O   UNL     1      -2.726   7.269 -25.143  1.00  0.00    -0.401 OA
HETATM   19  H   UNL     1      -1.953   7.527 -25.684  1.00  0.00     0.209 HD
ENDBRANCH  17  18
ENDBRANCH  16  17
ENDBRANCH  15  16
ENDBRANCH  12  15
ENDBRANCH  11  12
ENDBRANCH   8  11
ENDBRANCH   4   7
BRANCH   1  20
HETATM   20  C   UNL     1      -4.141   2.473 -32.227  1.00  0.00     0.109 A 
HETATM   21  N   UNL     1      -3.448   1.353 -32.170  1.00  0.00    -0.240 NA
HETATM   22  C   UNL     1      -4.168   0.310 -32.728  1.00  0.00     0.075 A 
HETATM   23  C   UNL     1      -5.444   0.640 -33.180  1.00  0.00     0.036 A 
HETATM   24  C   UNL     1      -3.721  -1.018 -32.877  1.00  0.00     0.033 A 
HETATM   25  C   UNL     1      -6.293  -0.307 -33.778  1.00  0.00     0.028 A 
HETATM   26  S   UNL     1      -5.725   2.310 -32.880  1.00  0.00    -0.067 SA
HETATM   27  C   UNL     1      -5.831  -1.624 -33.927  1.00  0.00    -0.061 A 
HETATM   28  C   UNL     1      -6.695  -2.664 -34.581  1.00  0.00     0.048 C 
HETATM   29  C   UNL     1      -4.553  -1.969 -33.479  1.00  0.00     0.009 A 
ENDBRANCH   1  20
TORSDOF 8
ENDMDL
