MODEL 1
REMARK VINA RESULT:      -9.1      0.000      0.000
REMARK  5 active torsions:
REMARK  status: ('A' for Active; 'I' for Inactive)
REMARK    1  A    between atoms: C_8  and  C_9 
REMARK    2  A    between atoms: C_9  and  N_10 
REMARK    3  A    between atoms: N_13  and  C_15 
REMARK    4  A    between atoms: C_15  and  C_16 
REMARK    5  A    between atoms: C_19  and  C_20 
ROOT
HETATM    1  N   UNL     1     -10.415   2.647 -33.078  1.00  0.00    -0.405 N 
HETATM    2  C   UNL     1      -9.425   3.525 -33.717  1.00  0.00     0.150 C 
HETATM    3  C   UNL     1      -8.292   4.180 -32.872  1.00  0.00     0.206 C 
HETATM    4  N   UNL     1      -7.114   3.237 -32.623  1.00  0.00    -0.059 N 
HETATM    5  H   UNL     1      -6.434   3.820 -32.115  1.00  0.00     0.280 HD
HETATM    6  C   UNL     1      -7.424   2.086 -31.701  1.00  0.00     0.242 C 
HETATM    7  C   UNL     1      -8.819   2.194 -31.082  1.00  0.00     0.029 C 
HETATM    8  C   UNL     1      -9.915   1.722 -32.059  1.00  0.00     0.123 C 
HETATM    9  C   UNL     1      -8.754   4.705 -31.510  1.00  0.00     0.035 C 
HETATM   10  C   UNL     1      -9.075   3.591 -30.514  1.00  0.00     0.010 C 
ENDROOT
BRANCH   4  11
HETATM   11  C   UNL     1      -6.332   2.787 -33.858  1.00  0.00     0.302 C 
BRANCH  11  12
HETATM   12  C   UNL     1      -6.410   1.336 -34.113  1.00  0.00     0.107 A 
HETATM   13  O   UNL     1      -7.405   0.946 -34.948  1.00  0.00    -0.216 OA
HETATM   14  N   UNL     1      -7.292  -0.394 -35.207  1.00  0.00    -0.128 NA
HETATM   15  C   UNL     1      -6.264  -0.849 -34.469  1.00  0.00     0.097 A 
HETATM   16  C   UNL     1      -5.678   0.234 -33.748  1.00  0.00     0.071 A 
BRANCH  15  17
HETATM   17  C   UNL     1      -5.849  -2.250 -34.499  1.00  0.00    -0.005 A 
HETATM   18  C   UNL     1      -4.534  -2.608 -34.154  1.00  0.00     0.014 A 
HETATM   19  C   UNL     1      -4.137  -3.947 -34.153  1.00  0.00     0.001 A 
HETATM   20  C   UNL     1      -5.046  -4.944 -34.501  1.00  0.00     0.000 A 
HETATM   21  C   UNL     1      -6.349  -4.603 -34.855  1.00  0.00     0.001 A 
HETATM   22  C   UNL     1      -6.750  -3.265 -34.853  1.00  0.00     0.014 A 
ENDBRANCH  15  17
ENDBRANCH  11  12
ENDBRANCH   4  11
BRANCH   1  23
HETATM   23  C   UNL     1     -11.682   3.316 -32.713  1.00  0.00     0.176 C 
BRANCH  23  24
HETATM   24  C   UNL     1     -12.896   2.568 -33.174  1.00  0.00     0.050 A 
HETATM   25  C   UNL     1     -13.281   2.101 -34.420  1.00  0.00     0.030 A 
HETATM   26  C   UNL     1     -12.626   2.167 -35.740  1.00  0.00     0.070 C 
HETATM   27  N   UNL     1     -14.522   1.507 -34.231  1.00  0.00    -0.354 N 
HETATM   28  H   UNL     1     -15.081   1.074 -34.966  1.00  0.00     0.166 HD
HETATM   29  C   UNL     1     -14.915   1.594 -32.959  1.00  0.00     0.180 A 
HETATM   30  N   UNL     1     -13.934   2.221 -32.312  1.00  0.00    -0.353 N 
HETATM   31  H   UNL     1     -13.936   2.448 -31.319  1.00  0.00     0.166 HD
ENDBRANCH  23  24
ENDBRANCH   1  23
TORSDOF 5
ENDMDL
MODEL 2
REMARK VINA RESULT:      -9.0      4.726      8.013
REMARK  5 active torsions:
REMARK  status: ('A' for Active; 'I' for Inactive)
REMARK    1  A    between atoms: C_8  and  C_9 
REMARK    2  A    between atoms: C_9  and  N_10 
REMARK    3  A    between atoms: N_13  and  C_15 
REMARK    4  A    between atoms: C_15  and  C_16 
REMARK    5  A    between atoms: C_19  and  C_20 
ROOT
HETATM    1  N   UNL     1      -3.302   5.514 -30.811  1.00  0.00    -0.405 N 
HETATM    2  C   UNL     1      -4.609   5.557 -31.480  1.00  0.00     0.150 C 
HETATM    3  C   UNL     1      -4.725   5.242 -33.001  1.00  0.00     0.206 C 
HETATM    4  N   UNL     1      -4.759   3.743 -33.298  1.00  0.00    -0.059 N 
HETATM    5  H   UNL     1      -4.897   3.696 -34.318  1.00  0.00     0.280 HD
HETATM    6  C   UNL     1      -3.460   3.027 -33.035  1.00  0.00     0.242 C 
HETATM    7  C   UNL     1      -2.328   3.989 -32.671  1.00  0.00     0.029 C 
HETATM    8  C   UNL     1      -2.401   4.426 -31.194  1.00  0.00     0.123 C 
HETATM    9  C   UNL     1      -3.606   5.851 -33.851  1.00  0.00     0.035 C 
HETATM   10  C   UNL     1      -2.255   5.166 -33.647  1.00  0.00     0.010 C 
ENDROOT
BRANCH   4  11
HETATM   11  C   UNL     1      -5.960   2.970 -32.749  1.00  0.00     0.302 C 
BRANCH  11  12
HETATM   12  C   UNL     1      -6.107   1.619 -33.321  1.00  0.00     0.107 A 
HETATM   13  O   UNL     1      -6.766   1.558 -34.506  1.00  0.00    -0.216 OA
HETATM   14  N   UNL     1      -6.721   0.279 -34.994  1.00  0.00    -0.128 NA
HETATM   15  C   UNL     1      -6.094  -0.470 -34.070  1.00  0.00     0.097 A 
HETATM   16  C   UNL     1      -5.691   0.356 -32.979  1.00  0.00     0.071 A 
BRANCH  15  17
HETATM   17  C   UNL     1      -5.860  -1.901 -34.260  1.00  0.00    -0.005 A 
HETATM   18  C   UNL     1      -6.906  -2.741 -34.677  1.00  0.00     0.014 A 
HETATM   19  C   UNL     1      -6.685  -4.104 -34.888  1.00  0.00     0.001 A 
HETATM   20  C   UNL     1      -5.418  -4.644 -34.680  1.00  0.00     0.000 A 
HETATM   21  C   UNL     1      -4.374  -3.825 -34.257  1.00  0.00     0.001 A 
HETATM   22  C   UNL     1      -4.592  -2.461 -34.049  1.00  0.00     0.014 A 
ENDBRANCH  15  17
ENDBRANCH  11  12
ENDBRANCH   4  11
BRANCH   1  23
HETATM   23  C   UNL     1      -2.636   6.827 -30.680  1.00  0.00     0.176 C 
BRANCH  23  24
HETATM   24  C   UNL     1      -1.456   6.801 -29.756  1.00  0.00     0.050 A 
HETATM   25  C   UNL     1      -0.091   6.822 -29.993  1.00  0.00     0.030 A 
HETATM   26  C   UNL     1       0.689   6.888 -31.242  1.00  0.00     0.070 C 
HETATM   27  N   UNL     1       0.507   6.750 -28.741  1.00  0.00    -0.354 N 
HETATM   28  H   UNL     1       1.513   6.735 -28.574  1.00  0.00     0.166 HD
HETATM   29  C   UNL     1      -0.404   6.676 -27.769  1.00  0.00     0.180 A 
HETATM   30  N   UNL     1      -1.591   6.719 -28.372  1.00  0.00    -0.353 N 
HETATM   31  H   UNL     1      -2.492   6.675 -27.900  1.00  0.00     0.166 HD
ENDBRANCH  23  24
ENDBRANCH   1  23
TORSDOF 5
ENDMDL
MODEL 3
REMARK VINA RESULT:      -8.8      2.251      3.199
REMARK  5 active torsions:
REMARK  status: ('A' for Active; 'I' for Inactive)
REMARK    1  A    between atoms: C_8  and  C_9 
REMARK    2  A    between atoms: C_9  and  N_10 
REMARK    3  A    between atoms: N_13  and  C_15 
REMARK    4  A    between atoms: C_15  and  C_16 
REMARK    5  A    between atoms: C_19  and  C_20 
ROOT
HETATM    1  N   UNL     1      -7.128   2.707 -33.121  1.00  0.00    -0.405 N 
HETATM    2  C   UNL     1      -5.815   3.361 -33.038  1.00  0.00     0.150 C 
HETATM    3  C   UNL     1      -5.248   3.817 -31.661  1.00  0.00     0.206 C 
HETATM    4  N   UNL     1      -4.595   2.678 -30.879  1.00  0.00    -0.059 N 
HETATM    5  H   UNL     1      -4.222   3.138 -30.036  1.00  0.00     0.280 HD
HETATM    6  C   UNL     1      -5.560   1.636 -30.373  1.00  0.00     0.242 C 
HETATM    7  C   UNL     1      -7.019   2.026 -30.619  1.00  0.00     0.029 C 
HETATM    8  C   UNL     1      -7.450   1.739 -32.072  1.00  0.00     0.123 C 
HETATM    9  C   UNL     1      -6.289   4.464 -30.743  1.00  0.00     0.035 C 
HETATM   10  C   UNL     1      -7.298   3.465 -30.179  1.00  0.00     0.010 C 
ENDROOT
BRANCH   4  11
HETATM   11  C   UNL     1      -3.352   2.047 -31.510  1.00  0.00     0.302 C 
BRANCH  11  12
HETATM   12  C   UNL     1      -3.568   0.674 -32.001  1.00  0.00     0.107 A 
HETATM   13  O   UNL     1      -2.970  -0.304 -31.276  1.00  0.00    -0.216 OA
HETATM   14  N   UNL     1      -3.352  -1.530 -31.751  1.00  0.00    -0.128 NA
HETATM   15  C   UNL     1      -4.132  -1.309 -32.823  1.00  0.00     0.097 A 
HETATM   16  C   UNL     1      -4.289   0.096 -33.017  1.00  0.00     0.071 A 
BRANCH  15  17
HETATM   17  C   UNL     1      -4.729  -2.403 -33.587  1.00  0.00    -0.005 A 
HETATM   18  C   UNL     1      -4.068  -3.638 -33.693  1.00  0.00     0.014 A 
HETATM   19  C   UNL     1      -4.645  -4.698 -34.396  1.00  0.00     0.001 A 
HETATM   20  C   UNL     1      -5.886  -4.534 -35.008  1.00  0.00     0.000 A 
HETATM   21  C   UNL     1      -6.548  -3.312 -34.921  1.00  0.00     0.001 A 
HETATM   22  C   UNL     1      -5.975  -2.252 -34.214  1.00  0.00     0.014 A 
ENDBRANCH  15  17
ENDBRANCH  11  12
ENDBRANCH   4  11
BRANCH   1  23
HETATM   23  C   UNL     1      -8.244   3.615 -33.464  1.00  0.00     0.176 C 
BRANCH  23  24
HETATM   24  C   UNL     1      -9.580   2.935 -33.456  1.00  0.00     0.050 A 
HETATM   25  C   UNL     1     -10.650   3.001 -32.579  1.00  0.00     0.030 A 
HETATM   26  C   UNL     1     -10.859   3.772 -31.340  1.00  0.00     0.070 C 
HETATM   27  N   UNL     1     -11.602   2.124 -33.083  1.00  0.00    -0.354 N 
HETATM   28  H   UNL     1     -12.508   1.936 -32.654  1.00  0.00     0.166 HD
HETATM   29  C   UNL     1     -11.174   1.527 -34.197  1.00  0.00     0.180 A 
HETATM   30  N   UNL     1      -9.960   2.020 -34.436  1.00  0.00    -0.353 N 
HETATM   31  H   UNL     1      -9.362   1.757 -35.217  1.00  0.00     0.166 HD
ENDBRANCH  23  24
ENDBRANCH   1  23
TORSDOF 5
ENDMDL
MODEL 4
REMARK VINA RESULT:      -8.7      6.167      9.452
REMARK  5 active torsions:
REMARK  status: ('A' for Active; 'I' for Inactive)
REMARK    1  A    between atoms: C_8  and  C_9 
REMARK    2  A    between atoms: C_9  and  N_10 
REMARK    3  A    between atoms: N_13  and  C_15 
REMARK    4  A    between atoms: C_15  and  C_16 
REMARK    5  A    between atoms: C_19  and  C_20 
ROOT
HETATM    1  N   UNL     1      -1.406   6.064 -30.371  1.00  0.00    -0.405 N 
HETATM    2  C   UNL     1      -2.627   6.851 -30.589  1.00  0.00     0.150 C 
HETATM    3  C   UNL     1      -2.990   7.364 -32.014  1.00  0.00     0.206 C 
HETATM    4  N   UNL     1      -3.669   6.300 -32.875  1.00  0.00    -0.059 N 
HETATM    5  H   UNL     1      -3.897   6.797 -33.748  1.00  0.00     0.280 HD
HETATM    6  C   UNL     1      -2.768   5.163 -33.285  1.00  0.00     0.242 C 
HETATM    7  C   UNL     1      -1.312   5.398 -32.877  1.00  0.00     0.029 C 
HETATM    8  C   UNL     1      -1.075   5.067 -31.390  1.00  0.00     0.123 C 
HETATM    9  C   UNL     1      -1.794   7.899 -32.806  1.00  0.00     0.035 C 
HETATM   10  C   UNL     1      -0.838   6.800 -33.268  1.00  0.00     0.010 C 
ENDROOT
BRANCH   4  11
HETATM   11  C   UNL     1      -5.032   5.803 -32.391  1.00  0.00     0.302 C 
BRANCH  11  12
HETATM   12  C   UNL     1      -5.233   4.353 -32.571  1.00  0.00     0.107 A 
HETATM   13  O   UNL     1      -5.069   3.601 -31.455  1.00  0.00    -0.216 OA
HETATM   14  N   UNL     1      -5.409   2.301 -31.720  1.00  0.00    -0.128 NA
HETATM   15  C   UNL     1      -5.714   2.236 -33.028  1.00  0.00     0.097 A 
HETATM   16  C   UNL     1      -5.606   3.534 -33.609  1.00  0.00     0.071 A 
BRANCH  15  17
HETATM   17  C   UNL     1      -6.131   0.988 -33.666  1.00  0.00    -0.005 A 
HETATM   18  C   UNL     1      -7.201   0.979 -34.576  1.00  0.00     0.014 A 
HETATM   19  C   UNL     1      -7.587  -0.203 -35.211  1.00  0.00     0.001 A 
HETATM   20  C   UNL     1      -6.913  -1.392 -34.940  1.00  0.00     0.000 A 
HETATM   21  C   UNL     1      -5.857  -1.400 -34.032  1.00  0.00     0.001 A 
HETATM   22  C   UNL     1      -5.466  -0.218 -33.399  1.00  0.00     0.014 A 
ENDBRANCH  15  17
ENDBRANCH  11  12
ENDBRANCH   4  11
BRANCH   1  23
HETATM   23  C   UNL     1      -0.246   6.849 -29.899  1.00  0.00     0.176 C 
BRANCH  23  24
HETATM   24  C   UNL     1      -0.088   6.829 -28.408  1.00  0.00     0.050 A 
HETATM   25  C   UNL     1       0.702   7.575 -27.549  1.00  0.00     0.030 A 
HETATM   26  C   UNL     1       1.666   8.663 -27.794  1.00  0.00     0.070 C 
HETATM   27  N   UNL     1       0.437   7.084 -26.276  1.00  0.00    -0.354 N 
HETATM   28  H   UNL     1       0.874   7.420 -25.418  1.00  0.00     0.166 HD
HETATM   29  C   UNL     1      -0.449   6.087 -26.313  1.00  0.00     0.180 A 
HETATM   30  N   UNL     1      -0.781   5.936 -27.594  1.00  0.00    -0.353 N 
HETATM   31  H   UNL     1      -1.437   5.245 -27.954  1.00  0.00     0.166 HD
ENDBRANCH  23  24
ENDBRANCH   1  23
TORSDOF 5
ENDMDL
MODEL 5
REMARK VINA RESULT:      -8.7      3.147      6.496
REMARK  5 active torsions:
REMARK  status: ('A' for Active; 'I' for Inactive)
REMARK    1  A    between atoms: C_8  and  C_9 
REMARK    2  A    between atoms: C_9  and  N_10 
REMARK    3  A    between atoms: N_13  and  C_15 
REMARK    4  A    between atoms: C_15  and  C_16 
REMARK    5  A    between atoms: C_19  and  C_20 
ROOT
HETATM    1  N   UNL     1      -4.824   4.492 -32.411  1.00  0.00    -0.405 N 
HETATM    2  C   UNL     1      -5.178   3.091 -32.674  1.00  0.00     0.150 C 
HETATM    3  C   UNL     1      -5.985   2.272 -31.623  1.00  0.00     0.206 C 
HETATM    4  N   UNL     1      -7.488   2.537 -31.688  1.00  0.00    -0.059 N 
HETATM    5  H   UNL     1      -7.884   1.892 -30.989  1.00  0.00     0.280 HD
HETATM    6  C   UNL     1      -7.897   3.916 -31.237  1.00  0.00     0.242 C 
HETATM    7  C   UNL     1      -6.725   4.710 -30.658  1.00  0.00     0.029 C 
HETATM    8  C   UNL     1      -5.845   5.321 -31.768  1.00  0.00     0.123 C 
HETATM    9  C   UNL     1      -5.540   2.506 -30.177  1.00  0.00     0.035 C 
HETATM   10  C   UNL     1      -5.932   3.884 -29.643  1.00  0.00     0.010 C 
ENDROOT
BRANCH   4  11
HETATM   11  C   UNL     1      -8.195   2.125 -32.981  1.00  0.00     0.302 C 
BRANCH  11  12
HETATM   12  C   UNL     1      -7.655   0.892 -33.584  1.00  0.00     0.107 A 
HETATM   13  O   UNL     1      -7.430   0.951 -34.921  1.00  0.00    -0.216 OA
HETATM   14  N   UNL     1      -6.810  -0.198 -35.335  1.00  0.00    -0.128 NA
HETATM   15  C   UNL     1      -6.719  -1.002 -34.262  1.00  0.00     0.097 A 
HETATM   16  C   UNL     1      -7.257  -0.337 -33.120  1.00  0.00     0.071 A 
BRANCH  15  17
HETATM   17  C   UNL     1      -6.101  -2.325 -34.334  1.00  0.00    -0.005 A 
HETATM   18  C   UNL     1      -6.849  -3.436 -34.757  1.00  0.00     0.014 A 
HETATM   19  C   UNL     1      -6.259  -4.698 -34.856  1.00  0.00     0.001 A 
HETATM   20  C   UNL     1      -4.916  -4.866 -34.527  1.00  0.00     0.000 A 
HETATM   21  C   UNL     1      -4.164  -3.776 -34.096  1.00  0.00     0.001 A 
HETATM   22  C   UNL     1      -4.751  -2.512 -34.000  1.00  0.00     0.014 A 
ENDBRANCH  15  17
ENDBRANCH  11  12
ENDBRANCH   4  11
BRANCH   1  23
HETATM   23  C   UNL     1      -3.462   4.689 -31.869  1.00  0.00     0.176 C 
BRANCH  23  24
HETATM   24  C   UNL     1      -2.752   5.864 -32.472  1.00  0.00     0.050 A 
HETATM   25  C   UNL     1      -2.197   6.070 -33.724  1.00  0.00     0.030 A 
HETATM   26  C   UNL     1      -2.113   5.207 -34.917  1.00  0.00     0.070 C 
HETATM   27  N   UNL     1      -1.655   7.349 -33.687  1.00  0.00    -0.354 N 
HETATM   28  H   UNL     1      -1.160   7.796 -34.459  1.00  0.00     0.166 HD
HETATM   29  C   UNL     1      -1.835   7.921 -32.495  1.00  0.00     0.180 A 
HETATM   30  N   UNL     1      -2.508   7.036 -31.761  1.00  0.00    -0.353 N 
HETATM   31  H   UNL     1      -2.796   7.173 -30.793  1.00  0.00     0.166 HD
ENDBRANCH  23  24
ENDBRANCH   1  23
TORSDOF 5
ENDMDL
MODEL 6
REMARK VINA RESULT:      -8.1      2.915      6.294
REMARK  5 active torsions:
REMARK  status: ('A' for Active; 'I' for Inactive)
REMARK    1  A    between atoms: C_8  and  C_9 
REMARK    2  A    between atoms: C_9  and  N_10 
REMARK    3  A    between atoms: N_13  and  C_15 
REMARK    4  A    between atoms: C_15  and  C_16 
REMARK    5  A    between atoms: C_19  and  C_20 
ROOT
HETATM    1  N   UNL     1      -5.634   4.423 -32.604  1.00  0.00    -0.405 N 
HETATM    2  C   UNL     1      -6.305   4.339 -31.300  1.00  0.00     0.150 C 
HETATM    3  C   UNL     1      -7.765   4.854 -31.131  1.00  0.00     0.206 C 
HETATM    4  N   UNL     1      -8.811   3.843 -31.598  1.00  0.00    -0.059 N 
HETATM    5  H   UNL     1      -9.709   4.293 -31.371  1.00  0.00     0.280 HD
HETATM    6  C   UNL     1      -8.839   3.620 -33.089  1.00  0.00     0.242 C 
HETATM    7  C   UNL     1      -7.911   4.579 -33.838  1.00  0.00     0.029 C 
HETATM    8  C   UNL     1      -6.443   4.111 -33.783  1.00  0.00     0.123 C 
HETATM    9  C   UNL     1      -8.048   6.173 -31.855  1.00  0.00     0.035 C 
HETATM   10  C   UNL     1      -8.103   6.025 -33.375  1.00  0.00     0.010 C 
ENDROOT
BRANCH   4  11
HETATM   11  C   UNL     1      -8.877   2.526 -30.822  1.00  0.00     0.302 C 
BRANCH  11  12
HETATM   12  C   UNL     1      -8.399   1.361 -31.590  1.00  0.00     0.107 A 
HETATM   13  O   UNL     1      -9.353   0.693 -32.284  1.00  0.00    -0.216 OA
HETATM   14  N   UNL     1      -8.769  -0.278 -33.054  1.00  0.00    -0.128 NA
HETATM   15  C   UNL     1      -7.453  -0.258 -32.777  1.00  0.00     0.097 A 
HETATM   16  C   UNL     1      -7.180   0.779 -31.835  1.00  0.00     0.071 A 
BRANCH  15  17
HETATM   17  C   UNL     1      -6.509  -1.166 -33.426  1.00  0.00    -0.005 A 
HETATM   18  C   UNL     1      -5.139  -1.100 -33.124  1.00  0.00     0.014 A 
HETATM   19  C   UNL     1      -4.235  -1.983 -33.718  1.00  0.00     0.001 A 
HETATM   20  C   UNL     1      -4.687  -2.938 -34.626  1.00  0.00     0.000 A 
HETATM   21  C   UNL     1      -6.042  -3.008 -34.943  1.00  0.00     0.001 A 
HETATM   22  C   UNL     1      -6.949  -2.128 -34.347  1.00  0.00     0.014 A 
ENDBRANCH  15  17
ENDBRANCH  11  12
ENDBRANCH   4  11
BRANCH   1  23
HETATM   23  C   UNL     1      -4.762   5.606 -32.769  1.00  0.00     0.176 C 
BRANCH  23  24
HETATM   24  C   UNL     1      -3.323   5.326 -32.461  1.00  0.00     0.050 A 
HETATM   25  C   UNL     1      -2.223   5.118 -33.277  1.00  0.00     0.030 A 
HETATM   26  C   UNL     1      -2.074   5.106 -34.744  1.00  0.00     0.070 C 
HETATM   27  N   UNL     1      -1.158   4.879 -32.417  1.00  0.00    -0.354 N 
HETATM   28  H   UNL     1      -0.203   4.677 -32.711  1.00  0.00     0.166 HD
HETATM   29  C   UNL     1      -1.545   4.918 -31.140  1.00  0.00     0.180 A 
HETATM   30  N   UNL     1      -2.847   5.200 -31.158  1.00  0.00    -0.353 N 
HETATM   31  H   UNL     1      -3.439   5.293 -30.335  1.00  0.00     0.166 HD
ENDBRANCH  23  24
ENDBRANCH   1  23
TORSDOF 5
ENDMDL
MODEL 7
REMARK VINA RESULT:      -8.1      3.951      6.179
REMARK  5 active torsions:
REMARK  status: ('A' for Active; 'I' for Inactive)
REMARK    1  A    between atoms: C_8  and  C_9 
REMARK    2  A    between atoms: C_9  and  N_10 
REMARK    3  A    between atoms: N_13  and  C_15 
REMARK    4  A    between atoms: C_15  and  C_16 
REMARK    5  A    between atoms: C_19  and  C_20 
ROOT
HETATM    1  N   UNL     1      -9.520   1.684 -34.157  1.00  0.00    -0.405 N 
HETATM    2  C   UNL     1      -8.970   2.951 -33.656  1.00  0.00     0.150 C 
HETATM    3  C   UNL     1      -7.791   2.949 -32.638  1.00  0.00     0.206 C 
HETATM    4  N   UNL     1      -6.429   2.762 -33.304  1.00  0.00    -0.059 N 
HETATM    5  H   UNL     1      -5.759   2.843 -32.526  1.00  0.00     0.280 HD
HETATM    6  C   UNL     1      -6.204   1.390 -33.886  1.00  0.00     0.242 C 
HETATM    7  C   UNL     1      -7.337   0.420 -33.546  1.00  0.00     0.029 C 
HETATM    8  C   UNL     1      -8.558   0.624 -34.465  1.00  0.00     0.123 C 
HETATM    9  C   UNL     1      -7.915   1.886 -31.543  1.00  0.00     0.035 C 
HETATM   10  C   UNL     1      -7.687   0.465 -32.057  1.00  0.00     0.010 C 
ENDROOT
BRANCH   4  11
HETATM   11  C   UNL     1      -5.984   3.870 -34.261  1.00  0.00     0.302 C 
BRANCH  11  12
HETATM   12  C   UNL     1      -4.743   4.550 -33.844  1.00  0.00     0.107 A 
HETATM   13  O   UNL     1      -4.321   5.543 -34.666  1.00  0.00    -0.216 OA
HETATM   14  N   UNL     1      -3.244   6.178 -34.107  1.00  0.00    -0.128 NA
HETATM   15  C   UNL     1      -2.953   5.526 -32.968  1.00  0.00     0.097 A 
HETATM   16  C   UNL     1      -3.892   4.469 -32.770  1.00  0.00     0.071 A 
BRANCH  15  17
HETATM   17  C   UNL     1      -1.852   5.936 -32.098  1.00  0.00    -0.005 A 
HETATM   18  C   UNL     1      -0.710   5.128 -31.969  1.00  0.00     0.014 A 
HETATM   19  C   UNL     1       0.358   5.526 -31.164  1.00  0.00     0.001 A 
HETATM   20  C   UNL     1       0.297   6.733 -30.471  1.00  0.00     0.000 A 
HETATM   21  C   UNL     1      -0.833   7.540 -30.581  1.00  0.00     0.001 A 
HETATM   22  C   UNL     1      -1.901   7.146 -31.390  1.00  0.00     0.014 A 
ENDBRANCH  15  17
ENDBRANCH  11  12
ENDBRANCH   4  11
BRANCH   1  23
HETATM   23  C   UNL     1     -10.725   1.213 -33.441  1.00  0.00     0.176 C 
BRANCH  23  24
HETATM   24  C   UNL     1     -11.866   2.183 -33.505  1.00  0.00     0.050 A 
HETATM   25  C   UNL     1     -12.534   2.760 -34.573  1.00  0.00     0.030 A 
HETATM   26  C   UNL     1     -12.366   2.618 -36.031  1.00  0.00     0.070 C 
HETATM   27  N   UNL     1     -13.486   3.599 -34.008  1.00  0.00    -0.354 N 
HETATM   28  H   UNL     1     -14.138   4.181 -34.535  1.00  0.00     0.166 HD
HETATM   29  C   UNL     1     -13.429   3.575 -32.676  1.00  0.00     0.180 A 
HETATM   30  N   UNL     1     -12.462   2.713 -32.364  1.00  0.00    -0.353 N 
HETATM   31  H   UNL     1     -12.168   2.477 -31.418  1.00  0.00     0.166 HD
ENDBRANCH  23  24
ENDBRANCH   1  23
TORSDOF 5
ENDMDL
MODEL 8
REMARK VINA RESULT:      -8.0      3.752      6.520
REMARK  5 active torsions:
REMARK  status: ('A' for Active; 'I' for Inactive)
REMARK    1  A    between atoms: C_8  and  C_9 
REMARK    2  A    between atoms: C_9  and  N_10 
REMARK    3  A    between atoms: N_13  and  C_15 
REMARK    4  A    between atoms: C_15  and  C_16 
REMARK    5  A    between atoms: C_19  and  C_20 
ROOT
HETATM    1  N   UNL     1      -9.015   1.430 -32.878  1.00  0.00    -0.405 N 
HETATM    2  C   UNL     1      -8.287   0.653 -31.866  1.00  0.00     0.150 C 
HETATM    3  C   UNL     1      -6.987  -0.115 -32.247  1.00  0.00     0.206 C 
HETATM    4  N   UNL     1      -5.750   0.782 -32.272  1.00  0.00    -0.059 N 
HETATM    5  H   UNL     1      -4.977   0.133 -32.476  1.00  0.00     0.280 HD
HETATM    6  C   UNL     1      -5.735   1.789 -33.394  1.00  0.00     0.242 C 
HETATM    7  C   UNL     1      -6.897   1.592 -34.369  1.00  0.00     0.029 C 
HETATM    8  C   UNL     1      -8.207   2.198 -33.826  1.00  0.00     0.123 C 
HETATM    9  C   UNL     1      -7.061  -0.831 -33.598  1.00  0.00     0.035 C 
HETATM   10  C   UNL     1      -7.037   0.126 -34.788  1.00  0.00     0.010 C 
ENDROOT
BRANCH   4  11
HETATM   11  C   UNL     1      -5.337   1.406 -30.938  1.00  0.00     0.302 C 
BRANCH  11  12
HETATM   12  C   UNL     1      -4.386   2.525 -31.077  1.00  0.00     0.107 A 
HETATM   13  O   UNL     1      -3.087   2.168 -31.228  1.00  0.00    -0.216 OA
HETATM   14  N   UNL     1      -2.327   3.280 -31.477  1.00  0.00    -0.128 NA
HETATM   15  C   UNL     1      -3.152   4.339 -31.406  1.00  0.00     0.097 A 
HETATM   16  C   UNL     1      -4.481   3.894 -31.144  1.00  0.00     0.071 A 
BRANCH  15  17
HETATM   17  C   UNL     1      -2.680   5.706 -31.625  1.00  0.00    -0.005 A 
HETATM   18  C   UNL     1      -3.556   6.793 -31.470  1.00  0.00     0.014 A 
HETATM   19  C   UNL     1      -3.106   8.103 -31.650  1.00  0.00     0.001 A 
HETATM   20  C   UNL     1      -1.777   8.342 -31.994  1.00  0.00     0.000 A 
HETATM   21  C   UNL     1      -0.900   7.274 -32.161  1.00  0.00     0.001 A 
HETATM   22  C   UNL     1      -1.347   5.963 -31.977  1.00  0.00     0.014 A 
ENDBRANCH  15  17
ENDBRANCH  11  12
ENDBRANCH   4  11
BRANCH   1  23
HETATM   23  C   UNL     1     -10.151   0.714 -33.499  1.00  0.00     0.176 C 
BRANCH  23  24
HETATM   24  C   UNL     1     -11.470   1.384 -33.260  1.00  0.00     0.050 A 
HETATM   25  C   UNL     1     -12.775   0.943 -33.405  1.00  0.00     0.030 A 
HETATM   26  C   UNL     1     -13.333  -0.351 -33.842  1.00  0.00     0.070 C 
HETATM   27  N   UNL     1     -13.577   2.022 -33.056  1.00  0.00    -0.354 N 
HETATM   28  H   UNL     1     -14.597   2.021 -33.070  1.00  0.00     0.166 HD
HETATM   29  C   UNL     1     -12.844   3.085 -32.720  1.00  0.00     0.180 A 
HETATM   30  N   UNL     1     -11.572   2.705 -32.828  1.00  0.00    -0.353 N 
HETATM   31  H   UNL     1     -10.764   3.297 -32.645  1.00  0.00     0.166 HD
ENDBRANCH  23  24
ENDBRANCH   1  23
TORSDOF 5
ENDMDL
MODEL 9
REMARK VINA RESULT:      -7.9      3.103      8.234
REMARK  5 active torsions:
REMARK  status: ('A' for Active; 'I' for Inactive)
REMARK    1  A    between atoms: C_8  and  C_9 
REMARK    2  A    between atoms: C_9  and  N_10 
REMARK    3  A    between atoms: N_13  and  C_15 
REMARK    4  A    between atoms: C_15  and  C_16 
REMARK    5  A    between atoms: C_19  and  C_20 
ROOT
HETATM    1  N   UNL     1      -4.720   2.798 -32.234  1.00  0.00    -0.405 N 
HETATM    2  C   UNL     1      -4.857   1.483 -32.875  1.00  0.00     0.150 C 
HETATM    3  C   UNL     1      -5.509   0.297 -32.106  1.00  0.00     0.206 C 
HETATM    4  N   UNL     1      -7.037   0.335 -32.136  1.00  0.00    -0.059 N 
HETATM    5  H   UNL     1      -7.316  -0.529 -31.648  1.00  0.00     0.280 HD
HETATM    6  C   UNL     1      -7.647   1.460 -31.340  1.00  0.00     0.242 C 
HETATM    7  C   UNL     1      -6.602   2.238 -30.538  1.00  0.00     0.029 C 
HETATM    8  C   UNL     1      -5.847   3.254 -31.418  1.00  0.00     0.123 C 
HETATM    9  C   UNL     1      -5.083   0.196 -30.639  1.00  0.00     0.035 C 
HETATM   10  C   UNL     1      -5.674   1.300 -29.763  1.00  0.00     0.010 C 
ENDROOT
BRANCH   4  11
HETATM   11  C   UNL     1      -7.693   0.185 -33.510  1.00  0.00     0.302 C 
BRANCH  11  12
HETATM   12  C   UNL     1      -9.057   0.741 -33.579  1.00  0.00     0.107 A 
HETATM   13  O   UNL     1      -9.172   1.913 -34.252  1.00  0.00    -0.216 OA
HETATM   14  N   UNL     1     -10.494   2.256 -34.359  1.00  0.00    -0.128 NA
HETATM   15  C   UNL     1     -11.194   1.328 -33.684  1.00  0.00     0.097 A 
HETATM   16  C   UNL     1     -10.303   0.342 -33.164  1.00  0.00     0.071 A 
BRANCH  15  17
HETATM   17  C   UNL     1     -12.653   1.373 -33.589  1.00  0.00    -0.005 A 
HETATM   18  C   UNL     1     -13.283   2.361 -32.814  1.00  0.00     0.014 A 
HETATM   19  C   UNL     1     -14.676   2.429 -32.741  1.00  0.00     0.001 A 
HETATM   20  C   UNL     1     -15.456   1.508 -33.436  1.00  0.00     0.000 A 
HETATM   21  C   UNL     1     -14.845   0.517 -34.200  1.00  0.00     0.001 A 
HETATM   22  C   UNL     1     -13.451   0.449 -34.278  1.00  0.00     0.014 A 
ENDBRANCH  15  17
ENDBRANCH  11  12
ENDBRANCH   4  11
BRANCH   1  23
HETATM   23  C   UNL     1      -3.396   3.048 -31.624  1.00  0.00     0.176 C 
BRANCH  23  24
HETATM   24  C   UNL     1      -2.554   4.003 -32.415  1.00  0.00     0.050 A 
HETATM   25  C   UNL     1      -1.507   4.835 -32.054  1.00  0.00     0.030 A 
HETATM   26  C   UNL     1      -0.842   5.073 -30.760  1.00  0.00     0.070 C 
HETATM   27  N   UNL     1      -1.141   5.503 -33.216  1.00  0.00    -0.354 N 
HETATM   28  H   UNL     1      -0.401   6.200 -33.280  1.00  0.00     0.166 HD
HETATM   29  C   UNL     1      -1.903   5.137 -34.248  1.00  0.00     0.180 A 
HETATM   30  N   UNL     1      -2.750   4.223 -33.776  1.00  0.00    -0.353 N 
HETATM   31  H   UNL     1      -3.470   3.752 -34.321  1.00  0.00     0.166 HD
ENDBRANCH  23  24
ENDBRANCH   1  23
TORSDOF 5
ENDMDL
MODEL 10
REMARK VINA RESULT:      -7.9      5.496      9.043
REMARK  5 active torsions:
REMARK  status: ('A' for Active; 'I' for Inactive)
REMARK    1  A    between atoms: C_8  and  C_9 
REMARK    2  A    between atoms: C_9  and  N_10 
REMARK    3  A    between atoms: N_13  and  C_15 
REMARK    4  A    between atoms: C_15  and  C_16 
REMARK    5  A    between atoms: C_19  and  C_20 
ROOT
HETATM    1  N   UNL     1      -4.522   3.188 -31.359  1.00  0.00    -0.405 N 
HETATM    2  C   UNL     1      -4.140   2.978 -32.762  1.00  0.00     0.150 C 
HETATM    3  C   UNL     1      -5.049   3.504 -33.913  1.00  0.00     0.206 C 
HETATM    4  N   UNL     1      -4.839   4.989 -34.206  1.00  0.00    -0.059 N 
HETATM    5  H   UNL     1      -5.452   5.171 -35.013  1.00  0.00     0.280 HD
HETATM    6  C   UNL     1      -5.324   5.912 -33.118  1.00  0.00     0.242 C 
HETATM    7  C   UNL     1      -6.071   5.166 -32.011  1.00  0.00     0.029 C 
HETATM    8  C   UNL     1      -5.100   4.490 -31.022  1.00  0.00     0.123 C 
HETATM    9  C   UNL     1      -6.546   3.292 -33.671  1.00  0.00     0.035 C 
HETATM   10  C   UNL     1      -7.115   4.205 -32.586  1.00  0.00     0.010 C 
ENDROOT
BRANCH   4  11
HETATM   11  C   UNL     1      -3.456   5.390 -34.722  1.00  0.00     0.302 C 
BRANCH  11  12
HETATM   12  C   UNL     1      -2.664   6.168 -33.751  1.00  0.00     0.107 A 
HETATM   13  O   UNL     1      -2.295   7.406 -34.162  1.00  0.00    -0.216 OA
HETATM   14  N   UNL     1      -1.684   8.072 -33.133  1.00  0.00    -0.128 NA
HETATM   15  C   UNL     1      -1.610   7.213 -32.102  1.00  0.00     0.097 A 
HETATM   16  C   UNL     1      -2.224   5.977 -32.464  1.00  0.00     0.071 A 
BRANCH  15  17
HETATM   17  C   UNL     1      -1.015   7.589 -30.820  1.00  0.00    -0.005 A 
HETATM   18  C   UNL     1      -1.664   8.510 -29.980  1.00  0.00     0.014 A 
HETATM   19  C   UNL     1      -1.118   8.853 -28.741  1.00  0.00     0.001 A 
HETATM   20  C   UNL     1       0.087   8.285 -28.330  1.00  0.00     0.000 A 
HETATM   21  C   UNL     1       0.746   7.379 -29.156  1.00  0.00     0.001 A 
HETATM   22  C   UNL     1       0.199   7.031 -30.394  1.00  0.00     0.014 A 
ENDBRANCH  15  17
ENDBRANCH  11  12
ENDBRANCH   4  11
BRANCH   1  23
HETATM   23  C   UNL     1      -5.217   2.042 -30.735  1.00  0.00     0.176 C 
BRANCH  23  24
HETATM   24  C   UNL     1      -4.756   0.716 -31.260  1.00  0.00     0.050 A 
HETATM   25  C   UNL     1      -5.396  -0.259 -32.007  1.00  0.00     0.030 A 
HETATM   26  C   UNL     1      -6.760  -0.337 -32.560  1.00  0.00     0.070 C 
HETATM   27  N   UNL     1      -4.465  -1.279 -32.166  1.00  0.00    -0.354 N 
HETATM   28  H   UNL     1      -4.635  -2.152 -32.665  1.00  0.00     0.166 HD
HETATM   29  C   UNL     1      -3.314  -0.988 -31.557  1.00  0.00     0.180 A 
HETATM   30  N   UNL     1      -3.477   0.220 -31.019  1.00  0.00    -0.353 N 
HETATM   31  H   UNL     1      -2.775   0.721 -30.478  1.00  0.00     0.166 HD
ENDBRANCH  23  24
ENDBRANCH   1  23
TORSDOF 5
ENDMDL
