MODEL 1
REMARK VINA RESULT:      -9.2      0.000      0.000
REMARK  5 active torsions:
REMARK  status: ('A' for Active; 'I' for Inactive)
REMARK    1  A    between atoms: C_4  and  C_5 
REMARK    2  A    between atoms: C_5  and  C_6 
REMARK    3  A    between atoms: C_6  and  C_7 
REMARK       I    between atoms: C_7  and  N_8 
REMARK    4  A    between atoms: N_8  and  C_9 
REMARK    5  A    between atoms: C_16  and  C_17 
REMARK       I    between atoms: C_17  and  N_18 
ROOT
HETATM    1  C   UNL     1      -3.723   3.827 -32.792  1.00  0.00     0.035 A 
HETATM    2  C   UNL     1      -2.666   4.025 -31.893  1.00  0.00     0.046 A 
HETATM    3  C   UNL     1      -1.785   5.113 -32.083  1.00  0.00     0.030 A 
HETATM    4  C   UNL     1      -1.989   5.960 -33.165  1.00  0.00     0.063 A 
HETATM    5  N   UNL     1      -0.991   6.891 -33.091  1.00  0.00    -0.277 N 
HETATM    6  H   UNL     1      -0.825   7.665 -33.724  1.00  0.00     0.189 HD
HETATM    7  N   UNL     1      -0.158   6.732 -32.050  1.00  0.00    -0.168 NA
HETATM    8  C   UNL     1      -0.636   5.637 -31.416  1.00  0.00     0.156 A 
HETATM    9  C   UNL     1      -3.033   5.795 -34.077  1.00  0.00     0.034 A 
HETATM   10  C   UNL     1      -3.896   4.713 -33.863  1.00  0.00     0.032 A 
ENDROOT
BRANCH   1  11
HETATM   11  N   UNL     1      -4.638   2.758 -32.701  1.00  0.00    -0.326 N 
HETATM   12  C   UNL     1      -4.370   1.443 -32.386  1.00  0.00     0.231 C 
HETATM   13  O   UNL     1      -3.303   0.956 -32.049  1.00  0.00    -0.272 OA
HETATM   14  H   UNL     1      -5.600   2.971 -32.927  1.00  0.00     0.169 HD
BRANCH  12  15
HETATM   15  C   UNL     1      -5.593   0.559 -32.493  1.00  0.00     0.045 A 
HETATM   16  C   UNL     1      -6.737   0.891 -31.529  1.00  0.00     0.020 A 
HETATM   17  C   UNL     1      -5.928  -0.347 -31.311  1.00  0.00     0.020 A 
BRANCH  15  18
HETATM   18  C   UNL     1      -5.974   0.074 -33.889  1.00  0.00     0.057 C 
BRANCH  18  19
HETATM   19  C   UNL     1      -5.779  -1.407 -34.131  1.00  0.00    -0.057 A 
HETATM   20  C   UNL     1      -4.522  -2.023 -34.107  1.00  0.00     0.007 A 
HETATM   21  C   UNL     1      -4.385  -3.384 -34.399  1.00  0.00     0.001 A 
HETATM   22  C   UNL     1      -5.501  -4.144 -34.738  1.00  0.00     0.000 A 
HETATM   23  C   UNL     1      -6.756  -3.544 -34.785  1.00  0.00     0.001 A 
HETATM   24  C   UNL     1      -6.893  -2.187 -34.488  1.00  0.00     0.007 A 
ENDBRANCH  18  19
ENDBRANCH  15  18
ENDBRANCH  12  15
ENDBRANCH   1  11
BRANCH   8  25
HETATM   25  C   UNL     1       0.009   5.122 -30.200  1.00  0.00     0.270 C 
HETATM   26  N   UNL     1      -0.480   5.658 -29.039  1.00  0.00    -0.365 N 
HETATM   27  H   UNL     1      -1.225   6.342 -29.097  1.00  0.00     0.159 HD
HETATM   28  H   UNL     1      -0.102   5.360 -28.154  1.00  0.00     0.159 HD
HETATM   29  O   UNL     1       0.907   4.287 -30.183  1.00  0.00    -0.266 OA
ENDBRANCH   8  25
TORSDOF 5
ENDMDL
MODEL 2
REMARK VINA RESULT:      -8.8      5.040      8.236
REMARK  5 active torsions:
REMARK  status: ('A' for Active; 'I' for Inactive)
REMARK    1  A    between atoms: C_4  and  C_5 
REMARK    2  A    between atoms: C_5  and  C_6 
REMARK    3  A    between atoms: C_6  and  C_7 
REMARK       I    between atoms: C_7  and  N_8 
REMARK    4  A    between atoms: N_8  and  C_9 
REMARK    5  A    between atoms: C_16  and  C_17 
REMARK       I    between atoms: C_17  and  N_18 
ROOT
HETATM    1  C   UNL     1      -9.148   2.168 -33.409  1.00  0.00     0.035 A 
HETATM    2  C   UNL     1     -10.278   1.340 -33.403  1.00  0.00     0.046 A 
HETATM    3  C   UNL     1     -11.448   1.754 -34.079  1.00  0.00     0.030 A 
HETATM    4  C   UNL     1     -11.447   2.979 -34.733  1.00  0.00     0.063 A 
HETATM    5  N   UNL     1     -12.696   3.104 -35.273  1.00  0.00    -0.277 N 
HETATM    6  H   UNL     1     -13.055   3.881 -35.817  1.00  0.00     0.189 HD
HETATM    7  N   UNL     1     -13.511   2.063 -35.037  1.00  0.00    -0.168 NA
HETATM    8  C   UNL     1     -12.753   1.218 -34.301  1.00  0.00     0.156 A 
HETATM    9  C   UNL     1     -10.339   3.827 -34.763  1.00  0.00     0.034 A 
HETATM   10  C   UNL     1      -9.190   3.392 -34.090  1.00  0.00     0.032 A 
ENDROOT
BRANCH   1  11
HETATM   11  N   UNL     1      -7.944   1.855 -32.744  1.00  0.00    -0.326 N 
HETATM   12  C   UNL     1      -6.662   1.937 -33.241  1.00  0.00     0.231 C 
HETATM   13  O   UNL     1      -6.305   2.367 -34.327  1.00  0.00    -0.272 OA
HETATM   14  H   UNL     1      -8.032   1.496 -31.803  1.00  0.00     0.169 HD
BRANCH  12  15
HETATM   15  C   UNL     1      -5.627   1.414 -32.269  1.00  0.00     0.045 A 
HETATM   16  C   UNL     1      -5.092   2.433 -31.259  1.00  0.00     0.020 A 
HETATM   17  C   UNL     1      -4.207   1.965 -32.369  1.00  0.00     0.020 A 
BRANCH  15  18
HETATM   18  C   UNL     1      -5.798  -0.024 -31.787  1.00  0.00     0.057 C 
BRANCH  18  19
HETATM   19  C   UNL     1      -5.685  -1.082 -32.864  1.00  0.00    -0.057 A 
HETATM   20  C   UNL     1      -4.468  -1.674 -33.223  1.00  0.00     0.007 A 
HETATM   21  C   UNL     1      -4.404  -2.602 -34.268  1.00  0.00     0.001 A 
HETATM   22  C   UNL     1      -5.551  -2.937 -34.979  1.00  0.00     0.000 A 
HETATM   23  C   UNL     1      -6.766  -2.344 -34.649  1.00  0.00     0.001 A 
HETATM   24  C   UNL     1      -6.832  -1.422 -33.602  1.00  0.00     0.007 A 
ENDBRANCH  18  19
ENDBRANCH  15  18
ENDBRANCH  12  15
ENDBRANCH   1  11
BRANCH   8  25
HETATM   25  C   UNL     1     -13.289  -0.068 -33.831  1.00  0.00     0.270 C 
HETATM   26  N   UNL     1     -14.615  -0.256 -34.113  1.00  0.00    -0.365 N 
HETATM   27  H   UNL     1     -15.114   0.473 -34.608  1.00  0.00     0.159 HD
HETATM   28  H   UNL     1     -15.067  -1.112 -33.835  1.00  0.00     0.159 HD
HETATM   29  O   UNL     1     -12.639  -0.922 -33.239  1.00  0.00    -0.266 OA
ENDBRANCH   8  25
TORSDOF 5
ENDMDL
MODEL 3
REMARK VINA RESULT:      -8.6      5.783      9.075
REMARK  5 active torsions:
REMARK  status: ('A' for Active; 'I' for Inactive)
REMARK    1  A    between atoms: C_4  and  C_5 
REMARK    2  A    between atoms: C_5  and  C_6 
REMARK    3  A    between atoms: C_6  and  C_7 
REMARK       I    between atoms: C_7  and  N_8 
REMARK    4  A    between atoms: N_8  and  C_9 
REMARK    5  A    between atoms: C_16  and  C_17 
REMARK       I    between atoms: C_17  and  N_18 
ROOT
HETATM    1  C   UNL     1     -10.382   2.403 -33.129  1.00  0.00     0.035 A 
HETATM    2  C   UNL     1     -11.521   1.665 -33.475  1.00  0.00     0.046 A 
HETATM    3  C   UNL     1     -12.800   2.148 -33.114  1.00  0.00     0.030 A 
HETATM    4  C   UNL     1     -12.892   3.347 -32.420  1.00  0.00     0.063 A 
HETATM    5  N   UNL     1     -14.228   3.542 -32.208  1.00  0.00    -0.277 N 
HETATM    6  H   UNL     1     -14.666   4.318 -31.724  1.00  0.00     0.189 HD
HETATM    7  N   UNL     1     -15.018   2.580 -32.711  1.00  0.00    -0.168 NA
HETATM    8  C   UNL     1     -14.149   1.710 -33.276  1.00  0.00     0.156 A 
HETATM    9  C   UNL     1     -11.779   4.110 -32.063  1.00  0.00     0.034 A 
HETATM   10  C   UNL     1     -10.524   3.613 -32.437  1.00  0.00     0.032 A 
ENDROOT
BRANCH   1  11
HETATM   11  N   UNL     1      -9.064   1.994 -33.422  1.00  0.00    -0.326 N 
HETATM   12  C   UNL     1      -8.125   1.491 -32.548  1.00  0.00     0.231 C 
HETATM   13  O   UNL     1      -8.267   1.229 -31.364  1.00  0.00    -0.272 OA
HETATM   14  H   UNL     1      -8.759   2.114 -34.378  1.00  0.00     0.169 HD
BRANCH  12  15
HETATM   15  C   UNL     1      -6.782   1.263 -33.207  1.00  0.00     0.045 A 
HETATM   16  C   UNL     1      -6.054   2.525 -33.680  1.00  0.00     0.020 A 
HETATM   17  C   UNL     1      -6.646   1.595 -34.690  1.00  0.00     0.020 A 
BRANCH  15  18
HETATM   18  C   UNL     1      -5.925   0.128 -32.653  1.00  0.00     0.057 C 
BRANCH  18  19
HETATM   19  C   UNL     1      -5.878  -1.120 -33.508  1.00  0.00    -0.057 A 
HETATM   20  C   UNL     1      -7.029  -1.800 -33.925  1.00  0.00     0.007 A 
HETATM   21  C   UNL     1      -6.933  -2.985 -34.662  1.00  0.00     0.001 A 
HETATM   22  C   UNL     1      -5.686  -3.516 -34.976  1.00  0.00     0.000 A 
HETATM   23  C   UNL     1      -4.532  -2.864 -34.553  1.00  0.00     0.001 A 
HETATM   24  C   UNL     1      -4.627  -1.678 -33.823  1.00  0.00     0.007 A 
ENDBRANCH  18  19
ENDBRANCH  15  18
ENDBRANCH  12  15
ENDBRANCH   1  11
BRANCH   8  25
HETATM   25  C   UNL     1     -14.624   0.494 -33.952  1.00  0.00     0.270 C 
HETATM   26  N   UNL     1     -14.054  -0.661 -33.489  1.00  0.00    -0.365 N 
HETATM   27  H   UNL     1     -13.374  -0.599 -32.740  1.00  0.00     0.159 HD
HETATM   28  H   UNL     1     -14.324  -1.545 -33.888  1.00  0.00     0.159 HD
HETATM   29  O   UNL     1     -15.457   0.473 -34.851  1.00  0.00    -0.266 OA
ENDBRANCH   8  25
TORSDOF 5
ENDMDL
MODEL 4
REMARK VINA RESULT:      -8.4      1.704      1.762
REMARK  5 active torsions:
REMARK  status: ('A' for Active; 'I' for Inactive)
REMARK    1  A    between atoms: C_4  and  C_5 
REMARK    2  A    between atoms: C_5  and  C_6 
REMARK    3  A    between atoms: C_6  and  C_7 
REMARK       I    between atoms: C_7  and  N_8 
REMARK    4  A    between atoms: N_8  and  C_9 
REMARK    5  A    between atoms: C_16  and  C_17 
REMARK       I    between atoms: C_17  and  N_18 
ROOT
HETATM    1  C   UNL     1      -3.605   3.893 -32.256  1.00  0.00     0.035 A 
HETATM    2  C   UNL     1      -3.523   4.854 -31.240  1.00  0.00     0.046 A 
HETATM    3  C   UNL     1      -2.509   5.838 -31.292  1.00  0.00     0.030 A 
HETATM    4  C   UNL     1      -1.615   5.824 -32.355  1.00  0.00     0.063 A 
HETATM    5  N   UNL     1      -0.764   6.869 -32.128  1.00  0.00    -0.277 N 
HETATM    6  H   UNL     1       0.021   7.156 -32.700  1.00  0.00     0.189 HD
HETATM    7  N   UNL     1      -1.030   7.571 -31.014  1.00  0.00    -0.168 NA
HETATM    8  C   UNL     1      -2.107   6.946 -30.486  1.00  0.00     0.156 A 
HETATM    9  C   UNL     1      -1.671   4.885 -33.386  1.00  0.00     0.034 A 
HETATM   10  C   UNL     1      -2.687   3.924 -33.314  1.00  0.00     0.032 A 
ENDROOT
BRANCH   1  11
HETATM   11  N   UNL     1      -4.562   2.858 -32.280  1.00  0.00    -0.326 N 
HETATM   12  C   UNL     1      -4.437   1.583 -31.771  1.00  0.00     0.231 C 
HETATM   13  O   UNL     1      -3.506   1.119 -31.133  1.00  0.00    -0.272 OA
HETATM   14  H   UNL     1      -5.430   3.061 -32.756  1.00  0.00     0.169 HD
BRANCH  12  15
HETATM   15  C   UNL     1      -5.636   0.714 -32.080  1.00  0.00     0.045 A 
HETATM   16  C   UNL     1      -6.864   0.940 -31.193  1.00  0.00     0.020 A 
HETATM   17  C   UNL     1      -6.065  -0.313 -31.036  1.00  0.00     0.020 A 
BRANCH  15  18
HETATM   18  C   UNL     1      -5.886   0.379 -33.548  1.00  0.00     0.057 C 
BRANCH  18  19
HETATM   19  C   UNL     1      -5.728  -1.081 -33.912  1.00  0.00    -0.057 A 
HETATM   20  C   UNL     1      -4.490  -1.737 -33.906  1.00  0.00     0.007 A 
HETATM   21  C   UNL     1      -4.385  -3.072 -34.310  1.00  0.00     0.001 A 
HETATM   22  C   UNL     1      -5.512  -3.764 -34.744  1.00  0.00     0.000 A 
HETATM   23  C   UNL     1      -6.747  -3.122 -34.775  1.00  0.00     0.001 A 
HETATM   24  C   UNL     1      -6.853  -1.791 -34.366  1.00  0.00     0.007 A 
ENDBRANCH  18  19
ENDBRANCH  15  18
ENDBRANCH  12  15
ENDBRANCH   1  11
BRANCH   8  25
HETATM   25  C   UNL     1      -2.721   7.418 -29.237  1.00  0.00     0.270 C 
HETATM   26  N   UNL     1      -2.388   6.677 -28.135  1.00  0.00    -0.365 N 
HETATM   27  H   UNL     1      -1.763   5.888 -28.254  1.00  0.00     0.159 HD
HETATM   28  H   UNL     1      -2.757   6.930 -27.233  1.00  0.00     0.159 HD
HETATM   29  O   UNL     1      -3.469   8.385 -29.147  1.00  0.00    -0.266 OA
ENDBRANCH   8  25
TORSDOF 5
ENDMDL
MODEL 5
REMARK VINA RESULT:      -8.2      2.568      2.832
REMARK  5 active torsions:
REMARK  status: ('A' for Active; 'I' for Inactive)
REMARK    1  A    between atoms: C_4  and  C_5 
REMARK    2  A    between atoms: C_5  and  C_6 
REMARK    3  A    between atoms: C_6  and  C_7 
REMARK       I    between atoms: C_7  and  N_8 
REMARK    4  A    between atoms: N_8  and  C_9 
REMARK    5  A    between atoms: C_16  and  C_17 
REMARK       I    between atoms: C_17  and  N_18 
ROOT
HETATM    1  C   UNL     1      -4.220   3.021 -32.096  1.00  0.00     0.035 A 
HETATM    2  C   UNL     1      -4.719   3.970 -31.195  1.00  0.00     0.046 A 
HETATM    3  C   UNL     1      -3.966   5.135 -30.923  1.00  0.00     0.030 A 
HETATM    4  C   UNL     1      -2.743   5.307 -31.559  1.00  0.00     0.063 A 
HETATM    5  N   UNL     1      -2.257   6.498 -31.096  1.00  0.00    -0.277 N 
HETATM    6  H   UNL     1      -1.379   6.939 -31.342  1.00  0.00     0.189 HD
HETATM    7  N   UNL     1      -3.060   7.123 -30.219  1.00  0.00    -0.168 NA
HETATM    8  C   UNL     1      -4.122   6.293 -30.103  1.00  0.00     0.156 A 
HETATM    9  C   UNL     1      -2.219   4.385 -32.465  1.00  0.00     0.034 A 
HETATM   10  C   UNL     1      -2.985   3.242 -32.722  1.00  0.00     0.032 A 
ENDROOT
BRANCH   1  11
HETATM   11  N   UNL     1      -4.883   1.817 -32.414  1.00  0.00    -0.326 N 
HETATM   12  C   UNL     1      -5.861   1.620 -33.364  1.00  0.00     0.231 C 
HETATM   13  O   UNL     1      -6.295   2.426 -34.171  1.00  0.00    -0.272 OA
HETATM   14  H   UNL     1      -4.638   1.010 -31.857  1.00  0.00     0.169 HD
BRANCH  12  15
HETATM   15  C   UNL     1      -6.415   0.212 -33.344  1.00  0.00     0.045 A 
HETATM   16  C   UNL     1      -7.632  -0.008 -32.439  1.00  0.00     0.020 A 
HETATM   17  C   UNL     1      -6.309  -0.581 -32.044  1.00  0.00     0.020 A 
BRANCH  15  18
HETATM   18  C   UNL     1      -6.370  -0.567 -34.655  1.00  0.00     0.057 C 
BRANCH  18  19
HETATM   19  C   UNL     1      -5.920  -2.007 -34.534  1.00  0.00    -0.057 A 
HETATM   20  C   UNL     1      -4.589  -2.370 -34.288  1.00  0.00     0.007 A 
HETATM   21  C   UNL     1      -4.210  -3.715 -34.246  1.00  0.00     0.001 A 
HETATM   22  C   UNL     1      -5.151  -4.716 -34.468  1.00  0.00     0.000 A 
HETATM   23  C   UNL     1      -6.474  -4.373 -34.733  1.00  0.00     0.001 A 
HETATM   24  C   UNL     1      -6.854  -3.030 -34.769  1.00  0.00     0.007 A 
ENDBRANCH  18  19
ENDBRANCH  15  18
ENDBRANCH  12  15
ENDBRANCH   1  11
BRANCH   8  25
HETATM   25  C   UNL     1      -5.249   6.624 -29.219  1.00  0.00     0.270 C 
HETATM   26  N   UNL     1      -6.098   7.571 -29.728  1.00  0.00    -0.365 N 
HETATM   27  H   UNL     1      -5.899   7.958 -30.642  1.00  0.00     0.159 HD
HETATM   28  H   UNL     1      -6.903   7.856 -29.194  1.00  0.00     0.159 HD
HETATM   29  O   UNL     1      -5.449   6.120 -28.120  1.00  0.00    -0.266 OA
ENDBRANCH   8  25
TORSDOF 5
ENDMDL
MODEL 6
REMARK VINA RESULT:      -8.0      2.281      2.962
REMARK  5 active torsions:
REMARK  status: ('A' for Active; 'I' for Inactive)
REMARK    1  A    between atoms: C_4  and  C_5 
REMARK    2  A    between atoms: C_5  and  C_6 
REMARK    3  A    between atoms: C_6  and  C_7 
REMARK       I    between atoms: C_7  and  N_8 
REMARK    4  A    between atoms: N_8  and  C_9 
REMARK    5  A    between atoms: C_16  and  C_17 
REMARK       I    between atoms: C_17  and  N_18 
ROOT
HETATM    1  C   UNL     1      -5.645   2.927 -31.681  1.00  0.00     0.035 A 
HETATM    2  C   UNL     1      -4.381   3.417 -32.036  1.00  0.00     0.046 A 
HETATM    3  C   UNL     1      -3.851   4.535 -31.352  1.00  0.00     0.030 A 
HETATM    4  C   UNL     1      -4.603   5.123 -30.344  1.00  0.00     0.063 A 
HETATM    5  N   UNL     1      -3.847   6.166 -29.887  1.00  0.00    -0.277 N 
HETATM    6  H   UNL     1      -4.086   6.822 -29.152  1.00  0.00     0.189 HD
HETATM    7  N   UNL     1      -2.661   6.305 -30.503  1.00  0.00    -0.168 NA
HETATM    8  C   UNL     1      -2.649   5.303 -31.412  1.00  0.00     0.156 A 
HETATM    9  C   UNL     1      -5.863   4.659 -29.962  1.00  0.00     0.034 A 
HETATM   10  C   UNL     1      -6.364   3.547 -30.650  1.00  0.00     0.032 A 
ENDROOT
BRANCH   1  11
HETATM   11  N   UNL     1      -6.269   1.835 -32.319  1.00  0.00    -0.326 N 
HETATM   12  C   UNL     1      -6.938   1.833 -33.524  1.00  0.00     0.231 C 
HETATM   13  O   UNL     1      -7.060   2.755 -34.314  1.00  0.00    -0.272 OA
HETATM   14  H   UNL     1      -6.255   0.956 -31.819  1.00  0.00     0.169 HD
BRANCH  12  15
HETATM   15  C   UNL     1      -7.571   0.495 -33.834  1.00  0.00     0.045 A 
HETATM   16  C   UNL     1      -9.063   0.376 -33.508  1.00  0.00     0.020 A 
HETATM   17  C   UNL     1      -8.066  -0.352 -32.665  1.00  0.00     0.020 A 
BRANCH  15  18
HETATM   18  C   UNL     1      -7.067  -0.236 -35.076  1.00  0.00     0.057 C 
BRANCH  18  19
HETATM   19  C   UNL     1      -6.256  -1.485 -34.803  1.00  0.00    -0.057 A 
HETATM   20  C   UNL     1      -6.718  -2.772 -35.103  1.00  0.00     0.007 A 
HETATM   21  C   UNL     1      -5.958  -3.900 -34.775  1.00  0.00     0.001 A 
HETATM   22  C   UNL     1      -4.736  -3.758 -34.126  1.00  0.00     0.000 A 
HETATM   23  C   UNL     1      -4.270  -2.486 -33.803  1.00  0.00     0.001 A 
HETATM   24  C   UNL     1      -5.025  -1.360 -34.136  1.00  0.00     0.007 A 
ENDBRANCH  18  19
ENDBRANCH  15  18
ENDBRANCH  12  15
ENDBRANCH   1  11
BRANCH   8  25
HETATM   25  C   UNL     1      -1.499   5.104 -32.305  1.00  0.00     0.270 C 
HETATM   26  N   UNL     1      -0.284   5.180 -31.678  1.00  0.00    -0.365 N 
HETATM   27  H   UNL     1      -0.265   5.357 -30.681  1.00  0.00     0.159 HD
HETATM   28  H   UNL     1       0.561   5.050 -32.210  1.00  0.00     0.159 HD
HETATM   29  O   UNL     1      -1.577   4.887 -33.509  1.00  0.00    -0.266 OA
ENDBRANCH   8  25
TORSDOF 5
ENDMDL
MODEL 7
REMARK VINA RESULT:      -7.8      3.150      8.654
REMARK  5 active torsions:
REMARK  status: ('A' for Active; 'I' for Inactive)
REMARK    1  A    between atoms: C_4  and  C_5 
REMARK    2  A    between atoms: C_5  and  C_6 
REMARK    3  A    between atoms: C_6  and  C_7 
REMARK       I    between atoms: C_7  and  N_8 
REMARK    4  A    between atoms: N_8  and  C_9 
REMARK    5  A    between atoms: C_16  and  C_17 
REMARK       I    between atoms: C_17  and  N_18 
ROOT
HETATM    1  C   UNL     1      -3.746   2.732 -32.358  1.00  0.00     0.035 A 
HETATM    2  C   UNL     1      -5.025   2.715 -32.931  1.00  0.00     0.046 A 
HETATM    3  C   UNL     1      -5.948   1.718 -32.542  1.00  0.00     0.030 A 
HETATM    4  C   UNL     1      -5.559   0.774 -31.599  1.00  0.00     0.063 A 
HETATM    5  N   UNL     1      -6.641  -0.047 -31.440  1.00  0.00    -0.277 N 
HETATM    6  H   UNL     1      -6.714  -0.853 -30.830  1.00  0.00     0.189 HD
HETATM    7  N   UNL     1      -7.706   0.284 -32.189  1.00  0.00    -0.168 NA
HETATM    8  C   UNL     1      -7.293   1.374 -32.875  1.00  0.00     0.156 A 
HETATM    9  C   UNL     1      -4.296   0.764 -31.006  1.00  0.00     0.034 A 
HETATM   10  C   UNL     1      -3.401   1.765 -31.404  1.00  0.00     0.032 A 
ENDROOT
BRANCH   1  11
HETATM   11  N   UNL     1      -2.748   3.668 -32.698  1.00  0.00    -0.326 N 
HETATM   12  C   UNL     1      -2.506   4.892 -32.111  1.00  0.00     0.231 C 
HETATM   13  O   UNL     1      -3.056   5.376 -31.135  1.00  0.00    -0.272 OA
HETATM   14  H   UNL     1      -2.161   3.433 -33.487  1.00  0.00     0.169 HD
BRANCH  12  15
HETATM   15  C   UNL     1      -1.418   5.670 -32.817  1.00  0.00     0.045 A 
HETATM   16  C   UNL     1      -1.827   7.045 -33.353  1.00  0.00     0.020 A 
HETATM   17  C   UNL     1      -1.576   5.927 -34.313  1.00  0.00     0.020 A 
BRANCH  15  18
HETATM   18  C   UNL     1      -0.000   5.527 -32.268  1.00  0.00     0.057 C 
BRANCH  18  19
HETATM   19  C   UNL     1       0.181   5.968 -30.832  1.00  0.00    -0.057 A 
HETATM   20  C   UNL     1       0.120   7.309 -30.434  1.00  0.00     0.007 A 
HETATM   21  C   UNL     1       0.357   7.673 -29.104  1.00  0.00     0.001 A 
HETATM   22  C   UNL     1       0.676   6.704 -28.158  1.00  0.00     0.000 A 
HETATM   23  C   UNL     1       0.760   5.368 -28.539  1.00  0.00     0.001 A 
HETATM   24  C   UNL     1       0.518   5.003 -29.866  1.00  0.00     0.007 A 
ENDBRANCH  18  19
ENDBRANCH  15  18
ENDBRANCH  12  15
ENDBRANCH   1  11
BRANCH   8  25
HETATM   25  C   UNL     1      -8.186   2.055 -33.824  1.00  0.00     0.270 C 
HETATM   26  N   UNL     1      -8.838   1.210 -34.682  1.00  0.00    -0.365 N 
HETATM   27  H   UNL     1      -8.669   0.215 -34.603  1.00  0.00     0.159 HD
HETATM   28  H   UNL     1      -9.477   1.587 -35.363  1.00  0.00     0.159 HD
HETATM   29  O   UNL     1      -8.360   3.267 -33.875  1.00  0.00    -0.266 OA
ENDBRANCH   8  25
TORSDOF 5
ENDMDL
MODEL 8
REMARK VINA RESULT:      -7.8      3.131      7.673
REMARK  5 active torsions:
REMARK  status: ('A' for Active; 'I' for Inactive)
REMARK    1  A    between atoms: C_4  and  C_5 
REMARK    2  A    between atoms: C_5  and  C_6 
REMARK    3  A    between atoms: C_6  and  C_7 
REMARK       I    between atoms: C_7  and  N_8 
REMARK    4  A    between atoms: N_8  and  C_9 
REMARK    5  A    between atoms: C_16  and  C_17 
REMARK       I    between atoms: C_17  and  N_18 
ROOT
HETATM    1  C   UNL     1      -4.509   0.957 -32.542  1.00  0.00     0.035 A 
HETATM    2  C   UNL     1      -4.787  -0.225 -33.243  1.00  0.00     0.046 A 
HETATM    3  C   UNL     1      -4.132  -1.422 -32.876  1.00  0.00     0.030 A 
HETATM    4  C   UNL     1      -3.222  -1.395 -31.827  1.00  0.00     0.063 A 
HETATM    5  N   UNL     1      -2.754  -2.674 -31.718  1.00  0.00    -0.277 N 
HETATM    6  H   UNL     1      -2.068  -3.023 -31.059  1.00  0.00     0.189 HD
HETATM    7  N   UNL     1      -3.286  -3.538 -32.599  1.00  0.00    -0.168 NA
HETATM    8  C   UNL     1      -4.141  -2.778 -33.322  1.00  0.00     0.156 A 
HETATM    9  C   UNL     1      -2.924  -0.238 -31.105  1.00  0.00     0.034 A 
HETATM   10  C   UNL     1      -3.591   0.934 -31.484  1.00  0.00     0.032 A 
ENDROOT
BRANCH   1  11
HETATM   11  N   UNL     1      -5.091   2.204 -32.847  1.00  0.00    -0.326 N 
HETATM   12  C   UNL     1      -5.592   3.138 -31.966  1.00  0.00     0.231 C 
HETATM   13  O   UNL     1      -5.565   3.108 -30.746  1.00  0.00    -0.272 OA
HETATM   14  H   UNL     1      -5.185   2.427 -33.829  1.00  0.00     0.169 HD
BRANCH  12  15
HETATM   15  C   UNL     1      -6.239   4.311 -32.669  1.00  0.00     0.045 A 
HETATM   16  C   UNL     1      -7.759   4.418 -32.517  1.00  0.00     0.020 A 
HETATM   17  C   UNL     1      -7.179   4.019 -33.835  1.00  0.00     0.020 A 
BRANCH  15  18
HETATM   18  C   UNL     1      -5.447   5.616 -32.706  1.00  0.00     0.057 C 
BRANCH  18  19
HETATM   19  C   UNL     1      -4.006   5.482 -33.150  1.00  0.00    -0.057 A 
HETATM   20  C   UNL     1      -2.923   5.638 -32.276  1.00  0.00     0.007 A 
HETATM   21  C   UNL     1      -1.607   5.567 -32.746  1.00  0.00     0.001 A 
HETATM   22  C   UNL     1      -1.356   5.358 -34.099  1.00  0.00     0.000 A 
HETATM   23  C   UNL     1      -2.421   5.220 -34.985  1.00  0.00     0.001 A 
HETATM   24  C   UNL     1      -3.734   5.285 -34.515  1.00  0.00     0.007 A 
ENDBRANCH  18  19
ENDBRANCH  15  18
ENDBRANCH  12  15
ENDBRANCH   1  11
BRANCH   8  25
HETATM   25  C   UNL     1      -4.939  -3.362 -34.410  1.00  0.00     0.270 C 
HETATM   26  N   UNL     1      -5.029  -4.727 -34.366  1.00  0.00    -0.365 N 
HETATM   27  H   UNL     1      -4.561  -5.219 -33.615  1.00  0.00     0.159 HD
HETATM   28  H   UNL     1      -5.562  -5.214 -35.068  1.00  0.00     0.159 HD
HETATM   29  O   UNL     1      -5.492  -2.719 -35.295  1.00  0.00    -0.266 OA
ENDBRANCH   8  25
TORSDOF 5
ENDMDL
MODEL 9
REMARK VINA RESULT:      -7.7      3.407      7.732
REMARK  5 active torsions:
REMARK  status: ('A' for Active; 'I' for Inactive)
REMARK    1  A    between atoms: C_4  and  C_5 
REMARK    2  A    between atoms: C_5  and  C_6 
REMARK    3  A    between atoms: C_6  and  C_7 
REMARK       I    between atoms: C_7  and  N_8 
REMARK    4  A    between atoms: N_8  and  C_9 
REMARK    5  A    between atoms: C_16  and  C_17 
REMARK       I    between atoms: C_17  and  N_18 
ROOT
HETATM    1  C   UNL     1      -5.686   1.201 -33.165  1.00  0.00     0.035 A 
HETATM    2  C   UNL     1      -4.834   0.206 -32.668  1.00  0.00     0.046 A 
HETATM    3  C   UNL     1      -4.844  -1.078 -33.258  1.00  0.00     0.030 A 
HETATM    4  C   UNL     1      -5.705  -1.321 -34.320  1.00  0.00     0.063 A 
HETATM    5  N   UNL     1      -5.498  -2.627 -34.664  1.00  0.00    -0.277 N 
HETATM    6  H   UNL     1      -5.962  -3.149 -35.399  1.00  0.00     0.189 HD
HETATM    7  N   UNL     1      -4.570  -3.257 -33.926  1.00  0.00    -0.168 NA
HETATM    8  C   UNL     1      -4.155  -2.311 -33.052  1.00  0.00     0.156 A 
HETATM    9  C   UNL     1      -6.563  -0.353 -34.844  1.00  0.00     0.034 A 
HETATM   10  C   UNL     1      -6.531   0.913 -34.245  1.00  0.00     0.032 A 
ENDROOT
BRANCH   1  11
HETATM   11  N   UNL     1      -5.767   2.503 -32.629  1.00  0.00    -0.326 N 
HETATM   12  C   UNL     1      -5.713   3.700 -33.311  1.00  0.00     0.231 C 
HETATM   13  O   UNL     1      -5.661   3.873 -34.518  1.00  0.00    -0.272 OA
HETATM   14  H   UNL     1      -5.839   2.570 -31.623  1.00  0.00     0.169 HD
BRANCH  12  15
HETATM   15  C   UNL     1      -5.724   4.896 -32.385  1.00  0.00     0.045 A 
HETATM   16  C   UNL     1      -7.084   5.249 -31.775  1.00  0.00     0.020 A 
HETATM   17  C   UNL     1      -6.498   6.136 -32.826  1.00  0.00     0.020 A 
BRANCH  15  18
HETATM   18  C   UNL     1      -4.490   5.105 -31.511  1.00  0.00     0.057 C 
BRANCH  18  19
HETATM   19  C   UNL     1      -3.297   5.713 -32.216  1.00  0.00    -0.057 A 
HETATM   20  C   UNL     1      -3.030   7.088 -32.209  1.00  0.00     0.007 A 
HETATM   21  C   UNL     1      -1.949   7.611 -32.927  1.00  0.00     0.001 A 
HETATM   22  C   UNL     1      -1.133   6.770 -33.677  1.00  0.00     0.000 A 
HETATM   23  C   UNL     1      -1.395   5.404 -33.711  1.00  0.00     0.001 A 
HETATM   24  C   UNL     1      -2.470   4.880 -32.990  1.00  0.00     0.007 A 
ENDBRANCH  18  19
ENDBRANCH  15  18
ENDBRANCH  12  15
ENDBRANCH   1  11
BRANCH   8  25
HETATM   25  C   UNL     1      -3.119  -2.605 -32.051  1.00  0.00     0.270 C 
HETATM   26  N   UNL     1      -2.367  -1.520 -31.690  1.00  0.00    -0.365 N 
HETATM   27  H   UNL     1      -2.571  -0.625 -32.118  1.00  0.00     0.159 HD
HETATM   28  H   UNL     1      -1.637  -1.626 -31.004  1.00  0.00     0.159 HD
HETATM   29  O   UNL     1      -2.915  -3.709 -31.559  1.00  0.00    -0.266 OA
ENDBRANCH   8  25
TORSDOF 5
ENDMDL
MODEL 10
REMARK VINA RESULT:      -7.7      2.474      8.296
REMARK  5 active torsions:
REMARK  status: ('A' for Active; 'I' for Inactive)
REMARK    1  A    between atoms: C_4  and  C_5 
REMARK    2  A    between atoms: C_5  and  C_6 
REMARK    3  A    between atoms: C_6  and  C_7 
REMARK       I    between atoms: C_7  and  N_8 
REMARK    4  A    between atoms: N_8  and  C_9 
REMARK    5  A    between atoms: C_16  and  C_17 
REMARK       I    between atoms: C_17  and  N_18 
ROOT
HETATM    1  C   UNL     1      -3.899   3.359 -31.674  1.00  0.00     0.035 A 
HETATM    2  C   UNL     1      -4.180   2.073 -32.155  1.00  0.00     0.046 A 
HETATM    3  C   UNL     1      -5.135   1.274 -31.486  1.00  0.00     0.030 A 
HETATM    4  C   UNL     1      -5.770   1.786 -30.362  1.00  0.00     0.063 A 
HETATM    5  N   UNL     1      -6.613   0.797 -29.938  1.00  0.00    -0.277 N 
HETATM    6  H   UNL     1      -7.233   0.821 -29.137  1.00  0.00     0.189 HD
HETATM    7  N   UNL     1      -6.591  -0.314 -30.693  1.00  0.00    -0.168 NA
HETATM    8  C   UNL     1      -5.682  -0.034 -31.655  1.00  0.00     0.156 A 
HETATM    9  C   UNL     1      -5.518   3.063 -29.859  1.00  0.00     0.034 A 
HETATM   10  C   UNL     1      -4.571   3.838 -30.542  1.00  0.00     0.032 A 
ENDROOT
BRANCH   1  11
HETATM   11  N   UNL     1      -2.947   4.222 -32.255  1.00  0.00    -0.326 N 
HETATM   12  C   UNL     1      -2.920   5.599 -32.211  1.00  0.00     0.231 C 
HETATM   13  O   UNL     1      -3.668   6.344 -31.599  1.00  0.00    -0.272 OA
HETATM   14  H   UNL     1      -2.216   3.782 -32.798  1.00  0.00     0.169 HD
BRANCH  12  15
HETATM   15  C   UNL     1      -1.802   6.185 -33.044  1.00  0.00     0.045 A 
HETATM   16  C   UNL     1      -2.162   6.518 -34.495  1.00  0.00     0.020 A 
HETATM   17  C   UNL     1      -1.266   5.357 -34.209  1.00  0.00     0.020 A 
BRANCH  15  18
HETATM   18  C   UNL     1      -0.828   7.121 -32.334  1.00  0.00     0.057 C 
BRANCH  18  19
HETATM   19  C   UNL     1      -0.228   6.577 -31.055  1.00  0.00    -0.057 A 
HETATM   20  C   UNL     1       0.378   5.318 -30.976  1.00  0.00     0.007 A 
HETATM   21  C   UNL     1       0.863   4.832 -29.757  1.00  0.00     0.001 A 
HETATM   22  C   UNL     1       0.730   5.590 -28.597  1.00  0.00     0.000 A 
HETATM   23  C   UNL     1       0.112   6.835 -28.654  1.00  0.00     0.001 A 
HETATM   24  C   UNL     1      -0.366   7.323 -29.872  1.00  0.00     0.007 A 
ENDBRANCH  18  19
ENDBRANCH  15  18
ENDBRANCH  12  15
ENDBRANCH   1  11
BRANCH   8  25
HETATM   25  C   UNL     1      -5.362  -1.014 -32.704  1.00  0.00     0.270 C 
HETATM   26  N   UNL     1      -6.442  -1.409 -33.446  1.00  0.00    -0.365 N 
HETATM   27  H   UNL     1      -7.349  -1.012 -33.232  1.00  0.00     0.159 HD
HETATM   28  H   UNL     1      -6.317  -2.074 -34.192  1.00  0.00     0.159 HD
HETATM   29  O   UNL     1      -4.242  -1.460 -32.926  1.00  0.00    -0.266 OA
ENDBRANCH   8  25
TORSDOF 5
ENDMDL
