MODEL 1
REMARK VINA RESULT:      -8.5      0.000      0.000
REMARK  5 active torsions:
REMARK  status: ('A' for Active; 'I' for Inactive)
REMARK    1  A    between atoms: C_2  and  N_3 
REMARK    2  A    between atoms: C_7  and  N_8 
REMARK       I    between atoms: N_8  and  C_9 
REMARK       I    between atoms: C_9  and  N_10 
REMARK    3  A    between atoms: N_10  and  C_11 
REMARK    4  A    between atoms: C_11  and  C_12 
REMARK    5  A    between atoms: C_17  and  C_18 
ROOT
HETATM    1  N   UNL     1      -9.375   1.233 -31.137  1.00  0.00    -0.293 N 
HETATM    2  C   UNL     1      -9.284   0.682 -32.432  1.00  0.00     0.322 C 
HETATM    3  N   UNL     1      -8.279   1.170 -33.216  1.00  0.00    -0.339 N 
HETATM    4  O   UNL     1     -10.027  -0.249 -32.681  1.00  0.00    -0.247 OA
HETATM    5  H   UNL     1      -9.831   0.624 -30.466  1.00  0.00     0.172 HD
HETATM    6  H   UNL     1      -7.534   1.649 -32.736  1.00  0.00     0.164 HD
ENDROOT
BRANCH   3   7
HETATM    7  C   UNL     1      -7.950   0.390 -34.390  1.00  0.00     0.163 C 
BRANCH   7   8
HETATM    8  C   UNL     1      -6.857  -0.638 -34.236  1.00  0.00    -0.037 A 
HETATM    9  C   UNL     1      -5.581  -0.182 -33.860  1.00  0.00     0.051 A 
HETATM   10  C   UNL     1      -4.501  -1.056 -33.800  1.00  0.00     0.117 A 
HETATM   11  F   UNL     1      -3.295  -0.587 -33.456  1.00  0.00    -0.206 F 
HETATM   12  C   UNL     1      -4.649  -2.399 -34.110  1.00  0.00     0.058 A 
HETATM   13  C   UNL     1      -5.906  -2.887 -34.490  1.00  0.00     0.051 A 
HETATM   14  C   UNL     1      -7.001  -1.997 -34.563  1.00  0.00     0.025 A 
BRANCH  13  15
HETATM   15  C   UNL     1      -6.084  -4.341 -34.858  1.00  0.00     0.417 C 
HETATM   16  F   UNL     1      -5.090  -5.148 -34.402  1.00  0.00    -0.166 F 
HETATM   17  F   UNL     1      -7.246  -4.855 -34.368  1.00  0.00    -0.166 F 
HETATM   18  F   UNL     1      -6.135  -4.524 -36.206  1.00  0.00    -0.166 F 
ENDBRANCH  13  15
ENDBRANCH   7   8
ENDBRANCH   3   7
BRANCH   1  19
HETATM   19  C   UNL     1      -8.943   2.465 -30.689  1.00  0.00     0.129 C 
HETATM   20  N   UNL     1      -7.690   2.940 -30.367  1.00  0.00    -0.250 N 
HETATM   21  N   UNL     1      -7.727   4.213 -29.916  1.00  0.00    -0.183 NA
HETATM   22  C   UNL     1      -8.994   4.588 -30.090  1.00  0.00     0.142 C 
HETATM   23  C   UNL     1      -9.790   3.547 -30.595  1.00  0.00     0.071 C 
BRANCH  20  24
HETATM   24  C   UNL     1      -6.388   2.349 -30.667  1.00  0.00     0.104 C 
HETATM   25  C   UNL     1      -6.107   1.127 -29.792  1.00  0.00     0.034 C 
HETATM   26  C   UNL     1      -5.270   3.388 -30.541  1.00  0.00     0.034 C 
ENDBRANCH  20  24
ENDBRANCH   1  19
TORSDOF 5
ENDMDL
MODEL 2
REMARK VINA RESULT:      -8.3      0.909      2.702
REMARK  5 active torsions:
REMARK  status: ('A' for Active; 'I' for Inactive)
REMARK    1  A    between atoms: C_2  and  N_3 
REMARK    2  A    between atoms: C_7  and  N_8 
REMARK       I    between atoms: N_8  and  C_9 
REMARK       I    between atoms: C_9  and  N_10 
REMARK    3  A    between atoms: N_10  and  C_11 
REMARK    4  A    between atoms: C_11  and  C_12 
REMARK    5  A    between atoms: C_17  and  C_18 
ROOT
HETATM    1  N   UNL     1      -9.368   1.106 -31.137  1.00  0.00    -0.293 N 
HETATM    2  C   UNL     1      -9.305   0.499 -32.408  1.00  0.00     0.322 C 
HETATM    3  N   UNL     1      -8.226   0.836 -33.174  1.00  0.00    -0.339 N 
HETATM    4  O   UNL     1     -10.146  -0.346 -32.651  1.00  0.00    -0.247 OA
HETATM    5  H   UNL     1      -9.913   0.581 -30.461  1.00  0.00     0.172 HD
HETATM    6  H   UNL     1      -7.444   1.241 -32.685  1.00  0.00     0.164 HD
ENDROOT
BRANCH   3   7
HETATM    7  C   UNL     1      -7.957  -0.022 -34.308  1.00  0.00     0.163 C 
BRANCH   7   8
HETATM    8  C   UNL     1      -6.737  -0.904 -34.217  1.00  0.00    -0.037 A 
HETATM    9  C   UNL     1      -6.752  -2.114 -34.932  1.00  0.00     0.051 A 
HETATM   10  C   UNL     1      -5.708  -3.026 -34.813  1.00  0.00     0.117 A 
HETATM   11  F   UNL     1      -5.761  -4.178 -35.494  1.00  0.00    -0.206 F 
HETATM   12  C   UNL     1      -4.625  -2.769 -33.987  1.00  0.00     0.058 A 
HETATM   13  C   UNL     1      -4.579  -1.573 -33.258  1.00  0.00     0.051 A 
HETATM   14  C   UNL     1      -5.645  -0.653 -33.370  1.00  0.00     0.025 A 
BRANCH  13  15
HETATM   15  C   UNL     1      -3.421  -1.286 -32.331  1.00  0.00     0.417 C 
HETATM   16  F   UNL     1      -3.793  -0.757 -31.135  1.00  0.00    -0.166 F 
HETATM   17  F   UNL     1      -2.706  -2.408 -32.043  1.00  0.00    -0.166 F 
HETATM   18  F   UNL     1      -2.535  -0.408 -32.877  1.00  0.00    -0.166 F 
ENDBRANCH  13  15
ENDBRANCH   7   8
ENDBRANCH   3   7
BRANCH   1  19
HETATM   19  C   UNL     1      -8.806   2.295 -30.717  1.00  0.00     0.129 C 
HETATM   20  N   UNL     1      -7.514   2.633 -30.378  1.00  0.00    -0.250 N 
HETATM   21  N   UNL     1      -7.413   3.917 -29.968  1.00  0.00    -0.183 NA
HETATM   22  C   UNL     1      -8.624   4.429 -30.186  1.00  0.00     0.142 C 
HETATM   23  C   UNL     1      -9.525   3.470 -30.677  1.00  0.00     0.071 C 
BRANCH  20  24
HETATM   24  C   UNL     1      -6.283   1.886 -30.627  1.00  0.00     0.104 C 
HETATM   25  C   UNL     1      -6.115   0.729 -29.642  1.00  0.00     0.034 C 
HETATM   26  C   UNL     1      -5.064   2.813 -30.605  1.00  0.00     0.034 C 
ENDBRANCH  20  24
ENDBRANCH   1  19
TORSDOF 5
ENDMDL
MODEL 3
REMARK VINA RESULT:      -8.2      3.387      4.468
REMARK  5 active torsions:
REMARK  status: ('A' for Active; 'I' for Inactive)
REMARK    1  A    between atoms: C_2  and  N_3 
REMARK    2  A    between atoms: C_7  and  N_8 
REMARK       I    between atoms: N_8  and  C_9 
REMARK       I    between atoms: C_9  and  N_10 
REMARK    3  A    between atoms: N_10  and  C_11 
REMARK    4  A    between atoms: C_11  and  C_12 
REMARK    5  A    between atoms: C_17  and  C_18 
ROOT
HETATM    1  N   UNL     1      -3.300   2.895 -31.134  1.00  0.00    -0.293 N 
HETATM    2  C   UNL     1      -3.711   1.564 -31.350  1.00  0.00     0.322 C 
HETATM    3  N   UNL     1      -3.417   1.044 -32.578  1.00  0.00    -0.339 N 
HETATM    4  O   UNL     1      -4.176   0.974 -30.393  1.00  0.00    -0.247 OA
HETATM    5  H   UNL     1      -3.166   3.127 -30.156  1.00  0.00     0.172 HD
HETATM    6  H   UNL     1      -2.705   1.525 -33.105  1.00  0.00     0.164 HD
ENDROOT
BRANCH   3   7
HETATM    7  C   UNL     1      -3.505  -0.396 -32.698  1.00  0.00     0.163 C 
BRANCH   7   8
HETATM    8  C   UNL     1      -4.623  -0.937 -33.554  1.00  0.00    -0.037 A 
HETATM    9  C   UNL     1      -5.596  -0.028 -34.006  1.00  0.00     0.051 A 
HETATM   10  C   UNL     1      -6.712  -0.469 -34.711  1.00  0.00     0.117 A 
HETATM   11  F   UNL     1      -7.628   0.420 -35.113  1.00  0.00    -0.206 F 
HETATM   12  C   UNL     1      -6.897  -1.815 -34.985  1.00  0.00     0.058 A 
HETATM   13  C   UNL     1      -5.949  -2.748 -34.547  1.00  0.00     0.051 A 
HETATM   14  C   UNL     1      -4.822  -2.301 -33.821  1.00  0.00     0.025 A 
BRANCH  13  15
HETATM   15  C   UNL     1      -6.146  -4.222 -34.812  1.00  0.00     0.417 C 
HETATM   16  F   UNL     1      -5.173  -5.011 -34.282  1.00  0.00    -0.166 F 
HETATM   17  F   UNL     1      -7.323  -4.680 -34.303  1.00  0.00    -0.166 F 
HETATM   18  F   UNL     1      -6.180  -4.502 -36.143  1.00  0.00    -0.166 F 
ENDBRANCH  13  15
ENDBRANCH   7   8
ENDBRANCH   3   7
BRANCH   1  19
HETATM   19  C   UNL     1      -3.079   3.894 -32.061  1.00  0.00     0.129 C 
HETATM   20  N   UNL     1      -3.924   4.536 -32.940  1.00  0.00    -0.250 N 
HETATM   21  N   UNL     1      -3.270   5.430 -33.715  1.00  0.00    -0.183 NA
HETATM   22  C   UNL     1      -2.032   5.451 -33.222  1.00  0.00     0.142 C 
HETATM   23  C   UNL     1      -1.864   4.533 -32.172  1.00  0.00     0.071 C 
BRANCH  20  24
HETATM   24  C   UNL     1      -5.385   4.539 -32.961  1.00  0.00     0.104 C 
HETATM   25  C   UNL     1      -5.934   3.696 -34.113  1.00  0.00     0.034 C 
HETATM   26  C   UNL     1      -5.931   5.968 -33.013  1.00  0.00     0.034 C 
ENDBRANCH  20  24
ENDBRANCH   1  19
TORSDOF 5
ENDMDL
MODEL 4
REMARK VINA RESULT:      -8.0      1.060      2.406
REMARK  5 active torsions:
REMARK  status: ('A' for Active; 'I' for Inactive)
REMARK    1  A    between atoms: C_2  and  N_3 
REMARK    2  A    between atoms: C_7  and  N_8 
REMARK       I    between atoms: N_8  and  C_9 
REMARK       I    between atoms: C_9  and  N_10 
REMARK    3  A    between atoms: N_10  and  C_11 
REMARK    4  A    between atoms: C_11  and  C_12 
REMARK    5  A    between atoms: C_17  and  C_18 
ROOT
HETATM    1  N   UNL     1      -9.290   1.428 -31.120  1.00  0.00    -0.293 N 
HETATM    2  C   UNL     1      -9.241   0.804 -32.384  1.00  0.00     0.322 C 
HETATM    3  N   UNL     1      -8.334   1.319 -33.265  1.00  0.00    -0.339 N 
HETATM    4  O   UNL     1      -9.920  -0.196 -32.525  1.00  0.00    -0.247 OA
HETATM    5  H   UNL     1      -9.649   0.830 -30.384  1.00  0.00     0.172 HD
HETATM    6  H   UNL     1      -7.601   1.885 -32.868  1.00  0.00     0.164 HD
ENDROOT
BRANCH   3   7
HETATM    7  C   UNL     1      -8.021   0.493 -34.412  1.00  0.00     0.163 C 
BRANCH   7   8
HETATM    8  C   UNL     1      -6.928  -0.531 -34.231  1.00  0.00    -0.037 A 
HETATM    9  C   UNL     1      -5.664  -0.070 -33.821  1.00  0.00     0.051 A 
HETATM   10  C   UNL     1      -4.582  -0.939 -33.735  1.00  0.00     0.117 A 
HETATM   11  F   UNL     1      -3.387  -0.466 -33.357  1.00  0.00    -0.206 F 
HETATM   12  C   UNL     1      -4.716  -2.282 -34.051  1.00  0.00     0.058 A 
HETATM   13  C   UNL     1      -5.961  -2.774 -34.466  1.00  0.00     0.051 A 
HETATM   14  C   UNL     1      -7.057  -1.889 -34.565  1.00  0.00     0.025 A 
BRANCH  13  15
HETATM   15  C   UNL     1      -6.122  -4.229 -34.842  1.00  0.00     0.417 C 
HETATM   16  F   UNL     1      -6.163  -4.448 -36.182  1.00  0.00    -0.166 F 
HETATM   17  F   UNL     1      -5.105  -4.997 -34.363  1.00  0.00    -0.166 F 
HETATM   18  F   UNL     1      -7.265  -4.764 -34.332  1.00  0.00    -0.166 F 
ENDBRANCH  13  15
ENDBRANCH   7   8
ENDBRANCH   3   7
BRANCH   1  19
HETATM   19  C   UNL     1      -8.934   2.717 -30.777  1.00  0.00     0.129 C 
HETATM   20  N   UNL     1      -9.559   3.929 -30.979  1.00  0.00    -0.250 N 
HETATM   21  N   UNL     1      -8.822   4.964 -30.518  1.00  0.00    -0.183 NA
HETATM   22  C   UNL     1      -7.794   4.388 -29.896  1.00  0.00     0.142 C 
HETATM   23  C   UNL     1      -7.827   2.988 -30.002  1.00  0.00     0.071 C 
BRANCH  20  24
HETATM   24  C   UNL     1     -10.939   4.185 -31.384  1.00  0.00     0.104 C 
HETATM   25  C   UNL     1     -11.085   4.203 -32.906  1.00  0.00     0.034 C 
HETATM   26  C   UNL     1     -11.462   5.483 -30.763  1.00  0.00     0.034 C 
ENDBRANCH  20  24
ENDBRANCH   1  19
TORSDOF 5
ENDMDL
MODEL 5
REMARK VINA RESULT:      -8.0      3.975      5.192
REMARK  5 active torsions:
REMARK  status: ('A' for Active; 'I' for Inactive)
REMARK    1  A    between atoms: C_2  and  N_3 
REMARK    2  A    between atoms: C_7  and  N_8 
REMARK       I    between atoms: N_8  and  C_9 
REMARK       I    between atoms: C_9  and  N_10 
REMARK    3  A    between atoms: N_10  and  C_11 
REMARK    4  A    between atoms: C_11  and  C_12 
REMARK    5  A    between atoms: C_17  and  C_18 
ROOT
HETATM    1  N   UNL     1      -3.258   3.768 -31.040  1.00  0.00    -0.293 N 
HETATM    2  C   UNL     1      -3.947   2.541 -31.136  1.00  0.00     0.322 C 
HETATM    3  N   UNL     1      -3.452   1.652 -32.046  1.00  0.00    -0.339 N 
HETATM    4  O   UNL     1      -4.832   2.349 -30.324  1.00  0.00    -0.247 OA
HETATM    5  H   UNL     1      -3.370   4.230 -30.145  1.00  0.00     0.172 HD
HETATM    6  H   UNL     1      -2.507   1.812 -32.355  1.00  0.00     0.164 HD
ENDROOT
BRANCH   3   7
HETATM    7  C   UNL     1      -3.910   0.285 -31.915  1.00  0.00     0.163 C 
BRANCH   7   8
HETATM    8  C   UNL     1      -4.799  -0.240 -33.014  1.00  0.00    -0.037 A 
HETATM    9  C   UNL     1      -5.675   0.668 -33.634  1.00  0.00     0.051 A 
HETATM   10  C   UNL     1      -6.597   0.236 -34.581  1.00  0.00     0.117 A 
HETATM   11  F   UNL     1      -7.429   1.123 -35.141  1.00  0.00    -0.206 F 
HETATM   12  C   UNL     1      -6.680  -1.100 -34.940  1.00  0.00     0.058 A 
HETATM   13  C   UNL     1      -5.823  -2.033 -34.341  1.00  0.00     0.051 A 
HETATM   14  C   UNL     1      -4.895  -1.596 -33.370  1.00  0.00     0.025 A 
BRANCH  13  15
HETATM   15  C   UNL     1      -5.916  -3.498 -34.698  1.00  0.00     0.417 C 
HETATM   16  F   UNL     1      -5.000  -4.277 -34.064  1.00  0.00    -0.166 F 
HETATM   17  F   UNL     1      -7.135  -4.023 -34.394  1.00  0.00    -0.166 F 
HETATM   18  F   UNL     1      -5.740  -3.711 -36.031  1.00  0.00    -0.166 F 
ENDBRANCH  13  15
ENDBRANCH   7   8
ENDBRANCH   3   7
BRANCH   1  19
HETATM   19  C   UNL     1      -2.485   4.402 -31.992  1.00  0.00     0.129 C 
HETATM   20  N   UNL     1      -1.440   5.295 -31.883  1.00  0.00    -0.250 N 
HETATM   21  N   UNL     1      -0.997   5.710 -33.090  1.00  0.00    -0.183 NA
HETATM   22  C   UNL     1      -1.672   4.966 -33.965  1.00  0.00     0.142 C 
HETATM   23  C   UNL     1      -2.594   4.114 -33.335  1.00  0.00     0.071 C 
BRANCH  20  24
HETATM   24  C   UNL     1      -0.651   5.633 -30.701  1.00  0.00     0.104 C 
HETATM   25  C   UNL     1      -0.521   7.146 -30.522  1.00  0.00     0.034 C 
HETATM   26  C   UNL     1       0.725   4.962 -30.748  1.00  0.00     0.034 C 
ENDBRANCH  20  24
ENDBRANCH   1  19
TORSDOF 5
ENDMDL
MODEL 6
REMARK VINA RESULT:      -7.9      4.176      5.564
REMARK  5 active torsions:
REMARK  status: ('A' for Active; 'I' for Inactive)
REMARK    1  A    between atoms: C_2  and  N_3 
REMARK    2  A    between atoms: C_7  and  N_8 
REMARK       I    between atoms: N_8  and  C_9 
REMARK       I    between atoms: C_9  and  N_10 
REMARK    3  A    between atoms: N_10  and  C_11 
REMARK    4  A    between atoms: C_11  and  C_12 
REMARK    5  A    between atoms: C_17  and  C_18 
ROOT
HETATM    1  N   UNL     1      -3.488   3.895 -30.991  1.00  0.00    -0.293 N 
HETATM    2  C   UNL     1      -4.058   2.605 -31.001  1.00  0.00     0.322 C 
HETATM    3  N   UNL     1      -3.342   1.646 -31.659  1.00  0.00    -0.339 N 
HETATM    4  O   UNL     1      -5.060   2.446 -30.331  1.00  0.00    -0.247 OA
HETATM    5  H   UNL     1      -3.795   4.470 -30.214  1.00  0.00     0.172 HD
HETATM    6  H   UNL     1      -2.370   1.852 -31.825  1.00  0.00     0.164 HD
ENDROOT
BRANCH   3   7
HETATM    7  C   UNL     1      -3.717   0.274 -31.387  1.00  0.00     0.163 C 
BRANCH   7   8
HETATM    8  C   UNL     1      -4.586  -0.407 -32.415  1.00  0.00    -0.037 A 
HETATM    9  C   UNL     1      -4.101  -1.593 -32.996  1.00  0.00     0.051 A 
HETATM   10  C   UNL     1      -4.797  -2.219 -34.025  1.00  0.00     0.117 A 
HETATM   11  F   UNL     1      -4.301  -3.337 -34.568  1.00  0.00    -0.206 F 
HETATM   12  C   UNL     1      -5.985  -1.693 -34.507  1.00  0.00     0.058 A 
HETATM   13  C   UNL     1      -6.496  -0.512 -33.953  1.00  0.00     0.051 A 
HETATM   14  C   UNL     1      -5.782   0.131 -32.916  1.00  0.00     0.025 A 
BRANCH  13  15
HETATM   15  C   UNL     1      -7.774   0.093 -34.483  1.00  0.00     0.417 C 
HETATM   16  F   UNL     1      -8.099  -0.321 -35.737  1.00  0.00    -0.166 F 
HETATM   17  F   UNL     1      -8.846  -0.205 -33.697  1.00  0.00    -0.166 F 
HETATM   18  F   UNL     1      -7.714   1.452 -34.534  1.00  0.00    -0.166 F 
ENDBRANCH  13  15
ENDBRANCH   7   8
ENDBRANCH   3   7
BRANCH   1  19
HETATM   19  C   UNL     1      -2.602   4.457 -31.887  1.00  0.00     0.129 C 
HETATM   20  N   UNL     1      -1.403   5.114 -31.708  1.00  0.00    -0.250 N 
HETATM   21  N   UNL     1      -0.882   5.551 -32.876  1.00  0.00    -0.183 NA
HETATM   22  C   UNL     1      -1.686   5.042 -33.808  1.00  0.00     0.142 C 
HETATM   23  C   UNL     1      -2.759   4.328 -33.250  1.00  0.00     0.071 C 
BRANCH  20  24
HETATM   24  C   UNL     1      -0.569   5.174 -30.510  1.00  0.00     0.104 C 
HETATM   25  C   UNL     1      -0.872   6.417 -29.673  1.00  0.00     0.034 C 
HETATM   26  C   UNL     1       0.917   5.100 -30.871  1.00  0.00     0.034 C 
ENDBRANCH  20  24
ENDBRANCH   1  19
TORSDOF 5
ENDMDL
MODEL 7
REMARK VINA RESULT:      -7.9      1.961      2.256
REMARK  5 active torsions:
REMARK  status: ('A' for Active; 'I' for Inactive)
REMARK    1  A    between atoms: C_2  and  N_3 
REMARK    2  A    between atoms: C_7  and  N_8 
REMARK       I    between atoms: N_8  and  C_9 
REMARK       I    between atoms: C_9  and  N_10 
REMARK    3  A    between atoms: N_10  and  C_11 
REMARK    4  A    between atoms: C_11  and  C_12 
REMARK    5  A    between atoms: C_17  and  C_18 
ROOT
HETATM    1  N   UNL     1      -7.472   3.208 -31.969  1.00  0.00    -0.293 N 
HETATM    2  C   UNL     1      -7.944   2.202 -32.837  1.00  0.00     0.322 C 
HETATM    3  N   UNL     1      -7.148   1.922 -33.910  1.00  0.00    -0.339 N 
HETATM    4  O   UNL     1      -8.944   1.604 -32.486  1.00  0.00    -0.247 OA
HETATM    5  H   UNL     1      -7.835   3.136 -31.025  1.00  0.00     0.172 HD
HETATM    6  H   UNL     1      -6.191   2.232 -33.846  1.00  0.00     0.164 HD
ENDROOT
BRANCH   3   7
HETATM    7  C   UNL     1      -7.423   0.680 -34.601  1.00  0.00     0.163 C 
BRANCH   7   8
HETATM    8  C   UNL     1      -6.505  -0.479 -34.305  1.00  0.00    -0.037 A 
HETATM    9  C   UNL     1      -5.245  -0.187 -33.753  1.00  0.00     0.051 A 
HETATM   10  C   UNL     1      -4.305  -1.193 -33.551  1.00  0.00     0.117 A 
HETATM   11  F   UNL     1      -3.108  -0.881 -33.039  1.00  0.00    -0.206 F 
HETATM   12  C   UNL     1      -4.583  -2.509 -33.887  1.00  0.00     0.058 A 
HETATM   13  C   UNL     1      -5.828  -2.834 -34.442  1.00  0.00     0.051 A 
HETATM   14  C   UNL     1      -6.777  -1.811 -34.658  1.00  0.00     0.025 A 
BRANCH  13  15
HETATM   15  C   UNL     1      -6.140  -4.257 -34.841  1.00  0.00     0.417 C 
HETATM   16  F   UNL     1      -5.236  -5.166 -34.388  1.00  0.00    -0.166 F 
HETATM   17  F   UNL     1      -7.353  -4.665 -34.376  1.00  0.00    -0.166 F 
HETATM   18  F   UNL     1      -6.188  -4.409 -36.193  1.00  0.00    -0.166 F 
ENDBRANCH  13  15
ENDBRANCH   7   8
ENDBRANCH   3   7
BRANCH   1  19
HETATM   19  C   UNL     1      -6.615   4.255 -32.243  1.00  0.00     0.129 C 
HETATM   20  N   UNL     1      -5.240   4.325 -32.307  1.00  0.00    -0.250 N 
HETATM   21  N   UNL     1      -4.805   5.579 -32.562  1.00  0.00    -0.183 NA
HETATM   22  C   UNL     1      -5.917   6.273 -32.801  1.00  0.00     0.142 C 
HETATM   23  C   UNL     1      -7.073   5.491 -32.643  1.00  0.00     0.071 C 
BRANCH  20  24
HETATM   24  C   UNL     1      -4.274   3.230 -32.369  1.00  0.00     0.104 C 
HETATM   25  C   UNL     1      -4.179   2.486 -31.037  1.00  0.00     0.034 C 
HETATM   26  C   UNL     1      -2.901   3.733 -32.821  1.00  0.00     0.034 C 
ENDBRANCH  20  24
ENDBRANCH   1  19
TORSDOF 5
ENDMDL
MODEL 8
REMARK VINA RESULT:      -7.8      3.875      5.080
REMARK  5 active torsions:
REMARK  status: ('A' for Active; 'I' for Inactive)
REMARK    1  A    between atoms: C_2  and  N_3 
REMARK    2  A    between atoms: C_7  and  N_8 
REMARK       I    between atoms: N_8  and  C_9 
REMARK       I    between atoms: C_9  and  N_10 
REMARK    3  A    between atoms: N_10  and  C_11 
REMARK    4  A    between atoms: C_11  and  C_12 
REMARK    5  A    between atoms: C_17  and  C_18 
ROOT
HETATM    1  N   UNL     1      -4.496   4.364 -31.688  1.00  0.00    -0.293 N 
HETATM    2  C   UNL     1      -4.488   3.011 -31.290  1.00  0.00     0.322 C 
HETATM    3  N   UNL     1      -3.572   2.214 -31.914  1.00  0.00    -0.339 N 
HETATM    4  O   UNL     1      -5.208   2.713 -30.355  1.00  0.00    -0.247 OA
HETATM    5  H   UNL     1      -4.870   4.993 -30.986  1.00  0.00     0.172 HD
HETATM    6  H   UNL     1      -2.811   2.689 -32.374  1.00  0.00     0.164 HD
ENDROOT
BRANCH   3   7
HETATM    7  C   UNL     1      -3.306   0.937 -31.287  1.00  0.00     0.163 C 
BRANCH   7   8
HETATM    8  C   UNL     1      -3.861  -0.285 -31.976  1.00  0.00    -0.037 A 
HETATM    9  C   UNL     1      -3.145  -1.488 -31.846  1.00  0.00     0.051 A 
HETATM   10  C   UNL     1      -3.538  -2.629 -32.537  1.00  0.00     0.117 A 
HETATM   11  F   UNL     1      -2.825  -3.755 -32.405  1.00  0.00    -0.206 F 
HETATM   12  C   UNL     1      -4.643  -2.613 -33.374  1.00  0.00     0.058 A 
HETATM   13  C   UNL     1      -5.377  -1.430 -33.529  1.00  0.00     0.051 A 
HETATM   14  C   UNL     1      -4.971  -0.268 -32.836  1.00  0.00     0.025 A 
BRANCH  13  15
HETATM   15  C   UNL     1      -6.568  -1.384 -34.457  1.00  0.00     0.417 C 
HETATM   16  F   UNL     1      -6.513  -0.379 -35.371  1.00  0.00    -0.166 F 
HETATM   17  F   UNL     1      -6.707  -2.537 -35.169  1.00  0.00    -0.166 F 
HETATM   18  F   UNL     1      -7.737  -1.220 -33.780  1.00  0.00    -0.166 F 
ENDBRANCH  13  15
ENDBRANCH   7   8
ENDBRANCH   3   7
BRANCH   1  19
HETATM   19  C   UNL     1      -4.083   4.916 -32.883  1.00  0.00     0.129 C 
HETATM   20  N   UNL     1      -3.080   5.812 -33.185  1.00  0.00    -0.250 N 
HETATM   21  N   UNL     1      -3.056   6.126 -34.499  1.00  0.00    -0.183 NA
HETATM   22  C   UNL     1      -3.958   5.314 -35.050  1.00  0.00     0.142 C 
HETATM   23  C   UNL     1      -4.609   4.519 -34.093  1.00  0.00     0.071 C 
BRANCH  20  24
HETATM   24  C   UNL     1      -1.963   6.243 -32.348  1.00  0.00     0.104 C 
HETATM   25  C   UNL     1      -1.373   7.568 -32.833  1.00  0.00     0.034 C 
HETATM   26  C   UNL     1      -0.887   5.157 -32.265  1.00  0.00     0.034 C 
ENDBRANCH  20  24
ENDBRANCH   1  19
TORSDOF 5
ENDMDL
MODEL 9
REMARK VINA RESULT:      -7.7      3.128      5.185
REMARK  5 active torsions:
REMARK  status: ('A' for Active; 'I' for Inactive)
REMARK    1  A    between atoms: C_2  and  N_3 
REMARK    2  A    between atoms: C_7  and  N_8 
REMARK       I    between atoms: N_8  and  C_9 
REMARK       I    between atoms: C_9  and  N_10 
REMARK    3  A    between atoms: N_10  and  C_11 
REMARK    4  A    between atoms: C_11  and  C_12 
REMARK    5  A    between atoms: C_17  and  C_18 
ROOT
HETATM    1  N   UNL     1     -10.960   2.484 -32.711  1.00  0.00    -0.293 N 
HETATM    2  C   UNL     1      -9.617   2.146 -32.449  1.00  0.00     0.322 C 
HETATM    3  N   UNL     1      -8.757   2.269 -33.502  1.00  0.00    -0.339 N 
HETATM    4  O   UNL     1      -9.333   1.895 -31.293  1.00  0.00    -0.247 OA
HETATM    5  H   UNL     1     -11.479   2.763 -31.885  1.00  0.00     0.172 HD
HETATM    6  H   UNL     1      -9.073   2.842 -34.268  1.00  0.00     0.164 HD
ENDROOT
BRANCH   3   7
HETATM    7  C   UNL     1      -7.347   2.271 -33.178  1.00  0.00     0.163 C 
BRANCH   7   8
HETATM    8  C   UNL     1      -6.608   0.968 -33.354  1.00  0.00    -0.037 A 
HETATM    9  C   UNL     1      -7.191  -0.003 -34.187  1.00  0.00     0.051 A 
HETATM   10  C   UNL     1      -6.622  -1.267 -34.315  1.00  0.00     0.117 A 
HETATM   11  F   UNL     1      -7.210  -2.175 -35.104  1.00  0.00    -0.206 F 
HETATM   12  C   UNL     1      -5.469  -1.604 -33.625  1.00  0.00     0.058 A 
HETATM   13  C   UNL     1      -4.864  -0.661 -32.783  1.00  0.00     0.051 A 
HETATM   14  C   UNL     1      -5.448   0.618 -32.644  1.00  0.00     0.025 A 
BRANCH  13  15
HETATM   15  C   UNL     1      -3.622  -1.018 -32.001  1.00  0.00     0.417 C 
HETATM   16  F   UNL     1      -2.465  -0.635 -32.602  1.00  0.00    -0.166 F 
HETATM   17  F   UNL     1      -3.615  -0.448 -30.765  1.00  0.00    -0.166 F 
HETATM   18  F   UNL     1      -3.518  -2.360 -31.793  1.00  0.00    -0.166 F 
ENDBRANCH  13  15
ENDBRANCH   7   8
ENDBRANCH   3   7
BRANCH   1  19
HETATM   19  C   UNL     1     -11.637   2.470 -33.914  1.00  0.00     0.129 C 
HETATM   20  N   UNL     1     -12.668   1.682 -34.380  1.00  0.00    -0.250 N 
HETATM   21  N   UNL     1     -12.999   1.980 -35.656  1.00  0.00    -0.183 NA
HETATM   22  C   UNL     1     -12.268   3.056 -35.945  1.00  0.00     0.142 C 
HETATM   23  C   UNL     1     -11.422   3.422 -34.886  1.00  0.00     0.071 C 
BRANCH  20  24
HETATM   24  C   UNL     1     -13.546   0.791 -33.625  1.00  0.00     0.104 C 
HETATM   25  C   UNL     1     -12.978  -0.626 -33.546  1.00  0.00     0.034 C 
HETATM   26  C   UNL     1     -14.960   0.788 -34.211  1.00  0.00     0.034 C 
ENDBRANCH  20  24
ENDBRANCH   1  19
TORSDOF 5
ENDMDL
MODEL 10
REMARK VINA RESULT:      -7.6      1.678      1.975
REMARK  5 active torsions:
REMARK  status: ('A' for Active; 'I' for Inactive)
REMARK    1  A    between atoms: C_2  and  N_3 
REMARK    2  A    between atoms: C_7  and  N_8 
REMARK       I    between atoms: N_8  and  C_9 
REMARK       I    between atoms: C_9  and  N_10 
REMARK    3  A    between atoms: N_10  and  C_11 
REMARK    4  A    between atoms: C_11  and  C_12 
REMARK    5  A    between atoms: C_17  and  C_18 
ROOT
HETATM    1  N   UNL     1      -7.654   3.858 -33.070  1.00  0.00    -0.293 N 
HETATM    2  C   UNL     1      -6.970   2.873 -33.813  1.00  0.00     0.322 C 
HETATM    3  N   UNL     1      -7.602   1.668 -33.923  1.00  0.00    -0.339 N 
HETATM    4  O   UNL     1      -5.952   3.225 -34.377  1.00  0.00    -0.247 OA
HETATM    5  H   UNL     1      -7.393   4.807 -33.314  1.00  0.00     0.172 HD
HETATM    6  H   UNL     1      -8.590   1.664 -33.725  1.00  0.00     0.164 HD
ENDROOT
BRANCH   3   7
HETATM    7  C   UNL     1      -7.104   0.779 -34.951  1.00  0.00     0.163 C 
BRANCH   7   8
HETATM    8  C   UNL     1      -6.318  -0.422 -34.486  1.00  0.00    -0.037 A 
HETATM    9  C   UNL     1      -5.117  -0.186 -33.793  1.00  0.00     0.051 A 
HETATM   10  C   UNL     1      -4.287  -1.240 -33.425  1.00  0.00     0.117 A 
HETATM   11  F   UNL     1      -3.143  -0.982 -32.781  1.00  0.00    -0.206 F 
HETATM   12  C   UNL     1      -4.618  -2.551 -33.732  1.00  0.00     0.058 A 
HETATM   13  C   UNL     1      -5.806  -2.821 -34.424  1.00  0.00     0.051 A 
HETATM   14  C   UNL     1      -6.643  -1.750 -34.808  1.00  0.00     0.025 A 
BRANCH  13  15
HETATM   15  C   UNL     1      -6.171  -4.240 -34.793  1.00  0.00     0.417 C 
HETATM   16  F   UNL     1      -5.309  -5.173 -34.309  1.00  0.00    -0.166 F 
HETATM   17  F   UNL     1      -7.404  -4.587 -34.331  1.00  0.00    -0.166 F 
HETATM   18  F   UNL     1      -6.213  -4.422 -36.142  1.00  0.00    -0.166 F 
ENDBRANCH  13  15
ENDBRANCH   7   8
ENDBRANCH   3   7
BRANCH   1  19
HETATM   19  C   UNL     1      -8.594   3.692 -32.073  1.00  0.00     0.129 C 
HETATM   20  N   UNL     1      -8.497   3.200 -30.789  1.00  0.00    -0.250 N 
HETATM   21  N   UNL     1      -9.695   3.168 -30.164  1.00  0.00    -0.183 NA
HETATM   22  C   UNL     1     -10.526   3.775 -31.010  1.00  0.00     0.142 C 
HETATM   23  C   UNL     1      -9.888   4.147 -32.204  1.00  0.00     0.071 C 
BRANCH  20  24
HETATM   24  C   UNL     1      -7.294   2.956 -29.997  1.00  0.00     0.104 C 
HETATM   25  C   UNL     1      -6.333   4.144 -30.049  1.00  0.00     0.034 C 
HETATM   26  C   UNL     1      -6.601   1.663 -30.434  1.00  0.00     0.034 C 
ENDBRANCH  20  24
ENDBRANCH   1  19
TORSDOF 5
ENDMDL
