MODEL 1
REMARK VINA RESULT:      -9.5      0.000      0.000
REMARK  7 active torsions:
REMARK  status: ('A' for Active; 'I' for Inactive)
REMARK    1  A    between atoms: C_2  and  N_3 
REMARK    2  A    between atoms: N_3  and  N_4 
REMARK       I    between atoms: N_4  and  C_5 
REMARK    3  A    between atoms: C_5  and  C_6 
REMARK       I    between atoms: C_6  and  N_7 
REMARK    4  A    between atoms: N_7  and  C_8 
REMARK    5  A    between atoms: C_9  and  O_10 
REMARK    6  A    between atoms: C_18  and  C_19 
REMARK       I    between atoms: C_19  and  N_20 
REMARK    7  A    between atoms: N_20  and  C_21 
ROOT
HETATM    1  N   UNL     1      -2.682   4.341 -31.019  1.00  0.00    -0.302 N 
HETATM    2  H   UNL     1      -2.282   4.065 -30.114  1.00  0.00     0.186 HD
ENDROOT
BRANCH   1   3
HETATM    3  C   UNL     1      -3.579   3.442 -31.576  1.00  0.00     0.027 C 
HETATM    4  C   UNL     1      -4.490   4.039 -32.627  1.00  0.00     0.070 C 
HETATM    5  C   UNL     1      -3.655   2.149 -31.199  1.00  0.00     0.100 C 
BRANCH   5   6
HETATM    6  C   UNL     1      -4.704   1.196 -31.669  1.00  0.00     0.247 C 
HETATM    7  N   UNL     1      -4.264   0.451 -32.746  1.00  0.00    -0.323 N 
HETATM    8  H   UNL     1      -3.341   0.666 -33.090  1.00  0.00     0.169 HD
HETATM    9  O   UNL     1      -5.786   1.123 -31.106  1.00  0.00    -0.268 OA
BRANCH   7  10
HETATM   10  C   UNL     1      -4.977  -0.549 -33.459  1.00  0.00     0.041 A 
HETATM   11  C   UNL     1      -4.549  -1.900 -33.370  1.00  0.00    -0.025 A 
HETATM   12  C   UNL     1      -5.206  -2.890 -34.141  1.00  0.00    -0.050 A 
HETATM   13  C   UNL     1      -3.366  -2.292 -32.505  1.00  0.00     0.041 C 
HETATM   14  C   UNL     1      -4.792  -4.343 -34.112  1.00  0.00     0.039 C 
HETATM   15  C   UNL     1      -6.312  -2.542 -34.929  1.00  0.00     0.008 A 
HETATM   16  C   UNL     1      -3.383  -4.555 -33.577  1.00  0.00     0.005 C 
HETATM   17  C   UNL     1      -3.213  -3.794 -32.272  1.00  0.00     0.005 C 
HETATM   18  C   UNL     1      -6.749  -1.226 -34.985  1.00  0.00     0.003 A 
HETATM   19  C   UNL     1      -6.082  -0.240 -34.260  1.00  0.00     0.030 A 
ENDBRANCH   7  10
ENDBRANCH   5   6
ENDBRANCH   1   3
BRANCH   1  20
HETATM   20  N   UNL     1      -2.756   5.730 -31.190  1.00  0.00    -0.262 N 
HETATM   21  C   UNL     1      -1.611   6.332 -31.701  1.00  0.00     0.328 C 
HETATM   22  O   UNL     1      -0.656   5.738 -32.183  1.00  0.00    -0.261 OA
HETATM   23  H   UNL     1      -3.265   6.256 -30.482  1.00  0.00     0.190 HD
BRANCH  21  24
HETATM   24  C   UNL     1      -1.591   7.848 -31.490  1.00  0.00     0.315 C 
HETATM   25  N   UNL     1      -1.391   8.364 -30.234  1.00  0.00    -0.316 N 
HETATM   26  H   UNL     1      -1.750   9.307 -30.109  1.00  0.00     0.169 HD
HETATM   27  O   UNL     1      -1.838   8.560 -32.462  1.00  0.00    -0.262 OA
BRANCH  25  28
HETATM   28  C   UNL     1      -0.810   7.801 -29.081  1.00  0.00     0.068 A 
HETATM   29  C   UNL     1      -1.687   7.245 -28.127  1.00  0.00     0.095 A 
HETATM   30  C   UNL     1      -1.189   6.739 -26.923  1.00  0.00     0.039 A 
HETATM   31  C   UNL     1       0.183   6.767 -26.671  1.00  0.00     0.003 A 
HETATM   32  C   UNL     1       1.053   7.311 -27.612  1.00  0.00     0.002 A 
HETATM   33  C   UNL     1       0.560   7.832 -28.812  1.00  0.00     0.032 A 
BRANCH  29  34
HETATM   34  O   UNL     1      -3.027   7.263 -28.440  1.00  0.00    -0.354 OA
HETATM   35  C   UNL     1      -3.877   7.650 -27.363  1.00  0.00     0.210 C 
ENDBRANCH  29  34
ENDBRANCH  25  28
ENDBRANCH  21  24
ENDBRANCH   1  20
TORSDOF 7
ENDMDL
MODEL 2
REMARK VINA RESULT:      -8.7      1.968      2.696
REMARK  7 active torsions:
REMARK  status: ('A' for Active; 'I' for Inactive)
REMARK    1  A    between atoms: C_2  and  N_3 
REMARK    2  A    between atoms: N_3  and  N_4 
REMARK       I    between atoms: N_4  and  C_5 
REMARK    3  A    between atoms: C_5  and  C_6 
REMARK       I    between atoms: C_6  and  N_7 
REMARK    4  A    between atoms: N_7  and  C_8 
REMARK    5  A    between atoms: C_9  and  O_10 
REMARK    6  A    between atoms: C_18  and  C_19 
REMARK       I    between atoms: C_19  and  N_20 
REMARK    7  A    between atoms: N_20  and  C_21 
ROOT
HETATM    1  N   UNL     1      -4.600   4.273 -32.571  1.00  0.00    -0.302 N 
HETATM    2  H   UNL     1      -5.150   4.956 -32.036  1.00  0.00     0.186 HD
ENDROOT
BRANCH   1   3
HETATM    3  C   UNL     1      -5.235   3.069 -32.835  1.00  0.00     0.027 C 
HETATM    4  C   UNL     1      -6.476   3.192 -33.694  1.00  0.00     0.070 C 
HETATM    5  C   UNL     1      -4.803   1.887 -32.350  1.00  0.00     0.100 C 
BRANCH   5   6
HETATM    6  C   UNL     1      -5.543   0.597 -32.490  1.00  0.00     0.247 C 
HETATM    7  N   UNL     1      -5.103  -0.122 -33.585  1.00  0.00    -0.323 N 
HETATM    8  H   UNL     1      -4.393   0.317 -34.150  1.00  0.00     0.169 HD
HETATM    9  O   UNL     1      -6.404   0.275 -31.685  1.00  0.00    -0.268 OA
BRANCH   7  10
HETATM   10  C   UNL     1      -5.566  -1.386 -34.036  1.00  0.00     0.041 A 
HETATM   11  C   UNL     1      -4.838  -2.554 -33.690  1.00  0.00    -0.025 A 
HETATM   12  C   UNL     1      -5.250  -3.808 -34.203  1.00  0.00    -0.050 A 
HETATM   13  C   UNL     1      -3.595  -2.475 -32.823  1.00  0.00     0.041 C 
HETATM   14  C   UNL     1      -4.512  -5.090 -33.892  1.00  0.00     0.039 C 
HETATM   15  C   UNL     1      -6.407  -3.896 -34.989  1.00  0.00     0.008 A 
HETATM   16  C   UNL     1      -3.091  -4.859 -33.397  1.00  0.00     0.005 C 
HETATM   17  C   UNL     1      -3.100  -3.818 -32.290  1.00  0.00     0.005 C 
HETATM   18  C   UNL     1      -7.136  -2.755 -35.296  1.00  0.00     0.003 A 
HETATM   19  C   UNL     1      -6.714  -1.512 -34.828  1.00  0.00     0.030 A 
ENDBRANCH   7  10
ENDBRANCH   5   6
ENDBRANCH   1   3
BRANCH   1  20
HETATM   20  N   UNL     1      -3.659   4.866 -33.423  1.00  0.00    -0.262 N 
HETATM   21  C   UNL     1      -2.334   4.767 -33.014  1.00  0.00     0.328 C 
HETATM   22  O   UNL     1      -1.926   4.052 -32.108  1.00  0.00    -0.261 OA
HETATM   23  H   UNL     1      -3.929   5.740 -33.871  1.00  0.00     0.190 HD
BRANCH  21  24
HETATM   24  C   UNL     1      -1.413   5.753 -33.736  1.00  0.00     0.315 C 
HETATM   25  N   UNL     1      -1.174   6.992 -33.197  1.00  0.00    -0.316 N 
HETATM   26  H   UNL     1      -0.881   7.691 -33.873  1.00  0.00     0.169 HD
HETATM   27  O   UNL     1      -0.973   5.418 -34.835  1.00  0.00    -0.262 OA
BRANCH  25  28
HETATM   28  C   UNL     1      -1.302   7.470 -31.878  1.00  0.00     0.068 A 
HETATM   29  C   UNL     1      -0.312   7.076 -30.954  1.00  0.00     0.095 A 
HETATM   30  C   UNL     1      -0.416   7.448 -29.610  1.00  0.00     0.039 A 
HETATM   31  C   UNL     1      -1.492   8.226 -29.184  1.00  0.00     0.003 A 
HETATM   32  C   UNL     1      -2.469   8.622 -30.094  1.00  0.00     0.002 A 
HETATM   33  C   UNL     1      -2.379   8.241 -31.437  1.00  0.00     0.032 A 
BRANCH  29  34
HETATM   34  O   UNL     1       0.712   6.300 -31.445  1.00  0.00    -0.354 OA
HETATM   35  C   UNL     1       0.944   5.100 -30.711  1.00  0.00     0.210 C 
ENDBRANCH  29  34
ENDBRANCH  25  28
ENDBRANCH  21  24
ENDBRANCH   1  20
TORSDOF 7
ENDMDL
MODEL 3
REMARK VINA RESULT:      -8.7      2.104      3.918
REMARK  7 active torsions:
REMARK  status: ('A' for Active; 'I' for Inactive)
REMARK    1  A    between atoms: C_2  and  N_3 
REMARK    2  A    between atoms: N_3  and  N_4 
REMARK       I    between atoms: N_4  and  C_5 
REMARK    3  A    between atoms: C_5  and  C_6 
REMARK       I    between atoms: C_6  and  N_7 
REMARK    4  A    between atoms: N_7  and  C_8 
REMARK    5  A    between atoms: C_9  and  O_10 
REMARK    6  A    between atoms: C_18  and  C_19 
REMARK       I    between atoms: C_19  and  N_20 
REMARK    7  A    between atoms: N_20  and  C_21 
ROOT
HETATM    1  N   UNL     1      -5.617   5.873 -29.815  1.00  0.00    -0.302 N 
HETATM    2  H   UNL     1      -6.028   6.813 -29.858  1.00  0.00     0.186 HD
ENDROOT
BRANCH   1   3
HETATM    3  C   UNL     1      -6.132   4.952 -30.714  1.00  0.00     0.027 C 
HETATM    4  C   UNL     1      -6.039   5.376 -32.165  1.00  0.00     0.070 C 
HETATM    5  C   UNL     1      -6.693   3.786 -30.334  1.00  0.00     0.100 C 
BRANCH   5   6
HETATM    6  C   UNL     1      -7.388   2.844 -31.261  1.00  0.00     0.247 C 
HETATM    7  N   UNL     1      -6.489   2.167 -32.063  1.00  0.00    -0.323 N 
HETATM    8  H   UNL     1      -5.518   2.415 -31.952  1.00  0.00     0.169 HD
HETATM    9  O   UNL     1      -8.604   2.723 -31.240  1.00  0.00    -0.268 OA
BRANCH   7  10
HETATM   10  C   UNL     1      -6.774   1.198 -33.061  1.00  0.00     0.041 A 
HETATM   11  C   UNL     1      -5.970   0.032 -33.142  1.00  0.00    -0.025 A 
HETATM   12  C   UNL     1      -6.199  -0.900 -34.184  1.00  0.00    -0.050 A 
HETATM   13  C   UNL     1      -4.834  -0.208 -32.164  1.00  0.00     0.041 C 
HETATM   14  C   UNL     1      -5.369  -2.153 -34.344  1.00  0.00     0.039 C 
HETATM   15  C   UNL     1      -7.256  -0.699 -35.082  1.00  0.00     0.008 A 
HETATM   16  C   UNL     1      -4.036  -2.088 -33.612  1.00  0.00     0.005 C 
HETATM   17  C   UNL     1      -4.261  -1.623 -32.183  1.00  0.00     0.005 C 
HETATM   18  C   UNL     1      -8.062   0.426 -34.977  1.00  0.00     0.003 A 
HETATM   19  C   UNL     1      -7.818   1.367 -33.978  1.00  0.00     0.030 A 
ENDBRANCH   7  10
ENDBRANCH   5   6
ENDBRANCH   1   3
BRANCH   1  20
HETATM   20  N   UNL     1      -4.290   5.870 -29.363  1.00  0.00    -0.262 N 
HETATM   21  C   UNL     1      -3.573   7.037 -29.603  1.00  0.00     0.328 C 
HETATM   22  O   UNL     1      -4.056   8.097 -29.979  1.00  0.00    -0.261 OA
HETATM   23  H   UNL     1      -3.773   4.997 -29.454  1.00  0.00     0.190 HD
BRANCH  21  24
HETATM   24  C   UNL     1      -2.061   6.845 -29.469  1.00  0.00     0.315 C 
HETATM   25  N   UNL     1      -1.348   6.273 -30.492  1.00  0.00    -0.316 N 
HETATM   26  H   UNL     1      -0.470   5.852 -30.203  1.00  0.00     0.169 HD
HETATM   27  O   UNL     1      -1.543   7.147 -28.395  1.00  0.00    -0.262 OA
BRANCH  25  28
HETATM   28  C   UNL     1      -1.640   6.136 -31.863  1.00  0.00     0.068 A 
HETATM   29  C   UNL     1      -1.935   4.839 -32.330  1.00  0.00     0.095 A 
HETATM   30  C   UNL     1      -2.157   4.613 -33.692  1.00  0.00     0.039 A 
HETATM   31  C   UNL     1      -2.105   5.679 -34.590  1.00  0.00     0.003 A 
HETATM   32  C   UNL     1      -1.819   6.963 -34.134  1.00  0.00     0.002 A 
HETATM   33  C   UNL     1      -1.580   7.192 -32.775  1.00  0.00     0.032 A 
BRANCH  29  34
HETATM   34  O   UNL     1      -1.957   3.837 -31.386  1.00  0.00    -0.354 OA
HETATM   35  C   UNL     1      -3.105   2.994 -31.452  1.00  0.00     0.210 C 
ENDBRANCH  29  34
ENDBRANCH  25  28
ENDBRANCH  21  24
ENDBRANCH   1  20
TORSDOF 7
ENDMDL
MODEL 4
REMARK VINA RESULT:      -8.5      2.160      3.931
REMARK  7 active torsions:
REMARK  status: ('A' for Active; 'I' for Inactive)
REMARK    1  A    between atoms: C_2  and  N_3 
REMARK    2  A    between atoms: N_3  and  N_4 
REMARK       I    between atoms: N_4  and  C_5 
REMARK    3  A    between atoms: C_5  and  C_6 
REMARK       I    between atoms: C_6  and  N_7 
REMARK    4  A    between atoms: N_7  and  C_8 
REMARK    5  A    between atoms: C_9  and  O_10 
REMARK    6  A    between atoms: C_18  and  C_19 
REMARK       I    between atoms: C_19  and  N_20 
REMARK    7  A    between atoms: N_20  and  C_21 
ROOT
HETATM    1  N   UNL     1      -4.982   5.250 -29.699  1.00  0.00    -0.302 N 
HETATM    2  H   UNL     1      -5.956   5.476 -29.463  1.00  0.00     0.186 HD
ENDROOT
BRANCH   1   3
HETATM    3  C   UNL     1      -4.812   4.378 -30.763  1.00  0.00     0.027 C 
HETATM    4  C   UNL     1      -5.890   4.468 -31.823  1.00  0.00     0.070 C 
HETATM    5  C   UNL     1      -3.789   3.502 -30.842  1.00  0.00     0.100 C 
BRANCH   5   6
HETATM    6  C   UNL     1      -3.659   2.452 -31.896  1.00  0.00     0.247 C 
HETATM    7  N   UNL     1      -4.304   1.286 -31.531  1.00  0.00    -0.323 N 
HETATM    8  H   UNL     1      -4.731   1.280 -30.618  1.00  0.00     0.169 HD
HETATM    9  O   UNL     1      -3.058   2.676 -32.937  1.00  0.00    -0.268 OA
BRANCH   7  10
HETATM   10  C   UNL     1      -4.397   0.077 -32.270  1.00  0.00     0.041 A 
HETATM   11  C   UNL     1      -5.371  -0.033 -33.296  1.00  0.00    -0.025 A 
HETATM   12  C   UNL     1      -5.522  -1.263 -33.983  1.00  0.00    -0.050 A 
HETATM   13  C   UNL     1      -6.291   1.126 -33.633  1.00  0.00     0.041 C 
HETATM   14  C   UNL     1      -6.551  -1.460 -35.072  1.00  0.00     0.039 C 
HETATM   15  C   UNL     1      -4.667  -2.335 -33.693  1.00  0.00     0.008 A 
HETATM   16  C   UNL     1      -7.667  -0.424 -35.037  1.00  0.00     0.005 C 
HETATM   17  C   UNL     1      -7.068   0.969 -34.939  1.00  0.00     0.005 C 
HETATM   18  C   UNL     1      -3.691  -2.210 -32.713  1.00  0.00     0.003 A 
HETATM   19  C   UNL     1      -3.564  -1.016 -32.005  1.00  0.00     0.030 A 
ENDBRANCH   7  10
ENDBRANCH   5   6
ENDBRANCH   1   3
BRANCH   1  20
HETATM   20  N   UNL     1      -4.081   6.272 -29.371  1.00  0.00    -0.262 N 
HETATM   21  C   UNL     1      -4.360   7.517 -29.924  1.00  0.00     0.328 C 
HETATM   22  O   UNL     1      -5.404   7.822 -30.485  1.00  0.00    -0.261 OA
HETATM   23  H   UNL     1      -3.097   6.016 -29.308  1.00  0.00     0.190 HD
BRANCH  21  24
HETATM   24  C   UNL     1      -3.164   8.470 -29.878  1.00  0.00     0.315 C 
HETATM   25  N   UNL     1      -2.020   8.172 -30.574  1.00  0.00    -0.316 N 
HETATM   26  H   UNL     1      -1.184   8.624 -30.215  1.00  0.00     0.169 HD
HETATM   27  O   UNL     1      -3.248   9.450 -29.139  1.00  0.00    -0.262 OA
BRANCH  25  28
HETATM   28  C   UNL     1      -1.799   7.320 -31.675  1.00  0.00     0.068 A 
HETATM   29  C   UNL     1      -1.187   6.078 -31.412  1.00  0.00     0.095 A 
HETATM   30  C   UNL     1      -0.865   5.214 -32.463  1.00  0.00     0.039 A 
HETATM   31  C   UNL     1      -1.168   5.574 -33.776  1.00  0.00     0.003 A 
HETATM   32  C   UNL     1      -1.778   6.798 -34.040  1.00  0.00     0.002 A 
HETATM   33  C   UNL     1      -2.088   7.673 -32.995  1.00  0.00     0.032 A 
BRANCH  29  34
HETATM   34  O   UNL     1      -0.909   5.797 -30.094  1.00  0.00    -0.354 OA
HETATM   35  C   UNL     1       0.277   5.030 -29.894  1.00  0.00     0.210 C 
ENDBRANCH  29  34
ENDBRANCH  25  28
ENDBRANCH  21  24
ENDBRANCH   1  20
TORSDOF 7
ENDMDL
MODEL 5
REMARK VINA RESULT:      -8.5      5.901      9.556
REMARK  7 active torsions:
REMARK  status: ('A' for Active; 'I' for Inactive)
REMARK    1  A    between atoms: C_2  and  N_3 
REMARK    2  A    between atoms: N_3  and  N_4 
REMARK       I    between atoms: N_4  and  C_5 
REMARK    3  A    between atoms: C_5  and  C_6 
REMARK       I    between atoms: C_6  and  N_7 
REMARK    4  A    between atoms: N_7  and  C_8 
REMARK    5  A    between atoms: C_9  and  O_10 
REMARK    6  A    between atoms: C_18  and  C_19 
REMARK       I    between atoms: C_19  and  N_20 
REMARK    7  A    between atoms: N_20  and  C_21 
ROOT
HETATM    1  N   UNL     1     -10.853   3.565 -30.123  1.00  0.00    -0.302 N 
HETATM    2  H   UNL     1     -11.106   3.252 -29.178  1.00  0.00     0.186 HD
ENDROOT
BRANCH   1   3
HETATM    3  C   UNL     1      -9.587   3.200 -30.555  1.00  0.00     0.027 C 
HETATM    4  C   UNL     1      -8.470   4.070 -30.019  1.00  0.00     0.070 C 
HETATM    5  C   UNL     1      -9.366   2.173 -31.401  1.00  0.00     0.100 C 
BRANCH   5   6
HETATM    6  C   UNL     1      -8.037   1.848 -32.001  1.00  0.00     0.247 C 
HETATM    7  N   UNL     1      -7.430   0.795 -31.344  1.00  0.00    -0.323 N 
HETATM    8  H   UNL     1      -7.924   0.420 -30.549  1.00  0.00     0.169 HD
HETATM    9  O   UNL     1      -7.615   2.466 -32.967  1.00  0.00    -0.268 OA
BRANCH   7  10
HETATM   10  C   UNL     1      -6.168   0.208 -31.626  1.00  0.00     0.041 A 
HETATM   11  C   UNL     1      -6.054  -0.697 -32.714  1.00  0.00    -0.025 A 
HETATM   12  C   UNL     1      -4.817  -1.346 -32.952  1.00  0.00    -0.050 A 
HETATM   13  C   UNL     1      -7.247  -1.020 -33.594  1.00  0.00     0.041 C 
HETATM   14  C   UNL     1      -4.628  -2.336 -34.078  1.00  0.00     0.039 C 
HETATM   15  C   UNL     1      -3.704  -1.042 -32.157  1.00  0.00     0.008 A 
HETATM   16  C   UNL     1      -5.939  -2.899 -34.610  1.00  0.00     0.005 C 
HETATM   17  C   UNL     1      -6.908  -1.761 -34.886  1.00  0.00     0.005 C 
HETATM   18  C   UNL     1      -3.812  -0.130 -31.116  1.00  0.00     0.003 A 
HETATM   19  C   UNL     1      -5.035   0.484 -30.852  1.00  0.00     0.030 A 
ENDBRANCH   7  10
ENDBRANCH   5   6
ENDBRANCH   1   3
BRANCH   1  20
HETATM   20  N   UNL     1     -11.959   3.713 -30.971  1.00  0.00    -0.262 N 
HETATM   21  C   UNL     1     -11.995   4.891 -31.710  1.00  0.00     0.328 C 
HETATM   22  O   UNL     1     -11.067   5.681 -31.822  1.00  0.00    -0.261 OA
HETATM   23  H   UNL     1     -12.853   3.369 -30.627  1.00  0.00     0.190 HD
BRANCH  21  24
HETATM   24  C   UNL     1     -13.379   5.187 -32.291  1.00  0.00     0.315 C 
HETATM   25  N   UNL     1     -13.908   4.369 -33.257  1.00  0.00    -0.316 N 
HETATM   26  H   UNL     1     -14.616   4.812 -33.835  1.00  0.00     0.169 HD
HETATM   27  O   UNL     1     -13.944   6.214 -31.916  1.00  0.00    -0.262 OA
BRANCH  25  28
HETATM   28  C   UNL     1     -13.613   3.037 -33.609  1.00  0.00     0.068 A 
HETATM   29  C   UNL     1     -12.714   2.839 -34.676  1.00  0.00     0.095 A 
HETATM   30  C   UNL     1     -12.434   1.548 -35.132  1.00  0.00     0.039 A 
HETATM   31  C   UNL     1     -13.033   0.448 -34.517  1.00  0.00     0.003 A 
HETATM   32  C   UNL     1     -13.918   0.638 -33.458  1.00  0.00     0.002 A 
HETATM   33  C   UNL     1     -14.213   1.928 -33.008  1.00  0.00     0.032 A 
BRANCH  29  34
HETATM   34  O   UNL     1     -12.172   3.972 -35.240  1.00  0.00    -0.354 OA
HETATM   35  C   UNL     1     -10.747   4.012 -35.223  1.00  0.00     0.210 C 
ENDBRANCH  29  34
ENDBRANCH  25  28
ENDBRANCH  21  24
ENDBRANCH   1  20
TORSDOF 7
ENDMDL
MODEL 6
REMARK VINA RESULT:      -8.5      1.787      3.494
REMARK  7 active torsions:
REMARK  status: ('A' for Active; 'I' for Inactive)
REMARK    1  A    between atoms: C_2  and  N_3 
REMARK    2  A    between atoms: N_3  and  N_4 
REMARK       I    between atoms: N_4  and  C_5 
REMARK    3  A    between atoms: C_5  and  C_6 
REMARK       I    between atoms: C_6  and  N_7 
REMARK    4  A    between atoms: N_7  and  C_8 
REMARK    5  A    between atoms: C_9  and  O_10 
REMARK    6  A    between atoms: C_18  and  C_19 
REMARK       I    between atoms: C_19  and  N_20 
REMARK    7  A    between atoms: N_20  and  C_21 
ROOT
HETATM    1  N   UNL     1      -5.937   5.986 -31.191  1.00  0.00    -0.302 N 
HETATM    2  H   UNL     1      -6.861   6.426 -31.290  1.00  0.00     0.186 HD
ENDROOT
BRANCH   1   3
HETATM    3  C   UNL     1      -5.912   4.608 -31.339  1.00  0.00     0.027 C 
HETATM    4  C   UNL     1      -7.002   4.056 -32.233  1.00  0.00     0.070 C 
HETATM    5  C   UNL     1      -5.010   3.817 -30.722  1.00  0.00     0.100 C 
BRANCH   5   6
HETATM    6  C   UNL     1      -5.046   2.325 -30.741  1.00  0.00     0.247 C 
HETATM    7  N   UNL     1      -4.348   1.815 -31.819  1.00  0.00    -0.323 N 
HETATM    8  H   UNL     1      -3.952   2.491 -32.453  1.00  0.00     0.169 HD
HETATM    9  O   UNL     1      -5.623   1.698 -29.864  1.00  0.00    -0.268 OA
BRANCH   7  10
HETATM   10  C   UNL     1      -4.163   0.452 -32.167  1.00  0.00     0.041 A 
HETATM   11  C   UNL     1      -5.028  -0.141 -33.124  1.00  0.00    -0.025 A 
HETATM   12  C   UNL     1      -4.900  -1.521 -33.417  1.00  0.00    -0.050 A 
HETATM   13  C   UNL     1      -6.122   0.666 -33.799  1.00  0.00     0.041 C 
HETATM   14  C   UNL     1      -5.798  -2.223 -34.410  1.00  0.00     0.039 C 
HETATM   15  C   UNL     1      -3.882  -2.272 -32.814  1.00  0.00     0.008 A 
HETATM   16  C   UNL     1      -7.087  -1.465 -34.694  1.00  0.00     0.005 C 
HETATM   17  C   UNL     1      -6.765  -0.013 -35.007  1.00  0.00     0.005 C 
HETATM   18  C   UNL     1      -3.016  -1.680 -31.905  1.00  0.00     0.003 A 
HETATM   19  C   UNL     1      -3.161  -0.332 -31.582  1.00  0.00     0.030 A 
ENDBRANCH   7  10
ENDBRANCH   5   6
ENDBRANCH   1   3
BRANCH   1  20
HETATM   20  N   UNL     1      -4.880   6.833 -31.550  1.00  0.00    -0.262 N 
HETATM   21  C   UNL     1      -4.284   7.526 -30.501  1.00  0.00     0.328 C 
HETATM   22  O   UNL     1      -4.472   7.304 -29.312  1.00  0.00    -0.261 OA
HETATM   23  H   UNL     1      -4.972   7.338 -32.429  1.00  0.00     0.190 HD
BRANCH  21  24
HETATM   24  C   UNL     1      -3.438   8.709 -30.974  1.00  0.00     0.315 C 
HETATM   25  N   UNL     1      -2.070   8.659 -30.876  1.00  0.00    -0.316 N 
HETATM   26  H   UNL     1      -1.621   9.570 -30.852  1.00  0.00     0.169 HD
HETATM   27  O   UNL     1      -4.034   9.714 -31.362  1.00  0.00    -0.262 OA
BRANCH  25  28
HETATM   28  C   UNL     1      -1.188   7.567 -30.764  1.00  0.00     0.068 A 
HETATM   29  C   UNL     1      -1.119   6.682 -31.859  1.00  0.00     0.095 A 
HETATM   30  C   UNL     1      -0.324   5.534 -31.788  1.00  0.00     0.039 A 
HETATM   31  C   UNL     1       0.418   5.272 -30.637  1.00  0.00     0.003 A 
HETATM   32  C   UNL     1       0.358   6.146 -29.554  1.00  0.00     0.002 A 
HETATM   33  C   UNL     1      -0.447   7.288 -29.613  1.00  0.00     0.032 A 
BRANCH  29  34
HETATM   34  O   UNL     1      -1.888   7.001 -32.955  1.00  0.00    -0.354 OA
HETATM   35  C   UNL     1      -1.459   6.391 -34.171  1.00  0.00     0.210 C 
ENDBRANCH  29  34
ENDBRANCH  25  28
ENDBRANCH  21  24
ENDBRANCH   1  20
TORSDOF 7
ENDMDL
MODEL 7
REMARK VINA RESULT:      -8.2      1.910      3.044
REMARK  7 active torsions:
REMARK  status: ('A' for Active; 'I' for Inactive)
REMARK    1  A    between atoms: C_2  and  N_3 
REMARK    2  A    between atoms: N_3  and  N_4 
REMARK       I    between atoms: N_4  and  C_5 
REMARK    3  A    between atoms: C_5  and  C_6 
REMARK       I    between atoms: C_6  and  N_7 
REMARK    4  A    between atoms: N_7  and  C_8 
REMARK    5  A    between atoms: C_9  and  O_10 
REMARK    6  A    between atoms: C_18  and  C_19 
REMARK       I    between atoms: C_19  and  N_20 
REMARK    7  A    between atoms: N_20  and  C_21 
ROOT
HETATM    1  N   UNL     1      -4.878   5.405 -29.265  1.00  0.00    -0.302 N 
HETATM    2  H   UNL     1      -5.369   5.700 -28.413  1.00  0.00     0.186 HD
ENDROOT
BRANCH   1   3
HETATM    3  C   UNL     1      -5.605   4.595 -30.124  1.00  0.00     0.027 C 
HETATM    4  C   UNL     1      -6.479   5.349 -31.104  1.00  0.00     0.070 C 
HETATM    5  C   UNL     1      -5.562   3.248 -30.079  1.00  0.00     0.100 C 
BRANCH   5   6
HETATM    6  C   UNL     1      -6.440   2.349 -30.886  1.00  0.00     0.247 C 
HETATM    7  N   UNL     1      -5.845   2.000 -32.083  1.00  0.00    -0.323 N 
HETATM    8  H   UNL     1      -4.944   2.413 -32.270  1.00  0.00     0.169 HD
HETATM    9  O   UNL     1      -7.530   1.991 -30.464  1.00  0.00    -0.268 OA
BRANCH   7  10
HETATM   10  C   UNL     1      -6.373   1.168 -33.105  1.00  0.00     0.041 A 
HETATM   11  C   UNL     1      -5.775  -0.098 -33.343  1.00  0.00    -0.025 A 
HETATM   12  C   UNL     1      -6.246  -0.899 -34.412  1.00  0.00    -0.050 A 
HETATM   13  C   UNL     1      -4.607  -0.584 -32.505  1.00  0.00     0.041 C 
HETATM   14  C   UNL     1      -5.645  -2.248 -34.736  1.00  0.00     0.039 C 
HETATM   15  C   UNL     1      -7.336  -0.469 -35.180  1.00  0.00     0.008 A 
HETATM   16  C   UNL     1      -4.256  -2.444 -34.144  1.00  0.00     0.005 C 
HETATM   17  C   UNL     1      -4.271  -2.064 -32.673  1.00  0.00     0.005 C 
HETATM   18  C   UNL     1      -7.940   0.753 -34.921  1.00  0.00     0.003 A 
HETATM   19  C   UNL     1      -7.457   1.565 -33.896  1.00  0.00     0.030 A 
ENDBRANCH   7  10
ENDBRANCH   5   6
ENDBRANCH   1   3
BRANCH   1  20
HETATM   20  N   UNL     1      -3.902   6.318 -29.687  1.00  0.00    -0.262 N 
HETATM   21  C   UNL     1      -3.439   7.193 -28.710  1.00  0.00     0.328 C 
HETATM   22  O   UNL     1      -3.660   7.092 -27.510  1.00  0.00    -0.261 OA
HETATM   23  H   UNL     1      -4.005   6.702 -30.624  1.00  0.00     0.190 HD
BRANCH  21  24
HETATM   24  C   UNL     1      -2.703   8.401 -29.293  1.00  0.00     0.315 C 
HETATM   25  N   UNL     1      -1.359   8.326 -29.559  1.00  0.00    -0.316 N 
HETATM   26  H   UNL     1      -0.888   9.225 -29.582  1.00  0.00     0.169 HD
HETATM   27  O   UNL     1      -3.344   9.442 -29.433  1.00  0.00    -0.262 OA
BRANCH  25  28
HETATM   28  C   UNL     1      -0.515   7.217 -29.765  1.00  0.00     0.068 A 
HETATM   29  C   UNL     1      -0.294   6.818 -31.100  1.00  0.00     0.095 A 
HETATM   30  C   UNL     1       0.469   5.680 -31.378  1.00  0.00     0.039 A 
HETATM   31  C   UNL     1       1.028   4.945 -30.333  1.00  0.00     0.003 A 
HETATM   32  C   UNL     1       0.816   5.337 -29.013  1.00  0.00     0.002 A 
HETATM   33  C   UNL     1       0.042   6.466 -28.728  1.00  0.00     0.032 A 
BRANCH  29  34
HETATM   34  O   UNL     1      -0.887   7.586 -32.076  1.00  0.00    -0.354 OA
HETATM   35  C   UNL     1      -1.092   6.908 -33.313  1.00  0.00     0.210 C 
ENDBRANCH  29  34
ENDBRANCH  25  28
ENDBRANCH  21  24
ENDBRANCH   1  20
TORSDOF 7
ENDMDL
MODEL 8
REMARK VINA RESULT:      -8.2      6.104      9.533
REMARK  7 active torsions:
REMARK  status: ('A' for Active; 'I' for Inactive)
REMARK    1  A    between atoms: C_2  and  N_3 
REMARK    2  A    between atoms: N_3  and  N_4 
REMARK       I    between atoms: N_4  and  C_5 
REMARK    3  A    between atoms: C_5  and  C_6 
REMARK       I    between atoms: C_6  and  N_7 
REMARK    4  A    between atoms: N_7  and  C_8 
REMARK    5  A    between atoms: C_9  and  O_10 
REMARK    6  A    between atoms: C_18  and  C_19 
REMARK       I    between atoms: C_19  and  N_20 
REMARK    7  A    between atoms: N_20  and  C_21 
ROOT
HETATM    1  N   UNL     1     -10.313   3.400 -30.164  1.00  0.00    -0.302 N 
HETATM    2  H   UNL     1     -10.269   3.315 -29.141  1.00  0.00     0.186 HD
ENDROOT
BRANCH   1   3
HETATM    3  C   UNL     1      -9.287   2.779 -30.861  1.00  0.00     0.027 C 
HETATM    4  C   UNL     1      -7.914   2.976 -30.256  1.00  0.00     0.070 C 
HETATM    5  C   UNL     1      -9.487   2.078 -31.996  1.00  0.00     0.100 C 
BRANCH   5   6
HETATM    6  C   UNL     1      -8.392   1.526 -32.847  1.00  0.00     0.247 C 
HETATM    7  N   UNL     1      -8.034   0.252 -32.450  1.00  0.00    -0.323 N 
HETATM    8  H   UNL     1      -8.513  -0.113 -31.640  1.00  0.00     0.169 HD
HETATM    9  O   UNL     1      -7.933   2.171 -33.779  1.00  0.00    -0.268 OA
BRANCH   7  10
HETATM   10  C   UNL     1      -7.038  -0.587 -33.015  1.00  0.00     0.041 A 
HETATM   11  C   UNL     1      -5.724  -0.557 -32.479  1.00  0.00    -0.025 A 
HETATM   12  C   UNL     1      -4.707  -1.332 -33.089  1.00  0.00    -0.050 A 
HETATM   13  C   UNL     1      -5.378   0.331 -31.298  1.00  0.00     0.041 C 
HETATM   14  C   UNL     1      -3.281  -1.334 -32.586  1.00  0.00     0.039 C 
HETATM   15  C   UNL     1      -5.018  -2.170 -34.168  1.00  0.00     0.008 A 
HETATM   16  C   UNL     1      -2.952  -0.132 -31.711  1.00  0.00     0.005 C 
HETATM   17  C   UNL     1      -4.026   0.037 -30.650  1.00  0.00     0.005 C 
HETATM   18  C   UNL     1      -6.313  -2.222 -34.666  1.00  0.00     0.003 A 
HETATM   19  C   UNL     1      -7.310  -1.433 -34.096  1.00  0.00     0.030 A 
ENDBRANCH   7  10
ENDBRANCH   5   6
ENDBRANCH   1   3
BRANCH   1  20
HETATM   20  N   UNL     1     -11.620   3.539 -30.652  1.00  0.00    -0.262 N 
HETATM   21  C   UNL     1     -11.986   4.827 -31.027  1.00  0.00     0.328 C 
HETATM   22  O   UNL     1     -11.216   5.771 -31.150  1.00  0.00    -0.261 OA
HETATM   23  H   UNL     1     -12.342   2.977 -30.204  1.00  0.00     0.190 HD
BRANCH  21  24
HETATM   24  C   UNL     1     -13.500   5.001 -31.158  1.00  0.00     0.315 C 
HETATM   25  N   UNL     1     -14.174   4.397 -32.189  1.00  0.00    -0.316 N 
HETATM   26  H   UNL     1     -15.059   4.838 -32.424  1.00  0.00     0.169 HD
HETATM   27  O   UNL     1     -14.056   5.756 -30.362  1.00  0.00    -0.262 OA
BRANCH  25  28
HETATM   28  C   UNL     1     -13.835   3.296 -33.001  1.00  0.00     0.068 A 
HETATM   29  C   UNL     1     -13.077   3.563 -34.159  1.00  0.00     0.095 A 
HETATM   30  C   UNL     1     -12.769   2.533 -35.053  1.00  0.00     0.039 A 
HETATM   31  C   UNL     1     -13.199   1.232 -34.789  1.00  0.00     0.003 A 
HETATM   32  C   UNL     1     -13.944   0.963 -33.644  1.00  0.00     0.002 A 
HETATM   33  C   UNL     1     -14.267   1.992 -32.754  1.00  0.00     0.032 A 
BRANCH  29  34
HETATM   34  O   UNL     1     -12.699   4.871 -34.358  1.00  0.00    -0.354 OA
HETATM   35  C   UNL     1     -13.031   5.390 -35.644  1.00  0.00     0.210 C 
ENDBRANCH  29  34
ENDBRANCH  25  28
ENDBRANCH  21  24
ENDBRANCH   1  20
TORSDOF 7
ENDMDL
MODEL 9
REMARK VINA RESULT:      -8.2      1.877     10.628
REMARK  7 active torsions:
REMARK  status: ('A' for Active; 'I' for Inactive)
REMARK    1  A    between atoms: C_2  and  N_3 
REMARK    2  A    between atoms: N_3  and  N_4 
REMARK       I    between atoms: N_4  and  C_5 
REMARK    3  A    between atoms: C_5  and  C_6 
REMARK       I    between atoms: C_6  and  N_7 
REMARK    4  A    between atoms: N_7  and  C_8 
REMARK    5  A    between atoms: C_9  and  O_10 
REMARK    6  A    between atoms: C_18  and  C_19 
REMARK       I    between atoms: C_19  and  N_20 
REMARK    7  A    between atoms: N_20  and  C_21 
ROOT
HETATM    1  N   UNL     1      -3.747   3.959 -31.934  1.00  0.00    -0.302 N 
HETATM    2  H   UNL     1      -4.301   4.191 -32.767  1.00  0.00     0.186 HD
ENDROOT
BRANCH   1   3
HETATM    3  C   UNL     1      -3.154   5.035 -31.291  1.00  0.00     0.027 C 
HETATM    4  C   UNL     1      -4.132   6.066 -30.767  1.00  0.00     0.070 C 
HETATM    5  C   UNL     1      -1.818   5.171 -31.161  1.00  0.00     0.100 C 
BRANCH   5   6
HETATM    6  C   UNL     1      -1.145   6.384 -30.609  1.00  0.00     0.247 C 
HETATM    7  N   UNL     1      -0.893   6.252 -29.257  1.00  0.00    -0.323 N 
HETATM    8  H   UNL     1      -1.219   5.401 -28.824  1.00  0.00     0.169 HD
HETATM    9  O   UNL     1      -0.862   7.330 -31.330  1.00  0.00    -0.268 OA
BRANCH   7  10
HETATM   10  C   UNL     1      -0.272   7.192 -28.393  1.00  0.00     0.041 A 
HETATM   11  C   UNL     1      -0.971   7.640 -27.242  1.00  0.00    -0.025 A 
HETATM   12  C   UNL     1      -0.390   8.637 -26.420  1.00  0.00    -0.050 A 
HETATM   13  C   UNL     1      -2.352   7.108 -26.906  1.00  0.00     0.041 C 
HETATM   14  C   UNL     1      -1.084   9.176 -25.190  1.00  0.00     0.039 C 
HETATM   15  C   UNL     1       0.893   9.122 -26.710  1.00  0.00     0.008 A 
HETATM   16  C   UNL     1      -2.583   8.910 -25.183  1.00  0.00     0.005 C 
HETATM   17  C   UNL     1      -2.844   7.447 -25.500  1.00  0.00     0.005 C 
HETATM   18  C   UNL     1       1.587   8.654 -27.817  1.00  0.00     0.003 A 
HETATM   19  C   UNL     1       1.005   7.702 -28.653  1.00  0.00     0.030 A 
ENDBRANCH   7  10
ENDBRANCH   5   6
ENDBRANCH   1   3
BRANCH   1  20
HETATM   20  N   UNL     1      -4.189   2.801 -31.280  1.00  0.00    -0.262 N 
HETATM   21  C   UNL     1      -5.306   2.189 -31.837  1.00  0.00     0.328 C 
HETATM   22  O   UNL     1      -5.788   2.458 -32.930  1.00  0.00    -0.261 OA
HETATM   23  H   UNL     1      -4.131   2.795 -30.264  1.00  0.00     0.190 HD
BRANCH  21  24
HETATM   24  C   UNL     1      -5.979   1.199 -30.884  1.00  0.00     0.315 C 
HETATM   25  N   UNL     1      -6.437  -0.006 -31.354  1.00  0.00    -0.316 N 
HETATM   26  H   UNL     1      -7.168  -0.424 -30.787  1.00  0.00     0.169 HD
HETATM   27  O   UNL     1      -6.158   1.562 -29.722  1.00  0.00    -0.262 OA
BRANCH  25  28
HETATM   28  C   UNL     1      -6.095  -0.743 -32.506  1.00  0.00     0.068 A 
HETATM   29  C   UNL     1      -7.104  -0.924 -33.474  1.00  0.00     0.095 A 
HETATM   30  C   UNL     1      -6.861  -1.709 -34.605  1.00  0.00     0.039 A 
HETATM   31  C   UNL     1      -5.612  -2.301 -34.786  1.00  0.00     0.003 A 
HETATM   32  C   UNL     1      -4.611  -2.121 -33.834  1.00  0.00     0.002 A 
HETATM   33  C   UNL     1      -4.852  -1.350 -32.693  1.00  0.00     0.032 A 
BRANCH  29  34
HETATM   34  O   UNL     1      -8.313  -0.318 -33.222  1.00  0.00    -0.354 OA
HETATM   35  C   UNL     1      -8.672   0.693 -34.161  1.00  0.00     0.210 C 
ENDBRANCH  29  34
ENDBRANCH  25  28
ENDBRANCH  21  24
ENDBRANCH   1  20
TORSDOF 7
ENDMDL
MODEL 10
REMARK VINA RESULT:      -8.1      5.300      8.369
REMARK  7 active torsions:
REMARK  status: ('A' for Active; 'I' for Inactive)
REMARK    1  A    between atoms: C_2  and  N_3 
REMARK    2  A    between atoms: N_3  and  N_4 
REMARK       I    between atoms: N_4  and  C_5 
REMARK    3  A    between atoms: C_5  and  C_6 
REMARK       I    between atoms: C_6  and  N_7 
REMARK    4  A    between atoms: N_7  and  C_8 
REMARK    5  A    between atoms: C_9  and  O_10 
REMARK    6  A    between atoms: C_18  and  C_19 
REMARK       I    between atoms: C_19  and  N_20 
REMARK    7  A    between atoms: N_20  and  C_21 
ROOT
HETATM    1  N   UNL     1      -8.673   4.634 -30.480  1.00  0.00    -0.302 N 
HETATM    2  H   UNL     1      -9.166   4.801 -29.595  1.00  0.00     0.186 HD
ENDROOT
BRANCH   1   3
HETATM    3  C   UNL     1      -8.080   3.388 -30.609  1.00  0.00     0.027 C 
HETATM    4  C   UNL     1      -9.050   2.261 -30.895  1.00  0.00     0.070 C 
HETATM    5  C   UNL     1      -6.754   3.185 -30.468  1.00  0.00     0.100 C 
BRANCH   5   6
HETATM    6  C   UNL     1      -6.104   1.841 -30.453  1.00  0.00     0.247 C 
HETATM    7  N   UNL     1      -5.548   1.534 -31.680  1.00  0.00    -0.323 N 
HETATM    8  H   UNL     1      -5.681   2.214 -32.412  1.00  0.00     0.169 HD
HETATM    9  O   UNL     1      -6.086   1.162 -29.436  1.00  0.00    -0.268 OA
BRANCH   7  10
HETATM   10  C   UNL     1      -4.852   0.352 -32.046  1.00  0.00     0.041 A 
HETATM   11  C   UNL     1      -5.411  -0.502 -33.032  1.00  0.00    -0.025 A 
HETATM   12  C   UNL     1      -4.763  -1.722 -33.345  1.00  0.00    -0.050 A 
HETATM   13  C   UNL     1      -6.719  -0.156 -33.720  1.00  0.00     0.041 C 
HETATM   14  C   UNL     1      -5.310  -2.689 -34.370  1.00  0.00     0.039 C 
HETATM   15  C   UNL     1      -3.545  -2.044 -32.731  1.00  0.00     0.008 A 
HETATM   16  C   UNL     1      -6.786  -2.471 -34.672  1.00  0.00     0.005 C 
HETATM   17  C   UNL     1      -7.037  -0.998 -34.954  1.00  0.00     0.005 C 
HETATM   18  C   UNL     1      -2.984  -1.189 -31.792  1.00  0.00     0.003 A 
HETATM   19  C   UNL     1      -3.637  -0.006 -31.450  1.00  0.00     0.030 A 
ENDBRANCH   7  10
ENDBRANCH   5   6
ENDBRANCH   1   3
BRANCH   1  20
HETATM   20  N   UNL     1      -9.199   5.367 -31.553  1.00  0.00    -0.262 N 
HETATM   21  C   UNL     1     -10.585   5.477 -31.581  1.00  0.00     0.328 C 
HETATM   22  O   UNL     1     -11.336   5.169 -30.665  1.00  0.00    -0.261 OA
HETATM   23  H   UNL     1      -8.736   5.263 -32.454  1.00  0.00     0.190 HD
BRANCH  21  24
HETATM   24  C   UNL     1     -11.119   5.918 -32.945  1.00  0.00     0.315 C 
HETATM   25  N   UNL     1     -11.170   5.024 -33.985  1.00  0.00    -0.316 N 
HETATM   26  H   UNL     1     -11.174   5.454 -34.905  1.00  0.00     0.169 HD
HETATM   27  O   UNL     1     -11.417   7.103 -33.082  1.00  0.00    -0.262 OA
BRANCH  25  28
HETATM   28  C   UNL     1     -11.178   3.615 -33.997  1.00  0.00     0.068 A 
HETATM   29  C   UNL     1     -12.382   2.977 -33.633  1.00  0.00     0.095 A 
HETATM   30  C   UNL     1     -12.442   1.583 -33.547  1.00  0.00     0.039 A 
HETATM   31  C   UNL     1     -11.313   0.818 -33.840  1.00  0.00     0.003 A 
HETATM   32  C   UNL     1     -10.123   1.444 -34.205  1.00  0.00     0.002 A 
HETATM   33  C   UNL     1     -10.052   2.838 -34.278  1.00  0.00     0.032 A 
BRANCH  29  34
HETATM   34  O   UNL     1     -13.449   3.797 -33.348  1.00  0.00    -0.354 OA
HETATM   35  C   UNL     1     -14.106   3.500 -32.117  1.00  0.00     0.210 C 
ENDBRANCH  29  34
ENDBRANCH  25  28
ENDBRANCH  21  24
ENDBRANCH   1  20
TORSDOF 7
ENDMDL
