MODEL 1
REMARK VINA RESULT:      -9.1      0.000      0.000
REMARK  9 active torsions:
REMARK  status: ('A' for Active; 'I' for Inactive)
REMARK    1  A    between atoms: C_2  and  O_3 
REMARK    2  A    between atoms: O_3  and  C_4 
REMARK    3  A    between atoms: C_7  and  N_8 
REMARK       I    between atoms: N_8  and  C_9 
REMARK    4  A    between atoms: C_9  and  C_10 
REMARK    5  A    between atoms: C_11  and  N_12 
REMARK       I    between atoms: N_12  and  C_13 
REMARK    6  A    between atoms: C_13  and  C_14 
REMARK    7  A    between atoms: C_14  and  N_15 
REMARK    8  A    between atoms: N_15  and  C_18 
REMARK    9  A    between atoms: C_18  and  C_19 
ROOT
HETATM    1  C   UNL     1      -6.330  -0.579 -33.072  1.00  0.00     0.073 A 
HETATM    2  C   UNL     1      -5.086  -0.073 -32.671  1.00  0.00     0.093 A 
HETATM    3  S   UNL     1      -3.760  -0.969 -33.271  1.00  0.00    -0.075 SA
HETATM    4  C   UNL     1      -4.790  -2.045 -34.013  1.00  0.00    -0.008 A 
HETATM    5  C   UNL     1      -6.119  -1.767 -33.839  1.00  0.00    -0.026 A 
HETATM    6  C   UNL     1      -6.947  -2.810 -34.510  1.00  0.00     0.041 C 
HETATM    7  C   UNL     1      -5.912  -3.938 -34.804  1.00  0.00     0.010 C 
HETATM    8  C   UNL     1      -4.512  -3.262 -34.813  1.00  0.00     0.047 C 
ENDROOT
BRANCH   2   9
HETATM    9  N   UNL     1      -4.895   1.032 -31.849  1.00  0.00    -0.319 N 
HETATM   10  C   UNL     1      -4.990   2.356 -32.203  1.00  0.00     0.248 C 
HETATM   11  O   UNL     1      -5.338   2.850 -33.276  1.00  0.00    -0.271 OA
HETATM   12  H   UNL     1      -4.694   0.772 -30.879  1.00  0.00     0.169 HD
BRANCH  10  13
HETATM   13  C   UNL     1      -4.625   3.327 -31.081  1.00  0.00     0.335 C 
BRANCH  13  14
HETATM   14  N   UNL     1      -3.154   3.650 -31.171  1.00  0.00    -0.059 N 
HETATM   15  H   UNL     1      -2.841   3.780 -30.189  1.00  0.00     0.278 HD
HETATM   16  H   UNL     1      -2.630   2.816 -31.463  1.00  0.00     0.278 HD
BRANCH  14  17
HETATM   17  C   UNL     1      -2.741   4.844 -31.958  1.00  0.00     0.215 C 
HETATM   18  C   UNL     1      -2.259   4.419 -33.345  1.00  0.00     0.045 C 
BRANCH  17  19
HETATM   19  C   UNL     1      -1.697   5.623 -31.187  1.00  0.00    -0.028 A 
HETATM   20  C   UNL     1      -2.052   6.613 -30.253  1.00  0.00     0.009 A 
HETATM   21  C   UNL     1      -1.070   7.342 -29.581  1.00  0.00     0.001 A 
HETATM   22  C   UNL     1       0.277   7.097 -29.831  1.00  0.00     0.000 A 
HETATM   23  C   UNL     1       0.646   6.123 -30.754  1.00  0.00     0.001 A 
HETATM   24  C   UNL     1      -0.333   5.392 -31.432  1.00  0.00     0.009 A 
ENDBRANCH  17  19
ENDBRANCH  14  17
ENDBRANCH  13  14
ENDBRANCH  10  13
ENDBRANCH   2   9
BRANCH   1  25
HETATM   25  C   UNL     1      -7.587   0.098 -32.695  1.00  0.00     0.259 C 
HETATM   26  N   UNL     1      -8.432   0.373 -33.749  1.00  0.00    -0.323 N 
HETATM   27  H   UNL     1      -8.110   0.117 -34.670  1.00  0.00     0.169 HD
HETATM   28  O   UNL     1      -7.774   0.418 -31.522  1.00  0.00    -0.267 OA
BRANCH  26  29
HETATM   29  C   UNL     1      -9.653   1.077 -33.729  1.00  0.00     0.035 A 
HETATM   30  C   UNL     1      -9.787   2.438 -34.004  1.00  0.00     0.032 A 
HETATM   31  C   UNL     1     -11.053   3.044 -34.010  1.00  0.00     0.039 A 
HETATM   32  C   UNL     1     -12.195   2.293 -33.741  1.00  0.00     0.068 A 
HETATM   33  C   UNL     1     -12.061   0.943 -33.425  1.00  0.00     0.039 A 
HETATM   34  C   UNL     1     -10.802   0.337 -33.423  1.00  0.00     0.032 A 
BRANCH  32  35
HETATM   35  O   UNL     1     -13.479   2.758 -33.738  1.00  0.00    -0.352 OA
BRANCH  35  36
HETATM   36  C   UNL     1     -14.475   1.891 -33.196  1.00  0.00     0.171 C 
HETATM   37  C   UNL     1     -15.050   2.558 -31.959  1.00  0.00     0.034 C 
ENDBRANCH  35  36
ENDBRANCH  32  35
ENDBRANCH  26  29
ENDBRANCH   1  25
TORSDOF 9
ENDMDL
MODEL 2
REMARK VINA RESULT:      -9.1      3.135      7.875
REMARK  9 active torsions:
REMARK  status: ('A' for Active; 'I' for Inactive)
REMARK    1  A    between atoms: C_2  and  O_3 
REMARK    2  A    between atoms: O_3  and  C_4 
REMARK    3  A    between atoms: C_7  and  N_8 
REMARK       I    between atoms: N_8  and  C_9 
REMARK    4  A    between atoms: C_9  and  C_10 
REMARK    5  A    between atoms: C_11  and  N_12 
REMARK       I    between atoms: N_12  and  C_13 
REMARK    6  A    between atoms: C_13  and  C_14 
REMARK    7  A    between atoms: C_14  and  N_15 
REMARK    8  A    between atoms: N_15  and  C_18 
REMARK    9  A    between atoms: C_18  and  C_19 
ROOT
HETATM    1  C   UNL     1      -4.717   5.302 -33.118  1.00  0.00     0.073 A 
HETATM    2  C   UNL     1      -5.056   6.120 -32.031  1.00  0.00     0.093 A 
HETATM    3  S   UNL     1      -3.925   7.368 -31.738  1.00  0.00    -0.075 SA
HETATM    4  C   UNL     1      -2.965   6.826 -32.985  1.00  0.00    -0.008 A 
HETATM    5  C   UNL     1      -3.455   5.729 -33.640  1.00  0.00    -0.026 A 
HETATM    6  C   UNL     1      -2.503   5.308 -34.707  1.00  0.00     0.041 C 
HETATM    7  C   UNL     1      -1.211   6.105 -34.352  1.00  0.00     0.010 C 
HETATM    8  C   UNL     1      -1.663   7.320 -33.493  1.00  0.00     0.047 C 
ENDROOT
BRANCH   2   9
HETATM    9  N   UNL     1      -6.179   5.962 -31.226  1.00  0.00    -0.319 N 
HETATM   10  C   UNL     1      -6.435   4.932 -30.354  1.00  0.00     0.248 C 
HETATM   11  O   UNL     1      -5.713   3.988 -30.033  1.00  0.00    -0.271 OA
HETATM   12  H   UNL     1      -6.837   6.741 -31.311  1.00  0.00     0.169 HD
BRANCH  10  13
HETATM   13  C   UNL     1      -7.809   5.009 -29.689  1.00  0.00     0.335 C 
BRANCH  13  14
HETATM   14  N   UNL     1      -8.694   3.934 -30.267  1.00  0.00    -0.059 N 
HETATM   15  H   UNL     1      -8.209   3.038 -30.060  1.00  0.00     0.278 HD
HETATM   16  H   UNL     1      -9.555   3.853 -29.714  1.00  0.00     0.278 HD
BRANCH  14  17
HETATM   17  C   UNL     1      -8.997   3.977 -31.725  1.00  0.00     0.215 C 
HETATM   18  C   UNL     1     -10.058   5.040 -32.009  1.00  0.00     0.045 C 
BRANCH  17  19
HETATM   19  C   UNL     1      -9.404   2.599 -32.199  1.00  0.00    -0.028 A 
HETATM   20  C   UNL     1     -10.248   2.417 -33.309  1.00  0.00     0.009 A 
HETATM   21  C   UNL     1     -10.638   1.136 -33.704  1.00  0.00     0.001 A 
HETATM   22  C   UNL     1     -10.196   0.021 -32.997  1.00  0.00     0.000 A 
HETATM   23  C   UNL     1      -9.363   0.184 -31.894  1.00  0.00     0.001 A 
HETATM   24  C   UNL     1      -8.972   1.463 -31.493  1.00  0.00     0.009 A 
ENDBRANCH  17  19
ENDBRANCH  14  17
ENDBRANCH  13  14
ENDBRANCH  10  13
ENDBRANCH   2   9
BRANCH   1  25
HETATM   25  C   UNL     1      -5.605   4.207 -33.555  1.00  0.00     0.259 C 
HETATM   26  N   UNL     1      -5.182   2.944 -33.197  1.00  0.00    -0.323 N 
HETATM   27  H   UNL     1      -4.306   2.881 -32.702  1.00  0.00     0.169 HD
HETATM   28  O   UNL     1      -6.597   4.467 -34.235  1.00  0.00    -0.267 OA
BRANCH  26  29
HETATM   29  C   UNL     1      -5.759   1.703 -33.533  1.00  0.00     0.035 A 
HETATM   30  C   UNL     1      -6.619   1.496 -34.611  1.00  0.00     0.032 A 
HETATM   31  C   UNL     1      -7.105   0.211 -34.900  1.00  0.00     0.039 A 
HETATM   32  C   UNL     1      -6.734  -0.877 -34.112  1.00  0.00     0.068 A 
HETATM   33  C   UNL     1      -5.909  -0.666 -33.011  1.00  0.00     0.039 A 
HETATM   34  C   UNL     1      -5.420   0.611 -32.724  1.00  0.00     0.032 A 
BRANCH  32  35
HETATM   35  O   UNL     1      -7.119  -2.173 -34.302  1.00  0.00    -0.352 OA
BRANCH  35  36
HETATM   36  C   UNL     1      -6.108  -3.088 -34.723  1.00  0.00     0.171 C 
HETATM   37  C   UNL     1      -6.789  -4.382 -35.131  1.00  0.00     0.034 C 
ENDBRANCH  35  36
ENDBRANCH  32  35
ENDBRANCH  26  29
ENDBRANCH   1  25
TORSDOF 9
ENDMDL
MODEL 3
REMARK VINA RESULT:      -9.0      1.711      2.407
REMARK  9 active torsions:
REMARK  status: ('A' for Active; 'I' for Inactive)
REMARK    1  A    between atoms: C_2  and  O_3 
REMARK    2  A    between atoms: O_3  and  C_4 
REMARK    3  A    between atoms: C_7  and  N_8 
REMARK       I    between atoms: N_8  and  C_9 
REMARK    4  A    between atoms: C_9  and  C_10 
REMARK    5  A    between atoms: C_11  and  N_12 
REMARK       I    between atoms: N_12  and  C_13 
REMARK    6  A    between atoms: C_13  and  C_14 
REMARK    7  A    between atoms: C_14  and  N_15 
REMARK    8  A    between atoms: N_15  and  C_18 
REMARK    9  A    between atoms: C_18  and  C_19 
ROOT
HETATM    1  C   UNL     1      -6.015  -0.589 -33.664  1.00  0.00     0.073 A 
HETATM    2  C   UNL     1      -5.012  -0.188 -32.770  1.00  0.00     0.093 A 
HETATM    3  S   UNL     1      -3.758  -1.336 -32.593  1.00  0.00    -0.075 SA
HETATM    4  C   UNL     1      -4.530  -2.379 -33.635  1.00  0.00    -0.008 A 
HETATM    5  C   UNL     1      -5.714  -1.906 -34.133  1.00  0.00    -0.026 A 
HETATM    6  C   UNL     1      -6.336  -2.931 -35.020  1.00  0.00     0.041 C 
HETATM    7  C   UNL     1      -5.518  -4.216 -34.691  1.00  0.00     0.010 C 
HETATM    8  C   UNL     1      -4.162  -3.738 -34.099  1.00  0.00     0.047 C 
ENDROOT
BRANCH   2   9
HETATM    9  N   UNL     1      -5.003   1.005 -32.056  1.00  0.00    -0.319 N 
HETATM   10  C   UNL     1      -5.314   1.180 -30.729  1.00  0.00     0.248 C 
HETATM   11  O   UNL     1      -5.582   0.334 -29.876  1.00  0.00    -0.271 OA
HETATM   12  H   UNL     1      -4.694   1.800 -32.621  1.00  0.00     0.169 HD
BRANCH  10  13
HETATM   13  C   UNL     1      -5.297   2.639 -30.275  1.00  0.00     0.335 C 
BRANCH  13  14
HETATM   14  N   UNL     1      -4.046   3.300 -30.795  1.00  0.00    -0.059 N 
HETATM   15  H   UNL     1      -3.355   3.227 -30.023  1.00  0.00     0.278 HD
HETATM   16  H   UNL     1      -3.621   2.719 -31.528  1.00  0.00     0.278 HD
BRANCH  14  17
HETATM   17  C   UNL     1      -4.125   4.725 -31.222  1.00  0.00     0.215 C 
HETATM   18  C   UNL     1      -5.586   5.165 -31.313  1.00  0.00     0.045 C 
BRANCH  17  19
HETATM   19  C   UNL     1      -3.374   4.906 -32.523  1.00  0.00    -0.028 A 
HETATM   20  C   UNL     1      -1.969   4.940 -32.568  1.00  0.00     0.009 A 
HETATM   21  C   UNL     1      -1.300   5.145 -33.776  1.00  0.00     0.001 A 
HETATM   22  C   UNL     1      -2.022   5.322 -34.953  1.00  0.00     0.000 A 
HETATM   23  C   UNL     1      -3.413   5.295 -34.925  1.00  0.00     0.001 A 
HETATM   24  C   UNL     1      -4.087   5.093 -33.720  1.00  0.00     0.009 A 
ENDBRANCH  17  19
ENDBRANCH  14  17
ENDBRANCH  13  14
ENDBRANCH  10  13
ENDBRANCH   2   9
BRANCH   1  25
HETATM   25  C   UNL     1      -7.150   0.298 -33.985  1.00  0.00     0.259 C 
HETATM   26  N   UNL     1      -8.089   0.420 -32.982  1.00  0.00    -0.323 N 
HETATM   27  H   UNL     1      -7.933  -0.121 -32.145  1.00  0.00     0.169 HD
HETATM   28  O   UNL     1      -7.221   0.810 -35.102  1.00  0.00    -0.267 OA
BRANCH  26  29
HETATM   29  C   UNL     1      -9.313   1.118 -33.012  1.00  0.00     0.035 A 
HETATM   30  C   UNL     1      -9.461   2.470 -32.703  1.00  0.00     0.032 A 
HETATM   31  C   UNL     1     -10.713   3.094 -32.811  1.00  0.00     0.039 A 
HETATM   32  C   UNL     1     -11.828   2.370 -33.229  1.00  0.00     0.068 A 
HETATM   33  C   UNL     1     -11.692   1.011 -33.499  1.00  0.00     0.039 A 
HETATM   34  C   UNL     1     -10.445   0.388 -33.397  1.00  0.00     0.032 A 
BRANCH  32  35
HETATM   35  O   UNL     1     -13.090   2.864 -33.396  1.00  0.00    -0.352 OA
BRANCH  35  36
HETATM   36  C   UNL     1     -14.170   1.960 -33.165  1.00  0.00     0.171 C 
HETATM   37  C   UNL     1     -14.989   2.497 -32.006  1.00  0.00     0.034 C 
ENDBRANCH  35  36
ENDBRANCH  32  35
ENDBRANCH  26  29
ENDBRANCH   1  25
TORSDOF 9
ENDMDL
MODEL 4
REMARK VINA RESULT:      -8.9      2.822      6.553
REMARK  9 active torsions:
REMARK  status: ('A' for Active; 'I' for Inactive)
REMARK    1  A    between atoms: C_2  and  O_3 
REMARK    2  A    between atoms: O_3  and  C_4 
REMARK    3  A    between atoms: C_7  and  N_8 
REMARK       I    between atoms: N_8  and  C_9 
REMARK    4  A    between atoms: C_9  and  C_10 
REMARK    5  A    between atoms: C_11  and  N_12 
REMARK       I    between atoms: N_12  and  C_13 
REMARK    6  A    between atoms: C_13  and  C_14 
REMARK    7  A    between atoms: C_14  and  N_15 
REMARK    8  A    between atoms: N_15  and  C_18 
REMARK    9  A    between atoms: C_18  and  C_19 
ROOT
HETATM    1  C   UNL     1     -10.515   1.757 -33.087  1.00  0.00     0.073 A 
HETATM    2  C   UNL     1     -10.443   3.157 -33.083  1.00  0.00     0.093 A 
HETATM    3  S   UNL     1     -11.944   3.917 -33.387  1.00  0.00    -0.075 SA
HETATM    4  C   UNL     1     -12.685   2.438 -33.573  1.00  0.00    -0.008 A 
HETATM    5  C   UNL     1     -11.851   1.365 -33.413  1.00  0.00    -0.026 A 
HETATM    6  C   UNL     1     -12.606   0.098 -33.638  1.00  0.00     0.041 C 
HETATM    7  C   UNL     1     -13.926   0.596 -34.302  1.00  0.00     0.010 C 
HETATM    8  C   UNL     1     -14.088   2.089 -33.901  1.00  0.00     0.047 C 
ENDROOT
BRANCH   2   9
HETATM    9  N   UNL     1      -9.287   3.901 -32.880  1.00  0.00    -0.319 N 
HETATM   10  C   UNL     1      -8.721   4.807 -33.744  1.00  0.00     0.248 C 
HETATM   11  O   UNL     1      -9.142   5.216 -34.826  1.00  0.00    -0.271 OA
HETATM   12  H   UNL     1      -8.871   3.740 -31.959  1.00  0.00     0.169 HD
BRANCH  10  13
HETATM   13  C   UNL     1      -7.393   5.386 -33.256  1.00  0.00     0.335 C 
BRANCH  13  14
HETATM   14  N   UNL     1      -6.266   4.742 -34.024  1.00  0.00    -0.059 N 
HETATM   15  H   UNL     1      -6.726   4.157 -34.748  1.00  0.00     0.278 HD
HETATM   16  H   UNL     1      -5.778   5.449 -34.587  1.00  0.00     0.278 HD
BRANCH  14  17
HETATM   17  C   UNL     1      -5.299   3.891 -33.277  1.00  0.00     0.215 C 
HETATM   18  C   UNL     1      -5.732   3.761 -31.817  1.00  0.00     0.045 C 
BRANCH  17  19
HETATM   19  C   UNL     1      -3.904   4.458 -33.429  1.00  0.00    -0.028 A 
HETATM   20  C   UNL     1      -3.511   5.160 -34.583  1.00  0.00     0.009 A 
HETATM   21  C   UNL     1      -2.208   5.642 -34.714  1.00  0.00     0.001 A 
HETATM   22  C   UNL     1      -1.278   5.428 -33.700  1.00  0.00     0.000 A 
HETATM   23  C   UNL     1      -1.650   4.733 -32.553  1.00  0.00     0.001 A 
HETATM   24  C   UNL     1      -2.951   4.246 -32.417  1.00  0.00     0.009 A 
ENDBRANCH  17  19
ENDBRANCH  14  17
ENDBRANCH  13  14
ENDBRANCH  10  13
ENDBRANCH   2   9
BRANCH   1  25
HETATM   25  C   UNL     1      -9.328   0.931 -32.788  1.00  0.00     0.259 C 
HETATM   26  N   UNL     1      -8.449   0.782 -33.840  1.00  0.00    -0.323 N 
HETATM   27  H   UNL     1      -8.705   1.218 -34.712  1.00  0.00     0.169 HD
HETATM   28  O   UNL     1      -9.225   0.399 -31.683  1.00  0.00    -0.267 OA
BRANCH  26  29
HETATM   29  C   UNL     1      -7.281  -0.005 -33.896  1.00  0.00     0.035 A 
HETATM   30  C   UNL     1      -6.133   0.228 -33.139  1.00  0.00     0.032 A 
HETATM   31  C   UNL     1      -5.034  -0.641 -33.224  1.00  0.00     0.039 A 
HETATM   32  C   UNL     1      -5.075  -1.750 -34.066  1.00  0.00     0.068 A 
HETATM   33  C   UNL     1      -6.204  -1.962 -34.854  1.00  0.00     0.039 A 
HETATM   34  C   UNL     1      -7.301  -1.101 -34.768  1.00  0.00     0.032 A 
BRANCH  32  35
HETATM   35  O   UNL     1      -4.085  -2.679 -34.220  1.00  0.00    -0.352 OA
BRANCH  35  36
HETATM   36  C   UNL     1      -4.491  -4.045 -34.286  1.00  0.00     0.171 C 
HETATM   37  C   UNL     1      -3.557  -4.852 -33.404  1.00  0.00     0.034 C 
ENDBRANCH  35  36
ENDBRANCH  32  35
ENDBRANCH  26  29
ENDBRANCH   1  25
TORSDOF 9
ENDMDL
MODEL 5
REMARK VINA RESULT:      -8.8      3.083      6.866
REMARK  9 active torsions:
REMARK  status: ('A' for Active; 'I' for Inactive)
REMARK    1  A    between atoms: C_2  and  O_3 
REMARK    2  A    between atoms: O_3  and  C_4 
REMARK    3  A    between atoms: C_7  and  N_8 
REMARK       I    between atoms: N_8  and  C_9 
REMARK    4  A    between atoms: C_9  and  C_10 
REMARK    5  A    between atoms: C_11  and  N_12 
REMARK       I    between atoms: N_12  and  C_13 
REMARK    6  A    between atoms: C_13  and  C_14 
REMARK    7  A    between atoms: C_14  and  N_15 
REMARK    8  A    between atoms: N_15  and  C_18 
REMARK    9  A    between atoms: C_18  and  C_19 
ROOT
HETATM    1  C   UNL     1     -10.166   1.686 -33.049  1.00  0.00     0.073 A 
HETATM    2  C   UNL     1     -10.002   3.075 -32.953  1.00  0.00     0.093 A 
HETATM    3  S   UNL     1     -11.449   3.951 -33.204  1.00  0.00    -0.075 SA
HETATM    4  C   UNL     1     -12.285   2.540 -33.486  1.00  0.00    -0.008 A 
HETATM    5  C   UNL     1     -11.524   1.406 -33.398  1.00  0.00    -0.026 A 
HETATM    6  C   UNL     1     -12.361   0.210 -33.704  1.00  0.00     0.041 C 
HETATM    7  C   UNL     1     -13.642   0.836 -34.333  1.00  0.00     0.010 C 
HETATM    8  C   UNL     1     -13.707   2.307 -33.833  1.00  0.00     0.047 C 
ENDROOT
BRANCH   2   9
HETATM    9  N   UNL     1      -8.800   3.727 -32.703  1.00  0.00    -0.319 N 
HETATM   10  C   UNL     1      -8.189   4.672 -33.492  1.00  0.00     0.248 C 
HETATM   11  O   UNL     1      -8.596   5.203 -34.525  1.00  0.00    -0.271 OA
HETATM   12  H   UNL     1      -8.384   3.458 -31.808  1.00  0.00     0.169 HD
BRANCH  10  13
HETATM   13  C   UNL     1      -6.823   5.122 -32.976  1.00  0.00     0.335 C 
BRANCH  13  14
HETATM   14  N   UNL     1      -6.454   4.289 -31.774  1.00  0.00    -0.059 N 
HETATM   15  H   UNL     1      -6.939   4.735 -30.971  1.00  0.00     0.278 HD
HETATM   16  H   UNL     1      -6.913   3.372 -31.829  1.00  0.00     0.278 HD
BRANCH  14  17
HETATM   17  C   UNL     1      -5.012   4.146 -31.431  1.00  0.00     0.215 C 
HETATM   18  C   UNL     1      -4.146   4.738 -32.542  1.00  0.00     0.045 C 
BRANCH  17  19
HETATM   19  C   UNL     1      -4.700   2.690 -31.155  1.00  0.00    -0.028 A 
HETATM   20  C   UNL     1      -3.452   2.127 -31.475  1.00  0.00     0.009 A 
HETATM   21  C   UNL     1      -3.201   0.774 -31.245  1.00  0.00     0.001 A 
HETATM   22  C   UNL     1      -4.190  -0.036 -30.695  1.00  0.00     0.000 A 
HETATM   23  C   UNL     1      -5.432   0.504 -30.375  1.00  0.00     0.001 A 
HETATM   24  C   UNL     1      -5.689   1.857 -30.606  1.00  0.00     0.009 A 
ENDBRANCH  17  19
ENDBRANCH  14  17
ENDBRANCH  13  14
ENDBRANCH  10  13
ENDBRANCH   2   9
BRANCH   1  25
HETATM   25  C   UNL     1      -9.037   0.767 -32.806  1.00  0.00     0.259 C 
HETATM   26  N   UNL     1      -8.397   0.326 -33.945  1.00  0.00    -0.323 N 
HETATM   27  H   UNL     1      -8.769   0.643 -34.827  1.00  0.00     0.169 HD
HETATM   28  O   UNL     1      -8.780   0.415 -31.655  1.00  0.00    -0.267 OA
BRANCH  26  29
HETATM   29  C   UNL     1      -7.351  -0.612 -34.051  1.00  0.00     0.035 A 
HETATM   30  C   UNL     1      -7.531  -1.974 -34.297  1.00  0.00     0.032 A 
HETATM   31  C   UNL     1      -6.424  -2.825 -34.437  1.00  0.00     0.039 A 
HETATM   32  C   UNL     1      -5.129  -2.322 -34.334  1.00  0.00     0.068 A 
HETATM   33  C   UNL     1      -4.947  -0.971 -34.048  1.00  0.00     0.039 A 
HETATM   34  C   UNL     1      -6.047  -0.121 -33.911  1.00  0.00     0.032 A 
BRANCH  32  35
HETATM   35  O   UNL     1      -3.975  -3.040 -34.473  1.00  0.00    -0.352 OA
BRANCH  35  36
HETATM   36  C   UNL     1      -3.847  -4.211 -33.669  1.00  0.00     0.171 C 
HETATM   37  C   UNL     1      -3.208  -3.807 -32.353  1.00  0.00     0.034 C 
ENDBRANCH  35  36
ENDBRANCH  32  35
ENDBRANCH  26  29
ENDBRANCH   1  25
TORSDOF 9
ENDMDL
MODEL 6
REMARK VINA RESULT:      -8.4      3.076      4.793
REMARK  9 active torsions:
REMARK  status: ('A' for Active; 'I' for Inactive)
REMARK    1  A    between atoms: C_2  and  O_3 
REMARK    2  A    between atoms: O_3  and  C_4 
REMARK    3  A    between atoms: C_7  and  N_8 
REMARK       I    between atoms: N_8  and  C_9 
REMARK    4  A    between atoms: C_9  and  C_10 
REMARK    5  A    between atoms: C_11  and  N_12 
REMARK       I    between atoms: N_12  and  C_13 
REMARK    6  A    between atoms: C_13  and  C_14 
REMARK    7  A    between atoms: C_14  and  N_15 
REMARK    8  A    between atoms: N_15  and  C_18 
REMARK    9  A    between atoms: C_18  and  C_19 
ROOT
HETATM    1  C   UNL     1      -6.502  -0.344 -33.212  1.00  0.00     0.073 A 
HETATM    2  C   UNL     1      -5.301   0.197 -32.732  1.00  0.00     0.093 A 
HETATM    3  S   UNL     1      -3.923  -0.726 -33.149  1.00  0.00    -0.075 SA
HETATM    4  C   UNL     1      -4.878  -1.855 -33.912  1.00  0.00    -0.008 A 
HETATM    5  C   UNL     1      -6.218  -1.577 -33.879  1.00  0.00    -0.026 A 
HETATM    6  C   UNL     1      -6.979  -2.667 -34.554  1.00  0.00     0.041 C 
HETATM    7  C   UNL     1      -5.919  -3.804 -34.678  1.00  0.00     0.010 C 
HETATM    8  C   UNL     1      -4.525  -3.119 -34.603  1.00  0.00     0.047 C 
ENDROOT
BRANCH   2   9
HETATM    9  N   UNL     1      -5.188   1.353 -31.969  1.00  0.00    -0.319 N 
HETATM   10  C   UNL     1      -5.369   1.473 -30.612  1.00  0.00     0.248 C 
HETATM   11  O   UNL     1      -5.580   0.594 -29.777  1.00  0.00    -0.271 OA
HETATM   12  H   UNL     1      -4.910   2.167 -32.525  1.00  0.00     0.169 HD
BRANCH  10  13
HETATM   13  C   UNL     1      -5.266   2.908 -30.096  1.00  0.00     0.335 C 
BRANCH  13  14
HETATM   14  N   UNL     1      -6.548   3.267 -29.388  1.00  0.00    -0.059 N 
HETATM   15  H   UNL     1      -7.260   2.608 -29.758  1.00  0.00     0.278 HD
HETATM   16  H   UNL     1      -6.489   2.997 -28.398  1.00  0.00     0.278 HD
BRANCH  14  17
HETATM   17  C   UNL     1      -7.070   4.654 -29.534  1.00  0.00     0.215 C 
HETATM   18  C   UNL     1      -6.870   5.431 -28.233  1.00  0.00     0.045 C 
BRANCH  17  19
HETATM   19  C   UNL     1      -8.518   4.606 -29.974  1.00  0.00    -0.028 A 
HETATM   20  C   UNL     1      -9.132   3.404 -30.368  1.00  0.00     0.009 A 
HETATM   21  C   UNL     1     -10.458   3.392 -30.804  1.00  0.00     0.001 A 
HETATM   22  C   UNL     1     -11.188   4.577 -30.856  1.00  0.00     0.000 A 
HETATM   23  C   UNL     1     -10.594   5.775 -30.472  1.00  0.00     0.001 A 
HETATM   24  C   UNL     1      -9.267   5.793 -30.038  1.00  0.00     0.009 A 
ENDBRANCH  17  19
ENDBRANCH  14  17
ENDBRANCH  13  14
ENDBRANCH  10  13
ENDBRANCH   2   9
BRANCH   1  25
HETATM   25  C   UNL     1      -7.789   0.346 -32.997  1.00  0.00     0.259 C 
HETATM   26  N   UNL     1      -8.297   0.979 -34.112  1.00  0.00    -0.323 N 
HETATM   27  H   UNL     1      -7.740   0.939 -34.951  1.00  0.00     0.169 HD
HETATM   28  O   UNL     1      -8.284   0.366 -31.871  1.00  0.00    -0.267 OA
BRANCH  26  29
HETATM   29  C   UNL     1      -9.450   1.783 -34.209  1.00  0.00     0.035 A 
HETATM   30  C   UNL     1     -10.758   1.302 -34.149  1.00  0.00     0.032 A 
HETATM   31  C   UNL     1     -11.847   2.186 -34.203  1.00  0.00     0.039 A 
HETATM   32  C   UNL     1     -11.636   3.559 -34.317  1.00  0.00     0.068 A 
HETATM   33  C   UNL     1     -10.332   4.038 -34.418  1.00  0.00     0.039 A 
HETATM   34  C   UNL     1      -9.247   3.161 -34.361  1.00  0.00     0.032 A 
BRANCH  32  35
HETATM   35  O   UNL     1     -12.606   4.520 -34.356  1.00  0.00    -0.352 OA
BRANCH  35  36
HETATM   36  C   UNL     1     -12.706   5.282 -35.558  1.00  0.00     0.171 C 
HETATM   37  C   UNL     1     -13.696   6.407 -35.317  1.00  0.00     0.034 C 
ENDBRANCH  35  36
ENDBRANCH  32  35
ENDBRANCH  26  29
ENDBRANCH   1  25
TORSDOF 9
ENDMDL
MODEL 7
REMARK VINA RESULT:      -8.3      3.300      8.700
REMARK  9 active torsions:
REMARK  status: ('A' for Active; 'I' for Inactive)
REMARK    1  A    between atoms: C_2  and  O_3 
REMARK    2  A    between atoms: O_3  and  C_4 
REMARK    3  A    between atoms: C_7  and  N_8 
REMARK       I    between atoms: N_8  and  C_9 
REMARK    4  A    between atoms: C_9  and  C_10 
REMARK    5  A    between atoms: C_11  and  N_12 
REMARK       I    between atoms: N_12  and  C_13 
REMARK    6  A    between atoms: C_13  and  C_14 
REMARK    7  A    between atoms: C_14  and  N_15 
REMARK    8  A    between atoms: N_15  and  C_18 
REMARK    9  A    between atoms: C_18  and  C_19 
ROOT
HETATM    1  C   UNL     1      -6.727   5.386 -33.274  1.00  0.00     0.073 A 
HETATM    2  C   UNL     1      -8.076   5.760 -33.349  1.00  0.00     0.093 A 
HETATM    3  S   UNL     1      -8.413   7.252 -32.585  1.00  0.00    -0.075 SA
HETATM    4  C   UNL     1      -6.824   7.397 -32.111  1.00  0.00    -0.008 A 
HETATM    5  C   UNL     1      -6.020   6.362 -32.505  1.00  0.00    -0.026 A 
HETATM    6  C   UNL     1      -4.634   6.575 -31.997  1.00  0.00     0.041 C 
HETATM    7  C   UNL     1      -4.822   7.710 -30.945  1.00  0.00     0.010 C 
HETATM    8  C   UNL     1      -6.139   8.447 -31.320  1.00  0.00     0.047 C 
ENDROOT
BRANCH   2   9
HETATM    9  N   UNL     1      -9.084   5.017 -33.955  1.00  0.00    -0.319 N 
HETATM   10  C   UNL     1      -9.853   5.386 -35.031  1.00  0.00     0.248 C 
HETATM   11  O   UNL     1      -9.771   6.391 -35.737  1.00  0.00    -0.271 OA
HETATM   12  H   UNL     1      -9.201   4.093 -33.530  1.00  0.00     0.169 HD
BRANCH  10  13
HETATM   13  C   UNL     1     -10.942   4.376 -35.391  1.00  0.00     0.335 C 
BRANCH  13  14
HETATM   14  N   UNL     1     -11.685   3.988 -34.137  1.00  0.00    -0.059 N 
HETATM   15  H   UNL     1     -11.062   4.264 -33.353  1.00  0.00     0.278 HD
HETATM   16  H   UNL     1     -12.495   4.606 -34.005  1.00  0.00     0.278 HD
BRANCH  14  17
HETATM   17  C   UNL     1     -12.066   2.560 -33.955  1.00  0.00     0.215 C 
HETATM   18  C   UNL     1     -13.444   2.464 -33.302  1.00  0.00     0.045 C 
BRANCH  17  19
HETATM   19  C   UNL     1     -10.990   1.846 -33.166  1.00  0.00    -0.028 A 
HETATM   20  C   UNL     1     -10.692   0.489 -33.382  1.00  0.00     0.009 A 
HETATM   21  C   UNL     1      -9.720  -0.157 -32.617  1.00  0.00     0.001 A 
HETATM   22  C   UNL     1      -9.034   0.539 -31.625  1.00  0.00     0.000 A 
HETATM   23  C   UNL     1      -9.319   1.882 -31.396  1.00  0.00     0.001 A 
HETATM   24  C   UNL     1     -10.293   2.532 -32.157  1.00  0.00     0.009 A 
ENDBRANCH  17  19
ENDBRANCH  14  17
ENDBRANCH  13  14
ENDBRANCH  10  13
ENDBRANCH   2   9
BRANCH   1  25
HETATM   25  C   UNL     1      -6.240   4.154 -33.926  1.00  0.00     0.259 C 
HETATM   26  N   UNL     1      -6.664   2.982 -33.336  1.00  0.00    -0.323 N 
HETATM   27  H   UNL     1      -7.236   3.070 -32.510  1.00  0.00     0.169 HD
HETATM   28  O   UNL     1      -5.469   4.240 -34.881  1.00  0.00    -0.267 OA
BRANCH  26  29
HETATM   29  C   UNL     1      -6.308   1.659 -33.668  1.00  0.00     0.035 A 
HETATM   30  C   UNL     1      -5.290   0.935 -33.048  1.00  0.00     0.032 A 
HETATM   31  C   UNL     1      -5.041  -0.398 -33.410  1.00  0.00     0.039 A 
HETATM   32  C   UNL     1      -5.808  -1.017 -34.395  1.00  0.00     0.068 A 
HETATM   33  C   UNL     1      -6.797  -0.283 -35.044  1.00  0.00     0.039 A 
HETATM   34  C   UNL     1      -7.051   1.042 -34.683  1.00  0.00     0.032 A 
BRANCH  32  35
HETATM   35  O   UNL     1      -5.680  -2.309 -34.819  1.00  0.00    -0.352 OA
BRANCH  35  36
HETATM   36  C   UNL     1      -6.822  -3.150 -34.668  1.00  0.00     0.171 C 
HETATM   37  C   UNL     1      -6.518  -4.476 -35.342  1.00  0.00     0.034 C 
ENDBRANCH  35  36
ENDBRANCH  32  35
ENDBRANCH  26  29
ENDBRANCH   1  25
TORSDOF 9
ENDMDL
MODEL 8
REMARK VINA RESULT:      -8.3      2.683      9.232
REMARK  9 active torsions:
REMARK  status: ('A' for Active; 'I' for Inactive)
REMARK    1  A    between atoms: C_2  and  O_3 
REMARK    2  A    between atoms: O_3  and  C_4 
REMARK    3  A    between atoms: C_7  and  N_8 
REMARK       I    between atoms: N_8  and  C_9 
REMARK    4  A    between atoms: C_9  and  C_10 
REMARK    5  A    between atoms: C_11  and  N_12 
REMARK       I    between atoms: N_12  and  C_13 
REMARK    6  A    between atoms: C_13  and  C_14 
REMARK    7  A    between atoms: C_14  and  N_15 
REMARK    8  A    between atoms: N_15  and  C_18 
REMARK    9  A    between atoms: C_18  and  C_19 
ROOT
HETATM    1  C   UNL     1      -8.595   3.825 -32.452  1.00  0.00     0.073 A 
HETATM    2  C   UNL     1      -9.230   3.232 -33.552  1.00  0.00     0.093 A 
HETATM    3  S   UNL     1     -10.826   3.791 -33.801  1.00  0.00    -0.075 SA
HETATM    4  C   UNL     1     -10.721   4.768 -32.458  1.00  0.00    -0.008 A 
HETATM    5  C   UNL     1      -9.519   4.706 -31.807  1.00  0.00    -0.026 A 
HETATM    6  C   UNL     1      -9.548   5.588 -30.604  1.00  0.00     0.041 C 
HETATM    7  C   UNL     1     -11.066   5.905 -30.445  1.00  0.00     0.010 C 
HETATM    8  C   UNL     1     -11.714   5.678 -31.839  1.00  0.00     0.047 C 
ENDROOT
BRANCH   2   9
HETATM    9  N   UNL     1      -8.669   2.263 -34.377  1.00  0.00    -0.319 N 
HETATM   10  C   UNL     1      -8.757   0.899 -34.233  1.00  0.00     0.248 C 
HETATM   11  O   UNL     1      -9.402   0.244 -33.415  1.00  0.00    -0.271 OA
HETATM   12  H   UNL     1      -8.175   2.665 -35.177  1.00  0.00     0.169 HD
BRANCH  10  13
HETATM   13  C   UNL     1      -7.943   0.113 -35.261  1.00  0.00     0.335 C 
BRANCH  13  14
HETATM   14  N   UNL     1      -6.489   0.140 -34.859  1.00  0.00    -0.059 N 
HETATM   15  H   UNL     1      -5.970  -0.214 -35.686  1.00  0.00     0.278 HD
HETATM   16  H   UNL     1      -6.163   1.112 -34.791  1.00  0.00     0.278 HD
BRANCH  14  17
HETATM   17  C   UNL     1      -6.072  -0.649 -33.668  1.00  0.00     0.215 C 
HETATM   18  C   UNL     1      -4.842  -0.013 -33.020  1.00  0.00     0.045 C 
BRANCH  17  19
HETATM   19  C   UNL     1      -5.845  -2.091 -34.070  1.00  0.00    -0.028 A 
HETATM   20  C   UNL     1      -6.902  -2.916 -34.492  1.00  0.00     0.009 A 
HETATM   21  C   UNL     1      -6.673  -4.253 -34.823  1.00  0.00     0.001 A 
HETATM   22  C   UNL     1      -5.389  -4.785 -34.734  1.00  0.00     0.000 A 
HETATM   23  C   UNL     1      -4.333  -3.982 -34.315  1.00  0.00     0.001 A 
HETATM   24  C   UNL     1      -4.557  -2.645 -33.980  1.00  0.00     0.009 A 
ENDBRANCH  17  19
ENDBRANCH  14  17
ENDBRANCH  13  14
ENDBRANCH  10  13
ENDBRANCH   2   9
BRANCH   1  25
HETATM   25  C   UNL     1      -7.193   3.507 -32.116  1.00  0.00     0.259 C 
HETATM   26  N   UNL     1      -6.287   4.498 -32.425  1.00  0.00    -0.323 N 
HETATM   27  H   UNL     1      -6.652   5.326 -32.871  1.00  0.00     0.169 HD
HETATM   28  O   UNL     1      -6.919   2.400 -31.654  1.00  0.00    -0.267 OA
BRANCH  26  29
HETATM   29  C   UNL     1      -4.882   4.465 -32.307  1.00  0.00     0.035 A 
HETATM   30  C   UNL     1      -4.043   3.651 -33.067  1.00  0.00     0.032 A 
HETATM   31  C   UNL     1      -2.650   3.723 -32.915  1.00  0.00     0.039 A 
HETATM   32  C   UNL     1      -2.085   4.611 -32.002  1.00  0.00     0.068 A 
HETATM   33  C   UNL     1      -2.922   5.395 -31.212  1.00  0.00     0.039 A 
HETATM   34  C   UNL     1      -4.309   5.328 -31.364  1.00  0.00     0.032 A 
BRANCH  32  35
HETATM   35  O   UNL     1      -0.750   4.791 -31.778  1.00  0.00    -0.352 OA
BRANCH  35  36
HETATM   36  C   UNL     1      -0.381   5.364 -30.524  1.00  0.00     0.171 C 
HETATM   37  C   UNL     1       0.447   6.605 -30.804  1.00  0.00     0.034 C 
ENDBRANCH  35  36
ENDBRANCH  32  35
ENDBRANCH  26  29
ENDBRANCH   1  25
TORSDOF 9
ENDMDL
MODEL 9
REMARK VINA RESULT:      -8.2      2.498      4.119
REMARK  9 active torsions:
REMARK  status: ('A' for Active; 'I' for Inactive)
REMARK    1  A    between atoms: C_2  and  O_3 
REMARK    2  A    between atoms: O_3  and  C_4 
REMARK    3  A    between atoms: C_7  and  N_8 
REMARK       I    between atoms: N_8  and  C_9 
REMARK    4  A    between atoms: C_9  and  C_10 
REMARK    5  A    between atoms: C_11  and  N_12 
REMARK       I    between atoms: N_12  and  C_13 
REMARK    6  A    between atoms: C_13  and  C_14 
REMARK    7  A    between atoms: C_14  and  N_15 
REMARK    8  A    between atoms: N_15  and  C_18 
REMARK    9  A    between atoms: C_18  and  C_19 
ROOT
HETATM    1  C   UNL     1      -6.480  -0.445 -32.981  1.00  0.00     0.073 A 
HETATM    2  C   UNL     1      -5.288   0.107 -32.489  1.00  0.00     0.093 A 
HETATM    3  S   UNL     1      -3.885  -0.700 -33.039  1.00  0.00    -0.075 SA
HETATM    4  C   UNL     1      -4.814  -1.797 -33.878  1.00  0.00    -0.008 A 
HETATM    5  C   UNL     1      -6.163  -1.591 -33.775  1.00  0.00    -0.026 A 
HETATM    6  C   UNL     1      -6.896  -2.648 -34.530  1.00  0.00     0.041 C 
HETATM    7  C   UNL     1      -5.788  -3.711 -34.800  1.00  0.00     0.010 C 
HETATM    8  C   UNL     1      -4.427  -2.967 -34.702  1.00  0.00     0.047 C 
ENDROOT
BRANCH   2   9
HETATM    9  N   UNL     1      -5.203   1.188 -31.619  1.00  0.00    -0.319 N 
HETATM   10  C   UNL     1      -5.133   2.519 -31.954  1.00  0.00     0.248 C 
HETATM   11  O   UNL     1      -5.213   3.045 -33.064  1.00  0.00    -0.271 OA
HETATM   12  H   UNL     1      -5.229   0.906 -30.636  1.00  0.00     0.169 HD
BRANCH  10  13
HETATM   13  C   UNL     1      -4.950   3.452 -30.758  1.00  0.00     0.335 C 
BRANCH  13  14
HETATM   14  N   UNL     1      -6.281   3.641 -30.075  1.00  0.00    -0.059 N 
HETATM   15  H   UNL     1      -6.969   3.142 -30.672  1.00  0.00     0.278 HD
HETATM   16  H   UNL     1      -6.309   3.098 -29.204  1.00  0.00     0.278 HD
BRANCH  14  17
HETATM   17  C   UNL     1      -6.771   5.030 -29.856  1.00  0.00     0.215 C 
HETATM   18  C   UNL     1      -7.038   5.264 -28.369  1.00  0.00     0.045 C 
BRANCH  17  19
HETATM   19  C   UNL     1      -7.989   5.280 -30.718  1.00  0.00    -0.028 A 
HETATM   20  C   UNL     1      -7.882   5.514 -32.101  1.00  0.00     0.009 A 
HETATM   21  C   UNL     1      -9.017   5.778 -32.868  1.00  0.00     0.001 A 
HETATM   22  C   UNL     1     -10.273   5.815 -32.269  1.00  0.00     0.000 A 
HETATM   23  C   UNL     1     -10.397   5.588 -30.902  1.00  0.00     0.001 A 
HETATM   24  C   UNL     1      -9.264   5.327 -30.128  1.00  0.00     0.009 A 
ENDBRANCH  17  19
ENDBRANCH  14  17
ENDBRANCH  13  14
ENDBRANCH  10  13
ENDBRANCH   2   9
BRANCH   1  25
HETATM   25  C   UNL     1      -7.789   0.155 -32.657  1.00  0.00     0.259 C 
HETATM   26  N   UNL     1      -8.598   0.396 -33.747  1.00  0.00    -0.323 N 
HETATM   27  H   UNL     1      -8.219   0.171 -34.654  1.00  0.00     0.169 HD
HETATM   28  O   UNL     1      -8.049   0.447 -31.490  1.00  0.00    -0.267 OA
BRANCH  26  29
HETATM   29  C   UNL     1      -9.857   1.029 -33.777  1.00  0.00     0.035 A 
HETATM   30  C   UNL     1     -10.064   2.363 -34.128  1.00  0.00     0.032 A 
HETATM   31  C   UNL     1     -11.361   2.895 -34.179  1.00  0.00     0.039 A 
HETATM   32  C   UNL     1     -12.463   2.096 -33.880  1.00  0.00     0.068 A 
HETATM   33  C   UNL     1     -12.257   0.775 -33.489  1.00  0.00     0.039 A 
HETATM   34  C   UNL     1     -10.967   0.243 -33.442  1.00  0.00     0.032 A 
BRANCH  32  35
HETATM   35  O   UNL     1     -13.771   2.487 -33.915  1.00  0.00    -0.352 OA
BRANCH  35  36
HETATM   36  C   UNL     1     -14.709   1.654 -33.234  1.00  0.00     0.171 C 
HETATM   37  C   UNL     1     -15.181   2.397 -31.998  1.00  0.00     0.034 C 
ENDBRANCH  35  36
ENDBRANCH  32  35
ENDBRANCH  26  29
ENDBRANCH   1  25
TORSDOF 9
ENDMDL
MODEL 10
REMARK VINA RESULT:      -8.1      3.007      3.630
REMARK  9 active torsions:
REMARK  status: ('A' for Active; 'I' for Inactive)
REMARK    1  A    between atoms: C_2  and  O_3 
REMARK    2  A    between atoms: O_3  and  C_4 
REMARK    3  A    between atoms: C_7  and  N_8 
REMARK       I    between atoms: N_8  and  C_9 
REMARK    4  A    between atoms: C_9  and  C_10 
REMARK    5  A    between atoms: C_11  and  N_12 
REMARK       I    between atoms: N_12  and  C_13 
REMARK    6  A    between atoms: C_13  and  C_14 
REMARK    7  A    between atoms: C_14  and  N_15 
REMARK    8  A    between atoms: N_15  and  C_18 
REMARK    9  A    between atoms: C_18  and  C_19 
ROOT
HETATM    1  C   UNL     1      -6.019  -0.954 -34.068  1.00  0.00     0.073 A 
HETATM    2  C   UNL     1      -5.027  -0.432 -33.226  1.00  0.00     0.093 A 
HETATM    3  S   UNL     1      -3.763  -1.535 -32.897  1.00  0.00    -0.075 SA
HETATM    4  C   UNL     1      -4.517  -2.709 -33.803  1.00  0.00    -0.008 A 
HETATM    5  C   UNL     1      -5.702  -2.316 -34.364  1.00  0.00    -0.026 A 
HETATM    6  C   UNL     1      -6.307  -3.452 -35.119  1.00  0.00     0.041 C 
HETATM    7  C   UNL     1      -5.478  -4.676 -34.624  1.00  0.00     0.010 C 
HETATM    8  C   UNL     1      -4.132  -4.112 -34.089  1.00  0.00     0.047 C 
ENDROOT
BRANCH   2   9
HETATM    9  N   UNL     1      -5.035   0.842 -32.668  1.00  0.00    -0.319 N 
HETATM   10  C   UNL     1      -5.239   1.169 -31.350  1.00  0.00     0.248 C 
HETATM   11  O   UNL     1      -5.372   0.427 -30.377  1.00  0.00    -0.271 OA
HETATM   12  H   UNL     1      -4.832   1.573 -33.355  1.00  0.00     0.169 HD
BRANCH  10  13
HETATM   13  C   UNL     1      -5.280   2.673 -31.083  1.00  0.00     0.335 C 
BRANCH  13  14
HETATM   14  N   UNL     1      -6.666   3.186 -31.382  1.00  0.00    -0.059 N 
HETATM   15  H   UNL     1      -6.524   4.072 -31.906  1.00  0.00     0.278 HD
HETATM   16  H   UNL     1      -7.119   2.585 -32.081  1.00  0.00     0.278 HD
BRANCH  14  17
HETATM   17  C   UNL     1      -7.580   3.458 -30.238  1.00  0.00     0.215 C 
HETATM   18  C   UNL     1      -9.005   3.032 -30.592  1.00  0.00     0.045 C 
BRANCH  17  19
HETATM   19  C   UNL     1      -7.483   4.917 -29.848  1.00  0.00    -0.028 A 
HETATM   20  C   UNL     1      -7.367   5.319 -28.506  1.00  0.00     0.009 A 
HETATM   21  C   UNL     1      -7.315   6.672 -28.169  1.00  0.00     0.001 A 
HETATM   22  C   UNL     1      -7.382   7.643 -29.164  1.00  0.00     0.000 A 
HETATM   23  C   UNL     1      -7.500   7.263 -30.498  1.00  0.00     0.001 A 
HETATM   24  C   UNL     1      -7.555   5.911 -30.840  1.00  0.00     0.009 A 
ENDBRANCH  17  19
ENDBRANCH  14  17
ENDBRANCH  13  14
ENDBRANCH  10  13
ENDBRANCH   2   9
BRANCH   1  25
HETATM   25  C   UNL     1      -7.161  -0.127 -34.506  1.00  0.00     0.259 C 
HETATM   26  N   UNL     1      -8.095   0.133 -33.526  1.00  0.00    -0.323 N 
HETATM   27  H   UNL     1      -7.932  -0.281 -32.621  1.00  0.00     0.169 HD
HETATM   28  O   UNL     1      -7.239   0.220 -35.684  1.00  0.00    -0.267 OA
BRANCH  26  29
HETATM   29  C   UNL     1      -9.323   0.814 -33.648  1.00  0.00     0.035 A 
HETATM   30  C   UNL     1      -9.464   2.104 -34.160  1.00  0.00     0.032 A 
HETATM   31  C   UNL     1     -10.736   2.684 -34.293  1.00  0.00     0.039 A 
HETATM   32  C   UNL     1     -11.876   1.977 -33.915  1.00  0.00     0.068 A 
HETATM   33  C   UNL     1     -11.734   0.705 -33.365  1.00  0.00     0.039 A 
HETATM   34  C   UNL     1     -10.470   0.125 -33.236  1.00  0.00     0.032 A 
BRANCH  32  35
HETATM   35  O   UNL     1     -13.164   2.419 -34.015  1.00  0.00    -0.352 OA
BRANCH  35  36
HETATM   36  C   UNL     1     -14.190   1.486 -33.680  1.00  0.00     0.171 C 
HETATM   37  C   UNL     1     -15.077   2.125 -32.627  1.00  0.00     0.034 C 
ENDBRANCH  35  36
ENDBRANCH  32  35
ENDBRANCH  26  29
ENDBRANCH   1  25
TORSDOF 9
ENDMDL
