MODEL 1
REMARK VINA RESULT:      -8.3      0.000      0.000
REMARK  6 active torsions:
REMARK  status: ('A' for Active; 'I' for Inactive)
REMARK    1  A    between atoms: C_2  and  C_3 
REMARK    2  A    between atoms: C_3  and  O_4 
REMARK    3  A    between atoms: O_4  and  C_5 
REMARK    4  A    between atoms: C_8  and  C_9 
REMARK    5  A    between atoms: C_9  and  N_10 
REMARK       I    between atoms: N_10  and  C_11 
REMARK       I    between atoms: C_11  and  N_12 
REMARK    6  A    between atoms: N_12  and  C_13 
ROOT
HETATM    1  N   UNL     1      -5.584   1.661 -31.890  1.00  0.00    -0.339 N 
HETATM    2  C   UNL     1      -5.637   0.457 -31.279  1.00  0.00     0.316 C 
HETATM    3  N   UNL     1      -5.408  -0.646 -32.020  1.00  0.00    -0.338 N 
HETATM    4  O   UNL     1      -5.882   0.319 -30.083  1.00  0.00    -0.247 OA
HETATM    5  H   UNL     1      -5.650   1.675 -32.892  1.00  0.00     0.164 HD
HETATM    6  H   UNL     1      -5.446  -1.465 -31.425  1.00  0.00     0.164 HD
ENDROOT
BRANCH   1   7
HETATM    7  C   UNL     1      -5.966   2.871 -31.203  1.00  0.00     0.164 C 
BRANCH   7   8
HETATM    8  C   UNL     1      -4.898   3.926 -31.242  1.00  0.00    -0.021 A 
HETATM    9  C   UNL     1      -4.918   4.997 -30.352  1.00  0.00     0.128 A 
HETATM   10  N   UNL     1      -4.019   6.009 -30.356  1.00  0.00    -0.235 NA
HETATM   11  C   UNL     1      -3.032   5.952 -31.282  1.00  0.00     0.186 A 
HETATM   12  C   UNL     1      -2.904   4.906 -32.194  1.00  0.00     0.087 A 
HETATM   13  C   UNL     1      -3.850   3.880 -32.168  1.00  0.00     0.038 A 
HETATM   14 CL   UNL     1      -1.635   4.842 -33.359  1.00  0.00    -0.080 Cl
BRANCH  11  15
HETATM   15  O   UNL     1      -2.113   6.983 -31.337  1.00  0.00    -0.333 OA
BRANCH  15  16
HETATM   16  C   UNL     1      -1.606   7.370 -30.057  1.00  0.00     0.181 C 
BRANCH  16  17
HETATM   17  C   UNL     1      -0.187   6.803 -29.891  1.00  0.00     0.002 C 
HETATM   18  C   UNL     1       0.588   7.605 -28.846  1.00  0.00     0.011 C 
HETATM   19  C   UNL     1       0.569   6.801 -31.222  1.00  0.00     0.011 C 
ENDBRANCH  16  17
ENDBRANCH  15  16
ENDBRANCH  11  15
ENDBRANCH   7   8
ENDBRANCH   1   7
BRANCH   3  20
HETATM   20  C   UNL     1      -5.086  -0.906 -33.431  1.00  0.00     0.090 C 
HETATM   21  C   UNL     1      -4.272  -2.206 -33.682  1.00  0.00     0.067 C 
HETATM   22  C   UNL     1      -5.101  -3.289 -34.269  1.00  0.00    -0.013 A 
HETATM   23  C   UNL     1      -6.402  -3.122 -34.679  1.00  0.00     0.035 A 
HETATM   24  C   UNL     1      -4.816  -4.638 -34.546  1.00  0.00     0.148 A 
HETATM   25  N   UNL     1      -6.813  -4.324 -35.174  1.00  0.00    -0.282 N 
HETATM   26  C   UNL     1      -7.216  -1.890 -34.579  1.00  0.00     0.061 C 
HETATM   27  H   UNL     1      -7.712  -4.575 -35.575  1.00  0.00     0.189 HD
HETATM   28  N   UNL     1      -5.865  -5.273 -35.079  1.00  0.00    -0.187 NA
HETATM   29  C   UNL     1      -6.286  -0.682 -34.386  1.00  0.00     0.031 C 
ENDBRANCH   3  20
TORSDOF 6
ENDMDL
MODEL 2
REMARK VINA RESULT:      -8.0      3.136      9.081
REMARK  6 active torsions:
REMARK  status: ('A' for Active; 'I' for Inactive)
REMARK    1  A    between atoms: C_2  and  C_3 
REMARK    2  A    between atoms: C_3  and  O_4 
REMARK    3  A    between atoms: O_4  and  C_5 
REMARK    4  A    between atoms: C_8  and  C_9 
REMARK    5  A    between atoms: C_9  and  N_10 
REMARK       I    between atoms: N_10  and  C_11 
REMARK       I    between atoms: C_11  and  N_12 
REMARK    6  A    between atoms: N_12  and  C_13 
ROOT
HETATM    1  N   UNL     1      -4.187   5.216 -33.460  1.00  0.00    -0.339 N 
HETATM    2  C   UNL     1      -3.608   5.446 -34.659  1.00  0.00     0.316 C 
HETATM    3  N   UNL     1      -2.379   6.002 -34.677  1.00  0.00    -0.338 N 
HETATM    4  O   UNL     1      -4.144   5.174 -35.729  1.00  0.00    -0.247 OA
HETATM    5  H   UNL     1      -3.816   5.705 -32.665  1.00  0.00     0.164 HD
HETATM    6  H   UNL     1      -2.060   6.081 -35.635  1.00  0.00     0.164 HD
ENDROOT
BRANCH   1   7
HETATM    7  C   UNL     1      -5.556   4.768 -33.360  1.00  0.00     0.164 C 
BRANCH   7   8
HETATM    8  C   UNL     1      -5.680   3.272 -33.334  1.00  0.00    -0.021 A 
HETATM    9  C   UNL     1      -5.006   2.515 -32.379  1.00  0.00     0.128 A 
HETATM   10  N   UNL     1      -5.030   1.163 -32.321  1.00  0.00    -0.235 NA
HETATM   11  C   UNL     1      -5.776   0.520 -33.250  1.00  0.00     0.186 A 
HETATM   12  C   UNL     1      -6.515   1.186 -34.226  1.00  0.00     0.087 A 
HETATM   13  C   UNL     1      -6.465   2.581 -34.263  1.00  0.00     0.038 A 
HETATM   14 CL   UNL     1      -7.470   0.354 -35.396  1.00  0.00    -0.080 Cl
BRANCH  11  15
HETATM   15  O   UNL     1      -5.801  -0.862 -33.243  1.00  0.00    -0.333 OA
BRANCH  15  16
HETATM   16  C   UNL     1      -4.556  -1.460 -33.614  1.00  0.00     0.181 C 
BRANCH  16  17
HETATM   17  C   UNL     1      -4.834  -2.662 -34.532  1.00  0.00     0.002 C 
HETATM   18  C   UNL     1      -6.334  -2.946 -34.599  1.00  0.00     0.011 C 
HETATM   19  C   UNL     1      -4.080  -3.907 -34.059  1.00  0.00     0.011 C 
ENDBRANCH  16  17
ENDBRANCH  15  16
ENDBRANCH  11  15
ENDBRANCH   7   8
ENDBRANCH   1   7
BRANCH   3  20
HETATM   20  C   UNL     1      -1.425   6.457 -33.656  1.00  0.00     0.090 C 
HETATM   21  C   UNL     1      -1.864   7.729 -32.877  1.00  0.00     0.067 C 
HETATM   22  C   UNL     1      -2.313   7.420 -31.495  1.00  0.00    -0.013 A 
HETATM   23  C   UNL     1      -2.217   6.177 -30.917  1.00  0.00     0.035 A 
HETATM   24  C   UNL     1      -2.891   8.227 -30.499  1.00  0.00     0.148 A 
HETATM   25  N   UNL     1      -2.708   6.295 -29.652  1.00  0.00    -0.282 N 
HETATM   26  C   UNL     1      -1.708   4.938 -31.549  1.00  0.00     0.061 C 
HETATM   27  H   UNL     1      -2.785   5.586 -28.929  1.00  0.00     0.189 HD
HETATM   28  N   UNL     1      -3.150   7.537 -29.383  1.00  0.00    -0.187 NA
HETATM   29  C   UNL     1      -0.866   5.306 -32.781  1.00  0.00     0.031 C 
ENDBRANCH   3  20
TORSDOF 6
ENDMDL
MODEL 3
REMARK VINA RESULT:      -8.0      4.897      7.609
REMARK  6 active torsions:
REMARK  status: ('A' for Active; 'I' for Inactive)
REMARK    1  A    between atoms: C_2  and  C_3 
REMARK    2  A    between atoms: C_3  and  O_4 
REMARK    3  A    between atoms: O_4  and  C_5 
REMARK    4  A    between atoms: C_8  and  C_9 
REMARK    5  A    between atoms: C_9  and  N_10 
REMARK       I    between atoms: N_10  and  C_11 
REMARK       I    between atoms: C_11  and  N_12 
REMARK    6  A    between atoms: N_12  and  C_13 
ROOT
HETATM    1  N   UNL     1      -6.576   1.464 -32.110  1.00  0.00    -0.339 N 
HETATM    2  C   UNL     1      -6.183   0.396 -31.381  1.00  0.00     0.316 C 
HETATM    3  N   UNL     1      -5.543  -0.608 -32.014  1.00  0.00    -0.338 N 
HETATM    4  O   UNL     1      -6.380   0.297 -30.173  1.00  0.00    -0.247 OA
HETATM    5  H   UNL     1      -6.625   1.351 -33.107  1.00  0.00     0.164 HD
HETATM    6  H   UNL     1      -5.281  -1.317 -31.340  1.00  0.00     0.164 HD
ENDROOT
BRANCH   1   7
HETATM    7  C   UNL     1      -7.397   2.505 -31.538  1.00  0.00     0.164 C 
BRANCH   7   8
HETATM    8  C   UNL     1      -8.727   2.640 -32.223  1.00  0.00    -0.021 A 
HETATM    9  C   UNL     1      -8.913   2.172 -33.521  1.00  0.00     0.128 A 
HETATM   10  N   UNL     1     -10.066   2.299 -34.220  1.00  0.00    -0.235 NA
HETATM   11  C   UNL     1     -11.101   2.909 -33.594  1.00  0.00     0.186 A 
HETATM   12  C   UNL     1     -11.027   3.381 -32.285  1.00  0.00     0.087 A 
HETATM   13  C   UNL     1      -9.823   3.240 -31.593  1.00  0.00     0.038 A 
HETATM   14 CL   UNL     1     -12.357   4.145 -31.499  1.00  0.00    -0.080 Cl
BRANCH  11  15
HETATM   15  O   UNL     1     -12.284   3.086 -34.286  1.00  0.00    -0.333 OA
BRANCH  15  16
HETATM   16  C   UNL     1     -12.901   1.861 -34.692  1.00  0.00     0.181 C 
BRANCH  16  17
HETATM   17  C   UNL     1     -13.468   1.153 -33.451  1.00  0.00     0.002 C 
HETATM   18  C   UNL     1     -13.539  -0.356 -33.683  1.00  0.00     0.011 C 
HETATM   19  C   UNL     1     -14.850   1.698 -33.085  1.00  0.00     0.011 C 
ENDBRANCH  16  17
ENDBRANCH  15  16
ENDBRANCH  11  15
ENDBRANCH   7   8
ENDBRANCH   1   7
BRANCH   3  20
HETATM   20  C   UNL     1      -5.123  -0.868 -33.398  1.00  0.00     0.090 C 
HETATM   21  C   UNL     1      -4.254  -2.144 -33.584  1.00  0.00     0.067 C 
HETATM   22  C   UNL     1      -5.009  -3.257 -34.213  1.00  0.00    -0.013 A 
HETATM   23  C   UNL     1      -6.285  -3.134 -34.708  1.00  0.00     0.035 A 
HETATM   24  C   UNL     1      -4.665  -4.598 -34.458  1.00  0.00     0.148 A 
HETATM   25  N   UNL     1      -6.626  -4.352 -35.217  1.00  0.00    -0.282 N 
HETATM   26  C   UNL     1      -7.142  -1.927 -34.672  1.00  0.00     0.061 C 
HETATM   27  H   UNL     1      -7.489  -4.634 -35.673  1.00  0.00     0.189 HD
HETATM   28  N   UNL     1      -5.657  -5.270 -35.052  1.00  0.00    -0.187 NA
HETATM   29  C   UNL     1      -6.265  -0.689 -34.431  1.00  0.00     0.031 C 
ENDBRANCH   3  20
TORSDOF 6
ENDMDL
MODEL 4
REMARK VINA RESULT:      -7.7      2.723      9.084
REMARK  6 active torsions:
REMARK  status: ('A' for Active; 'I' for Inactive)
REMARK    1  A    between atoms: C_2  and  C_3 
REMARK    2  A    between atoms: C_3  and  O_4 
REMARK    3  A    between atoms: O_4  and  C_5 
REMARK    4  A    between atoms: C_8  and  C_9 
REMARK    5  A    between atoms: C_9  and  N_10 
REMARK       I    between atoms: N_10  and  C_11 
REMARK       I    between atoms: C_11  and  N_12 
REMARK    6  A    between atoms: N_12  and  C_13 
ROOT
HETATM    1  N   UNL     1      -5.347   5.005 -33.675  1.00  0.00    -0.339 N 
HETATM    2  C   UNL     1      -5.285   6.126 -32.924  1.00  0.00     0.316 C 
HETATM    3  N   UNL     1      -4.071   6.653 -32.665  1.00  0.00    -0.338 N 
HETATM    4  O   UNL     1      -6.277   6.688 -32.468  1.00  0.00    -0.247 OA
HETATM    5  H   UNL     1      -4.505   4.467 -33.775  1.00  0.00     0.164 HD
HETATM    6  H   UNL     1      -4.181   7.504 -32.125  1.00  0.00     0.164 HD
ENDROOT
BRANCH   1   7
HETATM    7  C   UNL     1      -6.590   4.297 -33.868  1.00  0.00     0.164 C 
BRANCH   7   8
HETATM    8  C   UNL     1      -6.444   2.810 -33.718  1.00  0.00    -0.021 A 
HETATM    9  C   UNL     1      -7.414   1.943 -34.215  1.00  0.00     0.128 A 
HETATM   10  N   UNL     1      -7.375   0.596 -34.077  1.00  0.00    -0.235 NA
HETATM   11  C   UNL     1      -6.309   0.074 -33.425  1.00  0.00     0.186 A 
HETATM   12  C   UNL     1      -5.269   0.854 -32.922  1.00  0.00     0.087 A 
HETATM   13  C   UNL     1      -5.341   2.239 -33.075  1.00  0.00     0.038 A 
HETATM   14 CL   UNL     1      -3.912   0.173 -32.105  1.00  0.00    -0.080 Cl
BRANCH  11  15
HETATM   15  O   UNL     1      -6.250  -1.294 -33.237  1.00  0.00    -0.333 OA
BRANCH  15  16
HETATM   16  C   UNL     1      -6.949  -2.041 -34.236  1.00  0.00     0.181 C 
BRANCH  16  17
HETATM   17  C   UNL     1      -5.963  -2.999 -34.924  1.00  0.00     0.002 C 
HETATM   18  C   UNL     1      -6.542  -4.412 -34.979  1.00  0.00     0.011 C 
HETATM   19  C   UNL     1      -4.610  -3.010 -34.209  1.00  0.00     0.011 C 
ENDBRANCH  16  17
ENDBRANCH  15  16
ENDBRANCH  11  15
ENDBRANCH   7   8
ENDBRANCH   1   7
BRANCH   3  20
HETATM   20  C   UNL     1      -2.686   6.305 -33.014  1.00  0.00     0.090 C 
HETATM   21  C   UNL     1      -1.603   7.199 -32.347  1.00  0.00     0.067 C 
HETATM   22  C   UNL     1      -0.892   6.502 -31.245  1.00  0.00    -0.013 A 
HETATM   23  C   UNL     1      -1.066   5.173 -30.941  1.00  0.00     0.035 A 
HETATM   24  C   UNL     1       0.058   6.955 -30.313  1.00  0.00     0.148 A 
HETATM   25  N   UNL     1      -0.237   4.900 -29.894  1.00  0.00    -0.282 N 
HETATM   26  C   UNL     1      -1.993   4.223 -31.596  1.00  0.00     0.061 C 
HETATM   27  H   UNL     1      -0.089   4.020 -29.409  1.00  0.00     0.189 HD
HETATM   28  N   UNL     1       0.443   5.984 -29.478  1.00  0.00    -0.187 NA
HETATM   29  C   UNL     1      -2.406   4.781 -32.967  1.00  0.00     0.031 C 
ENDBRANCH   3  20
TORSDOF 6
ENDMDL
MODEL 5
REMARK VINA RESULT:      -7.5      5.379      8.640
REMARK  6 active torsions:
REMARK  status: ('A' for Active; 'I' for Inactive)
REMARK    1  A    between atoms: C_2  and  C_3 
REMARK    2  A    between atoms: C_3  and  O_4 
REMARK    3  A    between atoms: O_4  and  C_5 
REMARK    4  A    between atoms: C_8  and  C_9 
REMARK    5  A    between atoms: C_9  and  N_10 
REMARK       I    between atoms: N_10  and  C_11 
REMARK       I    between atoms: C_11  and  N_12 
REMARK    6  A    between atoms: N_12  and  C_13 
ROOT
HETATM    1  N   UNL     1      -8.918   3.647 -32.506  1.00  0.00    -0.339 N 
HETATM    2  C   UNL     1      -9.660   3.184 -31.476  1.00  0.00     0.316 C 
HETATM    3  N   UNL     1     -11.002   3.298 -31.555  1.00  0.00    -0.338 N 
HETATM    4  O   UNL     1      -9.173   2.665 -30.475  1.00  0.00    -0.247 OA
HETATM    5  H   UNL     1      -9.357   4.288 -33.142  1.00  0.00     0.164 HD
HETATM    6  H   UNL     1     -11.423   2.879 -30.734  1.00  0.00     0.164 HD
ENDROOT
BRANCH   1   7
HETATM    7  C   UNL     1      -7.477   3.701 -32.430  1.00  0.00     0.164 C 
BRANCH   7   8
HETATM    8  C   UNL     1      -6.823   2.417 -32.853  1.00  0.00    -0.021 A 
HETATM    9  C   UNL     1      -7.075   1.866 -34.107  1.00  0.00     0.128 A 
HETATM   10  N   UNL     1      -6.560   0.691 -34.541  1.00  0.00    -0.235 NA
HETATM   11  C   UNL     1      -5.736   0.030 -33.694  1.00  0.00     0.186 A 
HETATM   12  C   UNL     1      -5.394   0.513 -32.433  1.00  0.00     0.087 A 
HETATM   13  C   UNL     1      -5.945   1.725 -32.012  1.00  0.00     0.038 A 
HETATM   14 CL   UNL     1      -4.334  -0.335 -31.371  1.00  0.00    -0.080 Cl
BRANCH  11  15
HETATM   15  O   UNL     1      -5.217  -1.189 -34.090  1.00  0.00    -0.333 OA
BRANCH  15  16
HETATM   16  C   UNL     1      -6.202  -2.100 -34.583  1.00  0.00     0.181 C 
BRANCH  16  17
HETATM   17  C   UNL     1      -5.496  -3.353 -35.126  1.00  0.00     0.002 C 
HETATM   18  C   UNL     1      -6.483  -4.513 -35.243  1.00  0.00     0.011 C 
HETATM   19  C   UNL     1      -4.314  -3.751 -34.239  1.00  0.00     0.011 C 
ENDBRANCH  16  17
ENDBRANCH  15  16
ENDBRANCH  11  15
ENDBRANCH   7   8
ENDBRANCH   1   7
BRANCH   3  20
HETATM   20  C   UNL     1     -11.946   3.832 -32.546  1.00  0.00     0.090 C 
HETATM   21  C   UNL     1     -12.084   2.980 -33.838  1.00  0.00     0.067 C 
HETATM   22  C   UNL     1     -13.360   2.219 -33.883  1.00  0.00    -0.013 A 
HETATM   23  C   UNL     1     -14.369   2.361 -32.961  1.00  0.00     0.035 A 
HETATM   24  C   UNL     1     -13.841   1.255 -34.785  1.00  0.00     0.148 A 
HETATM   25  N   UNL     1     -15.370   1.521 -33.345  1.00  0.00    -0.282 N 
HETATM   26  C   UNL     1     -14.365   3.232 -31.764  1.00  0.00     0.061 C 
HETATM   27  H   UNL     1     -16.275   1.366 -32.911  1.00  0.00     0.189 HD
HETATM   28  N   UNL     1     -15.057   0.814 -34.447  1.00  0.00    -0.187 NA
HETATM   29  C   UNL     1     -13.283   4.311 -31.924  1.00  0.00     0.031 C 
ENDBRANCH   3  20
TORSDOF 6
ENDMDL
MODEL 6
REMARK VINA RESULT:      -7.4      4.422      8.233
REMARK  6 active torsions:
REMARK  status: ('A' for Active; 'I' for Inactive)
REMARK    1  A    between atoms: C_2  and  C_3 
REMARK    2  A    between atoms: C_3  and  O_4 
REMARK    3  A    between atoms: O_4  and  C_5 
REMARK    4  A    between atoms: C_8  and  C_9 
REMARK    5  A    between atoms: C_9  and  N_10 
REMARK       I    between atoms: N_10  and  C_11 
REMARK       I    between atoms: C_11  and  N_12 
REMARK    6  A    between atoms: N_12  and  C_13 
ROOT
HETATM    1  N   UNL     1      -6.432   3.677 -32.675  1.00  0.00    -0.339 N 
HETATM    2  C   UNL     1      -6.705   4.471 -33.733  1.00  0.00     0.316 C 
HETATM    3  N   UNL     1      -7.994   4.783 -33.981  1.00  0.00    -0.338 N 
HETATM    4  O   UNL     1      -5.839   4.923 -34.477  1.00  0.00    -0.247 OA
HETATM    5  H   UNL     1      -7.189   3.139 -32.292  1.00  0.00     0.164 HD
HETATM    6  H   UNL     1      -8.041   5.408 -34.777  1.00  0.00     0.164 HD
ENDROOT
BRANCH   1   7
HETATM    7  C   UNL     1      -5.100   3.176 -32.434  1.00  0.00     0.164 C 
BRANCH   7   8
HETATM    8  C   UNL     1      -5.000   1.685 -32.592  1.00  0.00    -0.021 A 
HETATM    9  C   UNL     1      -3.801   1.020 -32.351  1.00  0.00     0.128 A 
HETATM   10  N   UNL     1      -3.621  -0.312 -32.516  1.00  0.00    -0.235 NA
HETATM   11  C   UNL     1      -4.692  -1.031 -32.929  1.00  0.00     0.186 A 
HETATM   12  C   UNL     1      -5.943  -0.465 -33.164  1.00  0.00     0.087 A 
HETATM   13  C   UNL     1      -6.095   0.911 -32.990  1.00  0.00     0.038 A 
HETATM   14 CL   UNL     1      -7.300  -1.396 -33.678  1.00  0.00    -0.080 Cl
BRANCH  11  15
HETATM   15  O   UNL     1      -4.538  -2.389 -33.140  1.00  0.00    -0.333 OA
BRANCH  15  16
HETATM   16  C   UNL     1      -4.325  -2.736 -34.510  1.00  0.00     0.181 C 
BRANCH  16  17
HETATM   17  C   UNL     1      -4.522  -4.252 -34.677  1.00  0.00     0.002 C 
HETATM   18  C   UNL     1      -6.010  -4.589 -34.766  1.00  0.00     0.011 C 
HETATM   19  C   UNL     1      -3.872  -5.026 -33.528  1.00  0.00     0.011 C 
ENDBRANCH  16  17
ENDBRANCH  15  16
ENDBRANCH  11  15
ENDBRANCH   7   8
ENDBRANCH   1   7
BRANCH   3  20
HETATM   20  C   UNL     1      -9.283   4.463 -33.353  1.00  0.00     0.090 C 
HETATM   21  C   UNL     1     -10.531   4.910 -34.166  1.00  0.00     0.067 C 
HETATM   22  C   UNL     1     -11.220   3.768 -34.820  1.00  0.00    -0.013 A 
HETATM   23  C   UNL     1     -10.884   2.451 -34.614  1.00  0.00     0.035 A 
HETATM   24  C   UNL     1     -12.295   3.720 -35.725  1.00  0.00     0.148 A 
HETATM   25  N   UNL     1     -11.745   1.707 -35.363  1.00  0.00    -0.282 N 
HETATM   26  C   UNL     1      -9.783   1.934 -33.770  1.00  0.00     0.061 C 
HETATM   27  H   UNL     1     -11.804   0.697 -35.453  1.00  0.00     0.189 HD
HETATM   28  N   UNL     1     -12.602   2.465 -36.071  1.00  0.00    -0.187 NA
HETATM   29  C   UNL     1      -9.348   3.025 -32.779  1.00  0.00     0.031 C 
ENDBRANCH   3  20
TORSDOF 6
ENDMDL
MODEL 7
REMARK VINA RESULT:      -7.4      2.879      9.617
REMARK  6 active torsions:
REMARK  status: ('A' for Active; 'I' for Inactive)
REMARK    1  A    between atoms: C_2  and  C_3 
REMARK    2  A    between atoms: C_3  and  O_4 
REMARK    3  A    between atoms: O_4  and  C_5 
REMARK    4  A    between atoms: C_8  and  C_9 
REMARK    5  A    between atoms: C_9  and  N_10 
REMARK       I    between atoms: N_10  and  C_11 
REMARK       I    between atoms: C_11  and  N_12 
REMARK    6  A    between atoms: N_12  and  C_13 
ROOT
HETATM    1  N   UNL     1      -4.589   3.429 -31.632  1.00  0.00    -0.339 N 
HETATM    2  C   UNL     1      -3.242   3.340 -31.685  1.00  0.00     0.316 C 
HETATM    3  N   UNL     1      -2.568   4.277 -32.384  1.00  0.00    -0.338 N 
HETATM    4  O   UNL     1      -2.603   2.450 -31.130  1.00  0.00    -0.247 OA
HETATM    5  H   UNL     1      -5.043   4.005 -32.318  1.00  0.00     0.164 HD
HETATM    6  H   UNL     1      -1.573   4.103 -32.306  1.00  0.00     0.164 HD
ENDROOT
BRANCH   1   7
HETATM    7  C   UNL     1      -5.389   2.385 -31.037  1.00  0.00     0.164 C 
BRANCH   7   8
HETATM    8  C   UNL     1      -5.642   1.239 -31.974  1.00  0.00    -0.021 A 
HETATM    9  C   UNL     1      -5.136  -0.030 -31.703  1.00  0.00     0.128 A 
HETATM   10  N   UNL     1      -5.283  -1.099 -32.521  1.00  0.00    -0.235 NA
HETATM   11  C   UNL     1      -5.983  -0.909 -33.665  1.00  0.00     0.186 A 
HETATM   12  C   UNL     1      -6.558   0.313 -34.010  1.00  0.00     0.087 A 
HETATM   13  C   UNL     1      -6.385   1.397 -33.148  1.00  0.00     0.038 A 
HETATM   14 CL   UNL     1      -7.457   0.536 -35.463  1.00  0.00    -0.080 Cl
BRANCH  11  15
HETATM   15  O   UNL     1      -6.126  -1.969 -34.540  1.00  0.00    -0.333 OA
BRANCH  15  16
HETATM   16  C   UNL     1      -4.989  -2.835 -34.583  1.00  0.00     0.181 C 
BRANCH  16  17
HETATM   17  C   UNL     1      -5.456  -4.282 -34.352  1.00  0.00     0.002 C 
HETATM   18  C   UNL     1      -4.255  -5.199 -34.125  1.00  0.00     0.011 C 
HETATM   19  C   UNL     1      -6.293  -4.790 -35.528  1.00  0.00     0.011 C 
ENDBRANCH  16  17
ENDBRANCH  15  16
ENDBRANCH  11  15
ENDBRANCH   7   8
ENDBRANCH   1   7
BRANCH   3  20
HETATM   20  C   UNL     1      -2.941   5.467 -33.161  1.00  0.00     0.090 C 
HETATM   21  C   UNL     1      -4.000   6.380 -32.483  1.00  0.00     0.067 C 
HETATM   22  C   UNL     1      -3.407   7.629 -31.940  1.00  0.00    -0.013 A 
HETATM   23  C   UNL     1      -2.101   8.007 -32.138  1.00  0.00     0.035 A 
HETATM   24  C   UNL     1      -3.958   8.664 -31.164  1.00  0.00     0.148 A 
HETATM   25  N   UNL     1      -1.940   9.205 -31.510  1.00  0.00    -0.282 N 
HETATM   26  C   UNL     1      -1.056   7.250 -32.865  1.00  0.00     0.061 C 
HETATM   27  H   UNL     1      -1.112   9.790 -31.452  1.00  0.00     0.189 HD
HETATM   28  N   UNL     1      -3.059   9.614 -30.885  1.00  0.00    -0.187 NA
HETATM   29  C   UNL     1      -1.724   6.206 -33.773  1.00  0.00     0.031 C 
ENDBRANCH   3  20
TORSDOF 6
ENDMDL
MODEL 8
REMARK VINA RESULT:      -7.4      3.932      8.094
REMARK  6 active torsions:
REMARK  status: ('A' for Active; 'I' for Inactive)
REMARK    1  A    between atoms: C_2  and  C_3 
REMARK    2  A    between atoms: C_3  and  O_4 
REMARK    3  A    between atoms: O_4  and  C_5 
REMARK    4  A    between atoms: C_8  and  C_9 
REMARK    5  A    between atoms: C_9  and  N_10 
REMARK       I    between atoms: N_10  and  C_11 
REMARK       I    between atoms: C_11  and  N_12 
REMARK    6  A    between atoms: N_12  and  C_13 
ROOT
HETATM    1  N   UNL     1      -6.207   3.978 -32.140  1.00  0.00    -0.339 N 
HETATM    2  C   UNL     1      -6.317   5.311 -32.328  1.00  0.00     0.316 C 
HETATM    3  N   UNL     1      -7.527   5.882 -32.158  1.00  0.00    -0.338 N 
HETATM    4  O   UNL     1      -5.371   6.027 -32.645  1.00  0.00    -0.247 OA
HETATM    5  H   UNL     1      -7.053   3.437 -32.154  1.00  0.00     0.164 HD
HETATM    6  H   UNL     1      -7.450   6.882 -32.297  1.00  0.00     0.164 HD
ENDROOT
BRANCH   1   7
HETATM    7  C   UNL     1      -4.987   3.273 -32.450  1.00  0.00     0.164 C 
BRANCH   7   8
HETATM    8  C   UNL     1      -5.230   1.870 -32.929  1.00  0.00    -0.021 A 
HETATM    9  C   UNL     1      -4.399   0.825 -32.532  1.00  0.00     0.128 A 
HETATM   10  N   UNL     1      -4.526  -0.454 -32.958  1.00  0.00    -0.235 NA
HETATM   11  C   UNL     1      -5.542  -0.720 -33.813  1.00  0.00     0.186 A 
HETATM   12  C   UNL     1      -6.447   0.248 -34.244  1.00  0.00     0.087 A 
HETATM   13  C   UNL     1      -6.287   1.558 -33.791  1.00  0.00     0.038 A 
HETATM   14 CL   UNL     1      -7.742  -0.110 -35.324  1.00  0.00    -0.080 Cl
BRANCH  11  15
HETATM   15  O   UNL     1      -5.684  -2.008 -34.295  1.00  0.00    -0.333 OA
BRANCH  15  16
HETATM   16  C   UNL     1      -4.456  -2.739 -34.351  1.00  0.00     0.181 C 
BRANCH  16  17
HETATM   17  C   UNL     1      -4.762  -4.201 -34.717  1.00  0.00     0.002 C 
HETATM   18  C   UNL     1      -6.271  -4.422 -34.810  1.00  0.00     0.011 C 
HETATM   19  C   UNL     1      -4.147  -5.167 -33.701  1.00  0.00     0.011 C 
ENDBRANCH  16  17
ENDBRANCH  15  16
ENDBRANCH  11  15
ENDBRANCH   7   8
ENDBRANCH   1   7
BRANCH   3  20
HETATM   20  C   UNL     1      -8.865   5.399 -31.789  1.00  0.00     0.090 C 
HETATM   21  C   UNL     1      -9.529   4.460 -32.836  1.00  0.00     0.067 C 
HETATM   22  C   UNL     1      -9.526   3.039 -32.405  1.00  0.00    -0.013 A 
HETATM   23  C   UNL     1      -9.118   2.615 -31.163  1.00  0.00     0.035 A 
HETATM   24  C   UNL     1      -9.907   1.860 -33.070  1.00  0.00     0.148 A 
HETATM   25  N   UNL     1      -9.279   1.262 -31.139  1.00  0.00    -0.282 N 
HETATM   26  C   UNL     1      -8.578   3.454 -30.069  1.00  0.00     0.061 C 
HETATM   27  H   UNL     1      -9.091   0.611 -30.383  1.00  0.00     0.189 HD
HETATM   28  N   UNL     1      -9.737   0.776 -32.306  1.00  0.00    -0.187 NA
HETATM   29  C   UNL     1      -8.962   4.922 -30.318  1.00  0.00     0.031 C 
ENDBRANCH   3  20
TORSDOF 6
ENDMDL
MODEL 9
REMARK VINA RESULT:      -7.4      1.798      2.377
REMARK  6 active torsions:
REMARK  status: ('A' for Active; 'I' for Inactive)
REMARK    1  A    between atoms: C_2  and  C_3 
REMARK    2  A    between atoms: C_3  and  O_4 
REMARK    3  A    between atoms: O_4  and  C_5 
REMARK    4  A    between atoms: C_8  and  C_9 
REMARK    5  A    between atoms: C_9  and  N_10 
REMARK       I    between atoms: N_10  and  C_11 
REMARK       I    between atoms: C_11  and  N_12 
REMARK    6  A    between atoms: N_12  and  C_13 
ROOT
HETATM    1  N   UNL     1      -6.236   3.476 -32.103  1.00  0.00    -0.339 N 
HETATM    2  C   UNL     1      -6.274   3.061 -33.388  1.00  0.00     0.316 C 
HETATM    3  N   UNL     1      -6.236   1.735 -33.632  1.00  0.00    -0.338 N 
HETATM    4  O   UNL     1      -6.343   3.831 -34.342  1.00  0.00    -0.247 OA
HETATM    5  H   UNL     1      -5.911   2.821 -31.414  1.00  0.00     0.164 HD
HETATM    6  H   UNL     1      -6.308   1.575 -34.629  1.00  0.00     0.164 HD
ENDROOT
BRANCH   1   7
HETATM    7  C   UNL     1      -6.119   4.875 -31.767  1.00  0.00     0.164 C 
BRANCH   7   8
HETATM    8  C   UNL     1      -4.695   5.307 -31.560  1.00  0.00    -0.021 A 
HETATM    9  C   UNL     1      -4.300   5.924 -30.376  1.00  0.00     0.128 A 
HETATM   10  N   UNL     1      -3.049   6.383 -30.136  1.00  0.00    -0.235 NA
HETATM   11  C   UNL     1      -2.130   6.208 -31.115  1.00  0.00     0.186 A 
HETATM   12  C   UNL     1      -2.417   5.573 -32.322  1.00  0.00     0.087 A 
HETATM   13  C   UNL     1      -3.717   5.116 -32.542  1.00  0.00     0.038 A 
HETATM   14 CL   UNL     1      -1.233   5.347 -33.555  1.00  0.00    -0.080 Cl
BRANCH  11  15
HETATM   15  O   UNL     1      -0.850   6.692 -30.919  1.00  0.00    -0.333 OA
BRANCH  15  16
HETATM   16  C   UNL     1      -0.717   7.505 -29.750  1.00  0.00     0.181 C 
BRANCH  16  17
HETATM   17  C   UNL     1       0.599   7.146 -29.041  1.00  0.00     0.002 C 
HETATM   18  C   UNL     1       0.416   5.900 -28.175  1.00  0.00     0.011 C 
HETATM   19  C   UNL     1       1.106   8.312 -28.189  1.00  0.00     0.011 C 
ENDBRANCH  16  17
ENDBRANCH  15  16
ENDBRANCH  11  15
ENDBRANCH   7   8
ENDBRANCH   1   7
BRANCH   3  20
HETATM   20  C   UNL     1      -6.162   0.524 -32.802  1.00  0.00     0.090 C 
HETATM   21  C   UNL     1      -7.030  -0.663 -33.307  1.00  0.00     0.067 C 
HETATM   22  C   UNL     1      -6.216  -1.736 -33.931  1.00  0.00    -0.013 A 
HETATM   23  C   UNL     1      -4.842  -1.751 -33.935  1.00  0.00     0.035 A 
HETATM   24  C   UNL     1      -6.582  -2.911 -34.610  1.00  0.00     0.148 A 
HETATM   25  N   UNL     1      -4.465  -2.893 -34.578  1.00  0.00    -0.282 N 
HETATM   26  C   UNL     1      -3.938  -0.718 -33.380  1.00  0.00     0.061 C 
HETATM   27  H   UNL     1      -3.530  -3.243 -34.761  1.00  0.00     0.189 HD
HETATM   28  N   UNL     1      -5.516  -3.606 -35.022  1.00  0.00    -0.187 NA
HETATM   29  C   UNL     1      -4.716   0.154 -32.383  1.00  0.00     0.031 C 
ENDBRANCH   3  20
TORSDOF 6
ENDMDL
MODEL 10
REMARK VINA RESULT:      -7.3      2.181      2.729
REMARK  6 active torsions:
REMARK  status: ('A' for Active; 'I' for Inactive)
REMARK    1  A    between atoms: C_2  and  C_3 
REMARK    2  A    between atoms: C_3  and  O_4 
REMARK    3  A    between atoms: O_4  and  C_5 
REMARK    4  A    between atoms: C_8  and  C_9 
REMARK    5  A    between atoms: C_9  and  N_10 
REMARK       I    between atoms: N_10  and  C_11 
REMARK       I    between atoms: C_11  and  N_12 
REMARK    6  A    between atoms: N_12  and  C_13 
ROOT
HETATM    1  N   UNL     1      -7.187   1.077 -33.655  1.00  0.00    -0.339 N 
HETATM    2  C   UNL     1      -7.726  -0.051 -33.145  1.00  0.00     0.316 C 
HETATM    3  N   UNL     1      -7.275  -1.237 -33.600  1.00  0.00    -0.338 N 
HETATM    4  O   UNL     1      -8.605  -0.048 -32.287  1.00  0.00    -0.247 OA
HETATM    5  H   UNL     1      -6.687   1.001 -34.524  1.00  0.00     0.164 HD
HETATM    6  H   UNL     1      -7.742  -1.987 -33.105  1.00  0.00     0.164 HD
ENDROOT
BRANCH   1   7
HETATM    7  C   UNL     1      -7.720   2.380 -33.333  1.00  0.00     0.164 C 
BRANCH   7   8
HETATM    8  C   UNL     1      -6.654   3.374 -32.972  1.00  0.00    -0.021 A 
HETATM    9  C   UNL     1      -6.847   4.737 -33.181  1.00  0.00     0.128 A 
HETATM   10  N   UNL     1      -5.917   5.687 -32.925  1.00  0.00    -0.235 NA
HETATM   11  C   UNL     1      -4.733   5.269 -32.417  1.00  0.00     0.186 A 
HETATM   12  C   UNL     1      -4.454   3.932 -32.139  1.00  0.00     0.087 A 
HETATM   13  C   UNL     1      -5.432   2.975 -32.420  1.00  0.00     0.038 A 
HETATM   14 CL   UNL     1      -2.947   3.416 -31.481  1.00  0.00    -0.080 Cl
BRANCH  11  15
HETATM   15  O   UNL     1      -3.747   6.206 -32.172  1.00  0.00    -0.333 OA
BRANCH  15  16
HETATM   16  C   UNL     1      -3.035   6.610 -33.345  1.00  0.00     0.181 C 
BRANCH  16  17
HETATM   17  C   UNL     1      -1.623   6.004 -33.305  1.00  0.00     0.002 C 
HETATM   18  C   UNL     1      -0.619   7.028 -32.777  1.00  0.00     0.011 C 
HETATM   19  C   UNL     1      -1.194   5.506 -34.687  1.00  0.00     0.011 C 
ENDBRANCH  16  17
ENDBRANCH  15  16
ENDBRANCH  11  15
ENDBRANCH   7   8
ENDBRANCH   1   7
BRANCH   3  20
HETATM   20  C   UNL     1      -6.267  -1.662 -34.582  1.00  0.00     0.090 C 
HETATM   21  C   UNL     1      -4.838  -1.858 -34.003  1.00  0.00     0.067 C 
HETATM   22  C   UNL     1      -4.473  -3.292 -33.867  1.00  0.00    -0.013 A 
HETATM   23  C   UNL     1      -5.248  -4.327 -34.333  1.00  0.00     0.035 A 
HETATM   24  C   UNL     1      -3.353  -3.920 -33.294  1.00  0.00     0.148 A 
HETATM   25  N   UNL     1      -4.578  -5.477 -34.042  1.00  0.00    -0.282 N 
HETATM   26  C   UNL     1      -6.568  -4.223 -34.995  1.00  0.00     0.061 C 
HETATM   27  H   UNL     1      -4.841  -6.437 -34.245  1.00  0.00     0.189 HD
HETATM   28  N   UNL     1      -3.427  -5.252 -33.383  1.00  0.00    -0.187 NA
HETATM   29  C   UNL     1      -6.762  -2.792 -35.520  1.00  0.00     0.031 C 
ENDBRANCH   3  20
TORSDOF 6
ENDMDL
