MODEL 1
REMARK VINA RESULT:      -8.7      0.000      0.000
REMARK  6 active torsions:
REMARK  status: ('A' for Active; 'I' for Inactive)
REMARK    1  A    between atoms: C_4  and  C_5 
REMARK    2  A    between atoms: C_5  and  N_6 
REMARK    3  A    between atoms: C_5  and  C_25 
REMARK    4  A    between atoms: N_10  and  C_11 
REMARK    5  A    between atoms: C_15  and  C_16 
REMARK       I    between atoms: C_25  and  N_26 
REMARK    6  A    between atoms: N_26  and  C_27 
ROOT
HETATM    1  N   UNL     1      -7.554   2.677 -33.189  1.00  0.00    -0.051 N 
HETATM    2  H   UNL     1      -8.228   3.411 -33.478  1.00  0.00     0.281 HD
HETATM    3  C   UNL     1      -7.096   3.092 -31.801  1.00  0.00     0.256 C 
HETATM    4  C   UNL     1      -6.473   4.504 -31.860  1.00  0.00     0.152 C 
HETATM    5  N   UNL     1      -5.405   4.605 -32.877  1.00  0.00    -0.363 N 
HETATM    6  C   UNL     1      -5.667   4.008 -34.208  1.00  0.00     0.152 C 
HETATM    7  C   UNL     1      -6.414   2.647 -34.173  1.00  0.00     0.256 C 
ENDROOT
BRANCH   1   8
HETATM    8  C   UNL     1      -8.466   1.410 -33.217  1.00  0.00     0.312 C 
BRANCH   8   9
HETATM    9  C   UNL     1      -9.881   1.687 -33.682  1.00  0.00    -0.018 A 
HETATM   10  C   UNL     1     -10.938   0.791 -33.436  1.00  0.00     0.010 A 
HETATM   11  C   UNL     1     -12.221   1.057 -33.914  1.00  0.00     0.001 A 
HETATM   12  C   UNL     1     -12.469   2.218 -34.639  1.00  0.00     0.000 A 
HETATM   13  C   UNL     1     -11.438   3.119 -34.887  1.00  0.00     0.001 A 
HETATM   14  C   UNL     1     -10.152   2.856 -34.414  1.00  0.00     0.010 A 
ENDBRANCH   8   9
BRANCH   8  15
HETATM   15  C   UNL     1      -7.714   0.295 -33.987  1.00  0.00     0.259 C 
HETATM   16  N   UNL     1      -7.010  -0.601 -33.222  1.00  0.00    -0.304 N 
HETATM   17  H   UNL     1      -7.002  -0.585 -32.209  1.00  0.00     0.171 HD
HETATM   18  O   UNL     1      -7.773   0.357 -35.220  1.00  0.00    -0.270 OA
BRANCH  16  19
HETATM   19  C   UNL     1      -6.295  -1.616 -33.798  1.00  0.00     0.172 A 
HETATM   20  S   UNL     1      -4.605  -1.469 -33.631  1.00  0.00    -0.062 SA
HETATM   21  C   UNL     1      -4.417  -2.931 -34.511  1.00  0.00     0.072 A 
HETATM   22  C   UNL     1      -5.660  -3.421 -34.859  1.00  0.00     0.126 A 
HETATM   23  N   UNL     1      -6.738  -2.662 -34.442  1.00  0.00    -0.236 NA
ENDBRANCH  16  19
ENDBRANCH   8  15
ENDBRANCH   1   8
BRANCH   5  24
HETATM   24  C   UNL     1      -4.118   4.836 -32.442  1.00  0.00     0.125 A 
HETATM   25  N   UNL     1      -3.721   6.125 -32.460  1.00  0.00    -0.350 N 
HETATM   26  H   UNL     1      -4.392   6.802 -32.824  1.00  0.00     0.166 HD
HETATM   27  C   UNL     1      -2.508   6.550 -32.069  1.00  0.00     0.106 A 
HETATM   28  C   UNL     1      -1.569   5.641 -31.597  1.00  0.00     0.065 A 
HETATM   29  C   UNL     1      -1.915   4.288 -31.568  1.00  0.00     0.045 A 
HETATM   30  C   UNL     1      -3.186   3.882 -31.983  1.00  0.00     0.078 A 
HETATM   31 CL   UNL     1      -3.575   2.211 -31.844  1.00  0.00    -0.080 Cl
BRANCH  28  32
HETATM   32  C   UNL     1      -0.208   6.130 -31.171  1.00  0.00     0.418 C 
HETATM   33  F   UNL     1       0.708   5.129 -31.202  1.00  0.00    -0.166 F 
HETATM   34  F   UNL     1       0.262   7.121 -31.963  1.00  0.00    -0.166 F 
HETATM   35  F   UNL     1      -0.229   6.600 -29.902  1.00  0.00    -0.166 F 
ENDBRANCH  28  32
ENDBRANCH   5  24
TORSDOF 6
ENDMDL
MODEL 2
REMARK VINA RESULT:      -8.6      1.609      1.965
REMARK  6 active torsions:
REMARK  status: ('A' for Active; 'I' for Inactive)
REMARK    1  A    between atoms: C_4  and  C_5 
REMARK    2  A    between atoms: C_5  and  N_6 
REMARK    3  A    between atoms: C_5  and  C_25 
REMARK    4  A    between atoms: N_10  and  C_11 
REMARK    5  A    between atoms: C_15  and  C_16 
REMARK       I    between atoms: C_25  and  N_26 
REMARK    6  A    between atoms: N_26  and  C_27 
ROOT
HETATM    1  N   UNL     1      -6.733   2.632 -32.335  1.00  0.00    -0.051 N 
HETATM    2  H   UNL     1      -7.474   3.294 -32.632  1.00  0.00     0.281 HD
HETATM    3  C   UNL     1      -6.148   3.242 -31.073  1.00  0.00     0.256 C 
HETATM    4  C   UNL     1      -5.614   4.659 -31.380  1.00  0.00     0.152 C 
HETATM    5  N   UNL     1      -4.672   4.669 -32.519  1.00  0.00    -0.363 N 
HETATM    6  C   UNL     1      -5.047   3.893 -33.726  1.00  0.00     0.152 C 
HETATM    7  C   UNL     1      -5.709   2.519 -33.433  1.00  0.00     0.256 C 
ENDROOT
BRANCH   1   8
HETATM    8  C   UNL     1      -7.571   1.336 -32.097  1.00  0.00     0.312 C 
BRANCH   8   9
HETATM    9  C   UNL     1      -8.895   1.323 -32.832  1.00  0.00    -0.018 A 
HETATM   10  C   UNL     1      -9.265   2.346 -33.726  1.00  0.00     0.010 A 
HETATM   11  C   UNL     1     -10.510   2.324 -34.356  1.00  0.00     0.001 A 
HETATM   12  C   UNL     1     -11.401   1.285 -34.106  1.00  0.00     0.000 A 
HETATM   13  C   UNL     1     -11.050   0.262 -33.230  1.00  0.00     0.001 A 
HETATM   14  C   UNL     1      -9.808   0.280 -32.596  1.00  0.00     0.010 A 
ENDBRANCH   8   9
BRANCH   8  15
HETATM   15  C   UNL     1      -6.651   0.116 -32.352  1.00  0.00     0.259 C 
HETATM   16  N   UNL     1      -6.678  -0.408 -33.620  1.00  0.00    -0.304 N 
HETATM   17  H   UNL     1      -7.223  -0.012 -34.377  1.00  0.00     0.171 HD
HETATM   18  O   UNL     1      -6.028  -0.304 -31.372  1.00  0.00    -0.270 OA
BRANCH  16  19
HETATM   19  C   UNL     1      -5.919  -1.496 -33.954  1.00  0.00     0.172 A 
HETATM   20  S   UNL     1      -6.813  -2.828 -34.532  1.00  0.00    -0.062 SA
HETATM   21  C   UNL     1      -5.346  -3.703 -34.709  1.00  0.00     0.072 A 
HETATM   22  C   UNL     1      -4.287  -2.908 -34.319  1.00  0.00     0.126 A 
HETATM   23  N   UNL     1      -4.622  -1.636 -33.889  1.00  0.00    -0.236 NA
ENDBRANCH  16  19
ENDBRANCH   8  15
ENDBRANCH   1   8
BRANCH   5  24
HETATM   24  C   UNL     1      -3.359   5.007 -32.271  1.00  0.00     0.125 A 
HETATM   25  N   UNL     1      -3.010   5.061 -30.969  1.00  0.00    -0.350 N 
HETATM   26  H   UNL     1      -3.752   4.885 -30.292  1.00  0.00     0.166 HD
HETATM   27  C   UNL     1      -1.778   5.365 -30.527  1.00  0.00     0.106 A 
HETATM   28  C   UNL     1      -0.759   5.638 -31.432  1.00  0.00     0.065 A 
HETATM   29  C   UNL     1      -1.063   5.611 -32.796  1.00  0.00     0.045 A 
HETATM   30  C   UNL     1      -2.355   5.292 -33.219  1.00  0.00     0.078 A 
HETATM   31 CL   UNL     1      -2.639   5.197 -34.914  1.00  0.00    -0.080 Cl
BRANCH  28  32
HETATM   32  C   UNL     1       0.615   5.987 -30.922  1.00  0.00     0.418 C 
HETATM   33  F   UNL     1       1.478   4.951 -31.081  1.00  0.00    -0.166 F 
HETATM   34  F   UNL     1       1.155   7.051 -31.560  1.00  0.00    -0.166 F 
HETATM   35  F   UNL     1       0.593   6.276 -29.600  1.00  0.00    -0.166 F 
ENDBRANCH  28  32
ENDBRANCH   5  24
TORSDOF 6
ENDMDL
MODEL 3
REMARK VINA RESULT:      -8.6      5.502      8.966
REMARK  6 active torsions:
REMARK  status: ('A' for Active; 'I' for Inactive)
REMARK    1  A    between atoms: C_4  and  C_5 
REMARK    2  A    between atoms: C_5  and  N_6 
REMARK    3  A    between atoms: C_5  and  C_25 
REMARK    4  A    between atoms: N_10  and  C_11 
REMARK    5  A    between atoms: C_15  and  C_16 
REMARK       I    between atoms: C_25  and  N_26 
REMARK    6  A    between atoms: N_26  and  C_27 
ROOT
HETATM    1  N   UNL     1      -5.703   2.733 -31.384  1.00  0.00    -0.051 N 
HETATM    2  H   UNL     1      -5.615   3.724 -31.091  1.00  0.00     0.281 HD
HETATM    3  C   UNL     1      -6.207   2.792 -32.815  1.00  0.00     0.256 C 
HETATM    4  C   UNL     1      -7.543   3.565 -32.865  1.00  0.00     0.152 C 
HETATM    5  N   UNL     1      -8.543   3.019 -31.921  1.00  0.00    -0.363 N 
HETATM    6  C   UNL     1      -8.084   2.697 -30.548  1.00  0.00     0.152 C 
HETATM    7  C   UNL     1      -6.680   2.039 -30.471  1.00  0.00     0.256 C 
ENDROOT
BRANCH   1   8
HETATM    8  C   UNL     1      -4.226   2.249 -31.238  1.00  0.00     0.312 C 
BRANCH   8   9
HETATM    9  C   UNL     1      -3.982   0.859 -31.792  1.00  0.00    -0.018 A 
HETATM   10  C   UNL     1      -4.733   0.338 -32.862  1.00  0.00     0.010 A 
HETATM   11  C   UNL     1      -4.510  -0.961 -33.321  1.00  0.00     0.001 A 
HETATM   12  C   UNL     1      -3.537  -1.755 -32.722  1.00  0.00     0.000 A 
HETATM   13  C   UNL     1      -2.781  -1.255 -31.667  1.00  0.00     0.001 A 
HETATM   14  C   UNL     1      -3.001   0.042 -31.203  1.00  0.00     0.010 A 
ENDBRANCH   8   9
BRANCH   8  15
HETATM   15  C   UNL     1      -3.300   3.361 -31.790  1.00  0.00     0.259 C 
HETATM   16  N   UNL     1      -3.183   4.490 -31.019  1.00  0.00    -0.304 N 
HETATM   17  H   UNL     1      -3.629   4.598 -30.116  1.00  0.00     0.171 HD
HETATM   18  O   UNL     1      -2.804   3.148 -32.902  1.00  0.00    -0.270 OA
BRANCH  16  19
HETATM   19  C   UNL     1      -2.406   5.543 -31.418  1.00  0.00     0.172 A 
HETATM   20  S   UNL     1      -0.793   5.475 -30.870  1.00  0.00    -0.062 SA
HETATM   21  C   UNL     1      -0.486   6.963 -31.668  1.00  0.00     0.072 A 
HETATM   22  C   UNL     1      -1.637   7.394 -32.297  1.00  0.00     0.126 A 
HETATM   23  N   UNL     1      -2.739   6.570 -32.153  1.00  0.00    -0.236 NA
ENDBRANCH  16  19
ENDBRANCH   8  15
ENDBRANCH   1   8
BRANCH   5  24
HETATM   24  C   UNL     1      -9.680   2.444 -32.444  1.00  0.00     0.125 A 
HETATM   25  N   UNL     1     -10.756   3.253 -32.524  1.00  0.00    -0.350 N 
HETATM   26  H   UNL     1     -10.641   4.199 -32.161  1.00  0.00     0.166 HD
HETATM   27  C   UNL     1     -11.951   2.879 -33.011  1.00  0.00     0.106 A 
HETATM   28  C   UNL     1     -12.138   1.586 -33.485  1.00  0.00     0.065 A 
HETATM   29  C   UNL     1     -11.064   0.695 -33.415  1.00  0.00     0.045 A 
HETATM   30  C   UNL     1      -9.836   1.119 -32.902  1.00  0.00     0.078 A 
HETATM   31 CL   UNL     1      -8.532  -0.005 -32.921  1.00  0.00    -0.080 Cl
BRANCH  28  32
HETATM   32  C   UNL     1     -13.487   1.177 -34.019  1.00  0.00     0.418 C 
HETATM   33  F   UNL     1     -13.852   1.945 -35.076  1.00  0.00    -0.166 F 
HETATM   34  F   UNL     1     -13.514  -0.109 -34.437  1.00  0.00    -0.166 F 
HETATM   35  F   UNL     1     -14.452   1.319 -33.082  1.00  0.00    -0.166 F 
ENDBRANCH  28  32
ENDBRANCH   5  24
TORSDOF 6
ENDMDL
MODEL 4
REMARK VINA RESULT:      -8.5      2.469      4.656
REMARK  6 active torsions:
REMARK  status: ('A' for Active; 'I' for Inactive)
REMARK    1  A    between atoms: C_4  and  C_5 
REMARK    2  A    between atoms: C_5  and  N_6 
REMARK    3  A    between atoms: C_5  and  C_25 
REMARK    4  A    between atoms: N_10  and  C_11 
REMARK    5  A    between atoms: C_15  and  C_16 
REMARK       I    between atoms: C_25  and  N_26 
REMARK    6  A    between atoms: N_26  and  C_27 
ROOT
HETATM    1  N   UNL     1      -6.699   3.064 -33.399  1.00  0.00    -0.051 N 
HETATM    2  H   UNL     1      -7.552   3.603 -33.157  1.00  0.00     0.281 HD
HETATM    3  C   UNL     1      -6.049   2.744 -32.064  1.00  0.00     0.256 C 
HETATM    4  C   UNL     1      -5.749   4.055 -31.304  1.00  0.00     0.152 C 
HETATM    5  N   UNL     1      -4.964   5.008 -32.118  1.00  0.00    -0.363 N 
HETATM    6  C   UNL     1      -5.379   5.211 -33.527  1.00  0.00     0.152 C 
HETATM    7  C   UNL     1      -5.813   3.917 -34.267  1.00  0.00     0.256 C 
ENDROOT
BRANCH   1   8
HETATM    8  C   UNL     1      -7.324   1.831 -34.125  1.00  0.00     0.312 C 
BRANCH   8   9
HETATM    9  C   UNL     1      -6.493   0.569 -34.009  1.00  0.00    -0.018 A 
HETATM   10  C   UNL     1      -5.263   0.544 -33.324  1.00  0.00     0.010 A 
HETATM   11  C   UNL     1      -4.503  -0.625 -33.272  1.00  0.00     0.001 A 
HETATM   12  C   UNL     1      -4.957  -1.782 -33.897  1.00  0.00     0.000 A 
HETATM   13  C   UNL     1      -6.173  -1.777 -34.574  1.00  0.00     0.001 A 
HETATM   14  C   UNL     1      -6.936  -0.611 -34.631  1.00  0.00     0.010 A 
ENDBRANCH   8   9
BRANCH   8  15
HETATM   15  C   UNL     1      -8.799   1.704 -33.671  1.00  0.00     0.259 C 
HETATM   16  N   UNL     1      -9.746   1.774 -34.662  1.00  0.00    -0.304 N 
HETATM   17  H   UNL     1      -9.519   1.857 -35.646  1.00  0.00     0.171 HD
HETATM   18  O   UNL     1      -8.984   1.613 -32.453  1.00  0.00    -0.270 OA
BRANCH  16  19
HETATM   19  C   UNL     1     -11.081   1.691 -34.374  1.00  0.00     0.172 A 
HETATM   20  S   UNL     1     -12.004   3.015 -34.924  1.00  0.00    -0.062 SA
HETATM   21  C   UNL     1     -13.406   2.281 -34.259  1.00  0.00     0.072 A 
HETATM   22  C   UNL     1     -13.063   1.080 -33.674  1.00  0.00     0.126 A 
HETATM   23  N   UNL     1     -11.723   0.742 -33.747  1.00  0.00    -0.236 NA
ENDBRANCH  16  19
ENDBRANCH   8  15
ENDBRANCH   1   8
BRANCH   5  24
HETATM   24  C   UNL     1      -3.687   5.315 -31.702  1.00  0.00     0.125 A 
HETATM   25  N   UNL     1      -2.694   4.675 -32.352  1.00  0.00    -0.350 N 
HETATM   26  H   UNL     1      -2.978   4.000 -33.063  1.00  0.00     0.166 HD
HETATM   27  C   UNL     1      -1.386   4.845 -32.096  1.00  0.00     0.106 A 
HETATM   28  C   UNL     1      -0.978   5.737 -31.112  1.00  0.00     0.065 A 
HETATM   29  C   UNL     1      -1.961   6.422 -30.392  1.00  0.00     0.045 A 
HETATM   30  C   UNL     1      -3.312   6.219 -30.686  1.00  0.00     0.078 A 
HETATM   31 CL   UNL     1      -4.467   7.155 -29.818  1.00  0.00    -0.080 Cl
BRANCH  28  32
HETATM   32  C   UNL     1       0.491   5.912 -30.828  1.00  0.00     0.418 C 
HETATM   33  F   UNL     1       0.716   6.127 -29.507  1.00  0.00    -0.166 F 
HETATM   34  F   UNL     1       1.224   4.831 -31.182  1.00  0.00    -0.166 F 
HETATM   35  F   UNL     1       0.998   6.979 -31.488  1.00  0.00    -0.166 F 
ENDBRANCH  28  32
ENDBRANCH   5  24
TORSDOF 6
ENDMDL
MODEL 5
REMARK VINA RESULT:      -8.4      2.548      4.708
REMARK  6 active torsions:
REMARK  status: ('A' for Active; 'I' for Inactive)
REMARK    1  A    between atoms: C_4  and  C_5 
REMARK    2  A    between atoms: C_5  and  N_6 
REMARK    3  A    between atoms: C_5  and  C_25 
REMARK    4  A    between atoms: N_10  and  C_11 
REMARK    5  A    between atoms: C_15  and  C_16 
REMARK       I    between atoms: C_25  and  N_26 
REMARK    6  A    between atoms: N_26  and  C_27 
ROOT
HETATM    1  N   UNL     1      -7.100   3.432 -33.422  1.00  0.00    -0.051 N 
HETATM    2  H   UNL     1      -7.778   4.216 -33.483  1.00  0.00     0.281 HD
HETATM    3  C   UNL     1      -6.622   3.442 -31.981  1.00  0.00     0.256 C 
HETATM    4  C   UNL     1      -5.999   4.815 -31.649  1.00  0.00     0.152 C 
HETATM    5  N   UNL     1      -4.945   5.202 -32.611  1.00  0.00    -0.363 N 
HETATM    6  C   UNL     1      -5.228   5.003 -34.053  1.00  0.00     0.152 C 
HETATM    7  C   UNL     1      -5.975   3.684 -34.391  1.00  0.00     0.256 C 
ENDROOT
BRANCH   1   8
HETATM    8  C   UNL     1      -8.013   2.221 -33.792  1.00  0.00     0.312 C 
BRANCH   8   9
HETATM    9  C   UNL     1      -7.299   0.885 -33.755  1.00  0.00    -0.018 A 
HETATM   10  C   UNL     1      -6.509   0.489 -32.660  1.00  0.00     0.010 A 
HETATM   11  C   UNL     1      -5.832  -0.731 -32.676  1.00  0.00     0.001 A 
HETATM   12  C   UNL     1      -5.933  -1.571 -33.780  1.00  0.00     0.000 A 
HETATM   13  C   UNL     1      -6.714  -1.199 -34.870  1.00  0.00     0.001 A 
HETATM   14  C   UNL     1      -7.392   0.020 -34.860  1.00  0.00     0.010 A 
ENDBRANCH   8   9
BRANCH   8  15
HETATM   15  C   UNL     1      -9.302   2.314 -32.939  1.00  0.00     0.259 C 
HETATM   16  N   UNL     1     -10.015   3.483 -33.043  1.00  0.00    -0.304 N 
HETATM   17  H   UNL     1      -9.760   4.238 -33.668  1.00  0.00     0.171 HD
HETATM   18  O   UNL     1      -9.532   1.351 -32.200  1.00  0.00    -0.270 OA
BRANCH  16  19
HETATM   19  C   UNL     1     -11.160   3.681 -32.322  1.00  0.00     0.172 A 
HETATM   20  S   UNL     1     -10.922   4.456 -30.822  1.00  0.00    -0.062 SA
HETATM   21  C   UNL     1     -12.611   4.355 -30.531  1.00  0.00     0.072 A 
HETATM   22  C   UNL     1     -13.227   3.743 -31.604  1.00  0.00     0.126 A 
HETATM   23  N   UNL     1     -12.387   3.361 -32.635  1.00  0.00    -0.236 NA
ENDBRANCH  16  19
ENDBRANCH   8  15
ENDBRANCH   1   8
BRANCH   5  24
HETATM   24  C   UNL     1      -3.652   5.306 -32.148  1.00  0.00     0.125 A 
HETATM   25  N   UNL     1      -3.211   6.562 -31.933  1.00  0.00    -0.350 N 
HETATM   26  H   UNL     1      -3.857   7.317 -32.165  1.00  0.00     0.166 HD
HETATM   27  C   UNL     1      -1.985   6.868 -31.477  1.00  0.00     0.106 A 
HETATM   28  C   UNL     1      -1.078   5.856 -31.182  1.00  0.00     0.065 A 
HETATM   29  C   UNL     1      -1.471   4.533 -31.398  1.00  0.00     0.045 A 
HETATM   30  C   UNL     1      -2.755   4.253 -31.874  1.00  0.00     0.078 A 
HETATM   31 CL   UNL     1      -3.201   2.599 -32.039  1.00  0.00    -0.080 Cl
BRANCH  28  32
HETATM   32  C   UNL     1       0.298   6.213 -30.681  1.00  0.00     0.418 C 
HETATM   33  F   UNL     1       1.098   5.118 -30.614  1.00  0.00    -0.166 F 
HETATM   34  F   UNL     1       0.925   7.113 -31.471  1.00  0.00    -0.166 F 
HETATM   35  F   UNL     1       0.248   6.735 -29.433  1.00  0.00    -0.166 F 
ENDBRANCH  28  32
ENDBRANCH   5  24
TORSDOF 6
ENDMDL
MODEL 6
REMARK VINA RESULT:      -8.4      5.126      9.255
REMARK  6 active torsions:
REMARK  status: ('A' for Active; 'I' for Inactive)
REMARK    1  A    between atoms: C_4  and  C_5 
REMARK    2  A    between atoms: C_5  and  N_6 
REMARK    3  A    between atoms: C_5  and  C_25 
REMARK    4  A    between atoms: N_10  and  C_11 
REMARK    5  A    between atoms: C_15  and  C_16 
REMARK       I    between atoms: C_25  and  N_26 
REMARK    6  A    between atoms: N_26  and  C_27 
ROOT
HETATM    1  N   UNL     1      -4.883   3.968 -31.334  1.00  0.00    -0.051 N 
HETATM    2  H   UNL     1      -5.731   4.522 -31.111  1.00  0.00     0.281 HD
HETATM    3  C   UNL     1      -4.981   3.688 -32.824  1.00  0.00     0.256 C 
HETATM    4  C   UNL     1      -6.298   2.940 -33.127  1.00  0.00     0.152 C 
HETATM    5  N   UNL     1      -6.458   1.726 -32.297  1.00  0.00    -0.363 N 
HETATM    6  C   UNL     1      -6.148   1.838 -30.851  1.00  0.00     0.152 C 
HETATM    7  C   UNL     1      -4.900   2.701 -30.521  1.00  0.00     0.256 C 
ENDROOT
BRANCH   1   8
HETATM    8  C   UNL     1      -3.757   4.975 -30.939  1.00  0.00     0.312 C 
BRANCH   8   9
HETATM    9  C   UNL     1      -2.914   5.438 -32.110  1.00  0.00    -0.018 A 
HETATM   10  C   UNL     1      -3.027   6.734 -32.647  1.00  0.00     0.010 A 
HETATM   11  C   UNL     1      -2.264   7.114 -33.752  1.00  0.00     0.001 A 
HETATM   12  C   UNL     1      -1.380   6.212 -34.335  1.00  0.00     0.000 A 
HETATM   13  C   UNL     1      -1.251   4.928 -33.814  1.00  0.00     0.001 A 
HETATM   14  C   UNL     1      -2.013   4.542 -32.710  1.00  0.00     0.010 A 
ENDBRANCH   8   9
BRANCH   8  15
HETATM   15  C   UNL     1      -4.398   6.101 -30.090  1.00  0.00     0.259 C 
HETATM   16  N   UNL     1      -3.609   6.642 -29.106  1.00  0.00    -0.304 N 
HETATM   17  H   UNL     1      -2.644   6.371 -28.952  1.00  0.00     0.171 HD
HETATM   18  O   UNL     1      -5.580   6.360 -30.341  1.00  0.00    -0.270 OA
BRANCH  16  19
HETATM   19  C   UNL     1      -4.077   7.630 -28.284  1.00  0.00     0.172 A 
HETATM   20  S   UNL     1      -4.574   7.090 -26.745  1.00  0.00    -0.062 SA
HETATM   21  C   UNL     1      -4.995   8.705 -26.343  1.00  0.00     0.072 A 
HETATM   22  C   UNL     1      -4.719   9.532 -27.412  1.00  0.00     0.126 A 
HETATM   23  N   UNL     1      -4.186   8.909 -28.527  1.00  0.00    -0.236 NA
ENDBRANCH  16  19
ENDBRANCH   8  15
ENDBRANCH   1   8
BRANCH   5  24
HETATM   24  C   UNL     1      -6.453   0.503 -32.932  1.00  0.00     0.125 A 
HETATM   25  N   UNL     1      -5.235  -0.011 -33.195  1.00  0.00    -0.350 N 
HETATM   26  H   UNL     1      -4.433   0.564 -32.935  1.00  0.00     0.166 HD
HETATM   27  C   UNL     1      -5.024  -1.192 -33.800  1.00  0.00     0.106 A 
HETATM   28  C   UNL     1      -6.102  -1.978 -34.190  1.00  0.00     0.065 A 
HETATM   29  C   UNL     1      -7.392  -1.493 -33.957  1.00  0.00     0.045 A 
HETATM   30  C   UNL     1      -7.572  -0.260 -33.326  1.00  0.00     0.078 A 
HETATM   31 CL   UNL     1      -9.187   0.240 -32.997  1.00  0.00    -0.080 Cl
BRANCH  28  32
HETATM   32  C   UNL     1      -5.853  -3.296 -34.877  1.00  0.00     0.418 C 
HETATM   33  F   UNL     1      -5.209  -3.122 -36.059  1.00  0.00    -0.166 F 
HETATM   34  F   UNL     1      -5.095  -4.136 -34.135  1.00  0.00    -0.166 F 
HETATM   35  F   UNL     1      -7.013  -3.935 -35.155  1.00  0.00    -0.166 F 
ENDBRANCH  28  32
ENDBRANCH   5  24
TORSDOF 6
ENDMDL
MODEL 7
REMARK VINA RESULT:      -8.4      5.282      9.206
REMARK  6 active torsions:
REMARK  status: ('A' for Active; 'I' for Inactive)
REMARK    1  A    between atoms: C_4  and  C_5 
REMARK    2  A    between atoms: C_5  and  N_6 
REMARK    3  A    between atoms: C_5  and  C_25 
REMARK    4  A    between atoms: N_10  and  C_11 
REMARK    5  A    between atoms: C_15  and  C_16 
REMARK       I    between atoms: C_25  and  N_26 
REMARK    6  A    between atoms: N_26  and  C_27 
ROOT
HETATM    1  N   UNL     1      -5.146   3.669 -31.442  1.00  0.00    -0.051 N 
HETATM    2  H   UNL     1      -6.058   4.163 -31.458  1.00  0.00     0.281 HD
HETATM    3  C   UNL     1      -4.878   3.298 -32.890  1.00  0.00     0.256 C 
HETATM    4  C   UNL     1      -6.036   2.427 -33.426  1.00  0.00     0.152 C 
HETATM    5  N   UNL     1      -6.301   1.253 -32.566  1.00  0.00    -0.363 N 
HETATM    6  C   UNL     1      -6.342   1.473 -31.100  1.00  0.00     0.152 C 
HETATM    7  C   UNL     1      -5.265   2.453 -30.561  1.00  0.00     0.256 C 
ENDROOT
BRANCH   1   8
HETATM    8  C   UNL     1      -4.213   4.787 -30.879  1.00  0.00     0.312 C 
BRANCH   8   9
HETATM    9  C   UNL     1      -3.173   5.270 -31.869  1.00  0.00    -0.018 A 
HETATM   10  C   UNL     1      -1.861   4.759 -31.885  1.00  0.00     0.010 A 
HETATM   11  C   UNL     1      -0.916   5.255 -32.784  1.00  0.00     0.001 A 
HETATM   12  C   UNL     1      -1.264   6.262 -33.678  1.00  0.00     0.000 A 
HETATM   13  C   UNL     1      -2.557   6.775 -33.681  1.00  0.00     0.001 A 
HETATM   14  C   UNL     1      -3.506   6.285 -32.783  1.00  0.00     0.010 A 
ENDBRANCH   8   9
BRANCH   8  15
HETATM   15  C   UNL     1      -5.106   5.889 -30.257  1.00  0.00     0.259 C 
HETATM   16  N   UNL     1      -4.539   6.635 -29.255  1.00  0.00    -0.304 N 
HETATM   17  H   UNL     1      -3.579   6.524 -28.951  1.00  0.00     0.171 HD
HETATM   18  O   UNL     1      -6.265   5.948 -30.682  1.00  0.00    -0.270 OA
BRANCH  16  19
HETATM   19  C   UNL     1      -5.242   7.624 -28.622  1.00  0.00     0.172 A 
HETATM   20  S   UNL     1      -5.106   9.161 -29.349  1.00  0.00    -0.062 SA
HETATM   21  C   UNL     1      -6.130   9.800 -28.128  1.00  0.00     0.072 A 
HETATM   22  C   UNL     1      -6.502   8.790 -27.264  1.00  0.00     0.126 A 
HETATM   23  N   UNL     1      -5.990   7.537 -27.556  1.00  0.00    -0.236 NA
ENDBRANCH  16  19
ENDBRANCH   8  15
ENDBRANCH   1   8
BRANCH   5  24
HETATM   24  C   UNL     1      -6.068   0.001 -33.091  1.00  0.00     0.125 A 
HETATM   25  N   UNL     1      -7.158  -0.653 -33.541  1.00  0.00    -0.350 N 
HETATM   26  H   UNL     1      -8.053  -0.179 -33.421  1.00  0.00     0.166 HD
HETATM   27  C   UNL     1      -7.134  -1.878 -34.091  1.00  0.00     0.106 A 
HETATM   28  C   UNL     1      -5.928  -2.553 -34.239  1.00  0.00     0.065 A 
HETATM   29  C   UNL     1      -4.763  -1.934 -33.778  1.00  0.00     0.045 A 
HETATM   30  C   UNL     1      -4.827  -0.659 -33.210  1.00  0.00     0.078 A 
HETATM   31 CL   UNL     1      -3.345   0.079 -32.739  1.00  0.00    -0.080 Cl
BRANCH  28  32
HETATM   32  C   UNL     1      -5.916  -3.931 -34.849  1.00  0.00     0.418 C 
HETATM   33  F   UNL     1      -7.091  -4.576 -34.633  1.00  0.00    -0.166 F 
HETATM   34  F   UNL     1      -5.719  -3.909 -36.187  1.00  0.00    -0.166 F 
HETATM   35  F   UNL     1      -4.944  -4.702 -34.309  1.00  0.00    -0.166 F 
ENDBRANCH  28  32
ENDBRANCH   5  24
TORSDOF 6
ENDMDL
MODEL 8
REMARK VINA RESULT:      -8.4      5.449      8.589
REMARK  6 active torsions:
REMARK  status: ('A' for Active; 'I' for Inactive)
REMARK    1  A    between atoms: C_4  and  C_5 
REMARK    2  A    between atoms: C_5  and  N_6 
REMARK    3  A    between atoms: C_5  and  C_25 
REMARK    4  A    between atoms: N_10  and  C_11 
REMARK    5  A    between atoms: C_15  and  C_16 
REMARK       I    between atoms: C_25  and  N_26 
REMARK    6  A    between atoms: N_26  and  C_27 
ROOT
HETATM    1  N   UNL     1      -8.005   0.514 -32.864  1.00  0.00    -0.051 N 
HETATM    2  H   UNL     1      -7.984   0.041 -33.788  1.00  0.00     0.281 HD
HETATM    3  C   UNL     1      -9.284   0.025 -32.206  1.00  0.00     0.256 C 
HETATM    4  C   UNL     1     -10.495   0.372 -33.099  1.00  0.00     0.152 C 
HETATM    5  N   UNL     1     -10.538   1.808 -33.453  1.00  0.00    -0.363 N 
HETATM    6  C   UNL     1      -9.270   2.445 -33.883  1.00  0.00     0.152 C 
HETATM    7  C   UNL     1      -8.017   2.004 -33.079  1.00  0.00     0.256 C 
ENDROOT
BRANCH   1   8
HETATM    8  C   UNL     1      -6.695  -0.036 -32.218  1.00  0.00     0.312 C 
BRANCH   8   9
HETATM    9  C   UNL     1      -5.970  -1.051 -33.080  1.00  0.00    -0.018 A 
HETATM   10  C   UNL     1      -6.549  -1.597 -34.240  1.00  0.00     0.010 A 
HETATM   11  C   UNL     1      -5.870  -2.560 -34.987  1.00  0.00     0.001 A 
HETATM   12  C   UNL     1      -4.607  -2.989 -34.592  1.00  0.00     0.000 A 
HETATM   13  C   UNL     1      -4.016  -2.455 -33.451  1.00  0.00     0.001 A 
HETATM   14  C   UNL     1      -4.691  -1.494 -32.698  1.00  0.00     0.010 A 
ENDBRANCH   8   9
BRANCH   8  15
HETATM   15  C   UNL     1      -5.847   1.173 -31.751  1.00  0.00     0.259 C 
HETATM   16  N   UNL     1      -4.975   1.695 -32.673  1.00  0.00    -0.304 N 
HETATM   17  H   UNL     1      -4.902   1.357 -33.626  1.00  0.00     0.171 HD
HETATM   18  O   UNL     1      -5.994   1.512 -30.572  1.00  0.00    -0.270 OA
BRANCH  16  19
HETATM   19  C   UNL     1      -4.164   2.752 -32.363  1.00  0.00     0.172 A 
HETATM   20  S   UNL     1      -4.755   4.267 -32.877  1.00  0.00    -0.062 SA
HETATM   21  C   UNL     1      -3.355   5.008 -32.216  1.00  0.00     0.072 A 
HETATM   22  C   UNL     1      -2.547   4.043 -31.650  1.00  0.00     0.126 A 
HETATM   23  N   UNL     1      -3.020   2.745 -31.733  1.00  0.00    -0.236 NA
ENDBRANCH  16  19
ENDBRANCH   8  15
ENDBRANCH   1   8
BRANCH   5  24
HETATM   24  C   UNL     1     -11.586   2.562 -32.972  1.00  0.00     0.125 A 
HETATM   25  N   UNL     1     -11.289   3.378 -31.941  1.00  0.00    -0.350 N 
HETATM   26  H   UNL     1     -10.332   3.337 -31.590  1.00  0.00     0.166 HD
HETATM   27  C   UNL     1     -12.172   4.193 -31.341  1.00  0.00     0.106 A 
HETATM   28  C   UNL     1     -13.488   4.243 -31.784  1.00  0.00     0.065 A 
HETATM   29  C   UNL     1     -13.862   3.410 -32.842  1.00  0.00     0.045 A 
HETATM   30  C   UNL     1     -12.916   2.574 -33.441  1.00  0.00     0.078 A 
HETATM   31 CL   UNL     1     -13.423   1.634 -34.791  1.00  0.00    -0.080 Cl
BRANCH  28  32
HETATM   32  C   UNL     1     -14.471   5.156 -31.097  1.00  0.00     0.418 C 
HETATM   33  F   UNL     1     -14.391   6.422 -31.580  1.00  0.00    -0.166 F 
HETATM   34  F   UNL     1     -15.754   4.755 -31.252  1.00  0.00    -0.166 F 
HETATM   35  F   UNL     1     -14.229   5.230 -29.767  1.00  0.00    -0.166 F 
ENDBRANCH  28  32
ENDBRANCH   5  24
TORSDOF 6
ENDMDL
MODEL 9
REMARK VINA RESULT:      -8.2     16.677     17.939
REMARK  6 active torsions:
REMARK  status: ('A' for Active; 'I' for Inactive)
REMARK    1  A    between atoms: C_4  and  C_5 
REMARK    2  A    between atoms: C_5  and  N_6 
REMARK    3  A    between atoms: C_5  and  C_25 
REMARK    4  A    between atoms: N_10  and  C_11 
REMARK    5  A    between atoms: C_15  and  C_16 
REMARK       I    between atoms: C_25  and  N_26 
REMARK    6  A    between atoms: N_26  and  C_27 
ROOT
HETATM    1  N   UNL     1      -6.257 -13.269 -38.991  1.00  0.00    -0.051 N 
HETATM    2  H   UNL     1      -6.536 -12.967 -39.944  1.00  0.00     0.281 HD
HETATM    3  C   UNL     1      -5.176 -12.288 -38.573  1.00  0.00     0.256 C 
HETATM    4  C   UNL     1      -4.015 -12.329 -39.590  1.00  0.00     0.152 C 
HETATM    5  N   UNL     1      -3.503 -13.699 -39.804  1.00  0.00    -0.363 N 
HETATM    6  C   UNL     1      -4.499 -14.783 -39.984  1.00  0.00     0.152 C 
HETATM    7  C   UNL     1      -5.741 -14.682 -39.057  1.00  0.00     0.256 C 
ENDROOT
BRANCH   1   8
HETATM    8  C   UNL     1      -7.607 -13.108 -38.223  1.00  0.00     0.312 C 
BRANCH   8   9
HETATM    9  C   UNL     1      -8.831 -13.259 -39.104  1.00  0.00    -0.018 A 
HETATM   10  C   UNL     1      -9.562 -12.148 -39.565  1.00  0.00     0.010 A 
HETATM   11  C   UNL     1     -10.709 -12.324 -40.341  1.00  0.00     0.001 A 
HETATM   12  C   UNL     1     -11.141 -13.605 -40.668  1.00  0.00     0.000 A 
HETATM   13  C   UNL     1     -10.428 -14.715 -40.225  1.00  0.00     0.001 A 
HETATM   14  C   UNL     1      -9.282 -14.545 -39.448  1.00  0.00     0.010 A 
ENDBRANCH   8   9
BRANCH   8  15
HETATM   15  C   UNL     1      -7.562 -14.027 -36.977  1.00  0.00     0.259 C 
HETATM   16  N   UNL     1      -6.859 -13.552 -35.899  1.00  0.00    -0.304 N 
HETATM   17  H   UNL     1      -6.423 -12.638 -35.876  1.00  0.00     0.171 HD
HETATM   18  O   UNL     1      -8.113 -15.127 -37.097  1.00  0.00    -0.270 OA
BRANCH  16  19
HETATM   19  C   UNL     1      -6.738 -14.288 -34.752  1.00  0.00     0.172 A 
HETATM   20  S   UNL     1      -5.461 -15.417 -34.770  1.00  0.00    -0.062 SA
HETATM   21  C   UNL     1      -5.904 -15.904 -33.184  1.00  0.00     0.072 A 
HETATM   22  C   UNL     1      -6.988 -15.163 -32.761  1.00  0.00     0.126 A 
HETATM   23  N   UNL     1      -7.462 -14.230 -33.666  1.00  0.00    -0.236 NA
ENDBRANCH  16  19
ENDBRANCH   8  15
ENDBRANCH   1   8
BRANCH   5  24
HETATM   24  C   UNL     1      -2.214 -13.978 -39.405  1.00  0.00     0.125 A 
HETATM   25  N   UNL     1      -1.318 -14.132 -40.400  1.00  0.00    -0.350 N 
HETATM   26  H   UNL     1      -1.679 -14.064 -41.352  1.00  0.00     0.166 HD
HETATM   27  C   UNL     1      -0.015 -14.400 -40.213  1.00  0.00     0.106 A 
HETATM   28  C   UNL     1       0.494 -14.526 -38.926  1.00  0.00     0.065 A 
HETATM   29  C   UNL     1      -0.389 -14.391 -37.851  1.00  0.00     0.045 A 
HETATM   30  C   UNL     1      -1.738 -14.113 -38.084  1.00  0.00     0.078 A 
HETATM   31 CL   UNL     1      -2.753 -13.878 -36.713  1.00  0.00    -0.080 Cl
BRANCH  28  32
HETATM   32  C   UNL     1       1.955 -14.836 -38.730  1.00  0.00     0.418 C 
HETATM   33  F   UNL     1       2.157 -15.571 -37.607  1.00  0.00    -0.166 F 
HETATM   34  F   UNL     1       2.484 -15.536 -39.759  1.00  0.00    -0.166 F 
HETATM   35  F   UNL     1       2.686 -13.705 -38.592  1.00  0.00    -0.166 F 
ENDBRANCH  28  32
ENDBRANCH   5  24
TORSDOF 6
ENDMDL
MODEL 10
REMARK VINA RESULT:      -8.2      5.367      7.742
REMARK  6 active torsions:
REMARK  status: ('A' for Active; 'I' for Inactive)
REMARK    1  A    between atoms: C_4  and  C_5 
REMARK    2  A    between atoms: C_5  and  N_6 
REMARK    3  A    between atoms: C_5  and  C_25 
REMARK    4  A    between atoms: N_10  and  C_11 
REMARK    5  A    between atoms: C_15  and  C_16 
REMARK       I    between atoms: C_25  and  N_26 
REMARK    6  A    between atoms: N_26  and  C_27 
ROOT
HETATM    1  N   UNL     1     -10.325   2.516 -33.543  1.00  0.00    -0.051 N 
HETATM    2  H   UNL     1     -10.398   3.023 -32.641  1.00  0.00     0.281 HD
HETATM    3  C   UNL     1     -10.433   1.046 -33.175  1.00  0.00     0.256 C 
HETATM    4  C   UNL     1      -9.315   0.678 -32.175  1.00  0.00     0.152 C 
HETATM    5  N   UNL     1      -7.973   1.055 -32.669  1.00  0.00    -0.363 N 
HETATM    6  C   UNL     1      -7.819   2.400 -33.275  1.00  0.00     0.152 C 
HETATM    7  C   UNL     1      -9.000   2.842 -34.181  1.00  0.00     0.256 C 
ENDROOT
BRANCH   1   8
HETATM    8  C   UNL     1     -11.566   3.084 -34.304  1.00  0.00     0.312 C 
BRANCH   8   9
HETATM    9  C   UNL     1     -12.881   2.468 -33.871  1.00  0.00    -0.018 A 
HETATM   10  C   UNL     1     -13.500   1.438 -34.602  1.00  0.00     0.010 A 
HETATM   11  C   UNL     1     -14.732   0.921 -34.198  1.00  0.00     0.001 A 
HETATM   12  C   UNL     1     -15.361   1.421 -33.062  1.00  0.00     0.000 A 
HETATM   13  C   UNL     1     -14.759   2.436 -32.323  1.00  0.00     0.001 A 
HETATM   14  C   UNL     1     -13.529   2.958 -32.724  1.00  0.00     0.010 A 
ENDBRANCH   8   9
BRANCH   8  15
HETATM   15  C   UNL     1     -11.498   4.630 -34.243  1.00  0.00     0.259 C 
HETATM   16  N   UNL     1     -11.837   5.297 -35.393  1.00  0.00    -0.304 N 
HETATM   17  H   UNL     1     -12.159   4.832 -36.234  1.00  0.00     0.171 HD
HETATM   18  O   UNL     1     -11.087   5.111 -33.181  1.00  0.00    -0.270 OA
BRANCH  16  19
HETATM   19  C   UNL     1     -11.797   6.663 -35.458  1.00  0.00     0.172 A 
HETATM   20  S   UNL     1     -13.282   7.429 -35.119  1.00  0.00    -0.062 SA
HETATM   21  C   UNL     1     -12.529   8.949 -35.380  1.00  0.00     0.072 A 
HETATM   22  C   UNL     1     -11.200   8.755 -35.699  1.00  0.00     0.126 A 
HETATM   23  N   UNL     1     -10.783   7.436 -35.739  1.00  0.00    -0.236 NA
ENDBRANCH  16  19
ENDBRANCH   8  15
ENDBRANCH   1   8
BRANCH   5  24
HETATM   24  C   UNL     1      -7.076   0.045 -32.941  1.00  0.00     0.125 A 
HETATM   25  N   UNL     1      -7.301  -0.639 -34.081  1.00  0.00    -0.350 N 
HETATM   26  H   UNL     1      -8.128  -0.373 -34.615  1.00  0.00     0.166 HD
HETATM   27  C   UNL     1      -6.536  -1.652 -34.521  1.00  0.00     0.106 A 
HETATM   28  C   UNL     1      -5.420  -2.051 -33.794  1.00  0.00     0.065 A 
HETATM   29  C   UNL     1      -5.142  -1.388 -32.595  1.00  0.00     0.045 A 
HETATM   30  C   UNL     1      -5.961  -0.340 -32.168  1.00  0.00     0.078 A 
HETATM   31 CL   UNL     1      -5.514   0.485 -30.725  1.00  0.00    -0.080 Cl
BRANCH  28  32
HETATM   32  C   UNL     1      -4.576  -3.194 -34.293  1.00  0.00     0.418 C 
HETATM   33  F   UNL     1      -3.656  -3.569 -33.368  1.00  0.00    -0.166 F 
HETATM   34  F   UNL     1      -5.306  -4.293 -34.591  1.00  0.00    -0.166 F 
HETATM   35  F   UNL     1      -3.889  -2.850 -35.408  1.00  0.00    -0.166 F 
ENDBRANCH  28  32
ENDBRANCH   5  24
TORSDOF 6
ENDMDL
