MODEL 1
REMARK VINA RESULT:      -9.6      0.000      0.000
REMARK  3 active torsions:
REMARK  status: ('A' for Active; 'I' for Inactive)
REMARK    1  A    between atoms: N_4  and  C_5 
REMARK    2  A    between atoms: C_15  and  C_16 
REMARK       I    between atoms: C_16  and  N_17 
REMARK    3  A    between atoms: N_17  and  C_18 
ROOT
HETATM    1  C   UNL     1      -6.278   5.588 -33.463  1.00  0.00     0.073 C 
HETATM    2  C   UNL     1      -5.084   5.113 -32.722  1.00  0.00     0.069 A 
HETATM    3  N   UNL     1      -4.095   5.962 -32.409  1.00  0.00    -0.170 NA
HETATM    4  N   UNL     1      -3.187   5.222 -31.701  1.00  0.00    -0.216 N 
HETATM    5  C   UNL     1      -3.556   3.885 -31.707  1.00  0.00     0.145 A 
HETATM    6  C   UNL     1      -4.789   3.801 -32.312  1.00  0.00     0.087 A 
HETATM    7  N   UNL     1      -2.878   2.791 -31.283  1.00  0.00    -0.349 N 
HETATM    8  C   UNL     1      -3.453   1.548 -31.489  1.00  0.00     0.111 A 
HETATM    9  C   UNL     1      -4.675   1.338 -32.032  1.00  0.00     0.098 A 
HETATM   10  C   UNL     1      -5.475   2.536 -32.469  1.00  0.00     0.205 A 
HETATM   11  O   UNL     1      -6.606   2.431 -32.933  1.00  0.00    -0.286 OA
HETATM   12  H   UNL     1      -1.882   2.795 -31.068  1.00  0.00     0.167 HD
ENDROOT
BRANCH   9  13
HETATM   13  C   UNL     1      -5.139  -0.075 -32.200  1.00  0.00     0.261 C 
HETATM   14  N   UNL     1      -4.841  -0.636 -33.425  1.00  0.00    -0.323 N 
HETATM   15  H   UNL     1      -4.370  -0.034 -34.104  1.00  0.00     0.169 HD
HETATM   16  O   UNL     1      -5.739  -0.635 -31.286  1.00  0.00    -0.267 OA
BRANCH  14  17
HETATM   17  C   UNL     1      -5.095  -1.953 -33.858  1.00  0.00     0.037 A 
HETATM   18  C   UNL     1      -4.192  -3.009 -33.733  1.00  0.00     0.071 A 
HETATM   19  C   UNL     1      -4.534  -4.271 -34.212  1.00  0.00     0.118 A 
HETATM   20  F   UNL     1      -3.658  -5.278 -34.097  1.00  0.00    -0.206 F 
HETATM   21  C   UNL     1      -5.765  -4.510 -34.811  1.00  0.00     0.042 A 
HETATM   22  C   UNL     1      -6.674  -3.465 -34.939  1.00  0.00     0.005 A 
HETATM   23  C   UNL     1      -6.338  -2.192 -34.468  1.00  0.00     0.029 A 
ENDBRANCH  14  17
ENDBRANCH   9  13
BRANCH   4  24
HETATM   24  C   UNL     1      -2.073   5.861 -31.087  1.00  0.00     0.060 A 
HETATM   25  C   UNL     1      -2.224   6.707 -29.982  1.00  0.00     0.031 A 
HETATM   26  C   UNL     1      -1.105   7.316 -29.406  1.00  0.00     0.002 A 
HETATM   27  C   UNL     1       0.166   7.092 -29.932  1.00  0.00     0.000 A 
HETATM   28  C   UNL     1       0.322   6.272 -31.046  1.00  0.00     0.002 A 
HETATM   29  C   UNL     1      -0.792   5.665 -31.629  1.00  0.00     0.031 A 
ENDBRANCH   4  24
TORSDOF 3
ENDMDL
MODEL 2
REMARK VINA RESULT:      -9.5      3.018      8.680
REMARK  3 active torsions:
REMARK  status: ('A' for Active; 'I' for Inactive)
REMARK    1  A    between atoms: N_4  and  C_5 
REMARK    2  A    between atoms: C_15  and  C_16 
REMARK       I    between atoms: C_16  and  N_17 
REMARK    3  A    between atoms: N_17  and  C_18 
ROOT
HETATM    1  C   UNL     1      -8.628   1.615 -34.255  1.00  0.00     0.073 C 
HETATM    2  C   UNL     1      -7.422   0.790 -33.999  1.00  0.00     0.069 A 
HETATM    3  N   UNL     1      -7.450  -0.535 -34.203  1.00  0.00    -0.170 NA
HETATM    4  N   UNL     1      -6.185  -0.975 -33.920  1.00  0.00    -0.216 N 
HETATM    5  C   UNL     1      -5.424   0.065 -33.407  1.00  0.00     0.145 A 
HETATM    6  C   UNL     1      -6.180   1.210 -33.494  1.00  0.00     0.087 A 
HETATM    7  N   UNL     1      -4.191   0.048 -32.844  1.00  0.00    -0.349 N 
HETATM    8  C   UNL     1      -3.694   1.234 -32.328  1.00  0.00     0.111 A 
HETATM    9  C   UNL     1      -4.322   2.431 -32.391  1.00  0.00     0.098 A 
HETATM   10  C   UNL     1      -5.672   2.493 -33.053  1.00  0.00     0.205 A 
HETATM   11  O   UNL     1      -6.287   3.547 -33.185  1.00  0.00    -0.286 OA
HETATM   12  H   UNL     1      -3.722  -0.805 -32.542  1.00  0.00     0.167 HD
ENDROOT
BRANCH   9  13
HETATM   13  C   UNL     1      -3.651   3.613 -31.764  1.00  0.00     0.261 C 
HETATM   14  N   UNL     1      -2.378   3.866 -32.231  1.00  0.00    -0.323 N 
HETATM   15  H   UNL     1      -2.004   3.214 -32.923  1.00  0.00     0.169 HD
HETATM   16  O   UNL     1      -4.238   4.263 -30.903  1.00  0.00    -0.267 OA
BRANCH  14  17
HETATM   17  C   UNL     1      -1.522   4.930 -31.878  1.00  0.00     0.037 A 
HETATM   18  C   UNL     1      -0.745   4.960 -30.720  1.00  0.00     0.071 A 
HETATM   19  C   UNL     1       0.054   6.069 -30.453  1.00  0.00     0.118 A 
HETATM   20  F   UNL     1       0.790   6.096 -29.334  1.00  0.00    -0.206 F 
HETATM   21  C   UNL     1       0.102   7.153 -31.321  1.00  0.00     0.042 A 
HETATM   22  C   UNL     1      -0.667   7.132 -32.480  1.00  0.00     0.005 A 
HETATM   23  C   UNL     1      -1.478   6.026 -32.754  1.00  0.00     0.029 A 
ENDBRANCH  14  17
ENDBRANCH   9  13
BRANCH   4  24
HETATM   24  C   UNL     1      -5.830  -2.329 -34.177  1.00  0.00     0.060 A 
HETATM   25  C   UNL     1      -4.536  -2.810 -33.944  1.00  0.00     0.031 A 
HETATM   26  C   UNL     1      -4.225  -4.148 -34.208  1.00  0.00     0.002 A 
HETATM   27  C   UNL     1      -5.198  -5.009 -34.712  1.00  0.00     0.000 A 
HETATM   28  C   UNL     1      -6.481  -4.532 -34.971  1.00  0.00     0.002 A 
HETATM   29  C   UNL     1      -6.796  -3.196 -34.714  1.00  0.00     0.031 A 
ENDBRANCH   4  24
TORSDOF 3
ENDMDL
MODEL 3
REMARK VINA RESULT:      -9.0      4.260      5.363
REMARK  3 active torsions:
REMARK  status: ('A' for Active; 'I' for Inactive)
REMARK    1  A    between atoms: N_4  and  C_5 
REMARK    2  A    between atoms: C_15  and  C_16 
REMARK       I    between atoms: C_16  and  N_17 
REMARK    3  A    between atoms: N_17  and  C_18 
ROOT
HETATM    1  C   UNL     1      -3.515   0.208 -30.855  1.00  0.00     0.073 C 
HETATM    2  C   UNL     1      -3.747   1.430 -31.662  1.00  0.00     0.069 A 
HETATM    3  N   UNL     1      -2.920   2.480 -31.558  1.00  0.00    -0.170 NA
HETATM    4  N   UNL     1      -3.386   3.402 -32.456  1.00  0.00    -0.216 N 
HETATM    5  C   UNL     1      -4.583   2.969 -33.005  1.00  0.00     0.145 A 
HETATM    6  C   UNL     1      -4.807   1.691 -32.548  1.00  0.00     0.087 A 
HETATM    7  N   UNL     1      -5.468   3.623 -33.796  1.00  0.00    -0.349 N 
HETATM    8  C   UNL     1      -6.644   2.973 -34.135  1.00  0.00     0.111 A 
HETATM    9  C   UNL     1      -6.958   1.705 -33.784  1.00  0.00     0.098 A 
HETATM   10  C   UNL     1      -5.975   0.934 -32.946  1.00  0.00     0.205 A 
HETATM   11  O   UNL     1      -6.169  -0.234 -32.620  1.00  0.00    -0.286 OA
HETATM   12  H   UNL     1      -5.455   4.632 -33.941  1.00  0.00     0.167 HD
ENDROOT
BRANCH   9  13
HETATM   13  C   UNL     1      -8.283   1.160 -34.220  1.00  0.00     0.261 C 
HETATM   14  N   UNL     1      -9.375   1.800 -33.672  1.00  0.00    -0.323 N 
HETATM   15  H   UNL     1      -9.183   2.550 -33.005  1.00  0.00     0.169 HD
HETATM   16  O   UNL     1      -8.328   0.213 -35.000  1.00  0.00    -0.267 OA
BRANCH  14  17
HETATM   17  C   UNL     1     -10.740   1.555 -33.929  1.00  0.00     0.037 A 
HETATM   18  C   UNL     1     -11.446   0.457 -33.437  1.00  0.00     0.071 A 
HETATM   19  C   UNL     1     -12.790   0.295 -33.766  1.00  0.00     0.118 A 
HETATM   20  F   UNL     1     -13.458  -0.767 -33.299  1.00  0.00    -0.206 F 
HETATM   21  C   UNL     1     -13.453   1.212 -34.573  1.00  0.00     0.042 A 
HETATM   22  C   UNL     1     -12.759   2.312 -35.066  1.00  0.00     0.005 A 
HETATM   23  C   UNL     1     -11.408   2.479 -34.748  1.00  0.00     0.029 A 
ENDBRANCH  14  17
ENDBRANCH   9  13
BRANCH   4  24
HETATM   24  C   UNL     1      -2.642   4.590 -32.706  1.00  0.00     0.060 A 
HETATM   25  C   UNL     1      -2.507   5.594 -31.739  1.00  0.00     0.031 A 
HETATM   26  C   UNL     1      -1.767   6.747 -32.022  1.00  0.00     0.002 A 
HETATM   27  C   UNL     1      -1.167   6.908 -33.269  1.00  0.00     0.000 A 
HETATM   28  C   UNL     1      -1.317   5.926 -34.245  1.00  0.00     0.002 A 
HETATM   29  C   UNL     1      -2.059   4.775 -33.970  1.00  0.00     0.031 A 
ENDBRANCH   4  24
TORSDOF 3
ENDMDL
MODEL 4
REMARK VINA RESULT:      -8.6      5.182      8.160
REMARK  3 active torsions:
REMARK  status: ('A' for Active; 'I' for Inactive)
REMARK    1  A    between atoms: N_4  and  C_5 
REMARK    2  A    between atoms: C_15  and  C_16 
REMARK       I    between atoms: C_16  and  N_17 
REMARK    3  A    between atoms: N_17  and  C_18 
ROOT
HETATM    1  C   UNL     1      -4.192   2.687 -32.304  1.00  0.00     0.073 C 
HETATM    2  C   UNL     1      -4.744   1.349 -32.631  1.00  0.00     0.069 A 
HETATM    3  N   UNL     1      -3.930   0.291 -32.755  1.00  0.00    -0.170 NA
HETATM    4  N   UNL     1      -4.752  -0.774 -33.009  1.00  0.00    -0.216 N 
HETATM    5  C   UNL     1      -6.057  -0.337 -33.181  1.00  0.00     0.145 A 
HETATM    6  C   UNL     1      -6.081   1.009 -32.896  1.00  0.00     0.087 A 
HETATM    7  N   UNL     1      -7.153  -1.010 -33.606  1.00  0.00    -0.349 N 
HETATM    8  C   UNL     1      -8.331  -0.299 -33.772  1.00  0.00     0.111 A 
HETATM    9  C   UNL     1      -8.492   1.013 -33.485  1.00  0.00     0.098 A 
HETATM   10  C   UNL     1      -7.305   1.779 -32.964  1.00  0.00     0.205 A 
HETATM   11  O   UNL     1      -7.381   2.962 -32.644  1.00  0.00    -0.286 OA
HETATM   12  H   UNL     1      -7.113  -1.924 -34.057  1.00  0.00     0.167 HD
ENDROOT
BRANCH   9  13
HETATM   13  C   UNL     1      -9.830   1.632 -33.741  1.00  0.00     0.261 C 
HETATM   14  N   UNL     1     -10.902   0.890 -33.290  1.00  0.00    -0.323 N 
HETATM   15  H   UNL     1     -10.690  -0.013 -32.862  1.00  0.00     0.169 HD
HETATM   16  O   UNL     1      -9.903   2.715 -34.317  1.00  0.00    -0.267 OA
BRANCH  14  17
HETATM   17  C   UNL     1     -12.270   1.231 -33.334  1.00  0.00     0.037 A 
HETATM   18  C   UNL     1     -12.811   2.381 -32.761  1.00  0.00     0.071 A 
HETATM   19  C   UNL     1     -14.182   2.616 -32.844  1.00  0.00     0.118 A 
HETATM   20  F   UNL     1     -14.696   3.718 -32.282  1.00  0.00    -0.206 F 
HETATM   21  C   UNL     1     -15.030   1.729 -33.495  1.00  0.00     0.042 A 
HETATM   22  C   UNL     1     -14.500   0.579 -34.073  1.00  0.00     0.005 A 
HETATM   23  C   UNL     1     -13.127   0.331 -33.989  1.00  0.00     0.029 A 
ENDBRANCH  14  17
ENDBRANCH   9  13
BRANCH   4  24
HETATM   24  C   UNL     1      -4.215  -2.091 -33.051  1.00  0.00     0.060 A 
HETATM   25  C   UNL     1      -3.428  -2.602 -32.011  1.00  0.00     0.031 A 
HETATM   26  C   UNL     1      -2.919  -3.902 -32.089  1.00  0.00     0.002 A 
HETATM   27  C   UNL     1      -3.185  -4.695 -33.204  1.00  0.00     0.000 A 
HETATM   28  C   UNL     1      -3.945  -4.186 -34.254  1.00  0.00     0.002 A 
HETATM   29  C   UNL     1      -4.452  -2.887 -34.184  1.00  0.00     0.031 A 
ENDBRANCH   4  24
TORSDOF 3
ENDMDL
MODEL 5
REMARK VINA RESULT:      -8.5      3.997      4.475
REMARK  3 active torsions:
REMARK  status: ('A' for Active; 'I' for Inactive)
REMARK    1  A    between atoms: N_4  and  C_5 
REMARK    2  A    between atoms: C_15  and  C_16 
REMARK       I    between atoms: C_16  and  N_17 
REMARK    3  A    between atoms: N_17  and  C_18 
ROOT
HETATM    1  C   UNL     1      -1.910   5.182 -34.972  1.00  0.00     0.073 C 
HETATM    2  C   UNL     1      -2.126   5.330 -33.513  1.00  0.00     0.069 A 
HETATM    3  N   UNL     1      -1.101   5.617 -32.699  1.00  0.00    -0.170 NA
HETATM    4  N   UNL     1      -1.645   5.727 -31.448  1.00  0.00    -0.216 N 
HETATM    5  C   UNL     1      -2.984   5.366 -31.479  1.00  0.00     0.145 A 
HETATM    6  C   UNL     1      -3.323   5.156 -32.796  1.00  0.00     0.087 A 
HETATM    7  N   UNL     1      -3.858   5.167 -30.463  1.00  0.00    -0.349 N 
HETATM    8  C   UNL     1      -5.131   4.720 -30.777  1.00  0.00     0.111 A 
HETATM    9  C   UNL     1      -5.596   4.519 -32.031  1.00  0.00     0.098 A 
HETATM   10  C   UNL     1      -4.665   4.776 -33.185  1.00  0.00     0.205 A 
HETATM   11  O   UNL     1      -5.023   4.655 -34.353  1.00  0.00    -0.286 OA
HETATM   12  H   UNL     1      -3.575   5.071 -29.489  1.00  0.00     0.167 HD
ENDROOT
BRANCH   9  13
HETATM   13  C   UNL     1      -6.996   4.013 -32.193  1.00  0.00     0.261 C 
HETATM   14  N   UNL     1      -7.092   2.753 -32.746  1.00  0.00    -0.323 N 
HETATM   15  H   UNL     1      -6.216   2.304 -33.022  1.00  0.00     0.169 HD
HETATM   16  O   UNL     1      -7.942   4.715 -31.847  1.00  0.00    -0.267 OA
BRANCH  14  17
HETATM   17  C   UNL     1      -8.258   1.993 -32.970  1.00  0.00     0.037 A 
HETATM   18  C   UNL     1      -9.222   2.300 -33.930  1.00  0.00     0.071 A 
HETATM   19  C   UNL     1     -10.351   1.495 -34.059  1.00  0.00     0.118 A 
HETATM   20  F   UNL     1     -11.277   1.802 -34.977  1.00  0.00    -0.206 F 
HETATM   21  C   UNL     1     -10.540   0.379 -33.252  1.00  0.00     0.042 A 
HETATM   22  C   UNL     1      -9.584   0.062 -32.293  1.00  0.00     0.005 A 
HETATM   23  C   UNL     1      -8.451   0.869 -32.151  1.00  0.00     0.029 A 
ENDBRANCH  14  17
ENDBRANCH   9  13
BRANCH   4  24
HETATM   24  C   UNL     1      -0.843   6.173 -30.360  1.00  0.00     0.060 A 
HETATM   25  C   UNL     1      -0.854   7.505 -29.931  1.00  0.00     0.031 A 
HETATM   26  C   UNL     1      -0.052   7.904 -28.857  1.00  0.00     0.002 A 
HETATM   27  C   UNL     1       0.769   6.981 -28.212  1.00  0.00     0.000 A 
HETATM   28  C   UNL     1       0.805   5.659 -28.649  1.00  0.00     0.002 A 
HETATM   29  C   UNL     1       0.011   5.256 -29.724  1.00  0.00     0.031 A 
ENDBRANCH   4  24
TORSDOF 3
ENDMDL
MODEL 6
REMARK VINA RESULT:      -8.5      2.552      3.715
REMARK  3 active torsions:
REMARK  status: ('A' for Active; 'I' for Inactive)
REMARK    1  A    between atoms: N_4  and  C_5 
REMARK    2  A    between atoms: C_15  and  C_16 
REMARK       I    between atoms: C_16  and  N_17 
REMARK    3  A    between atoms: N_17  and  C_18 
ROOT
HETATM    1  C   UNL     1      -0.753   6.268 -34.475  1.00  0.00     0.073 C 
HETATM    2  C   UNL     1      -1.221   6.347 -33.070  1.00  0.00     0.069 A 
HETATM    3  N   UNL     1      -0.502   7.004 -32.150  1.00  0.00    -0.170 NA
HETATM    4  N   UNL     1      -1.227   6.924 -30.992  1.00  0.00    -0.216 N 
HETATM    5  C   UNL     1      -2.322   6.093 -31.174  1.00  0.00     0.145 A 
HETATM    6  C   UNL     1      -2.364   5.753 -32.506  1.00  0.00     0.087 A 
HETATM    7  N   UNL     1      -3.204   5.600 -30.270  1.00  0.00    -0.349 N 
HETATM    8  C   UNL     1      -4.166   4.709 -30.717  1.00  0.00     0.111 A 
HETATM    9  C   UNL     1      -4.335   4.332 -32.005  1.00  0.00     0.098 A 
HETATM   10  C   UNL     1      -3.403   4.899 -33.042  1.00  0.00     0.205 A 
HETATM   11  O   UNL     1      -3.516   4.636 -34.236  1.00  0.00    -0.286 OA
HETATM   12  H   UNL     1      -3.052   5.629 -29.263  1.00  0.00     0.167 HD
ENDROOT
BRANCH   9  13
HETATM   13  C   UNL     1      -5.415   3.342 -32.315  1.00  0.00     0.261 C 
HETATM   14  N   UNL     1      -4.998   2.242 -33.034  1.00  0.00    -0.323 N 
HETATM   15  H   UNL     1      -4.015   2.221 -33.315  1.00  0.00     0.169 HD
HETATM   16  O   UNL     1      -6.564   3.553 -31.935  1.00  0.00    -0.267 OA
BRANCH  14  17
HETATM   17  C   UNL     1      -5.762   1.123 -33.425  1.00  0.00     0.037 A 
HETATM   18  C   UNL     1      -6.711   1.140 -34.447  1.00  0.00     0.071 A 
HETATM   19  C   UNL     1      -7.428  -0.017 -34.743  1.00  0.00     0.118 A 
HETATM   20  F   UNL     1      -8.346   0.010 -35.719  1.00  0.00    -0.206 F 
HETATM   21  C   UNL     1      -7.216  -1.199 -34.045  1.00  0.00     0.042 A 
HETATM   22  C   UNL     1      -6.270  -1.228 -33.026  1.00  0.00     0.005 A 
HETATM   23  C   UNL     1      -5.550  -0.070 -32.716  1.00  0.00     0.029 A 
ENDBRANCH  14  17
ENDBRANCH   9  13
BRANCH   4  24
HETATM   24  C   UNL     1      -0.811   7.650 -29.840  1.00  0.00     0.060 A 
HETATM   25  C   UNL     1      -1.628   8.619 -29.244  1.00  0.00     0.031 A 
HETATM   26  C   UNL     1      -1.184   9.311 -28.112  1.00  0.00     0.002 A 
HETATM   27  C   UNL     1       0.076   9.048 -27.577  1.00  0.00     0.000 A 
HETATM   28  C   UNL     1       0.904   8.104 -28.179  1.00  0.00     0.002 A 
HETATM   29  C   UNL     1       0.469   7.414 -29.312  1.00  0.00     0.031 A 
ENDBRANCH   4  24
TORSDOF 3
ENDMDL
MODEL 7
REMARK VINA RESULT:      -8.5      3.339      8.897
REMARK  3 active torsions:
REMARK  status: ('A' for Active; 'I' for Inactive)
REMARK    1  A    between atoms: N_4  and  C_5 
REMARK    2  A    between atoms: C_15  and  C_16 
REMARK       I    between atoms: C_16  and  N_17 
REMARK    3  A    between atoms: N_17  and  C_18 
ROOT
HETATM    1  C   UNL     1      -8.488   1.662 -34.199  1.00  0.00     0.073 C 
HETATM    2  C   UNL     1      -7.296   0.818 -33.945  1.00  0.00     0.069 A 
HETATM    3  N   UNL     1      -7.342  -0.505 -34.157  1.00  0.00    -0.170 NA
HETATM    4  N   UNL     1      -6.084  -0.965 -33.875  1.00  0.00    -0.216 N 
HETATM    5  C   UNL     1      -5.310   0.060 -33.351  1.00  0.00     0.145 A 
HETATM    6  C   UNL     1      -6.049   1.217 -33.433  1.00  0.00     0.087 A 
HETATM    7  N   UNL     1      -4.079   0.022 -32.785  1.00  0.00    -0.349 N 
HETATM    8  C   UNL     1      -3.567   1.196 -32.259  1.00  0.00     0.111 A 
HETATM    9  C   UNL     1      -4.177   2.403 -32.316  1.00  0.00     0.098 A 
HETATM   10  C   UNL     1      -5.524   2.488 -32.981  1.00  0.00     0.205 A 
HETATM   11  O   UNL     1      -6.124   3.552 -33.108  1.00  0.00    -0.286 OA
HETATM   12  H   UNL     1      -3.623  -0.840 -32.488  1.00  0.00     0.167 HD
ENDROOT
BRANCH   9  13
HETATM   13  C   UNL     1      -3.491   3.571 -31.679  1.00  0.00     0.261 C 
HETATM   14  N   UNL     1      -4.330   4.609 -31.329  1.00  0.00    -0.323 N 
HETATM   15  H   UNL     1      -5.319   4.501 -31.564  1.00  0.00     0.169 HD
HETATM   16  O   UNL     1      -2.275   3.549 -31.513  1.00  0.00    -0.267 OA
BRANCH  14  17
HETATM   17  C   UNL     1      -3.993   5.808 -30.668  1.00  0.00     0.037 A 
HETATM   18  C   UNL     1      -2.994   6.684 -31.093  1.00  0.00     0.071 A 
HETATM   19  C   UNL     1      -2.725   7.835 -30.357  1.00  0.00     0.118 A 
HETATM   20  F   UNL     1      -1.757   8.666 -30.766  1.00  0.00    -0.206 F 
HETATM   21  C   UNL     1      -3.437   8.140 -29.203  1.00  0.00     0.042 A 
HETATM   22  C   UNL     1      -4.438   7.275 -28.772  1.00  0.00     0.005 A 
HETATM   23  C   UNL     1      -4.710   6.113 -29.500  1.00  0.00     0.029 A 
ENDBRANCH  14  17
ENDBRANCH   9  13
BRANCH   4  24
HETATM   24  C   UNL     1      -5.748  -2.322 -34.140  1.00  0.00     0.060 A 
HETATM   25  C   UNL     1      -4.453  -2.815 -33.938  1.00  0.00     0.031 A 
HETATM   26  C   UNL     1      -4.161  -4.156 -34.210  1.00  0.00     0.002 A 
HETATM   27  C   UNL     1      -5.154  -5.008 -34.690  1.00  0.00     0.000 A 
HETATM   28  C   UNL     1      -6.438  -4.519 -34.917  1.00  0.00     0.002 A 
HETATM   29  C   UNL     1      -6.734  -3.181 -34.653  1.00  0.00     0.031 A 
ENDBRANCH   4  24
TORSDOF 3
ENDMDL
MODEL 8
REMARK VINA RESULT:      -8.5      5.844      9.526
REMARK  3 active torsions:
REMARK  status: ('A' for Active; 'I' for Inactive)
REMARK    1  A    between atoms: N_4  and  C_5 
REMARK    2  A    between atoms: C_15  and  C_16 
REMARK       I    between atoms: C_16  and  N_17 
REMARK    3  A    between atoms: N_17  and  C_18 
ROOT
HETATM    1  C   UNL     1      -6.259   1.333 -29.976  1.00  0.00     0.073 C 
HETATM    2  C   UNL     1      -6.715   0.677 -31.226  1.00  0.00     0.069 A 
HETATM    3  N   UNL     1      -5.961  -0.261 -31.815  1.00  0.00    -0.170 NA
HETATM    4  N   UNL     1      -6.683  -0.684 -32.898  1.00  0.00    -0.216 N 
HETATM    5  C   UNL     1      -7.817   0.101 -33.049  1.00  0.00     0.145 A 
HETATM    6  C   UNL     1      -7.881   0.944 -31.964  1.00  0.00     0.087 A 
HETATM    7  N   UNL     1      -8.715   0.150 -34.062  1.00  0.00    -0.349 N 
HETATM    8  C   UNL     1      -9.720   1.102 -33.997  1.00  0.00     0.111 A 
HETATM    9  C   UNL     1      -9.914   1.956 -32.965  1.00  0.00     0.098 A 
HETATM   10  C   UNL     1      -8.962   1.894 -31.802  1.00  0.00     0.205 A 
HETATM   11  O   UNL     1      -9.093   2.607 -30.811  1.00  0.00    -0.286 OA
HETATM   12  H   UNL     1      -8.557  -0.274 -34.976  1.00  0.00     0.167 HD
ENDROOT
BRANCH   9  13
HETATM   13  C   UNL     1     -11.040   2.937 -33.063  1.00  0.00     0.261 C 
HETATM   14  N   UNL     1     -11.883   2.955 -31.971  1.00  0.00    -0.323 N 
HETATM   15  H   UNL     1     -11.685   2.285 -31.226  1.00  0.00     0.169 HD
HETATM   16  O   UNL     1     -11.155   3.638 -34.065  1.00  0.00    -0.267 OA
BRANCH  14  17
HETATM   17  C   UNL     1     -12.990   3.800 -31.747  1.00  0.00     0.037 A 
HETATM   18  C   UNL     1     -12.911   5.048 -31.130  1.00  0.00     0.071 A 
HETATM   19  C   UNL     1     -14.069   5.798 -30.938  1.00  0.00     0.118 A 
HETATM   20  F   UNL     1     -13.987   6.992 -30.336  1.00  0.00    -0.206 F 
HETATM   21  C   UNL     1     -15.311   5.332 -31.353  1.00  0.00     0.042 A 
HETATM   22  C   UNL     1     -15.400   4.089 -31.971  1.00  0.00     0.005 A 
HETATM   23  C   UNL     1     -14.245   3.326 -32.163  1.00  0.00     0.029 A 
ENDBRANCH  14  17
ENDBRANCH   9  13
BRANCH   4  24
HETATM   24  C   UNL     1      -6.228  -1.791 -33.668  1.00  0.00     0.060 A 
HETATM   25  C   UNL     1      -7.116  -2.722 -34.220  1.00  0.00     0.031 A 
HETATM   26  C   UNL     1      -6.630  -3.797 -34.972  1.00  0.00     0.002 A 
HETATM   27  C   UNL     1      -5.260  -3.953 -35.169  1.00  0.00     0.000 A 
HETATM   28  C   UNL     1      -4.368  -3.047 -34.602  1.00  0.00     0.002 A 
HETATM   29  C   UNL     1      -4.847  -1.975 -33.846  1.00  0.00     0.031 A 
ENDBRANCH   4  24
TORSDOF 3
ENDMDL
MODEL 9
REMARK VINA RESULT:      -8.4      1.662      1.955
REMARK  3 active torsions:
REMARK  status: ('A' for Active; 'I' for Inactive)
REMARK    1  A    between atoms: N_4  and  C_5 
REMARK    2  A    between atoms: C_15  and  C_16 
REMARK       I    between atoms: C_16  and  N_17 
REMARK    3  A    between atoms: N_17  and  C_18 
ROOT
HETATM    1  C   UNL     1      -8.049   4.500 -30.460  1.00  0.00     0.073 C 
HETATM    2  C   UNL     1      -6.580   4.636 -30.608  1.00  0.00     0.069 A 
HETATM    3  N   UNL     1      -6.001   5.844 -30.563  1.00  0.00    -0.170 NA
HETATM    4  N   UNL     1      -4.658   5.611 -30.684  1.00  0.00    -0.216 N 
HETATM    5  C   UNL     1      -4.430   4.269 -30.946  1.00  0.00     0.145 A 
HETATM    6  C   UNL     1      -5.640   3.620 -30.854  1.00  0.00     0.087 A 
HETATM    7  N   UNL     1      -3.288   3.630 -31.299  1.00  0.00    -0.349 N 
HETATM    8  C   UNL     1      -3.361   2.277 -31.590  1.00  0.00     0.111 A 
HETATM    9  C   UNL     1      -4.480   1.522 -31.494  1.00  0.00     0.098 A 
HETATM   10  C   UNL     1      -5.755   2.192 -31.058  1.00  0.00     0.205 A 
HETATM   11  O   UNL     1      -6.802   1.568 -30.909  1.00  0.00    -0.286 OA
HETATM   12  H   UNL     1      -2.448   4.113 -31.615  1.00  0.00     0.167 HD
ENDROOT
BRANCH   9  13
HETATM   13  C   UNL     1      -4.388   0.075 -31.865  1.00  0.00     0.261 C 
HETATM   14  N   UNL     1      -5.189  -0.298 -32.925  1.00  0.00    -0.323 N 
HETATM   15  H   UNL     1      -5.786   0.426 -33.328  1.00  0.00     0.169 HD
HETATM   16  O   UNL     1      -3.645  -0.672 -31.235  1.00  0.00    -0.267 OA
BRANCH  14  17
HETATM   17  C   UNL     1      -5.280  -1.566 -33.536  1.00  0.00     0.037 A 
HETATM   18  C   UNL     1      -4.220  -2.468 -33.632  1.00  0.00     0.071 A 
HETATM   19  C   UNL     1      -4.409  -3.689 -34.274  1.00  0.00     0.118 A 
HETATM   20  F   UNL     1      -3.384  -4.547 -34.372  1.00  0.00    -0.206 F 
HETATM   21  C   UNL     1      -5.638  -4.038 -34.822  1.00  0.00     0.042 A 
HETATM   22  C   UNL     1      -6.702  -3.146 -34.730  1.00  0.00     0.005 A 
HETATM   23  C   UNL     1      -6.521  -1.915 -34.093  1.00  0.00     0.029 A 
ENDBRANCH  14  17
ENDBRANCH   9  13
BRANCH   4  24
HETATM   24  C   UNL     1      -3.734   6.683 -30.528  1.00  0.00     0.060 A 
HETATM   25  C   UNL     1      -3.122   7.297 -31.628  1.00  0.00     0.031 A 
HETATM   26  C   UNL     1      -2.220   8.347 -31.434  1.00  0.00     0.002 A 
HETATM   27  C   UNL     1      -1.917   8.785 -30.146  1.00  0.00     0.000 A 
HETATM   28  C   UNL     1      -2.501   8.163 -29.046  1.00  0.00     0.002 A 
HETATM   29  C   UNL     1      -3.399   7.110 -29.233  1.00  0.00     0.031 A 
ENDBRANCH   4  24
TORSDOF 3
ENDMDL
MODEL 10
REMARK VINA RESULT:      -8.3      4.121      9.029
REMARK  3 active torsions:
REMARK  status: ('A' for Active; 'I' for Inactive)
REMARK    1  A    between atoms: N_4  and  C_5 
REMARK    2  A    between atoms: C_15  and  C_16 
REMARK       I    between atoms: C_16  and  N_17 
REMARK    3  A    between atoms: N_17  and  C_18 
ROOT
HETATM    1  C   UNL     1      -4.698  -1.128 -32.282  1.00  0.00     0.073 C 
HETATM    2  C   UNL     1      -5.647  -0.030 -32.587  1.00  0.00     0.069 A 
HETATM    3  N   UNL     1      -6.898  -0.304 -32.982  1.00  0.00    -0.170 NA
HETATM    4  N   UNL     1      -7.509   0.912 -33.131  1.00  0.00    -0.216 N 
HETATM    5  C   UNL     1      -6.584   1.932 -32.964  1.00  0.00     0.145 A 
HETATM    6  C   UNL     1      -5.401   1.354 -32.567  1.00  0.00     0.087 A 
HETATM    7  N   UNL     1      -6.705   3.263 -33.183  1.00  0.00    -0.349 N 
HETATM    8  C   UNL     1      -5.581   4.056 -33.015  1.00  0.00     0.111 A 
HETATM    9  C   UNL     1      -4.376   3.613 -32.589  1.00  0.00     0.098 A 
HETATM   10  C   UNL     1      -4.222   2.146 -32.290  1.00  0.00     0.205 A 
HETATM   11  O   UNL     1      -3.172   1.674 -31.862  1.00  0.00    -0.286 OA
HETATM   12  H   UNL     1      -7.474   3.680 -33.706  1.00  0.00     0.167 HD
ENDROOT
BRANCH   9  13
HETATM   13  C   UNL     1      -3.258   4.603 -32.480  1.00  0.00     0.261 C 
HETATM   14  N   UNL     1      -2.799   4.812 -31.196  1.00  0.00    -0.323 N 
HETATM   15  H   UNL     1      -3.279   4.308 -30.448  1.00  0.00     0.169 HD
HETATM   16  O   UNL     1      -2.831   5.157 -33.489  1.00  0.00    -0.267 OA
BRANCH  14  17
HETATM   17  C   UNL     1      -1.732   5.635 -30.782  1.00  0.00     0.037 A 
HETATM   18  C   UNL     1      -1.890   6.850 -30.116  1.00  0.00     0.071 A 
HETATM   19  C   UNL     1      -0.769   7.599 -29.767  1.00  0.00     0.118 A 
HETATM   20  F   UNL     1      -0.929   8.770 -29.136  1.00  0.00    -0.206 F 
HETATM   21  C   UNL     1       0.516   7.159 -30.063  1.00  0.00     0.042 A 
HETATM   22  C   UNL     1       0.686   5.947 -30.724  1.00  0.00     0.005 A 
HETATM   23  C   UNL     1      -0.434   5.192 -31.085  1.00  0.00     0.029 A 
ENDBRANCH  14  17
ENDBRANCH   9  13
BRANCH   4  24
HETATM   24  C   UNL     1      -8.904   0.978 -33.406  1.00  0.00     0.060 A 
HETATM   25  C   UNL     1      -9.452   1.987 -34.207  1.00  0.00     0.031 A 
HETATM   26  C   UNL     1     -10.829   2.017 -34.454  1.00  0.00     0.002 A 
HETATM   27  C   UNL     1     -11.664   1.050 -33.900  1.00  0.00     0.000 A 
HETATM   28  C   UNL     1     -11.130   0.057 -33.081  1.00  0.00     0.002 A 
HETATM   29  C   UNL     1      -9.758   0.025 -32.826  1.00  0.00     0.031 A 
ENDBRANCH   4  24
TORSDOF 3
ENDMDL
