MODEL 1
REMARK VINA RESULT:      -9.3      0.000      0.000
REMARK  5 active torsions:
REMARK  status: ('A' for Active; 'I' for Inactive)
REMARK    1  A    between atoms: C_2  and  C_3 
REMARK    2  A    between atoms: C_6  and  N_7 
REMARK       I    between atoms: N_7  and  C_8 
REMARK       I    between atoms: C_8  and  N_9 
REMARK    3  A    between atoms: N_9  and  C_10 
REMARK    4  A    between atoms: N_20  and  N_21 
REMARK       I    between atoms: N_21  and  C_22 
REMARK    5  A    between atoms: C_22  and  C_23 
ROOT
HETATM    1  C   UNL     1      -2.655   4.874 -32.936  1.00  0.00    -0.010 A 
HETATM    2  C   UNL     1      -3.969   5.038 -33.384  1.00  0.00     0.016 A 
HETATM    3  C   UNL     1      -4.982   4.199 -32.903  1.00  0.00     0.030 A 
HETATM    4  C   UNL     1      -4.683   3.193 -31.977  1.00  0.00     0.036 A 
HETATM    5  C   UNL     1      -3.360   3.016 -31.559  1.00  0.00     0.030 A 
HETATM    6  C   UNL     1      -2.354   3.871 -32.010  1.00  0.00     0.016 A 
ENDROOT
BRANCH   1   7
HETATM    7  C   UNL     1      -1.570   5.763 -33.427  1.00  0.00     0.061 C 
HETATM    8  C   UNL     1      -1.144   5.586 -34.868  1.00  0.00     0.073 C 
HETATM    9  N   UNL     1      -0.982   6.704 -32.749  1.00  0.00    -0.176 NA
BRANCH   9  10
HETATM   10  N   UNL     1      -1.253   6.841 -31.420  1.00  0.00    -0.243 N 
HETATM   11  C   UNL     1      -0.329   6.408 -30.479  1.00  0.00     0.273 C 
HETATM   12  O   UNL     1       0.745   5.872 -30.736  1.00  0.00    -0.266 OA
HETATM   13  H   UNL     1      -2.187   7.124 -31.151  1.00  0.00     0.192 HD
BRANCH  11  14
HETATM   14  C   UNL     1      -0.695   6.624 -29.057  1.00  0.00     0.051 A 
HETATM   15  C   UNL     1      -1.828   7.328 -28.668  1.00  0.00     0.133 A 
HETATM   16  N   UNL     1      -2.181   7.552 -27.377  1.00  0.00    -0.272 NA
HETATM   17  C   UNL     1      -1.347   7.071 -26.430  1.00  0.00     0.116 A 
HETATM   18  C   UNL     1      -0.179   6.380 -26.711  1.00  0.00     0.020 A 
HETATM   19  C   UNL     1       0.150   6.157 -28.046  1.00  0.00     0.020 A 
ENDBRANCH  11  14
ENDBRANCH   9  10
ENDBRANCH   1   7
BRANCH   4  20
HETATM   20  N   UNL     1      -5.633   2.290 -31.477  1.00  0.00    -0.309 N 
HETATM   21  C   UNL     1      -5.894   0.973 -31.746  1.00  0.00     0.325 C 
HETATM   22  N   UNL     1      -5.402   0.484 -32.927  1.00  0.00    -0.309 N 
HETATM   23  O   UNL     1      -6.635   0.376 -30.969  1.00  0.00    -0.247 OA
HETATM   24  H   UNL     1      -4.964   1.164 -33.527  1.00  0.00     0.170 HD
HETATM   25  H   UNL     1      -6.291   2.647 -30.794  1.00  0.00     0.170 HD
BRANCH  22  26
HETATM   26  C   UNL     1      -5.659  -0.774 -33.511  1.00  0.00     0.036 A 
HETATM   27  C   UNL     1      -6.922  -1.201 -33.930  1.00  0.00     0.031 A 
HETATM   28  C   UNL     1      -7.083  -2.443 -34.555  1.00  0.00     0.026 A 
HETATM   29  C   UNL     1      -5.982  -3.270 -34.753  1.00  0.00     0.034 A 
HETATM   30 CL   UNL     1      -6.179  -4.789 -35.536  1.00  0.00    -0.084 Cl
HETATM   31  C   UNL     1      -4.721  -2.870 -34.323  1.00  0.00     0.026 A 
HETATM   32  C   UNL     1      -4.561  -1.625 -33.704  1.00  0.00     0.031 A 
ENDBRANCH  22  26
ENDBRANCH   4  20
TORSDOF 5
ENDMDL
MODEL 2
REMARK VINA RESULT:      -9.1      6.164     10.002
REMARK  5 active torsions:
REMARK  status: ('A' for Active; 'I' for Inactive)
REMARK    1  A    between atoms: C_2  and  C_3 
REMARK    2  A    between atoms: C_6  and  N_7 
REMARK       I    between atoms: N_7  and  C_8 
REMARK       I    between atoms: C_8  and  N_9 
REMARK    3  A    between atoms: N_9  and  C_10 
REMARK    4  A    between atoms: N_20  and  N_21 
REMARK       I    between atoms: N_21  and  C_22 
REMARK    5  A    between atoms: C_22  and  C_23 
ROOT
HETATM    1  C   UNL     1      -7.672   1.345 -32.305  1.00  0.00    -0.010 A 
HETATM    2  C   UNL     1      -8.717   0.480 -31.969  1.00  0.00     0.016 A 
HETATM    3  C   UNL     1      -9.882   0.456 -32.747  1.00  0.00     0.030 A 
HETATM    4  C   UNL     1     -10.004   1.297 -33.859  1.00  0.00     0.036 A 
HETATM    5  C   UNL     1      -8.965   2.181 -34.168  1.00  0.00     0.030 A 
HETATM    6  C   UNL     1      -7.790   2.185 -33.415  1.00  0.00     0.016 A 
ENDROOT
BRANCH   1   7
HETATM    7  C   UNL     1      -6.424   1.376 -31.497  1.00  0.00     0.061 C 
HETATM    8  C   UNL     1      -6.099   2.675 -30.794  1.00  0.00     0.073 C 
HETATM    9  N   UNL     1      -5.608   0.380 -31.306  1.00  0.00    -0.176 NA
BRANCH   9  10
HETATM   10  N   UNL     1      -5.796  -0.781 -31.995  1.00  0.00    -0.243 N 
HETATM   11  C   UNL     1      -5.004  -1.062 -33.100  1.00  0.00     0.273 C 
HETATM   12  O   UNL     1      -4.128  -0.329 -33.549  1.00  0.00    -0.266 OA
HETATM   13  H   UNL     1      -6.606  -1.343 -31.769  1.00  0.00     0.192 HD
BRANCH  11  14
HETATM   14  C   UNL     1      -5.258  -2.363 -33.771  1.00  0.00     0.051 A 
HETATM   15  C   UNL     1      -4.301  -3.367 -33.855  1.00  0.00     0.133 A 
HETATM   16  N   UNL     1      -4.500  -4.559 -34.471  1.00  0.00    -0.272 NA
HETATM   17  C   UNL     1      -5.704  -4.746 -35.054  1.00  0.00     0.116 A 
HETATM   18  C   UNL     1      -6.716  -3.799 -35.050  1.00  0.00     0.020 A 
HETATM   19  C   UNL     1      -6.485  -2.588 -34.400  1.00  0.00     0.020 A 
ENDBRANCH  11  14
ENDBRANCH   9  10
ENDBRANCH   1   7
BRANCH   4  20
HETATM   20  N   UNL     1     -11.151   1.359 -34.664  1.00  0.00    -0.309 N 
HETATM   21  C   UNL     1     -12.371   1.957 -34.499  1.00  0.00     0.325 C 
HETATM   22  N   UNL     1     -12.718   2.288 -33.216  1.00  0.00    -0.309 N 
HETATM   23  O   UNL     1     -13.094   2.043 -35.489  1.00  0.00    -0.247 OA
HETATM   24  H   UNL     1     -12.075   1.983 -32.502  1.00  0.00     0.170 HD
HETATM   25  H   UNL     1     -11.121   0.856 -35.544  1.00  0.00     0.170 HD
BRANCH  22  26
HETATM   26  C   UNL     1     -13.965   2.761 -32.756  1.00  0.00     0.036 A 
HETATM   27  C   UNL     1     -14.217   4.090 -32.404  1.00  0.00     0.031 A 
HETATM   28  C   UNL     1     -15.500   4.492 -32.013  1.00  0.00     0.026 A 
HETATM   29  C   UNL     1     -16.534   3.562 -31.959  1.00  0.00     0.034 A 
HETATM   30 CL   UNL     1     -18.113   4.060 -31.493  1.00  0.00    -0.084 Cl
HETATM   31  C   UNL     1     -16.294   2.232 -32.286  1.00  0.00     0.026 A 
HETATM   32  C   UNL     1     -15.014   1.833 -32.684  1.00  0.00     0.031 A 
ENDBRANCH  22  26
ENDBRANCH   4  20
TORSDOF 5
ENDMDL
MODEL 3
REMARK VINA RESULT:      -8.7      3.778      9.952
REMARK  5 active torsions:
REMARK  status: ('A' for Active; 'I' for Inactive)
REMARK    1  A    between atoms: C_2  and  C_3 
REMARK    2  A    between atoms: C_6  and  N_7 
REMARK       I    between atoms: N_7  and  C_8 
REMARK       I    between atoms: C_8  and  N_9 
REMARK    3  A    between atoms: N_9  and  C_10 
REMARK    4  A    between atoms: N_20  and  N_21 
REMARK       I    between atoms: N_21  and  C_22 
REMARK    5  A    between atoms: C_22  and  C_23 
ROOT
HETATM    1  C   UNL     1      -5.363   3.919 -32.180  1.00  0.00    -0.010 A 
HETATM    2  C   UNL     1      -4.615   3.296 -31.177  1.00  0.00     0.016 A 
HETATM    3  C   UNL     1      -3.238   3.532 -31.083  1.00  0.00     0.030 A 
HETATM    4  C   UNL     1      -2.606   4.387 -31.994  1.00  0.00     0.036 A 
HETATM    5  C   UNL     1      -3.358   4.980 -33.013  1.00  0.00     0.030 A 
HETATM    6  C   UNL     1      -4.736   4.774 -33.090  1.00  0.00     0.016 A 
ENDROOT
BRANCH   1   7
HETATM    7  C   UNL     1      -6.828   3.689 -32.287  1.00  0.00     0.061 C 
HETATM    8  C   UNL     1      -7.730   4.811 -31.820  1.00  0.00     0.073 C 
HETATM    9  N   UNL     1      -7.406   2.633 -32.779  1.00  0.00    -0.176 NA
BRANCH   9  10
HETATM   10  N   UNL     1      -6.648   1.552 -33.120  1.00  0.00    -0.243 N 
HETATM   11  C   UNL     1      -7.253   0.316 -33.300  1.00  0.00     0.273 C 
HETATM   12  O   UNL     1      -8.450   0.084 -33.157  1.00  0.00    -0.266 OA
HETATM   13  H   UNL     1      -5.642   1.649 -33.091  1.00  0.00     0.192 HD
BRANCH  11  14
HETATM   14  C   UNL     1      -6.355  -0.798 -33.699  1.00  0.00     0.051 A 
HETATM   15  C   UNL     1      -5.001  -0.826 -33.384  1.00  0.00     0.133 A 
HETATM   16  N   UNL     1      -4.155  -1.822 -33.746  1.00  0.00    -0.272 NA
HETATM   17  C   UNL     1      -4.682  -2.827 -34.481  1.00  0.00     0.116 A 
HETATM   18  C   UNL     1      -6.011  -2.881 -34.869  1.00  0.00     0.020 A 
HETATM   19  C   UNL     1      -6.857  -1.847 -34.473  1.00  0.00     0.020 A 
ENDBRANCH  11  14
ENDBRANCH   9  10
ENDBRANCH   1   7
BRANCH   4  20
HETATM   20  N   UNL     1      -1.227   4.644 -31.990  1.00  0.00    -0.309 N 
HETATM   21  C   UNL     1      -0.369   5.095 -31.024  1.00  0.00     0.325 C 
HETATM   22  N   UNL     1      -0.938   5.739 -29.956  1.00  0.00    -0.309 N 
HETATM   23  O   UNL     1       0.835   4.988 -31.246  1.00  0.00    -0.247 OA
HETATM   24  H   UNL     1      -1.931   5.893 -30.025  1.00  0.00     0.170 HD
HETATM   25  H   UNL     1      -0.732   4.500 -32.863  1.00  0.00     0.170 HD
BRANCH  22  26
HETATM   26  C   UNL     1      -0.280   6.430 -28.918  1.00  0.00     0.036 A 
HETATM   27  C   UNL     1      -0.366   6.082 -27.567  1.00  0.00     0.031 A 
HETATM   28  C   UNL     1       0.366   6.785 -26.602  1.00  0.00     0.026 A 
HETATM   29  C   UNL     1       1.179   7.848 -26.984  1.00  0.00     0.034 A 
HETATM   30 CL   UNL     1       2.090   8.700 -25.800  1.00  0.00    -0.084 Cl
HETATM   31  C   UNL     1       1.259   8.220 -28.322  1.00  0.00     0.026 A 
HETATM   32  C   UNL     1       0.533   7.513 -29.285  1.00  0.00     0.031 A 
ENDBRANCH  22  26
ENDBRANCH   4  20
TORSDOF 5
ENDMDL
MODEL 4
REMARK VINA RESULT:      -8.4     17.699     20.086
REMARK  5 active torsions:
REMARK  status: ('A' for Active; 'I' for Inactive)
REMARK    1  A    between atoms: C_2  and  C_3 
REMARK    2  A    between atoms: C_6  and  N_7 
REMARK       I    between atoms: N_7  and  C_8 
REMARK       I    between atoms: C_8  and  N_9 
REMARK    3  A    between atoms: N_9  and  C_10 
REMARK    4  A    between atoms: N_20  and  N_21 
REMARK       I    between atoms: N_21  and  C_22 
REMARK    5  A    between atoms: C_22  and  C_23 
ROOT
HETATM    1  C   UNL     1      -0.591 -14.408 -38.090  1.00  0.00    -0.010 A 
HETATM    2  C   UNL     1      -1.169 -13.143 -38.223  1.00  0.00     0.016 A 
HETATM    3  C   UNL     1      -2.323 -12.822 -37.497  1.00  0.00     0.030 A 
HETATM    4  C   UNL     1      -2.902 -13.766 -36.640  1.00  0.00     0.036 A 
HETATM    5  C   UNL     1      -2.334 -15.040 -36.539  1.00  0.00     0.030 A 
HETATM    6  C   UNL     1      -1.165 -15.352 -37.235  1.00  0.00     0.016 A 
ENDROOT
BRANCH   1   7
HETATM    7  C   UNL     1       0.641 -14.761 -38.844  1.00  0.00     0.061 C 
HETATM    8  C   UNL     1       1.903 -14.957 -38.034  1.00  0.00     0.073 C 
HETATM    9  N   UNL     1       0.726 -14.956 -40.127  1.00  0.00    -0.176 NA
BRANCH   9  10
HETATM   10  N   UNL     1      -0.353 -14.695 -40.918  1.00  0.00    -0.243 N 
HETATM   11  C   UNL     1      -1.199 -15.730 -41.292  1.00  0.00     0.273 C 
HETATM   12  O   UNL     1      -1.054 -16.910 -40.986  1.00  0.00    -0.266 OA
HETATM   13  H   UNL     1      -0.429 -13.775 -41.331  1.00  0.00     0.192 HD
BRANCH  11  14
HETATM   14  C   UNL     1      -2.366 -15.349 -42.128  1.00  0.00     0.051 A 
HETATM   15  C   UNL     1      -3.167 -14.248 -41.849  1.00  0.00     0.133 A 
HETATM   16  N   UNL     1      -4.245 -13.883 -42.587  1.00  0.00    -0.272 NA
HETATM   17  C   UNL     1      -4.553 -14.672 -43.639  1.00  0.00     0.116 A 
HETATM   18  C   UNL     1      -3.836 -15.805 -43.988  1.00  0.00     0.020 A 
HETATM   19  C   UNL     1      -2.728 -16.148 -43.216  1.00  0.00     0.020 A 
ENDBRANCH  11  14
ENDBRANCH   9  10
ENDBRANCH   1   7
BRANCH   4  20
HETATM   20  N   UNL     1      -4.077 -13.535 -35.910  1.00  0.00    -0.309 N 
HETATM   21  C   UNL     1      -5.404 -13.655 -36.222  1.00  0.00     0.325 C 
HETATM   22  N   UNL     1      -5.716 -13.682 -37.555  1.00  0.00    -0.309 N 
HETATM   23  O   UNL     1      -6.207 -13.615 -35.292  1.00  0.00    -0.247 OA
HETATM   24  H   UNL     1      -4.942 -13.526 -38.183  1.00  0.00     0.170 HD
HETATM   25  H   UNL     1      -3.967 -13.188 -34.963  1.00  0.00     0.170 HD
BRANCH  22  26
HETATM   26  C   UNL     1      -6.998 -13.640 -38.141  1.00  0.00     0.036 A 
HETATM   27  C   UNL     1      -7.890 -14.716 -38.153  1.00  0.00     0.031 A 
HETATM   28  C   UNL     1      -9.170 -14.574 -38.704  1.00  0.00     0.026 A 
HETATM   29  C   UNL     1      -9.558 -13.358 -39.257  1.00  0.00     0.034 A 
HETATM   30 CL   UNL     1     -11.136 -13.181 -39.919  1.00  0.00    -0.084 Cl
HETATM   31  C   UNL     1      -8.675 -12.284 -39.272  1.00  0.00     0.026 A 
HETATM   32  C   UNL     1      -7.399 -12.425 -38.715  1.00  0.00     0.031 A 
ENDBRANCH  22  26
ENDBRANCH   4  20
TORSDOF 5
ENDMDL
MODEL 5
REMARK VINA RESULT:      -8.3      2.068      2.780
REMARK  5 active torsions:
REMARK  status: ('A' for Active; 'I' for Inactive)
REMARK    1  A    between atoms: C_2  and  C_3 
REMARK    2  A    between atoms: C_6  and  N_7 
REMARK       I    between atoms: N_7  and  C_8 
REMARK       I    between atoms: C_8  and  N_9 
REMARK    3  A    between atoms: N_9  and  C_10 
REMARK    4  A    between atoms: N_20  and  N_21 
REMARK       I    between atoms: N_21  and  C_22 
REMARK    5  A    between atoms: C_22  and  C_23 
ROOT
HETATM    1  C   UNL     1      -4.922   5.014 -31.599  1.00  0.00    -0.010 A 
HETATM    2  C   UNL     1      -3.895   4.655 -32.477  1.00  0.00     0.016 A 
HETATM    3  C   UNL     1      -3.335   3.373 -32.411  1.00  0.00     0.030 A 
HETATM    4  C   UNL     1      -3.797   2.450 -31.466  1.00  0.00     0.036 A 
HETATM    5  C   UNL     1      -4.803   2.829 -30.571  1.00  0.00     0.030 A 
HETATM    6  C   UNL     1      -5.386   4.094 -30.655  1.00  0.00     0.016 A 
ENDROOT
BRANCH   1   7
HETATM    7  C   UNL     1      -5.535   6.366 -31.664  1.00  0.00     0.061 C 
HETATM    8  C   UNL     1      -6.695   6.544 -32.619  1.00  0.00     0.073 C 
HETATM    9  N   UNL     1      -5.196   7.399 -30.949  1.00  0.00    -0.176 NA
BRANCH   9  10
HETATM   10  N   UNL     1      -4.095   7.326 -30.147  1.00  0.00    -0.243 N 
HETATM   11  C   UNL     1      -2.868   7.769 -30.620  1.00  0.00     0.273 C 
HETATM   12  O   UNL     1      -2.662   8.222 -31.743  1.00  0.00    -0.266 OA
HETATM   13  H   UNL     1      -4.173   6.815 -29.278  1.00  0.00     0.192 HD
BRANCH  11  14
HETATM   14  C   UNL     1      -1.731   7.680 -29.669  1.00  0.00     0.051 A 
HETATM   15  C   UNL     1      -1.873   7.881 -28.301  1.00  0.00     0.133 A 
HETATM   16  N   UNL     1      -0.852   7.819 -27.411  1.00  0.00    -0.272 NA
HETATM   17  C   UNL     1       0.376   7.568 -27.915  1.00  0.00     0.116 A 
HETATM   18  C   UNL     1       0.630   7.378 -29.264  1.00  0.00     0.020 A 
HETATM   19  C   UNL     1      -0.442   7.439 -30.152  1.00  0.00     0.020 A 
ENDBRANCH  11  14
ENDBRANCH   9  10
ENDBRANCH   1   7
BRANCH   4  20
HETATM   20  N   UNL     1      -3.263   1.162 -31.312  1.00  0.00    -0.309 N 
HETATM   21  C   UNL     1      -3.419   0.000 -32.019  1.00  0.00     0.325 C 
HETATM   22  N   UNL     1      -4.523  -0.077 -32.827  1.00  0.00    -0.309 N 
HETATM   23  O   UNL     1      -2.628  -0.910 -31.787  1.00  0.00    -0.247 OA
HETATM   24  H   UNL     1      -5.162   0.700 -32.760  1.00  0.00     0.170 HD
HETATM   25  H   UNL     1      -2.651   1.012 -30.518  1.00  0.00     0.170 HD
BRANCH  22  26
HETATM   26  C   UNL     1      -4.998  -1.203 -33.530  1.00  0.00     0.036 A 
HETATM   27  C   UNL     1      -4.191  -2.265 -33.947  1.00  0.00     0.031 A 
HETATM   28  C   UNL     1      -4.751  -3.376 -34.589  1.00  0.00     0.026 A 
HETATM   29  C   UNL     1      -6.121  -3.424 -34.828  1.00  0.00     0.034 A 
HETATM   30 CL   UNL     1      -6.810  -4.797 -35.603  1.00  0.00    -0.084 Cl
HETATM   31  C   UNL     1      -6.935  -2.366 -34.438  1.00  0.00     0.026 A 
HETATM   32  C   UNL     1      -6.375  -1.260 -33.791  1.00  0.00     0.031 A 
ENDBRANCH  22  26
ENDBRANCH   4  20
TORSDOF 5
ENDMDL
MODEL 6
REMARK VINA RESULT:      -8.2      5.903     10.000
REMARK  5 active torsions:
REMARK  status: ('A' for Active; 'I' for Inactive)
REMARK    1  A    between atoms: C_2  and  C_3 
REMARK    2  A    between atoms: C_6  and  N_7 
REMARK       I    between atoms: N_7  and  C_8 
REMARK       I    between atoms: C_8  and  N_9 
REMARK    3  A    between atoms: N_9  and  C_10 
REMARK    4  A    between atoms: N_20  and  N_21 
REMARK       I    between atoms: N_21  and  C_22 
REMARK    5  A    between atoms: C_22  and  C_23 
ROOT
HETATM    1  C   UNL     1      -7.098   1.289 -32.839  1.00  0.00    -0.010 A 
HETATM    2  C   UNL     1      -7.814   0.763 -31.760  1.00  0.00     0.016 A 
HETATM    3  C   UNL     1      -9.189   0.528 -31.882  1.00  0.00     0.030 A 
HETATM    4  C   UNL     1      -9.851   0.821 -33.080  1.00  0.00     0.036 A 
HETATM    5  C   UNL     1      -9.131   1.376 -34.143  1.00  0.00     0.030 A 
HETATM    6  C   UNL     1      -7.755   1.581 -34.037  1.00  0.00     0.016 A 
ENDROOT
BRANCH   1   7
HETATM    7  C   UNL     1      -5.636   1.533 -32.730  1.00  0.00     0.061 C 
HETATM    8  C   UNL     1      -5.208   2.853 -32.125  1.00  0.00     0.073 C 
HETATM    9  N   UNL     1      -4.691   0.706 -33.068  1.00  0.00    -0.176 NA
BRANCH   9  10
HETATM   10  N   UNL     1      -5.014  -0.453 -33.710  1.00  0.00    -0.243 N 
HETATM   11  C   UNL     1      -4.750  -1.673 -33.104  1.00  0.00     0.273 C 
HETATM   12  O   UNL     1      -4.213  -1.820 -32.010  1.00  0.00    -0.266 OA
HETATM   13  H   UNL     1      -5.307  -0.396 -34.677  1.00  0.00     0.192 HD
BRANCH  11  14
HETATM   14  C   UNL     1      -5.162  -2.882 -33.863  1.00  0.00     0.051 A 
HETATM   15  C   UNL     1      -4.396  -4.040 -33.911  1.00  0.00     0.133 A 
HETATM   16  N   UNL     1      -4.740  -5.153 -34.605  1.00  0.00    -0.272 NA
HETATM   17  C   UNL     1      -5.895  -5.097 -35.305  1.00  0.00     0.116 A 
HETATM   18  C   UNL     1      -6.718  -3.983 -35.344  1.00  0.00     0.020 A 
HETATM   19  C   UNL     1      -6.341  -2.859 -34.613  1.00  0.00     0.020 A 
ENDBRANCH  11  14
ENDBRANCH   9  10
ENDBRANCH   1   7
BRANCH   4  20
HETATM   20  N   UNL     1     -11.230   0.649 -33.269  1.00  0.00    -0.309 N 
HETATM   21  C   UNL     1     -12.276   1.530 -33.327  1.00  0.00     0.325 C 
HETATM   22  N   UNL     1     -12.058   2.771 -32.789  1.00  0.00    -0.309 N 
HETATM   23  O   UNL     1     -13.348   1.104 -33.749  1.00  0.00    -0.247 OA
HETATM   24  H   UNL     1     -11.171   2.890 -32.324  1.00  0.00     0.170 HD
HETATM   25  H   UNL     1     -11.565  -0.303 -33.364  1.00  0.00     0.170 HD
BRANCH  22  26
HETATM   26  C   UNL     1     -13.003   3.797 -32.579  1.00  0.00     0.036 A 
HETATM   27  C   UNL     1     -13.293   4.798 -33.509  1.00  0.00     0.031 A 
HETATM   28  C   UNL     1     -14.289   5.747 -33.247  1.00  0.00     0.026 A 
HETATM   29  C   UNL     1     -14.991   5.706 -32.047  1.00  0.00     0.034 A 
HETATM   30 CL   UNL     1     -16.225   6.862 -31.733  1.00  0.00    -0.084 Cl
HETATM   31  C   UNL     1     -14.699   4.728 -31.101  1.00  0.00     0.026 A 
HETATM   32  C   UNL     1     -13.709   3.777 -31.366  1.00  0.00     0.031 A 
ENDBRANCH  22  26
ENDBRANCH   4  20
TORSDOF 5
ENDMDL
MODEL 7
REMARK VINA RESULT:      -8.0      3.083      3.598
REMARK  5 active torsions:
REMARK  status: ('A' for Active; 'I' for Inactive)
REMARK    1  A    between atoms: C_2  and  C_3 
REMARK    2  A    between atoms: C_6  and  N_7 
REMARK       I    between atoms: N_7  and  C_8 
REMARK       I    between atoms: C_8  and  N_9 
REMARK    3  A    between atoms: N_9  and  C_10 
REMARK    4  A    between atoms: N_20  and  N_21 
REMARK       I    between atoms: N_21  and  C_22 
REMARK    5  A    between atoms: C_22  and  C_23 
ROOT
HETATM    1  C   UNL     1      -2.955   5.155 -32.773  1.00  0.00    -0.010 A 
HETATM    2  C   UNL     1      -4.031   6.043 -32.683  1.00  0.00     0.016 A 
HETATM    3  C   UNL     1      -5.137   5.723 -31.885  1.00  0.00     0.030 A 
HETATM    4  C   UNL     1      -5.170   4.515 -31.179  1.00  0.00     0.036 A 
HETATM    5  C   UNL     1      -4.103   3.620 -31.301  1.00  0.00     0.030 A 
HETATM    6  C   UNL     1      -2.985   3.949 -32.068  1.00  0.00     0.016 A 
ENDROOT
BRANCH   1   7
HETATM    7  C   UNL     1      -1.769   5.484 -33.605  1.00  0.00     0.061 C 
HETATM    8  C   UNL     1      -1.749   4.930 -35.013  1.00  0.00     0.073 C 
HETATM    9  N   UNL     1      -0.767   6.236 -33.253  1.00  0.00    -0.176 NA
BRANCH   9  10
HETATM   10  N   UNL     1      -0.683   6.678 -31.966  1.00  0.00    -0.243 N 
HETATM   11  C   UNL     1       0.042   5.949 -31.033  1.00  0.00     0.273 C 
HETATM   12  O   UNL     1       0.622   4.891 -31.256  1.00  0.00    -0.266 OA
HETATM   13  H   UNL     1      -1.272   7.453 -31.689  1.00  0.00     0.192 HD
BRANCH  11  14
HETATM   14  C   UNL     1       0.105   6.521 -29.664  1.00  0.00     0.051 A 
HETATM   15  C   UNL     1       0.498   5.782 -28.555  1.00  0.00     0.133 A 
HETATM   16  N   UNL     1       0.553   6.273 -27.292  1.00  0.00    -0.272 NA
HETATM   17  C   UNL     1       0.173   7.559 -27.125  1.00  0.00     0.116 A 
HETATM   18  C   UNL     1      -0.259   8.374 -28.160  1.00  0.00     0.020 A 
HETATM   19  C   UNL     1      -0.295   7.842 -29.447  1.00  0.00     0.020 A 
ENDBRANCH  11  14
ENDBRANCH   9  10
ENDBRANCH   1   7
BRANCH   4  20
HETATM   20  N   UNL     1      -6.256   4.106 -30.390  1.00  0.00    -0.309 N 
HETATM   21  C   UNL     1      -7.327   3.290 -30.636  1.00  0.00     0.325 C 
HETATM   22  N   UNL     1      -7.633   3.067 -31.953  1.00  0.00    -0.309 N 
HETATM   23  O   UNL     1      -7.988   2.922 -29.668  1.00  0.00    -0.247 OA
HETATM   24  H   UNL     1      -7.089   3.593 -32.618  1.00  0.00     0.170 HD
HETATM   25  H   UNL     1      -6.307   4.482 -29.450  1.00  0.00     0.170 HD
BRANCH  22  26
HETATM   26  C   UNL     1      -8.765   2.406 -32.473  1.00  0.00     0.036 A 
HETATM   27  C   UNL     1      -8.882   1.017 -32.580  1.00  0.00     0.031 A 
HETATM   28  C   UNL     1     -10.064   0.436 -33.054  1.00  0.00     0.026 A 
HETATM   29  C   UNL     1     -11.131   1.243 -33.436  1.00  0.00     0.034 A 
HETATM   30 CL   UNL     1     -12.589   0.528 -34.004  1.00  0.00    -0.084 Cl
HETATM   31  C   UNL     1     -11.023   2.628 -33.356  1.00  0.00     0.026 A 
HETATM   32  C   UNL     1      -9.844   3.207 -32.876  1.00  0.00     0.031 A 
ENDBRANCH  22  26
ENDBRANCH   4  20
TORSDOF 5
ENDMDL
MODEL 8
REMARK VINA RESULT:      -8.0      6.536      8.532
REMARK  5 active torsions:
REMARK  status: ('A' for Active; 'I' for Inactive)
REMARK    1  A    between atoms: C_2  and  C_3 
REMARK    2  A    between atoms: C_6  and  N_7 
REMARK       I    between atoms: N_7  and  C_8 
REMARK       I    between atoms: C_8  and  N_9 
REMARK    3  A    between atoms: N_9  and  C_10 
REMARK    4  A    between atoms: N_20  and  N_21 
REMARK       I    between atoms: N_21  and  C_22 
REMARK    5  A    between atoms: C_22  and  C_23 
ROOT
HETATM    1  C   UNL     1      -7.759   0.879 -31.983  1.00  0.00    -0.010 A 
HETATM    2  C   UNL     1      -8.968   0.209 -31.776  1.00  0.00     0.016 A 
HETATM    3  C   UNL     1     -10.035   0.403 -32.662  1.00  0.00     0.030 A 
HETATM    4  C   UNL     1      -9.897   1.269 -33.753  1.00  0.00     0.036 A 
HETATM    5  C   UNL     1      -8.693   1.959 -33.933  1.00  0.00     0.030 A 
HETATM    6  C   UNL     1      -7.616   1.743 -33.071  1.00  0.00     0.016 A 
ENDROOT
BRANCH   1   7
HETATM    7  C   UNL     1      -6.613   0.675 -31.059  1.00  0.00     0.061 C 
HETATM    8  C   UNL     1      -5.744  -0.539 -31.307  1.00  0.00     0.073 C 
HETATM    9  N   UNL     1      -6.263   1.461 -30.083  1.00  0.00    -0.176 NA
BRANCH   9  10
HETATM   10  N   UNL     1      -7.064   2.512 -29.750  1.00  0.00    -0.243 N 
HETATM   11  C   UNL     1      -6.571   3.807 -29.830  1.00  0.00     0.273 C 
HETATM   12  O   UNL     1      -5.431   4.112 -30.166  1.00  0.00    -0.266 OA
HETATM   13  H   UNL     1      -7.955   2.312 -29.314  1.00  0.00     0.192 HD
BRANCH  11  14
HETATM   14  C   UNL     1      -7.523   4.891 -29.477  1.00  0.00     0.051 A 
HETATM   15  C   UNL     1      -7.435   5.618 -28.296  1.00  0.00     0.133 A 
HETATM   16  N   UNL     1      -8.297   6.603 -27.941  1.00  0.00    -0.272 NA
HETATM   17  C   UNL     1      -9.311   6.858 -28.797  1.00  0.00     0.116 A 
HETATM   18  C   UNL     1      -9.503   6.175 -29.987  1.00  0.00     0.020 A 
HETATM   19  C   UNL     1      -8.595   5.174 -30.328  1.00  0.00     0.020 A 
ENDBRANCH  11  14
ENDBRANCH   9  10
ENDBRANCH   1   7
BRANCH   4  20
HETATM   20  N   UNL     1     -10.929   1.546 -34.662  1.00  0.00    -0.309 N 
HETATM   21  C   UNL     1     -12.153   2.140 -34.524  1.00  0.00     0.325 C 
HETATM   22  N   UNL     1     -12.661   2.201 -33.253  1.00  0.00    -0.309 N 
HETATM   23  O   UNL     1     -12.741   2.464 -35.553  1.00  0.00    -0.247 OA
HETATM   24  H   UNL     1     -12.119   1.726 -32.549  1.00  0.00     0.170 HD
HETATM   25  H   UNL     1     -10.790   1.242 -35.620  1.00  0.00     0.170 HD
BRANCH  22  26
HETATM   26  C   UNL     1     -13.952   2.612 -32.860  1.00  0.00     0.036 A 
HETATM   27  C   UNL     1     -15.058   1.760 -32.787  1.00  0.00     0.031 A 
HETATM   28  C   UNL     1     -16.293   2.234 -32.330  1.00  0.00     0.026 A 
HETATM   29  C   UNL     1     -16.431   3.567 -31.956  1.00  0.00     0.034 A 
HETATM   30 CL   UNL     1     -17.946   4.145 -31.381  1.00  0.00    -0.084 Cl
HETATM   31  C   UNL     1     -15.346   4.433 -32.044  1.00  0.00     0.026 A 
HETATM   32  C   UNL     1     -14.111   3.957 -32.494  1.00  0.00     0.031 A 
ENDBRANCH  22  26
ENDBRANCH   4  20
TORSDOF 5
ENDMDL
MODEL 9
REMARK VINA RESULT:      -7.9      2.961      4.823
REMARK  5 active torsions:
REMARK  status: ('A' for Active; 'I' for Inactive)
REMARK    1  A    between atoms: C_2  and  C_3 
REMARK    2  A    between atoms: C_6  and  N_7 
REMARK       I    between atoms: N_7  and  C_8 
REMARK       I    between atoms: C_8  and  N_9 
REMARK    3  A    between atoms: N_9  and  C_10 
REMARK    4  A    between atoms: N_20  and  N_21 
REMARK       I    between atoms: N_21  and  C_22 
REMARK    5  A    between atoms: C_22  and  C_23 
ROOT
HETATM    1  C   UNL     1      -7.031   5.764 -29.655  1.00  0.00    -0.010 A 
HETATM    2  C   UNL     1      -6.550   4.519 -29.239  1.00  0.00     0.016 A 
HETATM    3  C   UNL     1      -7.183   3.346 -29.668  1.00  0.00     0.030 A 
HETATM    4  C   UNL     1      -8.300   3.415 -30.509  1.00  0.00     0.036 A 
HETATM    5  C   UNL     1      -8.793   4.666 -30.894  1.00  0.00     0.030 A 
HETATM    6  C   UNL     1      -8.145   5.837 -30.496  1.00  0.00     0.016 A 
ENDROOT
BRANCH   1   7
HETATM    7  C   UNL     1      -6.363   7.019 -29.219  1.00  0.00     0.061 C 
HETATM    8  C   UNL     1      -6.874   7.656 -27.946  1.00  0.00     0.073 C 
HETATM    9  N   UNL     1      -5.357   7.597 -29.807  1.00  0.00    -0.176 NA
BRANCH   9  10
HETATM   10  N   UNL     1      -4.922   7.126 -31.009  1.00  0.00    -0.243 N 
HETATM   11  C   UNL     1      -3.640   6.607 -31.123  1.00  0.00     0.273 C 
HETATM   12  O   UNL     1      -2.816   6.547 -30.214  1.00  0.00    -0.266 OA
HETATM   13  H   UNL     1      -5.496   7.299 -31.824  1.00  0.00     0.192 HD
BRANCH  11  14
HETATM   14  C   UNL     1      -3.261   6.089 -32.462  1.00  0.00     0.051 A 
HETATM   15  C   UNL     1      -4.162   5.994 -33.517  1.00  0.00     0.133 A 
HETATM   16  N   UNL     1      -3.849   5.514 -34.746  1.00  0.00    -0.272 NA
HETATM   17  C   UNL     1      -2.580   5.083 -34.922  1.00  0.00     0.116 A 
HETATM   18  C   UNL     1      -1.614   5.109 -33.929  1.00  0.00     0.020 A 
HETATM   19  C   UNL     1      -1.964   5.618 -32.681  1.00  0.00     0.020 A 
ENDBRANCH  11  14
ENDBRANCH   9  10
ENDBRANCH   1   7
BRANCH   4  20
HETATM   20  N   UNL     1      -9.012   2.290 -30.950  1.00  0.00    -0.309 N 
HETATM   21  C   UNL     1      -8.618   1.093 -31.485  1.00  0.00     0.325 C 
HETATM   22  N   UNL     1      -7.356   1.048 -32.014  1.00  0.00    -0.309 N 
HETATM   23  O   UNL     1      -9.461   0.201 -31.548  1.00  0.00    -0.247 OA
HETATM   24  H   UNL     1      -6.864   1.928 -32.034  1.00  0.00     0.170 HD
HETATM   25  H   UNL     1     -10.023   2.338 -30.900  1.00  0.00     0.170 HD
BRANCH  22  26
HETATM   26  C   UNL     1      -6.770   0.002 -32.758  1.00  0.00     0.036 A 
HETATM   27  C   UNL     1      -7.348  -0.571 -33.894  1.00  0.00     0.031 A 
HETATM   28  C   UNL     1      -6.674  -1.567 -34.611  1.00  0.00     0.026 A 
HETATM   29  C   UNL     1      -5.423  -2.003 -34.186  1.00  0.00     0.034 A 
HETATM   30 CL   UNL     1      -4.588  -3.216 -35.076  1.00  0.00    -0.084 Cl
HETATM   31  C   UNL     1      -4.843  -1.459 -33.045  1.00  0.00     0.026 A 
HETATM   32  C   UNL     1      -5.515  -0.459 -32.334  1.00  0.00     0.031 A 
ENDBRANCH  22  26
ENDBRANCH   4  20
TORSDOF 5
ENDMDL
MODEL 10
REMARK VINA RESULT:      -7.8      4.384      7.971
REMARK  5 active torsions:
REMARK  status: ('A' for Active; 'I' for Inactive)
REMARK    1  A    between atoms: C_2  and  C_3 
REMARK    2  A    between atoms: C_6  and  N_7 
REMARK       I    between atoms: N_7  and  C_8 
REMARK       I    between atoms: C_8  and  N_9 
REMARK    3  A    between atoms: N_9  and  C_10 
REMARK    4  A    between atoms: N_20  and  N_21 
REMARK       I    between atoms: N_21  and  C_22 
REMARK    5  A    between atoms: C_22  and  C_23 
ROOT
HETATM    1  C   UNL     1      -7.735   4.732 -30.375  1.00  0.00    -0.010 A 
HETATM    2  C   UNL     1      -6.938   5.091 -31.466  1.00  0.00     0.016 A 
HETATM    3  C   UNL     1      -5.873   4.268 -31.854  1.00  0.00     0.030 A 
HETATM    4  C   UNL     1      -5.601   3.089 -31.151  1.00  0.00     0.036 A 
HETATM    5  C   UNL     1      -6.384   2.755 -30.042  1.00  0.00     0.030 A 
HETATM    6  C   UNL     1      -7.467   3.554 -29.672  1.00  0.00     0.016 A 
ENDROOT
BRANCH   1   7
HETATM    7  C   UNL     1      -8.877   5.587 -29.957  1.00  0.00     0.061 C 
HETATM    8  C   UNL     1      -8.682   6.422 -28.711  1.00  0.00     0.073 C 
HETATM    9  N   UNL     1     -10.010   5.715 -30.582  1.00  0.00    -0.176 NA
BRANCH   9  10
HETATM   10  N   UNL     1     -10.279   4.913 -31.651  1.00  0.00    -0.243 N 
HETATM   11  C   UNL     1     -11.394   4.087 -31.629  1.00  0.00     0.273 C 
HETATM   12  O   UNL     1     -12.184   3.987 -30.694  1.00  0.00    -0.266 OA
HETATM   13  H   UNL     1      -9.578   4.834 -32.376  1.00  0.00     0.192 HD
BRANCH  11  14
HETATM   14  C   UNL     1     -11.626   3.270 -32.847  1.00  0.00     0.051 A 
HETATM   15  C   UNL     1     -12.679   3.505 -33.724  1.00  0.00     0.133 A 
HETATM   16  N   UNL     1     -12.924   2.770 -34.836  1.00  0.00    -0.272 NA
HETATM   17  C   UNL     1     -12.090   1.732 -35.071  1.00  0.00     0.116 A 
HETATM   18  C   UNL     1     -11.027   1.397 -34.247  1.00  0.00     0.020 A 
HETATM   19  C   UNL     1     -10.797   2.179 -33.117  1.00  0.00     0.020 A 
ENDBRANCH  11  14
ENDBRANCH   9  10
ENDBRANCH   1   7
BRANCH   4  20
HETATM   20  N   UNL     1      -4.532   2.233 -31.454  1.00  0.00    -0.309 N 
HETATM   21  C   UNL     1      -4.413   1.152 -32.285  1.00  0.00     0.325 C 
HETATM   22  N   UNL     1      -5.581   0.546 -32.666  1.00  0.00    -0.309 N 
HETATM   23  O   UNL     1      -3.277   0.751 -32.528  1.00  0.00    -0.247 OA
HETATM   24  H   UNL     1      -6.415   0.903 -32.229  1.00  0.00     0.170 HD
HETATM   25  H   UNL     1      -3.659   2.399 -30.965  1.00  0.00     0.170 HD
BRANCH  22  26
HETATM   26  C   UNL     1      -5.731  -0.663 -33.378  1.00  0.00     0.036 A 
HETATM   27  C   UNL     1      -4.697  -1.576 -33.599  1.00  0.00     0.031 A 
HETATM   28  C   UNL     1      -4.942  -2.783 -34.265  1.00  0.00     0.026 A 
HETATM   29  C   UNL     1      -6.223  -3.075 -34.725  1.00  0.00     0.034 A 
HETATM   30 CL   UNL     1      -6.526  -4.564 -35.531  1.00  0.00    -0.084 Cl
HETATM   31  C   UNL     1      -7.258  -2.167 -34.532  1.00  0.00     0.026 A 
HETATM   32  C   UNL     1      -7.013  -0.965 -33.860  1.00  0.00     0.031 A 
ENDBRANCH  22  26
ENDBRANCH   4  20
TORSDOF 5
ENDMDL
