MODEL 1
REMARK VINA RESULT:      -8.6      0.000      0.000
REMARK  5 active torsions:
REMARK  status: ('A' for Active; 'I' for Inactive)
REMARK    1  A    between atoms: C_4  and  N_5 
REMARK    2  A    between atoms: C_9  and  C_10 
REMARK    3  A    between atoms: C_13  and  O_14 
REMARK    4  A    between atoms: C_17  and  C_18 
REMARK       I    between atoms: C_18  and  N_19 
REMARK    5  A    between atoms: N_19  and  C_20 
ROOT
HETATM    1  N   UNL     1      -9.185   3.245 -32.276  1.00  0.00    -0.292 N 
HETATM    2  C   UNL     1      -8.647   4.006 -31.214  1.00  0.00     0.179 C 
HETATM    3  S   UNL     1      -9.296   5.372 -30.475  1.00  0.00    -0.040 SA
HETATM    4  N   UNL     1      -7.475   3.565 -30.675  1.00  0.00    -0.354 N 
HETATM    5  C   UNL     1      -6.615   2.544 -31.222  1.00  0.00     0.158 C 
HETATM    6  C   UNL     1      -7.374   1.689 -32.183  1.00  0.00     0.060 C 
HETATM    7  C   UNL     1      -8.575   2.036 -32.699  1.00  0.00     0.030 C 
HETATM    8  C   UNL     1      -9.312   1.172 -33.705  1.00  0.00     0.070 C 
HETATM    9  H   UNL     1      -7.101   4.135 -29.926  1.00  0.00     0.163 HD
ENDROOT
BRANCH   6  10
HETATM   10  C   UNL     1      -6.765   0.337 -32.350  1.00  0.00     0.257 C 
HETATM   11  N   UNL     1      -6.181   0.118 -33.572  1.00  0.00    -0.306 N 
HETATM   12  H   UNL     1      -6.108   0.878 -34.231  1.00  0.00     0.170 HD
HETATM   13  O   UNL     1      -6.807  -0.434 -31.397  1.00  0.00    -0.267 OA
BRANCH  11  14
HETATM   14  C   UNL     1      -5.854  -1.144 -34.036  1.00  0.00     0.160 A 
HETATM   15  N   UNL     1      -4.659  -1.733 -33.920  1.00  0.00    -0.110 NA
HETATM   16  O   UNL     1      -4.799  -3.009 -34.419  1.00  0.00    -0.216 OA
HETATM   17  C   UNL     1      -6.079  -3.194 -34.831  1.00  0.00     0.078 A 
HETATM   18  C   UNL     1      -6.414  -4.536 -35.335  1.00  0.00     0.079 C 
HETATM   19  C   UNL     1      -6.781  -2.029 -34.645  1.00  0.00     0.087 A 
ENDBRANCH  11  14
ENDBRANCH   6  10
BRANCH   5  20
HETATM   20  C   UNL     1      -5.379   3.174 -31.851  1.00  0.00    -0.031 A 
HETATM   21  C   UNL     1      -4.120   2.997 -31.251  1.00  0.00     0.012 A 
HETATM   22  C   UNL     1      -2.975   3.578 -31.804  1.00  0.00     0.037 A 
HETATM   23  C   UNL     1      -3.084   4.335 -32.966  1.00  0.00     0.065 A 
HETATM   24  C   UNL     1      -4.314   4.511 -33.587  1.00  0.00     0.037 A 
HETATM   25  C   UNL     1      -5.457   3.933 -33.034  1.00  0.00     0.012 A 
BRANCH  23  26
HETATM   26  O   UNL     1      -1.996   4.927 -33.535  1.00  0.00    -0.361 OA
HETATM   27  H   UNL     1      -1.379   4.233 -33.819  1.00  0.00     0.217 HD
ENDBRANCH  23  26
ENDBRANCH   5  20
BRANCH   1  28
HETATM   28  C   UNL     1     -10.426   3.691 -32.852  1.00  0.00     0.048 A 
HETATM   29  C   UNL     1     -11.617   3.149 -32.334  1.00  0.00     0.037 A 
HETATM   30  C   UNL     1     -12.863   3.518 -32.852  1.00  0.00    -0.060 A 
HETATM   31  C   UNL     1     -14.121   2.906 -32.309  1.00  0.00     0.048 C 
HETATM   32  C   UNL     1     -12.917   4.486 -33.856  1.00  0.00     0.007 A 
HETATM   33  C   UNL     1     -11.740   5.031 -34.376  1.00  0.00     0.009 A 
HETATM   34  C   UNL     1     -10.481   4.624 -33.906  1.00  0.00    -0.035 A 
HETATM   35  C   UNL     1      -9.265   5.202 -34.572  1.00  0.00     0.050 C 
ENDBRANCH   1  28
TORSDOF 5
ENDMDL
MODEL 2
REMARK VINA RESULT:      -8.4      2.614      6.335
REMARK  5 active torsions:
REMARK  status: ('A' for Active; 'I' for Inactive)
REMARK    1  A    between atoms: C_4  and  N_5 
REMARK    2  A    between atoms: C_9  and  C_10 
REMARK    3  A    between atoms: C_13  and  O_14 
REMARK    4  A    between atoms: C_17  and  C_18 
REMARK       I    between atoms: C_18  and  N_19 
REMARK    5  A    between atoms: N_19  and  C_20 
ROOT
HETATM    1  N   UNL     1      -4.420   3.575 -32.407  1.00  0.00    -0.292 N 
HETATM    2  C   UNL     1      -5.026   4.112 -33.565  1.00  0.00     0.179 C 
HETATM    3  S   UNL     1      -4.889   5.670 -34.188  1.00  0.00    -0.040 SA
HETATM    4  N   UNL     1      -5.786   3.261 -34.311  1.00  0.00    -0.354 N 
HETATM    5  C   UNL     1      -6.220   1.942 -33.922  1.00  0.00     0.158 C 
HETATM    6  C   UNL     1      -5.360   1.418 -32.820  1.00  0.00     0.060 C 
HETATM    7  C   UNL     1      -4.530   2.197 -32.089  1.00  0.00     0.030 C 
HETATM    8  C   UNL     1      -3.694   1.653 -30.947  1.00  0.00     0.070 C 
HETATM    9  H   UNL     1      -6.223   3.672 -35.127  1.00  0.00     0.163 HD
ENDROOT
BRANCH   6  10
HETATM   10  C   UNL     1      -5.363  -0.073 -32.751  1.00  0.00     0.257 C 
HETATM   11  N   UNL     1      -4.558  -0.691 -33.674  1.00  0.00    -0.306 N 
HETATM   12  H   UNL     1      -3.957  -0.134 -34.262  1.00  0.00     0.170 HD
HETATM   13  O   UNL     1      -6.039  -0.607 -31.878  1.00  0.00    -0.267 OA
BRANCH  11  14
HETATM   14  C   UNL     1      -4.662  -2.036 -33.985  1.00  0.00     0.160 A 
HETATM   15  N   UNL     1      -3.931  -3.020 -33.450  1.00  0.00    -0.110 NA
HETATM   16  O   UNL     1      -4.427  -4.200 -33.959  1.00  0.00    -0.216 OA
HETATM   17  C   UNL     1      -5.462  -3.931 -34.796  1.00  0.00     0.078 A 
HETATM   18  C   UNL     1      -6.149  -5.095 -35.377  1.00  0.00     0.079 C 
HETATM   19  C   UNL     1      -5.628  -2.570 -34.876  1.00  0.00     0.087 A 
ENDBRANCH  11  14
ENDBRANCH   6  10
BRANCH   5  20
HETATM   20  C   UNL     1      -7.698   1.959 -33.552  1.00  0.00    -0.031 A 
HETATM   21  C   UNL     1      -8.630   1.284 -34.360  1.00  0.00     0.012 A 
HETATM   22  C   UNL     1      -9.993   1.299 -34.045  1.00  0.00     0.037 A 
HETATM   23  C   UNL     1     -10.427   1.983 -32.916  1.00  0.00     0.065 A 
HETATM   24  C   UNL     1      -9.525   2.644 -32.093  1.00  0.00     0.037 A 
HETATM   25  C   UNL     1      -8.165   2.631 -32.408  1.00  0.00     0.012 A 
BRANCH  23  26
HETATM   26  O   UNL     1     -11.747   2.032 -32.577  1.00  0.00    -0.361 OA
HETATM   27  H   UNL     1     -11.974   1.218 -32.099  1.00  0.00     0.217 HD
ENDBRANCH  23  26
ENDBRANCH   5  20
BRANCH   1  28
HETATM   28  C   UNL     1      -3.608   4.457 -31.611  1.00  0.00     0.048 A 
HETATM   29  C   UNL     1      -2.221   4.464 -31.855  1.00  0.00     0.037 A 
HETATM   30  C   UNL     1      -1.361   5.280 -31.111  1.00  0.00    -0.060 A 
HETATM   31  C   UNL     1       0.117   5.251 -31.362  1.00  0.00     0.048 C 
HETATM   32  C   UNL     1      -1.906   6.143 -30.159  1.00  0.00     0.007 A 
HETATM   33  C   UNL     1      -3.281   6.145 -29.911  1.00  0.00     0.009 A 
HETATM   34  C   UNL     1      -4.146   5.286 -30.608  1.00  0.00    -0.035 A 
HETATM   35  C   UNL     1      -5.600   5.296 -30.226  1.00  0.00     0.050 C 
ENDBRANCH   1  28
TORSDOF 5
ENDMDL
MODEL 3
REMARK VINA RESULT:      -8.3      1.390      2.121
REMARK  5 active torsions:
REMARK  status: ('A' for Active; 'I' for Inactive)
REMARK    1  A    between atoms: C_4  and  N_5 
REMARK    2  A    between atoms: C_9  and  C_10 
REMARK    3  A    between atoms: C_13  and  O_14 
REMARK    4  A    between atoms: C_17  and  C_18 
REMARK       I    between atoms: C_18  and  N_19 
REMARK    5  A    between atoms: N_19  and  C_20 
ROOT
HETATM    1  N   UNL     1      -8.329   4.499 -32.387  1.00  0.00    -0.292 N 
HETATM    2  C   UNL     1      -7.521   5.371 -31.622  1.00  0.00     0.179 C 
HETATM    3  S   UNL     1      -7.908   6.897 -31.025  1.00  0.00    -0.040 SA
HETATM    4  N   UNL     1      -6.284   4.916 -31.273  1.00  0.00    -0.354 N 
HETATM    5  C   UNL     1      -5.631   3.741 -31.795  1.00  0.00     0.158 C 
HETATM    6  C   UNL     1      -6.635   2.815 -32.398  1.00  0.00     0.060 C 
HETATM    7  C   UNL     1      -7.900   3.184 -32.700  1.00  0.00     0.030 C 
HETATM    8  C   UNL     1      -8.893   2.240 -33.349  1.00  0.00     0.070 C 
HETATM    9  H   UNL     1      -5.718   5.564 -30.740  1.00  0.00     0.163 HD
ENDROOT
BRANCH   6  10
HETATM   10  C   UNL     1      -6.157   1.402 -32.440  1.00  0.00     0.257 C 
HETATM   11  N   UNL     1      -5.829   0.944 -33.691  1.00  0.00    -0.306 N 
HETATM   12  H   UNL     1      -5.833   1.583 -34.471  1.00  0.00     0.170 HD
HETATM   13  O   UNL     1      -6.068   0.793 -31.379  1.00  0.00    -0.267 OA
BRANCH  11  14
HETATM   14  C   UNL     1      -5.678  -0.400 -33.987  1.00  0.00     0.160 A 
HETATM   15  N   UNL     1      -4.586  -1.134 -33.747  1.00  0.00    -0.110 NA
HETATM   16  O   UNL     1      -4.898  -2.429 -34.097  1.00  0.00    -0.216 OA
HETATM   17  C   UNL     1      -6.179  -2.480 -34.543  1.00  0.00     0.078 A 
HETATM   18  C   UNL     1      -6.693  -3.813 -34.899  1.00  0.00     0.079 C 
HETATM   19  C   UNL     1      -6.707  -1.212 -34.528  1.00  0.00     0.087 A 
ENDBRANCH  11  14
ENDBRANCH   6  10
BRANCH   5  20
HETATM   20  C   UNL     1      -4.536   4.136 -32.778  1.00  0.00    -0.031 A 
HETATM   21  C   UNL     1      -3.186   3.939 -32.439  1.00  0.00     0.012 A 
HETATM   22  C   UNL     1      -2.165   4.307 -33.322  1.00  0.00     0.037 A 
HETATM   23  C   UNL     1      -2.492   4.869 -34.551  1.00  0.00     0.065 A 
HETATM   24  C   UNL     1      -3.819   5.059 -34.915  1.00  0.00     0.037 A 
HETATM   25  C   UNL     1      -4.838   4.693 -34.034  1.00  0.00     0.012 A 
BRANCH  23  26
HETATM   26  O   UNL     1      -1.530   5.252 -35.438  1.00  0.00    -0.361 OA
HETATM   27  H   UNL     1      -0.677   5.280 -34.975  1.00  0.00     0.217 HD
ENDBRANCH  23  26
ENDBRANCH   5  20
BRANCH   1  28
HETATM   28  C   UNL     1      -9.641   4.960 -32.756  1.00  0.00     0.048 A 
HETATM   29  C   UNL     1      -9.764   5.681 -33.959  1.00  0.00     0.037 A 
HETATM   30  C   UNL     1     -11.002   6.179 -34.379  1.00  0.00    -0.060 A 
HETATM   31  C   UNL     1     -11.109   6.972 -35.648  1.00  0.00     0.048 C 
HETATM   32  C   UNL     1     -12.136   5.897 -33.616  1.00  0.00     0.007 A 
HETATM   33  C   UNL     1     -12.025   5.182 -32.421  1.00  0.00     0.009 A 
HETATM   34  C   UNL     1     -10.778   4.730 -31.959  1.00  0.00    -0.035 A 
HETATM   35  C   UNL     1     -10.736   4.036 -30.626  1.00  0.00     0.050 C 
ENDBRANCH   1  28
TORSDOF 5
ENDMDL
MODEL 4
REMARK VINA RESULT:      -8.3      3.589      7.430
REMARK  5 active torsions:
REMARK  status: ('A' for Active; 'I' for Inactive)
REMARK    1  A    between atoms: C_4  and  N_5 
REMARK    2  A    between atoms: C_9  and  C_10 
REMARK    3  A    between atoms: C_13  and  O_14 
REMARK    4  A    between atoms: C_17  and  C_18 
REMARK       I    between atoms: C_18  and  N_19 
REMARK    5  A    between atoms: N_19  and  C_20 
ROOT
HETATM    1  N   UNL     1      -7.927   1.973 -33.255  1.00  0.00    -0.292 N 
HETATM    2  C   UNL     1      -7.305   3.201 -33.576  1.00  0.00     0.179 C 
HETATM    3  S   UNL     1      -5.662   3.522 -33.752  1.00  0.00    -0.040 SA
HETATM    4  N   UNL     1      -8.127   4.260 -33.823  1.00  0.00    -0.354 N 
HETATM    5  C   UNL     1      -9.545   4.316 -33.568  1.00  0.00     0.158 C 
HETATM    6  C   UNL     1     -10.105   2.937 -33.449  1.00  0.00     0.060 C 
HETATM    7  C   UNL     1      -9.339   1.836 -33.275  1.00  0.00     0.030 C 
HETATM    8  C   UNL     1      -9.929   0.448 -33.117  1.00  0.00     0.070 C 
HETATM    9  H   UNL     1      -7.658   5.132 -34.035  1.00  0.00     0.163 HD
ENDROOT
BRANCH   6  10
HETATM   10  C   UNL     1     -11.566   2.885 -33.745  1.00  0.00     0.257 C 
HETATM   11  N   UNL     1     -12.376   2.867 -32.637  1.00  0.00    -0.306 N 
HETATM   12  H   UNL     1     -11.968   2.984 -31.722  1.00  0.00     0.170 HD
HETATM   13  O   UNL     1     -11.916   2.896 -34.920  1.00  0.00    -0.267 OA
BRANCH  11  14
HETATM   14  C   UNL     1     -13.711   2.503 -32.683  1.00  0.00     0.160 A 
HETATM   15  N   UNL     1     -14.188   1.346 -33.152  1.00  0.00    -0.110 NA
HETATM   16  O   UNL     1     -15.545   1.356 -32.916  1.00  0.00    -0.216 OA
HETATM   17  C   UNL     1     -15.887   2.515 -32.299  1.00  0.00     0.078 A 
HETATM   18  C   UNL     1     -17.302   2.657 -31.916  1.00  0.00     0.079 C 
HETATM   19  C   UNL     1     -14.765   3.295 -32.161  1.00  0.00     0.087 A 
ENDBRANCH  11  14
ENDBRANCH   6  10
BRANCH   5  20
HETATM   20  C   UNL     1      -9.828   5.169 -32.338  1.00  0.00    -0.031 A 
HETATM   21  C   UNL     1      -9.167   4.894 -31.128  1.00  0.00     0.012 A 
HETATM   22  C   UNL     1      -9.422   5.656 -29.983  1.00  0.00     0.037 A 
HETATM   23  C   UNL     1     -10.335   6.702 -30.047  1.00  0.00     0.065 A 
HETATM   24  C   UNL     1     -10.989   7.005 -31.234  1.00  0.00     0.037 A 
HETATM   25  C   UNL     1     -10.736   6.243 -32.376  1.00  0.00     0.012 A 
BRANCH  23  26
HETATM   26  O   UNL     1     -10.622   7.465 -28.954  1.00  0.00    -0.361 OA
HETATM   27  H   UNL     1     -10.782   8.378 -29.247  1.00  0.00     0.217 HD
ENDBRANCH  23  26
ENDBRANCH   5  20
BRANCH   1  28
HETATM   28  C   UNL     1      -7.075   0.842 -32.999  1.00  0.00     0.048 A 
HETATM   29  C   UNL     1      -6.855  -0.061 -34.057  1.00  0.00     0.037 A 
HETATM   30  C   UNL     1      -6.054  -1.195 -33.882  1.00  0.00    -0.060 A 
HETATM   31  C   UNL     1      -5.856  -2.163 -35.011  1.00  0.00     0.048 C 
HETATM   32  C   UNL     1      -5.419  -1.390 -32.655  1.00  0.00     0.007 A 
HETATM   33  C   UNL     1      -5.630  -0.499 -31.600  1.00  0.00     0.009 A 
HETATM   34  C   UNL     1      -6.480   0.609 -31.745  1.00  0.00    -0.035 A 
HETATM   35  C   UNL     1      -6.713   1.475 -30.538  1.00  0.00     0.050 C 
ENDBRANCH   1  28
TORSDOF 5
ENDMDL
MODEL 5
REMARK VINA RESULT:      -8.2      1.896      2.120
REMARK  5 active torsions:
REMARK  status: ('A' for Active; 'I' for Inactive)
REMARK    1  A    between atoms: C_4  and  N_5 
REMARK    2  A    between atoms: C_9  and  C_10 
REMARK    3  A    between atoms: C_13  and  O_14 
REMARK    4  A    between atoms: C_17  and  C_18 
REMARK       I    between atoms: C_18  and  N_19 
REMARK    5  A    between atoms: N_19  and  C_20 
ROOT
HETATM    1  N   UNL     1      -9.142   2.194 -32.972  1.00  0.00    -0.292 N 
HETATM    2  C   UNL     1      -9.073   2.812 -31.703  1.00  0.00     0.179 C 
HETATM    3  S   UNL     1     -10.310   3.554 -30.835  1.00  0.00    -0.040 SA
HETATM    4  N   UNL     1      -7.870   2.770 -31.064  1.00  0.00    -0.354 N 
HETATM    5  C   UNL     1      -6.611   2.368 -31.642  1.00  0.00     0.158 C 
HETATM    6  C   UNL     1      -6.843   1.552 -32.871  1.00  0.00     0.060 C 
HETATM    7  C   UNL     1      -8.032   1.493 -33.511  1.00  0.00     0.030 C 
HETATM    8  C   UNL     1      -8.238   0.689 -34.781  1.00  0.00     0.070 C 
HETATM    9  H   UNL     1      -7.841   3.233 -30.163  1.00  0.00     0.163 HD
ENDROOT
BRANCH   6  10
HETATM   10  C   UNL     1      -5.690   0.660 -33.191  1.00  0.00     0.257 C 
HETATM   11  N   UNL     1      -5.976  -0.682 -33.155  1.00  0.00    -0.306 N 
HETATM   12  H   UNL     1      -6.929  -0.983 -33.017  1.00  0.00     0.170 HD
HETATM   13  O   UNL     1      -4.621   1.184 -33.484  1.00  0.00    -0.267 OA
BRANCH  11  14
HETATM   14  C   UNL     1      -4.999  -1.661 -33.104  1.00  0.00     0.160 A 
HETATM   15  N   UNL     1      -4.058  -1.776 -32.161  1.00  0.00    -0.110 NA
HETATM   16  O   UNL     1      -3.367  -2.936 -32.434  1.00  0.00    -0.216 OA
HETATM   17  C   UNL     1      -3.893  -3.525 -33.538  1.00  0.00     0.078 A 
HETATM   18  C   UNL     1      -3.306  -4.817 -33.930  1.00  0.00     0.079 C 
HETATM   19  C   UNL     1      -4.908  -2.737 -34.024  1.00  0.00     0.087 A 
ENDBRANCH  11  14
ENDBRANCH   6  10
BRANCH   5  20
HETATM   20  C   UNL     1      -5.737   3.587 -31.907  1.00  0.00    -0.031 A 
HETATM   21  C   UNL     1      -6.064   4.470 -32.951  1.00  0.00     0.012 A 
HETATM   22  C   UNL     1      -5.267   5.588 -33.220  1.00  0.00     0.037 A 
HETATM   23  C   UNL     1      -4.142   5.830 -32.440  1.00  0.00     0.065 A 
HETATM   24  C   UNL     1      -3.807   4.982 -31.393  1.00  0.00     0.037 A 
HETATM   25  C   UNL     1      -4.601   3.866 -31.125  1.00  0.00     0.012 A 
BRANCH  23  26
HETATM   26  O   UNL     1      -3.332   6.902 -32.672  1.00  0.00    -0.361 OA
HETATM   27  H   UNL     1      -3.651   7.365 -33.463  1.00  0.00     0.217 HD
ENDBRANCH  23  26
ENDBRANCH   5  20
BRANCH   1  28
HETATM   28  C   UNL     1     -10.406   2.222 -33.657  1.00  0.00     0.048 A 
HETATM   29  C   UNL     1     -11.286   1.142 -33.448  1.00  0.00     0.037 A 
HETATM   30  C   UNL     1     -12.526   1.086 -34.092  1.00  0.00    -0.060 A 
HETATM   31  C   UNL     1     -13.437  -0.088 -33.881  1.00  0.00     0.048 C 
HETATM   32  C   UNL     1     -12.914   2.152 -34.904  1.00  0.00     0.007 A 
HETATM   33  C   UNL     1     -12.049   3.229 -35.118  1.00  0.00     0.009 A 
HETATM   34  C   UNL     1     -10.777   3.267 -34.525  1.00  0.00    -0.035 A 
HETATM   35  C   UNL     1      -9.879   4.423 -34.868  1.00  0.00     0.050 C 
ENDBRANCH   1  28
TORSDOF 5
ENDMDL
MODEL 6
REMARK VINA RESULT:      -8.2      2.807      6.508
REMARK  5 active torsions:
REMARK  status: ('A' for Active; 'I' for Inactive)
REMARK    1  A    between atoms: C_4  and  N_5 
REMARK    2  A    between atoms: C_9  and  C_10 
REMARK    3  A    between atoms: C_13  and  O_14 
REMARK    4  A    between atoms: C_17  and  C_18 
REMARK       I    between atoms: C_18  and  N_19 
REMARK    5  A    between atoms: N_19  and  C_20 
ROOT
HETATM    1  N   UNL     1      -6.250   2.834 -32.360  1.00  0.00    -0.292 N 
HETATM    2  C   UNL     1      -5.860   1.904 -31.370  1.00  0.00     0.179 C 
HETATM    3  S   UNL     1      -4.690   2.084 -30.173  1.00  0.00    -0.040 SA
HETATM    4  N   UNL     1      -6.538   0.722 -31.336  1.00  0.00    -0.354 N 
HETATM    5  C   UNL     1      -7.448   0.232 -32.342  1.00  0.00     0.158 C 
HETATM    6  C   UNL     1      -7.936   1.359 -33.193  1.00  0.00     0.060 C 
HETATM    7  C   UNL     1      -7.351   2.578 -33.218  1.00  0.00     0.030 C 
HETATM    8  C   UNL     1      -7.837   3.698 -34.118  1.00  0.00     0.070 C 
HETATM    9  H   UNL     1      -6.230   0.066 -30.629  1.00  0.00     0.163 HD
ENDROOT
BRANCH   6  10
HETATM   10  C   UNL     1      -9.243   1.059 -33.846  1.00  0.00     0.257 C 
HETATM   11  N   UNL     1     -10.327   1.101 -33.006  1.00  0.00    -0.306 N 
HETATM   12  H   UNL     1     -10.207   1.413 -32.055  1.00  0.00     0.170 HD
HETATM   13  O   UNL     1      -9.246   0.838 -35.053  1.00  0.00    -0.267 OA
BRANCH  11  14
HETATM   14  C   UNL     1     -11.556   0.552 -33.332  1.00  0.00     0.160 A 
HETATM   15  N   UNL     1     -11.944  -0.701 -33.072  1.00  0.00    -0.110 NA
HETATM   16  O   UNL     1     -13.260  -0.795 -33.467  1.00  0.00    -0.216 OA
HETATM   17  C   UNL     1     -13.670   0.402 -33.960  1.00  0.00     0.078 A 
HETATM   18  C   UNL     1     -15.081   0.490 -34.369  1.00  0.00     0.079 C 
HETATM   19  C   UNL     1     -12.615   1.281 -33.930  1.00  0.00     0.087 A 
ENDBRANCH  11  14
ENDBRANCH   6  10
BRANCH   5  20
HETATM   20  C   UNL     1      -6.790  -0.873 -33.159  1.00  0.00    -0.031 A 
HETATM   21  C   UNL     1      -7.587  -1.817 -33.830  1.00  0.00     0.012 A 
HETATM   22  C   UNL     1      -7.002  -2.847 -34.574  1.00  0.00     0.037 A 
HETATM   23  C   UNL     1      -5.617  -2.933 -34.654  1.00  0.00     0.065 A 
HETATM   24  C   UNL     1      -4.808  -2.003 -34.014  1.00  0.00     0.037 A 
HETATM   25  C   UNL     1      -5.391  -0.976 -33.270  1.00  0.00     0.012 A 
BRANCH  23  26
HETATM   26  O   UNL     1      -5.004  -3.926 -35.360  1.00  0.00    -0.361 OA
HETATM   27  H   UNL     1      -4.770  -4.642 -34.747  1.00  0.00     0.217 HD
ENDBRANCH  23  26
ENDBRANCH   5  20
BRANCH   1  28
HETATM   28  C   UNL     1      -5.551   4.090 -32.406  1.00  0.00     0.048 A 
HETATM   29  C   UNL     1      -4.423   4.179 -33.244  1.00  0.00     0.037 A 
HETATM   30  C   UNL     1      -3.678   5.360 -33.329  1.00  0.00    -0.060 A 
HETATM   31  C   UNL     1      -2.461   5.427 -34.203  1.00  0.00     0.048 C 
HETATM   32  C   UNL     1      -4.105   6.481 -32.616  1.00  0.00     0.007 A 
HETATM   33  C   UNL     1      -5.224   6.403 -31.781  1.00  0.00     0.009 A 
HETATM   34  C   UNL     1      -5.943   5.206 -31.641  1.00  0.00    -0.035 A 
HETATM   35  C   UNL     1      -7.087   5.187 -30.665  1.00  0.00     0.050 C 
ENDBRANCH   1  28
TORSDOF 5
ENDMDL
MODEL 7
REMARK VINA RESULT:      -8.1      3.604      7.620
REMARK  5 active torsions:
REMARK  status: ('A' for Active; 'I' for Inactive)
REMARK    1  A    between atoms: C_4  and  N_5 
REMARK    2  A    between atoms: C_9  and  C_10 
REMARK    3  A    between atoms: C_13  and  O_14 
REMARK    4  A    between atoms: C_17  and  C_18 
REMARK       I    between atoms: C_18  and  N_19 
REMARK    5  A    between atoms: N_19  and  C_20 
ROOT
HETATM    1  N   UNL     1      -5.996   1.929 -31.960  1.00  0.00    -0.292 N 
HETATM    2  C   UNL     1      -5.932   1.708 -30.566  1.00  0.00     0.179 C 
HETATM    3  S   UNL     1      -6.165   0.267 -29.726  1.00  0.00    -0.040 SA
HETATM    4  N   UNL     1      -5.596   2.776 -29.789  1.00  0.00    -0.354 N 
HETATM    5  C   UNL     1      -5.524   4.152 -30.216  1.00  0.00     0.158 C 
HETATM    6  C   UNL     1      -5.393   4.227 -31.702  1.00  0.00     0.060 C 
HETATM    7  C   UNL     1      -5.642   3.182 -32.524  1.00  0.00     0.030 C 
HETATM    8  C   UNL     1      -5.542   3.289 -34.033  1.00  0.00     0.070 C 
HETATM    9  H   UNL     1      -5.573   2.597 -28.792  1.00  0.00     0.163 HD
ENDROOT
BRANCH   6  10
HETATM   10  C   UNL     1      -4.768   5.502 -32.157  1.00  0.00     0.257 C 
HETATM   11  N   UNL     1      -3.526   5.753 -31.630  1.00  0.00    -0.306 N 
HETATM   12  H   UNL     1      -3.076   5.050 -31.064  1.00  0.00     0.170 HD
HETATM   13  O   UNL     1      -5.382   6.188 -32.968  1.00  0.00    -0.267 OA
BRANCH  11  14
HETATM   14  C   UNL     1      -2.927   7.000 -31.668  1.00  0.00     0.160 A 
HETATM   15  N   UNL     1      -2.220   7.495 -32.689  1.00  0.00    -0.110 NA
HETATM   16  O   UNL     1      -1.899   8.792 -32.354  1.00  0.00    -0.216 OA
HETATM   17  C   UNL     1      -2.419   9.084 -31.133  1.00  0.00     0.078 A 
HETATM   18  C   UNL     1      -2.220  10.461 -30.653  1.00  0.00     0.079 C 
HETATM   19  C   UNL     1      -3.049   7.968 -30.639  1.00  0.00     0.087 A 
ENDBRANCH  11  14
ENDBRANCH   6  10
BRANCH   5  20
HETATM   20  C   UNL     1      -6.726   4.931 -29.696  1.00  0.00    -0.031 A 
HETATM   21  C   UNL     1      -7.979   4.781 -30.316  1.00  0.00     0.012 A 
HETATM   22  C   UNL     1      -9.092   5.498 -29.863  1.00  0.00     0.037 A 
HETATM   23  C   UNL     1      -8.956   6.361 -28.782  1.00  0.00     0.065 A 
HETATM   24  C   UNL     1      -7.733   6.514 -28.142  1.00  0.00     0.037 A 
HETATM   25  C   UNL     1      -6.622   5.801 -28.595  1.00  0.00     0.012 A 
BRANCH  23  26
HETATM   26  O   UNL     1     -10.012   7.086 -28.313  1.00  0.00    -0.361 OA
HETATM   27  H   UNL     1      -9.682   7.725 -27.659  1.00  0.00     0.217 HD
ENDBRANCH  23  26
ENDBRANCH   5  20
BRANCH   1  28
HETATM   28  C   UNL     1      -6.342   0.811 -32.796  1.00  0.00     0.048 A 
HETATM   29  C   UNL     1      -5.320  -0.104 -33.118  1.00  0.00     0.037 A 
HETATM   30  C   UNL     1      -5.572  -1.207 -33.940  1.00  0.00    -0.060 A 
HETATM   31  C   UNL     1      -4.465  -2.154 -34.298  1.00  0.00     0.048 C 
HETATM   32  C   UNL     1      -6.874  -1.429 -34.392  1.00  0.00     0.007 A 
HETATM   33  C   UNL     1      -7.895  -0.528 -34.077  1.00  0.00     0.009 A 
HETATM   34  C   UNL     1      -7.641   0.616 -33.303  1.00  0.00    -0.035 A 
HETATM   35  C   UNL     1      -8.777   1.573 -33.076  1.00  0.00     0.050 C 
ENDBRANCH   1  28
TORSDOF 5
ENDMDL
MODEL 8
REMARK VINA RESULT:      -7.9      4.164      7.925
REMARK  5 active torsions:
REMARK  status: ('A' for Active; 'I' for Inactive)
REMARK    1  A    between atoms: C_4  and  N_5 
REMARK    2  A    between atoms: C_9  and  C_10 
REMARK    3  A    between atoms: C_13  and  O_14 
REMARK    4  A    between atoms: C_17  and  C_18 
REMARK       I    between atoms: C_18  and  N_19 
REMARK    5  A    between atoms: N_19  and  C_20 
ROOT
HETATM    1  N   UNL     1      -4.859   2.204 -31.610  1.00  0.00    -0.292 N 
HETATM    2  C   UNL     1      -5.566   2.161 -30.387  1.00  0.00     0.179 C 
HETATM    3  S   UNL     1      -6.531   0.921 -29.783  1.00  0.00    -0.040 SA
HETATM    4  N   UNL     1      -5.423   3.232 -29.557  1.00  0.00    -0.354 N 
HETATM    5  C   UNL     1      -4.815   4.496 -29.893  1.00  0.00     0.158 C 
HETATM    6  C   UNL     1      -3.936   4.345 -31.091  1.00  0.00     0.060 C 
HETATM    7  C   UNL     1      -3.978   3.273 -31.914  1.00  0.00     0.030 C 
HETATM    8  C   UNL     1      -3.105   3.157 -33.148  1.00  0.00     0.070 C 
HETATM    9  H   UNL     1      -5.951   3.186 -28.694  1.00  0.00     0.163 HD
ENDROOT
BRANCH   6  10
HETATM   10  C   UNL     1      -2.879   5.396 -31.161  1.00  0.00     0.257 C 
HETATM   11  N   UNL     1      -1.682   5.046 -30.588  1.00  0.00    -0.306 N 
HETATM   12  H   UNL     1      -1.550   4.104 -30.251  1.00  0.00     0.170 HD
HETATM   13  O   UNL     1      -3.148   6.445 -31.737  1.00  0.00    -0.267 OA
BRANCH  11  14
HETATM   14  C   UNL     1      -0.701   5.967 -30.267  1.00  0.00     0.160 A 
HETATM   15  N   UNL     1       0.076   6.616 -31.140  1.00  0.00    -0.110 NA
HETATM   16  O   UNL     1       0.833   7.505 -30.409  1.00  0.00    -0.216 OA
HETATM   17  C   UNL     1       0.509   7.398 -29.095  1.00  0.00     0.078 A 
HETATM   18  C   UNL     1       1.187   8.331 -28.179  1.00  0.00     0.079 C 
HETATM   19  C   UNL     1      -0.433   6.410 -28.947  1.00  0.00     0.087 A 
ENDBRANCH  11  14
ENDBRANCH   6  10
BRANCH   5  20
HETATM   20  C   UNL     1      -5.885   5.564 -30.085  1.00  0.00    -0.031 A 
HETATM   21  C   UNL     1      -6.670   5.567 -31.251  1.00  0.00     0.012 A 
HETATM   22  C   UNL     1      -7.648   6.546 -31.452  1.00  0.00     0.037 A 
HETATM   23  C   UNL     1      -7.849   7.523 -30.484  1.00  0.00     0.065 A 
HETATM   24  C   UNL     1      -7.097   7.532 -29.316  1.00  0.00     0.037 A 
HETATM   25  C   UNL     1      -6.120   6.556 -29.115  1.00  0.00     0.012 A 
BRANCH  23  26
HETATM   26  O   UNL     1      -8.785   8.502 -30.643  1.00  0.00    -0.361 OA
HETATM   27  H   UNL     1      -9.363   8.260 -31.385  1.00  0.00     0.217 HD
ENDBRANCH  23  26
ENDBRANCH   5  20
BRANCH   1  28
HETATM   28  C   UNL     1      -4.992   1.077 -32.495  1.00  0.00     0.048 A 
HETATM   29  C   UNL     1      -6.023   1.119 -33.453  1.00  0.00     0.037 A 
HETATM   30  C   UNL     1      -6.230   0.056 -34.338  1.00  0.00    -0.060 A 
HETATM   31  C   UNL     1      -7.352   0.103 -35.332  1.00  0.00     0.048 C 
HETATM   32  C   UNL     1      -5.355  -1.032 -34.303  1.00  0.00     0.007 A 
HETATM   33  C   UNL     1      -4.328  -1.082 -33.356  1.00  0.00     0.009 A 
HETATM   34  C   UNL     1      -4.149  -0.048 -32.423  1.00  0.00    -0.035 A 
HETATM   35  C   UNL     1      -3.070  -0.217 -31.390  1.00  0.00     0.050 C 
ENDBRANCH   1  28
TORSDOF 5
ENDMDL
MODEL 9
REMARK VINA RESULT:      -7.9      2.390      5.785
REMARK  5 active torsions:
REMARK  status: ('A' for Active; 'I' for Inactive)
REMARK    1  A    between atoms: C_4  and  N_5 
REMARK    2  A    between atoms: C_9  and  C_10 
REMARK    3  A    between atoms: C_13  and  O_14 
REMARK    4  A    between atoms: C_17  and  C_18 
REMARK       I    between atoms: C_18  and  N_19 
REMARK    5  A    between atoms: N_19  and  C_20 
ROOT
HETATM    1  N   UNL     1      -6.172   3.956 -31.509  1.00  0.00    -0.292 N 
HETATM    2  C   UNL     1      -6.683   4.513 -32.703  1.00  0.00     0.179 C 
HETATM    3  S   UNL     1      -6.862   6.139 -33.102  1.00  0.00    -0.040 SA
HETATM    4  N   UNL     1      -7.039   3.639 -33.686  1.00  0.00    -0.354 N 
HETATM    5  C   UNL     1      -7.164   2.209 -33.551  1.00  0.00     0.158 C 
HETATM    6  C   UNL     1      -6.406   1.734 -32.354  1.00  0.00     0.060 C 
HETATM    7  C   UNL     1      -5.962   2.559 -31.379  1.00  0.00     0.030 C 
HETATM    8  C   UNL     1      -5.229   2.052 -30.152  1.00  0.00     0.070 C 
HETATM    9  H   UNL     1      -7.417   4.061 -34.525  1.00  0.00     0.163 HD
ENDROOT
BRANCH   6  10
HETATM   10  C   UNL     1      -6.020   0.296 -32.456  1.00  0.00     0.257 C 
HETATM   11  N   UNL     1      -5.439  -0.059 -33.647  1.00  0.00    -0.306 N 
HETATM   12  H   UNL     1      -5.223   0.654 -34.327  1.00  0.00     0.170 HD
HETATM   13  O   UNL     1      -6.217  -0.423 -31.482  1.00  0.00    -0.267 OA
BRANCH  11  14
HETATM   14  C   UNL     1      -5.306  -1.374 -34.059  1.00  0.00     0.160 A 
HETATM   15  N   UNL     1      -4.243  -2.156 -33.843  1.00  0.00    -0.110 NA
HETATM   16  O   UNL     1      -4.569  -3.405 -34.324  1.00  0.00    -0.216 OA
HETATM   17  C   UNL     1      -5.831  -3.381 -34.824  1.00  0.00     0.078 A 
HETATM   18  C   UNL     1      -6.359  -4.661 -35.322  1.00  0.00     0.079 C 
HETATM   19  C   UNL     1      -6.330  -2.106 -34.714  1.00  0.00     0.087 A 
ENDBRANCH  11  14
ENDBRANCH   6  10
BRANCH   5  20
HETATM   20  C   UNL     1      -8.633   1.807 -33.508  1.00  0.00    -0.031 A 
HETATM   21  C   UNL     1      -9.622   2.728 -33.897  1.00  0.00     0.012 A 
HETATM   22  C   UNL     1     -10.977   2.385 -33.853  1.00  0.00     0.037 A 
HETATM   23  C   UNL     1     -11.348   1.115 -33.426  1.00  0.00     0.065 A 
HETATM   24  C   UNL     1     -10.389   0.182 -33.052  1.00  0.00     0.037 A 
HETATM   25  C   UNL     1      -9.037   0.525 -33.094  1.00  0.00     0.012 A 
BRANCH  23  26
HETATM   26  O   UNL     1     -12.657   0.740 -33.357  1.00  0.00    -0.361 OA
HETATM   27  H   UNL     1     -12.900   0.310 -34.194  1.00  0.00     0.217 HD
ENDBRANCH  23  26
ENDBRANCH   5  20
BRANCH   1  28
HETATM   28  C   UNL     1      -5.784   4.864 -30.463  1.00  0.00     0.048 A 
HETATM   29  C   UNL     1      -4.510   5.456 -30.553  1.00  0.00     0.037 A 
HETATM   30  C   UNL     1      -4.051   6.337 -29.567  1.00  0.00    -0.060 A 
HETATM   31  C   UNL     1      -2.679   6.934 -29.662  1.00  0.00     0.048 C 
HETATM   32  C   UNL     1      -4.904   6.674 -28.514  1.00  0.00     0.007 A 
HETATM   33  C   UNL     1      -6.171   6.093 -28.417  1.00  0.00     0.009 A 
HETATM   34  C   UNL     1      -6.618   5.161 -29.368  1.00  0.00    -0.035 A 
HETATM   35  C   UNL     1      -7.962   4.526 -29.146  1.00  0.00     0.050 C 
ENDBRANCH   1  28
TORSDOF 5
ENDMDL
MODEL 10
REMARK VINA RESULT:      -7.8     16.240     18.980
REMARK  5 active torsions:
REMARK  status: ('A' for Active; 'I' for Inactive)
REMARK    1  A    between atoms: C_4  and  N_5 
REMARK    2  A    between atoms: C_9  and  C_10 
REMARK    3  A    between atoms: C_13  and  O_14 
REMARK    4  A    between atoms: C_17  and  C_18 
REMARK       I    between atoms: C_18  and  N_19 
REMARK    5  A    between atoms: N_19  and  C_20 
ROOT
HETATM    1  N   UNL     1      -5.832 -14.888 -36.291  1.00  0.00    -0.292 N 
HETATM    2  C   UNL     1      -6.589 -13.779 -35.849  1.00  0.00     0.179 C 
HETATM    3  S   UNL     1      -7.140 -13.445 -34.294  1.00  0.00    -0.040 SA
HETATM    4  N   UNL     1      -6.881 -12.825 -36.779  1.00  0.00    -0.354 N 
HETATM    5  C   UNL     1      -6.697 -12.940 -38.204  1.00  0.00     0.158 C 
HETATM    6  C   UNL     1      -5.716 -14.023 -38.515  1.00  0.00     0.060 C 
HETATM    7  C   UNL     1      -5.330 -14.956 -37.616  1.00  0.00     0.030 C 
HETATM    8  C   UNL     1      -4.363 -16.072 -37.962  1.00  0.00     0.070 C 
HETATM    9  H   UNL     1      -7.438 -12.049 -36.443  1.00  0.00     0.163 HD
ENDROOT
BRANCH   6  10
HETATM   10  C   UNL     1      -5.064 -13.840 -39.844  1.00  0.00     0.257 C 
HETATM   11  N   UNL     1      -5.616 -14.578 -40.861  1.00  0.00    -0.306 N 
HETATM   12  H   UNL     1      -6.457 -15.108 -40.690  1.00  0.00     0.170 HD
HETATM   13  O   UNL     1      -4.135 -13.043 -39.925  1.00  0.00    -0.267 OA
BRANCH  11  14
HETATM   14  C   UNL     1      -4.976 -14.796 -42.068  1.00  0.00     0.160 A 
HETATM   15  N   UNL     1      -4.876 -13.915 -43.069  1.00  0.00    -0.110 NA
HETATM   16  O   UNL     1      -4.078 -14.498 -44.029  1.00  0.00    -0.216 OA
HETATM   17  C   UNL     1      -3.689 -15.728 -43.605  1.00  0.00     0.078 A 
HETATM   18  C   UNL     1      -2.773 -16.463 -44.493  1.00  0.00     0.079 C 
HETATM   19  C   UNL     1      -4.262 -15.981 -42.383  1.00  0.00     0.087 A 
ENDBRANCH  11  14
ENDBRANCH   6  10
BRANCH   5  20
HETATM   20  C   UNL     1      -8.038 -13.151 -38.896  1.00  0.00    -0.031 A 
HETATM   21  C   UNL     1      -8.641 -12.089 -39.593  1.00  0.00     0.012 A 
HETATM   22  C   UNL     1      -9.879 -12.258 -40.223  1.00  0.00     0.037 A 
HETATM   23  C   UNL     1     -10.514 -13.493 -40.163  1.00  0.00     0.065 A 
HETATM   24  C   UNL     1      -9.932 -14.562 -39.495  1.00  0.00     0.037 A 
HETATM   25  C   UNL     1      -8.698 -14.393 -38.865  1.00  0.00     0.012 A 
BRANCH  23  26
HETATM   26  O   UNL     1     -11.725 -13.700 -40.754  1.00  0.00    -0.361 OA
HETATM   27  H   UNL     1     -12.161 -12.841 -40.878  1.00  0.00     0.217 HD
ENDBRANCH  23  26
ENDBRANCH   5  20
BRANCH   1  28
HETATM   28  C   UNL     1      -5.508 -15.901 -35.321  1.00  0.00     0.048 A 
HETATM   29  C   UNL     1      -4.309 -15.752 -34.599  1.00  0.00     0.037 A 
HETATM   30  C   UNL     1      -3.914 -16.703 -33.652  1.00  0.00    -0.060 A 
HETATM   31  C   UNL     1      -2.618 -16.546 -32.915  1.00  0.00     0.048 C 
HETATM   32  C   UNL     1      -4.761 -17.779 -33.383  1.00  0.00     0.007 A 
HETATM   33  C   UNL     1      -5.954 -17.935 -34.094  1.00  0.00     0.009 A 
HETATM   34  C   UNL     1      -6.331 -17.020 -35.090  1.00  0.00    -0.035 A 
HETATM   35  C   UNL     1      -7.591 -17.303 -35.860  1.00  0.00     0.050 C 
ENDBRANCH   1  28
TORSDOF 5
ENDMDL
