MODEL 1
REMARK VINA RESULT:      -9.5      0.000      0.000
REMARK  7 active torsions:
REMARK  status: ('A' for Active; 'I' for Inactive)
REMARK    1  A    between atoms: C_2  and  C_3 
REMARK    2  A    between atoms: C_6  and  C_7 
REMARK       I    between atoms: C_7  and  N_8 
REMARK    3  A    between atoms: N_8  and  C_9 
REMARK    4  A    between atoms: C_9  and  C_10 
REMARK    5  A    between atoms: N_19  and  C_20 
REMARK    6  A    between atoms: C_20  and  C_21 
REMARK    7  A    between atoms: C_21  and  C_22 
ROOT
HETATM    1  C   UNL     1      -2.461   6.263 -31.727  1.00  0.00     0.249 A 
HETATM    2  C   UNL     1      -0.977   5.894 -31.901  1.00  0.00     0.266 A 
HETATM    3  O   UNL     1      -0.430   5.471 -32.908  1.00  0.00    -0.270 OA
HETATM    4  N   UNL     1      -0.346   6.086 -30.677  1.00  0.00    -0.310 N 
HETATM    5  C   UNL     1      -1.230   6.476 -29.727  1.00  0.00     0.129 A 
HETATM    6  C   UNL     1      -2.443   6.580 -30.267  1.00  0.00     0.101 A 
HETATM    7  N   UNL     1      -0.966   6.744 -28.412  1.00  0.00    -0.284 N 
HETATM    8  C   UNL     1      -1.985   7.192 -27.571  1.00  0.00     0.331 A 
HETATM    9  O   UNL     1      -1.821   7.515 -26.397  1.00  0.00    -0.246 OA
HETATM   10  N   UNL     1      -3.234   7.282 -28.143  1.00  0.00    -0.275 N 
HETATM   11  C   UNL     1      -3.558   7.015 -29.446  1.00  0.00     0.262 A 
HETATM   12  O   UNL     1      -4.683   7.153 -29.903  1.00  0.00    -0.267 OA
HETATM   13  H   UNL     1       0.630   5.868 -30.535  1.00  0.00     0.170 HD
HETATM   14  H   UNL     1      -3.979   7.597 -27.540  1.00  0.00     0.173 HD
ENDROOT
BRANCH   1  15
HETATM   15  N   UNL     1      -3.330   5.123 -32.089  1.00  0.00    -0.327 N 
HETATM   16  C   UNL     1      -3.034   3.817 -31.768  1.00  0.00     0.253 C 
HETATM   17  O   UNL     1      -2.055   3.488 -31.110  1.00  0.00    -0.268 OA
HETATM   18  H   UNL     1      -3.964   5.275 -32.865  1.00  0.00     0.164 HD
BRANCH  16  19
HETATM   19  C   UNL     1      -3.953   2.787 -32.318  1.00  0.00     0.032 A 
HETATM   20  C   UNL     1      -5.122   3.203 -32.954  1.00  0.00     0.017 A 
HETATM   21  C   UNL     1      -6.008   2.258 -33.485  1.00  0.00     0.009 A 
HETATM   22  C   UNL     1      -5.736   0.878 -33.420  1.00  0.00    -0.051 A 
HETATM   23  C   UNL     1      -4.553   0.485 -32.767  1.00  0.00     0.009 A 
HETATM   24  C   UNL     1      -3.665   1.425 -32.228  1.00  0.00     0.017 A 
BRANCH  22  25
HETATM   25  C   UNL     1      -6.718  -0.155 -34.006  1.00  0.00    -0.024 C 
HETATM   26  C   UNL     1      -6.079  -1.556 -34.148  1.00  0.00     0.019 C 
HETATM   27  C   UNL     1      -7.157   0.331 -35.401  1.00  0.00     0.019 C 
HETATM   28  C   UNL     1      -7.982  -0.340 -33.133  1.00  0.00     0.019 C 
ENDBRANCH  22  25
ENDBRANCH  16  19
ENDBRANCH   1  15
BRANCH   1  29
HETATM   29  C   UNL     1      -2.675   7.512 -32.589  1.00  0.00     0.426 C 
HETATM   30  F   UNL     1      -1.721   8.446 -32.351  1.00  0.00    -0.167 F 
HETATM   31  F   UNL     1      -2.601   7.231 -33.912  1.00  0.00    -0.167 F 
HETATM   32  F   UNL     1      -3.878   8.092 -32.376  1.00  0.00    -0.167 F 
ENDBRANCH   1  29
BRANCH   7  33
HETATM   33  C   UNL     1       0.384   6.610 -27.864  1.00  0.00     0.140 C 
BRANCH  33  34
HETATM   34  C   UNL     1       1.258   7.829 -28.177  1.00  0.00     0.059 C 
BRANCH  34  35
HETATM   35  C   UNL     1       1.473   8.698 -26.964  1.00  0.00    -0.057 A 
HETATM   36  C   UNL     1       2.205   8.224 -25.866  1.00  0.00     0.007 A 
HETATM   37  C   UNL     1       2.387   9.025 -24.737  1.00  0.00     0.001 A 
HETATM   38  C   UNL     1       1.845  10.307 -24.698  1.00  0.00     0.000 A 
HETATM   39  C   UNL     1       1.120  10.790 -25.785  1.00  0.00     0.001 A 
HETATM   40  C   UNL     1       0.931   9.989 -26.912  1.00  0.00     0.007 A 
ENDBRANCH  34  35
ENDBRANCH  33  34
ENDBRANCH   7  33
TORSDOF 7
ENDMDL
MODEL 2
REMARK VINA RESULT:      -9.4      4.113      5.691
REMARK  7 active torsions:
REMARK  status: ('A' for Active; 'I' for Inactive)
REMARK    1  A    between atoms: C_2  and  C_3 
REMARK    2  A    between atoms: C_6  and  C_7 
REMARK       I    between atoms: C_7  and  N_8 
REMARK    3  A    between atoms: N_8  and  C_9 
REMARK    4  A    between atoms: C_9  and  C_10 
REMARK    5  A    between atoms: N_19  and  C_20 
REMARK    6  A    between atoms: C_20  and  C_21 
REMARK    7  A    between atoms: C_21  and  C_22 
ROOT
HETATM    1  C   UNL     1      -7.154   3.982 -32.481  1.00  0.00     0.249 A 
HETATM    2  C   UNL     1      -6.229   4.882 -33.321  1.00  0.00     0.266 A 
HETATM    3  O   UNL     1      -6.129   4.912 -34.537  1.00  0.00    -0.270 OA
HETATM    4  N   UNL     1      -5.474   5.651 -32.443  1.00  0.00    -0.310 N 
HETATM    5  C   UNL     1      -5.745   5.331 -31.154  1.00  0.00     0.129 A 
HETATM    6  C   UNL     1      -6.681   4.385 -31.121  1.00  0.00     0.101 A 
HETATM    7  N   UNL     1      -5.184   5.875 -30.032  1.00  0.00    -0.284 N 
HETATM    8  C   UNL     1      -5.616   5.472 -28.768  1.00  0.00     0.331 A 
HETATM    9  O   UNL     1      -5.212   5.953 -27.713  1.00  0.00    -0.246 OA
HETATM   10  N   UNL     1      -6.575   4.484 -28.752  1.00  0.00    -0.275 N 
HETATM   11  C   UNL     1      -7.161   3.897 -29.841  1.00  0.00     0.262 A 
HETATM   12  O   UNL     1      -8.039   3.050 -29.759  1.00  0.00    -0.267 OA
HETATM   13  H   UNL     1      -4.762   6.291 -32.765  1.00  0.00     0.170 HD
HETATM   14  H   UNL     1      -6.888   4.181 -27.843  1.00  0.00     0.173 HD
ENDROOT
BRANCH   1  15
HETATM   15  N   UNL     1      -6.930   2.557 -32.802  1.00  0.00    -0.327 N 
HETATM   16  C   UNL     1      -5.682   1.978 -32.840  1.00  0.00     0.253 C 
HETATM   17  O   UNL     1      -4.651   2.577 -32.558  1.00  0.00    -0.268 OA
HETATM   18  H   UNL     1      -7.668   2.097 -33.325  1.00  0.00     0.164 HD
BRANCH  16  19
HETATM   19  C   UNL     1      -5.632   0.567 -33.303  1.00  0.00     0.032 A 
HETATM   20  C   UNL     1      -6.586   0.128 -34.220  1.00  0.00     0.017 A 
HETATM   21  C   UNL     1      -6.564  -1.195 -34.677  1.00  0.00     0.009 A 
HETATM   22  C   UNL     1      -5.575  -2.103 -34.256  1.00  0.00    -0.051 A 
HETATM   23  C   UNL     1      -4.628  -1.636 -33.325  1.00  0.00     0.009 A 
HETATM   24  C   UNL     1      -4.647  -0.316 -32.858  1.00  0.00     0.017 A 
BRANCH  22  25
HETATM   25  C   UNL     1      -5.561  -3.558 -34.764  1.00  0.00    -0.024 C 
HETATM   26  C   UNL     1      -4.440  -4.396 -34.107  1.00  0.00     0.019 C 
HETATM   27  C   UNL     1      -5.332  -3.535 -36.287  1.00  0.00     0.019 C 
HETATM   28  C   UNL     1      -6.886  -4.303 -34.479  1.00  0.00     0.019 C 
ENDBRANCH  22  25
ENDBRANCH  16  19
ENDBRANCH   1  15
BRANCH   1  29
HETATM   29  C   UNL     1      -8.576   4.474 -32.769  1.00  0.00     0.426 C 
HETATM   30  F   UNL     1      -9.505   3.619 -32.275  1.00  0.00    -0.167 F 
HETATM   31  F   UNL     1      -8.824   5.672 -32.187  1.00  0.00    -0.167 F 
HETATM   32  F   UNL     1      -8.818   4.621 -34.092  1.00  0.00    -0.167 F 
ENDBRANCH   1  29
BRANCH   7  33
HETATM   33  C   UNL     1      -4.154   6.910 -30.121  1.00  0.00     0.140 C 
BRANCH  33  34
HETATM   34  C   UNL     1      -2.744   6.316 -30.200  1.00  0.00     0.059 C 
BRANCH  34  35
HETATM   35  C   UNL     1      -2.246   6.226 -31.620  1.00  0.00    -0.057 A 
HETATM   36  C   UNL     1      -2.033   7.386 -32.378  1.00  0.00     0.007 A 
HETATM   37  C   UNL     1      -1.588   7.298 -33.698  1.00  0.00     0.001 A 
HETATM   38  C   UNL     1      -1.348   6.052 -34.271  1.00  0.00     0.000 A 
HETATM   39  C   UNL     1      -1.553   4.892 -33.526  1.00  0.00     0.001 A 
HETATM   40  C   UNL     1      -2.003   4.978 -32.207  1.00  0.00     0.007 A 
ENDBRANCH  34  35
ENDBRANCH  33  34
ENDBRANCH   7  33
TORSDOF 7
ENDMDL
MODEL 3
REMARK VINA RESULT:      -9.2      2.008      3.064
REMARK  7 active torsions:
REMARK  status: ('A' for Active; 'I' for Inactive)
REMARK    1  A    between atoms: C_2  and  C_3 
REMARK    2  A    between atoms: C_6  and  C_7 
REMARK       I    between atoms: C_7  and  N_8 
REMARK    3  A    between atoms: N_8  and  C_9 
REMARK    4  A    between atoms: C_9  and  C_10 
REMARK    5  A    between atoms: N_19  and  C_20 
REMARK    6  A    between atoms: C_20  and  C_21 
REMARK    7  A    between atoms: C_21  and  C_22 
ROOT
HETATM    1  C   UNL     1      -3.170   5.045 -32.542  1.00  0.00     0.249 A 
HETATM    2  C   UNL     1      -2.031   4.952 -31.511  1.00  0.00     0.266 A 
HETATM    3  O   UNL     1      -0.973   4.352 -31.627  1.00  0.00    -0.270 OA
HETATM    4  N   UNL     1      -2.428   5.649 -30.375  1.00  0.00    -0.310 N 
HETATM    5  C   UNL     1      -3.687   6.130 -30.513  1.00  0.00     0.129 A 
HETATM    6  C   UNL     1      -4.157   5.807 -31.716  1.00  0.00     0.101 A 
HETATM    7  N   UNL     1      -4.401   6.850 -29.596  1.00  0.00    -0.284 N 
HETATM    8  C   UNL     1      -5.675   7.324 -29.915  1.00  0.00     0.331 A 
HETATM    9  O   UNL     1      -6.356   8.029 -29.175  1.00  0.00    -0.246 OA
HETATM   10  N   UNL     1      -6.148   6.969 -31.158  1.00  0.00    -0.275 N 
HETATM   11  C   UNL     1      -5.485   6.242 -32.109  1.00  0.00     0.262 A 
HETATM   12  O   UNL     1      -5.947   5.994 -33.213  1.00  0.00    -0.267 OA
HETATM   13  H   UNL     1      -1.857   5.691 -29.544  1.00  0.00     0.170 HD
HETATM   14  H   UNL     1      -7.071   7.300 -31.394  1.00  0.00     0.173 HD
ENDROOT
BRANCH   1  15
HETATM   15  N   UNL     1      -3.627   3.697 -32.940  1.00  0.00    -0.327 N 
HETATM   16  C   UNL     1      -4.068   2.753 -32.041  1.00  0.00     0.253 C 
HETATM   17  O   UNL     1      -4.174   2.963 -30.839  1.00  0.00    -0.268 OA
HETATM   18  H   UNL     1      -3.291   3.359 -33.836  1.00  0.00     0.164 HD
BRANCH  16  19
HETATM   19  C   UNL     1      -4.371   1.410 -32.601  1.00  0.00     0.032 A 
HETATM   20  C   UNL     1      -5.613   1.197 -33.198  1.00  0.00     0.017 A 
HETATM   21  C   UNL     1      -5.928  -0.056 -33.737  1.00  0.00     0.009 A 
HETATM   22  C   UNL     1      -5.003  -1.117 -33.721  1.00  0.00    -0.051 A 
HETATM   23  C   UNL     1      -3.759  -0.877 -33.107  1.00  0.00     0.009 A 
HETATM   24  C   UNL     1      -3.440   0.372 -32.560  1.00  0.00     0.017 A 
BRANCH  22  25
HETATM   25  C   UNL     1      -5.360  -2.493 -34.316  1.00  0.00    -0.024 C 
HETATM   26  C   UNL     1      -6.866  -2.816 -34.182  1.00  0.00     0.019 C 
HETATM   27  C   UNL     1      -4.555  -3.569 -33.561  1.00  0.00     0.019 C 
HETATM   28  C   UNL     1      -5.024  -2.598 -35.822  1.00  0.00     0.019 C 
ENDBRANCH  22  25
ENDBRANCH  16  19
ENDBRANCH   1  15
BRANCH   1  29
HETATM   29  C   UNL     1      -2.610   5.883 -33.696  1.00  0.00     0.426 C 
HETATM   30  F   UNL     1      -1.393   5.433 -34.088  1.00  0.00    -0.167 F 
HETATM   31  F   UNL     1      -3.401   5.824 -34.794  1.00  0.00    -0.167 F 
HETATM   32  F   UNL     1      -2.479   7.190 -33.374  1.00  0.00    -0.167 F 
ENDBRANCH   1  29
BRANCH   7  33
HETATM   33  C   UNL     1      -3.844   7.177 -28.283  1.00  0.00     0.140 C 
BRANCH  33  34
HETATM   34  C   UNL     1      -2.869   8.358 -28.347  1.00  0.00     0.059 C 
BRANCH  34  35
HETATM   35  C   UNL     1      -1.476   7.965 -27.924  1.00  0.00    -0.057 A 
HETATM   36  C   UNL     1      -1.276   6.952 -26.976  1.00  0.00     0.007 A 
HETATM   37  C   UNL     1       0.015   6.604 -26.574  1.00  0.00     0.001 A 
HETATM   38  C   UNL     1       1.115   7.260 -27.119  1.00  0.00     0.000 A 
HETATM   39  C   UNL     1       0.928   8.265 -28.064  1.00  0.00     0.001 A 
HETATM   40  C   UNL     1      -0.362   8.620 -28.464  1.00  0.00     0.007 A 
ENDBRANCH  34  35
ENDBRANCH  33  34
ENDBRANCH   7  33
TORSDOF 7
ENDMDL
MODEL 4
REMARK VINA RESULT:      -9.1      4.305     10.018
REMARK  7 active torsions:
REMARK  status: ('A' for Active; 'I' for Inactive)
REMARK    1  A    between atoms: C_2  and  C_3 
REMARK    2  A    between atoms: C_6  and  C_7 
REMARK       I    between atoms: C_7  and  N_8 
REMARK    3  A    between atoms: N_8  and  C_9 
REMARK    4  A    between atoms: C_9  and  C_10 
REMARK    5  A    between atoms: N_19  and  C_20 
REMARK    6  A    between atoms: C_20  and  C_21 
REMARK    7  A    between atoms: C_21  and  C_22 
ROOT
HETATM    1  C   UNL     1      -4.827   4.471 -32.944  1.00  0.00     0.249 A 
HETATM    2  C   UNL     1      -6.147   4.115 -33.652  1.00  0.00     0.266 A 
HETATM    3  O   UNL     1      -6.926   4.881 -34.198  1.00  0.00    -0.270 OA
HETATM    4  N   UNL     1      -6.336   2.743 -33.533  1.00  0.00    -0.310 N 
HETATM    5  C   UNL     1      -5.348   2.176 -32.799  1.00  0.00     0.129 A 
HETATM    6  C   UNL     1      -4.475   3.112 -32.432  1.00  0.00     0.101 A 
HETATM    7  N   UNL     1      -5.217   0.855 -32.470  1.00  0.00    -0.284 N 
HETATM    8  C   UNL     1      -4.104   0.420 -31.750  1.00  0.00     0.331 A 
HETATM    9  O   UNL     1      -3.878  -0.755 -31.468  1.00  0.00    -0.246 OA
HETATM   10  N   UNL     1      -3.219   1.403 -31.368  1.00  0.00    -0.275 N 
HETATM   11  C   UNL     1      -3.306   2.738 -31.658  1.00  0.00     0.262 A 
HETATM   12  O   UNL     1      -2.462   3.557 -31.323  1.00  0.00    -0.267 OA
HETATM   13  H   UNL     1      -7.161   2.281 -33.886  1.00  0.00     0.170 HD
HETATM   14  H   UNL     1      -2.415   1.099 -30.840  1.00  0.00     0.173 HD
ENDROOT
BRANCH   1  15
HETATM   15  N   UNL     1      -5.056   5.477 -31.886  1.00  0.00    -0.327 N 
HETATM   16  C   UNL     1      -6.021   5.343 -30.913  1.00  0.00     0.253 C 
HETATM   17  O   UNL     1      -6.739   4.356 -30.805  1.00  0.00    -0.268 OA
HETATM   18  H   UNL     1      -4.730   6.416 -32.085  1.00  0.00     0.164 HD
BRANCH  16  19
HETATM   19  C   UNL     1      -6.196   6.505 -30.005  1.00  0.00     0.032 A 
HETATM   20  C   UNL     1      -7.304   6.534 -29.158  1.00  0.00     0.017 A 
HETATM   21  C   UNL     1      -7.496   7.613 -28.288  1.00  0.00     0.009 A 
HETATM   22  C   UNL     1      -6.576   8.676 -28.219  1.00  0.00    -0.051 A 
HETATM   23  C   UNL     1      -5.470   8.626 -29.089  1.00  0.00     0.009 A 
HETATM   24  C   UNL     1      -5.274   7.552 -29.966  1.00  0.00     0.017 A 
BRANCH  22  25
HETATM   25  C   UNL     1      -6.797   9.861 -27.260  1.00  0.00    -0.024 C 
HETATM   26  C   UNL     1      -8.226   9.877 -26.670  1.00  0.00     0.019 C 
HETATM   27  C   UNL     1      -6.573  11.167 -28.045  1.00  0.00     0.019 C 
HETATM   28  C   UNL     1      -5.829   9.843 -26.054  1.00  0.00     0.019 C 
ENDBRANCH  22  25
ENDBRANCH  16  19
ENDBRANCH   1  15
BRANCH   1  29
HETATM   29  C   UNL     1      -3.880   4.936 -34.056  1.00  0.00     0.426 C 
HETATM   30  F   UNL     1      -4.446   4.793 -35.279  1.00  0.00    -0.167 F 
HETATM   31  F   UNL     1      -3.569   6.249 -33.939  1.00  0.00    -0.167 F 
HETATM   32  F   UNL     1      -2.712   4.254 -34.063  1.00  0.00    -0.167 F 
ENDBRANCH   1  29
BRANCH   7  33
HETATM   33  C   UNL     1      -6.207  -0.137 -32.892  1.00  0.00     0.140 C 
BRANCH  33  34
HETATM   34  C   UNL     1      -5.988  -0.590 -34.340  1.00  0.00     0.059 C 
BRANCH  34  35
HETATM   35  C   UNL     1      -5.771  -2.079 -34.440  1.00  0.00    -0.057 A 
HETATM   36  C   UNL     1      -6.840  -2.939 -34.730  1.00  0.00     0.007 A 
HETATM   37  C   UNL     1      -6.639  -4.318 -34.804  1.00  0.00     0.001 A 
HETATM   38  C   UNL     1      -5.368  -4.849 -34.597  1.00  0.00     0.000 A 
HETATM   39  C   UNL     1      -4.299  -4.004 -34.312  1.00  0.00     0.001 A 
HETATM   40  C   UNL     1      -4.498  -2.624 -34.231  1.00  0.00     0.007 A 
ENDBRANCH  34  35
ENDBRANCH  33  34
ENDBRANCH   7  33
TORSDOF 7
ENDMDL
MODEL 5
REMARK VINA RESULT:      -9.0      5.839     10.714
REMARK  7 active torsions:
REMARK  status: ('A' for Active; 'I' for Inactive)
REMARK    1  A    between atoms: C_2  and  C_3 
REMARK    2  A    between atoms: C_6  and  C_7 
REMARK       I    between atoms: C_7  and  N_8 
REMARK    3  A    between atoms: N_8  and  C_9 
REMARK    4  A    between atoms: C_9  and  C_10 
REMARK    5  A    between atoms: N_19  and  C_20 
REMARK    6  A    between atoms: C_20  and  C_21 
REMARK    7  A    between atoms: C_21  and  C_22 
ROOT
HETATM    1  C   UNL     1      -8.227   1.502 -32.903  1.00  0.00     0.249 A 
HETATM    2  C   UNL     1      -8.590   1.092 -34.342  1.00  0.00     0.266 A 
HETATM    3  O   UNL     1      -7.886   0.498 -35.144  1.00  0.00    -0.270 OA
HETATM    4  N   UNL     1      -9.873   1.558 -34.605  1.00  0.00    -0.310 N 
HETATM    5  C   UNL     1     -10.365   2.258 -33.553  1.00  0.00     0.129 A 
HETATM    6  C   UNL     1      -9.468   2.265 -32.568  1.00  0.00     0.101 A 
HETATM    7  N   UNL     1     -11.586   2.866 -33.463  1.00  0.00    -0.284 N 
HETATM    8  C   UNL     1     -11.965   3.504 -32.281  1.00  0.00     0.331 A 
HETATM    9  O   UNL     1     -13.064   4.019 -32.095  1.00  0.00    -0.246 OA
HETATM   10  N   UNL     1     -11.021   3.512 -31.279  1.00  0.00    -0.275 N 
HETATM   11  C   UNL     1      -9.782   2.931 -31.318  1.00  0.00     0.262 A 
HETATM   12  O   UNL     1      -9.003   2.940 -30.376  1.00  0.00    -0.267 OA
HETATM   13  H   UNL     1     -10.312   1.445 -35.507  1.00  0.00     0.170 HD
HETATM   14  H   UNL     1     -11.283   3.978 -30.424  1.00  0.00     0.173 HD
ENDROOT
BRANCH   1  15
HETATM   15  N   UNL     1      -6.993   2.315 -32.886  1.00  0.00    -0.327 N 
HETATM   16  C   UNL     1      -6.882   3.532 -33.517  1.00  0.00     0.253 C 
HETATM   17  O   UNL     1      -7.810   4.076 -34.103  1.00  0.00    -0.268 OA
HETATM   18  H   UNL     1      -6.132   1.813 -32.696  1.00  0.00     0.164 HD
BRANCH  16  19
HETATM   19  C   UNL     1      -5.533   4.154 -33.503  1.00  0.00     0.032 A 
HETATM   20  C   UNL     1      -4.755   4.041 -32.351  1.00  0.00     0.017 A 
HETATM   21  C   UNL     1      -3.478   4.613 -32.306  1.00  0.00     0.009 A 
HETATM   22  C   UNL     1      -2.934   5.285 -33.416  1.00  0.00    -0.051 A 
HETATM   23  C   UNL     1      -3.742   5.391 -34.564  1.00  0.00     0.009 A 
HETATM   24  C   UNL     1      -5.023   4.826 -34.614  1.00  0.00     0.017 A 
BRANCH  22  25
HETATM   25  C   UNL     1      -1.528   5.914 -33.356  1.00  0.00    -0.024 C 
HETATM   26  C   UNL     1      -1.579   7.440 -33.113  1.00  0.00     0.019 C 
HETATM   27  C   UNL     1      -0.824   5.651 -34.701  1.00  0.00     0.019 C 
HETATM   28  C   UNL     1      -0.656   5.321 -32.224  1.00  0.00     0.019 C 
ENDBRANCH  22  25
ENDBRANCH  16  19
ENDBRANCH   1  15
BRANCH   1  29
HETATM   29  C   UNL     1      -8.124   0.189 -32.119  1.00  0.00     0.426 C 
HETATM   30  F   UNL     1      -7.505   0.373 -30.926  1.00  0.00    -0.167 F 
HETATM   31  F   UNL     1      -9.344  -0.324 -31.831  1.00  0.00    -0.167 F 
HETATM   32  F   UNL     1      -7.442  -0.767 -32.790  1.00  0.00    -0.167 F 
ENDBRANCH   1  29
BRANCH   7  33
HETATM   33  C   UNL     1     -12.536   2.835 -34.576  1.00  0.00     0.140 C 
BRANCH  33  34
HETATM   34  C   UNL     1     -12.029   3.622 -35.789  1.00  0.00     0.059 C 
BRANCH  34  35
HETATM   35  C   UNL     1     -11.969   5.104 -35.519  1.00  0.00    -0.057 A 
HETATM   36  C   UNL     1     -10.738   5.746 -35.321  1.00  0.00     0.007 A 
HETATM   37  C   UNL     1     -10.689   7.115 -35.053  1.00  0.00     0.001 A 
HETATM   38  C   UNL     1     -11.867   7.855 -34.987  1.00  0.00     0.000 A 
HETATM   39  C   UNL     1     -13.095   7.228 -35.186  1.00  0.00     0.001 A 
HETATM   40  C   UNL     1     -13.147   5.858 -35.448  1.00  0.00     0.007 A 
ENDBRANCH  34  35
ENDBRANCH  33  34
ENDBRANCH   7  33
TORSDOF 7
ENDMDL
MODEL 6
REMARK VINA RESULT:      -8.9      2.847      4.590
REMARK  7 active torsions:
REMARK  status: ('A' for Active; 'I' for Inactive)
REMARK    1  A    between atoms: C_2  and  C_3 
REMARK    2  A    between atoms: C_6  and  C_7 
REMARK       I    between atoms: C_7  and  N_8 
REMARK    3  A    between atoms: N_8  and  C_9 
REMARK    4  A    between atoms: C_9  and  C_10 
REMARK    5  A    between atoms: N_19  and  C_20 
REMARK    6  A    between atoms: C_20  and  C_21 
REMARK    7  A    between atoms: C_21  and  C_22 
ROOT
HETATM    1  C   UNL     1      -4.321   4.084 -32.837  1.00  0.00     0.249 A 
HETATM    2  C   UNL     1      -3.398   4.036 -31.606  1.00  0.00     0.266 A 
HETATM    3  O   UNL     1      -2.318   3.476 -31.510  1.00  0.00    -0.270 OA
HETATM    4  N   UNL     1      -4.031   4.721 -30.575  1.00  0.00    -0.310 N 
HETATM    5  C   UNL     1      -5.257   5.156 -30.956  1.00  0.00     0.129 A 
HETATM    6  C   UNL     1      -5.474   4.812 -32.224  1.00  0.00     0.101 A 
HETATM    7  N   UNL     1      -6.158   5.852 -30.200  1.00  0.00    -0.284 N 
HETATM    8  C   UNL     1      -7.362   6.278 -30.762  1.00  0.00     0.331 A 
HETATM    9  O   UNL     1      -8.198   6.960 -30.174  1.00  0.00    -0.246 OA
HETATM   10  N   UNL     1      -7.576   5.902 -32.070  1.00  0.00    -0.275 N 
HETATM   11  C   UNL     1      -6.716   5.197 -32.868  1.00  0.00     0.262 A 
HETATM   12  O   UNL     1      -6.948   4.929 -34.038  1.00  0.00    -0.267 OA
HETATM   13  H   UNL     1      -3.632   4.787 -29.649  1.00  0.00     0.170 HD
HETATM   14  H   UNL     1      -8.447   6.198 -32.482  1.00  0.00     0.173 HD
ENDROOT
BRANCH   1  15
HETATM   15  N   UNL     1      -4.645   2.719 -33.302  1.00  0.00    -0.327 N 
HETATM   16  C   UNL     1      -5.125   1.733 -32.471  1.00  0.00     0.253 C 
HETATM   17  O   UNL     1      -5.379   1.912 -31.286  1.00  0.00    -0.268 OA
HETATM   18  H   UNL     1      -4.189   2.420 -34.157  1.00  0.00     0.164 HD
BRANCH  16  19
HETATM   19  C   UNL     1      -5.278   0.386 -33.079  1.00  0.00     0.032 A 
HETATM   20  C   UNL     1      -4.318  -0.588 -32.803  1.00  0.00     0.017 A 
HETATM   21  C   UNL     1      -4.434  -1.867 -33.358  1.00  0.00     0.009 A 
HETATM   22  C   UNL     1      -5.524  -2.218 -34.177  1.00  0.00    -0.051 A 
HETATM   23  C   UNL     1      -6.475  -1.215 -34.445  1.00  0.00     0.009 A 
HETATM   24  C   UNL     1      -6.362   0.069 -33.898  1.00  0.00     0.017 A 
BRANCH  22  25
HETATM   25  C   UNL     1      -5.642  -3.629 -34.785  1.00  0.00    -0.024 C 
HETATM   26  C   UNL     1      -5.412  -3.629 -36.313  1.00  0.00     0.019 C 
HETATM   27  C   UNL     1      -7.060  -4.160 -34.500  1.00  0.00     0.019 C 
HETATM   28  C   UNL     1      -4.618  -4.623 -34.190  1.00  0.00     0.019 C 
ENDBRANCH  22  25
ENDBRANCH  16  19
ENDBRANCH   1  15
BRANCH   1  29
HETATM   29  C   UNL     1      -3.580   4.939 -33.871  1.00  0.00     0.426 C 
HETATM   30  F   UNL     1      -4.190   4.891 -35.080  1.00  0.00    -0.167 F 
HETATM   31  F   UNL     1      -3.551   6.246 -33.518  1.00  0.00    -0.167 F 
HETATM   32  F   UNL     1      -2.296   4.549 -34.044  1.00  0.00    -0.167 F 
ENDBRANCH   1  29
BRANCH   7  33
HETATM   33  C   UNL     1      -5.875   6.203 -28.808  1.00  0.00     0.140 C 
BRANCH  33  34
HETATM   34  C   UNL     1      -5.059   7.495 -28.693  1.00  0.00     0.059 C 
BRANCH  34  35
HETATM   35  C   UNL     1      -3.742   7.271 -27.991  1.00  0.00    -0.057 A 
HETATM   36  C   UNL     1      -3.705   6.955 -26.626  1.00  0.00     0.007 A 
HETATM   37  C   UNL     1      -2.484   6.767 -25.976  1.00  0.00     0.001 A 
HETATM   38  C   UNL     1      -1.291   6.886 -26.686  1.00  0.00     0.000 A 
HETATM   39  C   UNL     1      -1.317   7.196 -28.044  1.00  0.00     0.001 A 
HETATM   40  C   UNL     1      -2.537   7.391 -28.694  1.00  0.00     0.007 A 
ENDBRANCH  34  35
ENDBRANCH  33  34
ENDBRANCH   7  33
TORSDOF 7
ENDMDL
MODEL 7
REMARK VINA RESULT:      -8.8      3.029      4.629
REMARK  7 active torsions:
REMARK  status: ('A' for Active; 'I' for Inactive)
REMARK    1  A    between atoms: C_2  and  C_3 
REMARK    2  A    between atoms: C_6  and  C_7 
REMARK       I    between atoms: C_7  and  N_8 
REMARK    3  A    between atoms: N_8  and  C_9 
REMARK    4  A    between atoms: C_9  and  C_10 
REMARK    5  A    between atoms: N_19  and  C_20 
REMARK    6  A    between atoms: C_20  and  C_21 
REMARK    7  A    between atoms: C_21  and  C_22 
ROOT
HETATM    1  C   UNL     1      -6.980   3.997 -32.548  1.00  0.00     0.249 A 
HETATM    2  C   UNL     1      -6.011   4.871 -33.364  1.00  0.00     0.266 A 
HETATM    3  O   UNL     1      -5.878   4.897 -34.578  1.00  0.00    -0.270 OA
HETATM    4  N   UNL     1      -5.259   5.622 -32.467  1.00  0.00    -0.310 N 
HETATM    5  C   UNL     1      -5.572   5.311 -31.186  1.00  0.00     0.129 A 
HETATM    6  C   UNL     1      -6.533   4.389 -31.176  1.00  0.00     0.101 A 
HETATM    7  N   UNL     1      -5.027   5.841 -30.050  1.00  0.00    -0.284 N 
HETATM    8  C   UNL     1      -5.503   5.451 -28.797  1.00  0.00     0.331 A 
HETATM    9  O   UNL     1      -5.113   5.923 -27.732  1.00  0.00    -0.246 OA
HETATM   10  N   UNL     1      -6.487   4.488 -28.806  1.00  0.00    -0.275 N 
HETATM   11  C   UNL     1      -7.059   3.915 -29.909  1.00  0.00     0.262 A 
HETATM   12  O   UNL     1      -7.961   3.091 -29.850  1.00  0.00    -0.267 OA
HETATM   13  H   UNL     1      -4.523   6.243 -32.771  1.00  0.00     0.170 HD
HETATM   14  H   UNL     1      -6.831   4.194 -27.905  1.00  0.00     0.173 HD
ENDROOT
BRANCH   1  15
HETATM   15  N   UNL     1      -6.785   2.566 -32.863  1.00  0.00    -0.327 N 
HETATM   16  C   UNL     1      -5.557   1.946 -32.830  1.00  0.00     0.253 C 
HETATM   17  O   UNL     1      -4.526   2.509 -32.485  1.00  0.00    -0.268 OA
HETATM   18  H   UNL     1      -7.506   2.133 -33.430  1.00  0.00     0.164 HD
BRANCH  16  19
HETATM   19  C   UNL     1      -5.526   0.536 -33.296  1.00  0.00     0.032 A 
HETATM   20  C   UNL     1      -6.606   0.048 -34.030  1.00  0.00     0.017 A 
HETATM   21  C   UNL     1      -6.607  -1.275 -34.486  1.00  0.00     0.009 A 
HETATM   22  C   UNL     1      -5.519  -2.136 -34.246  1.00  0.00    -0.051 A 
HETATM   23  C   UNL     1      -4.445  -1.621 -33.497  1.00  0.00     0.009 A 
HETATM   24  C   UNL     1      -4.440  -0.300 -33.033  1.00  0.00     0.017 A 
BRANCH  22  25
HETATM   25  C   UNL     1      -5.530  -3.592 -34.750  1.00  0.00    -0.024 C 
HETATM   26  C   UNL     1      -4.401  -4.439 -34.119  1.00  0.00     0.019 C 
HETATM   27  C   UNL     1      -5.338  -3.576 -36.279  1.00  0.00     0.019 C 
HETATM   28  C   UNL     1      -6.854  -4.325 -34.431  1.00  0.00     0.019 C 
ENDBRANCH  22  25
ENDBRANCH  16  19
ENDBRANCH   1  15
BRANCH   1  29
HETATM   29  C   UNL     1      -8.381   4.525 -32.874  1.00  0.00     0.426 C 
HETATM   30  F   UNL     1      -8.636   4.463 -34.204  1.00  0.00    -0.167 F 
HETATM   31  F   UNL     1      -9.350   3.793 -32.274  1.00  0.00    -0.167 F 
HETATM   32  F   UNL     1      -8.558   5.808 -32.484  1.00  0.00    -0.167 F 
ENDBRANCH   1  29
BRANCH   7  33
HETATM   33  C   UNL     1      -3.969   6.849 -30.112  1.00  0.00     0.140 C 
BRANCH  33  34
HETATM   34  C   UNL     1      -2.607   6.236 -30.458  1.00  0.00     0.059 C 
BRANCH  34  35
HETATM   35  C   UNL     1      -1.491   6.843 -29.646  1.00  0.00    -0.057 A 
HETATM   36  C   UNL     1      -0.347   6.094 -29.334  1.00  0.00     0.007 A 
HETATM   37  C   UNL     1       0.677   6.654 -28.567  1.00  0.00     0.001 A 
HETATM   38  C   UNL     1       0.570   7.965 -28.112  1.00  0.00     0.000 A 
HETATM   39  C   UNL     1      -0.560   8.719 -28.420  1.00  0.00     0.001 A 
HETATM   40  C   UNL     1      -1.588   8.160 -29.182  1.00  0.00     0.007 A 
ENDBRANCH  34  35
ENDBRANCH  33  34
ENDBRANCH   7  33
TORSDOF 7
ENDMDL
MODEL 8
REMARK VINA RESULT:      -8.8      2.452      3.659
REMARK  7 active torsions:
REMARK  status: ('A' for Active; 'I' for Inactive)
REMARK    1  A    between atoms: C_2  and  C_3 
REMARK    2  A    between atoms: C_6  and  C_7 
REMARK       I    between atoms: C_7  and  N_8 
REMARK    3  A    between atoms: N_8  and  C_9 
REMARK    4  A    between atoms: C_9  and  C_10 
REMARK    5  A    between atoms: N_19  and  C_20 
REMARK    6  A    between atoms: C_20  and  C_21 
REMARK    7  A    between atoms: C_21  and  C_22 
ROOT
HETATM    1  C   UNL     1      -5.007   7.063 -29.503  1.00  0.00     0.249 A 
HETATM    2  C   UNL     1      -4.175   7.970 -30.428  1.00  0.00     0.266 A 
HETATM    3  O   UNL     1      -4.391   8.233 -31.601  1.00  0.00    -0.270 OA
HETATM    4  N   UNL     1      -3.079   8.424 -29.702  1.00  0.00    -0.310 N 
HETATM    5  C   UNL     1      -3.063   7.891 -28.456  1.00  0.00     0.129 A 
HETATM    6  C   UNL     1      -4.126   7.106 -28.296  1.00  0.00     0.101 A 
HETATM    7  N   UNL     1      -2.132   8.106 -27.478  1.00  0.00    -0.284 N 
HETATM    8  C   UNL     1      -2.290   7.521 -26.221  1.00  0.00     0.331 A 
HETATM    9  O   UNL     1      -1.537   7.712 -25.269  1.00  0.00    -0.246 OA
HETATM   10  N   UNL     1      -3.388   6.702 -26.078  1.00  0.00    -0.275 N 
HETATM   11  C   UNL     1      -4.343   6.443 -27.024  1.00  0.00     0.262 A 
HETATM   12  O   UNL     1      -5.319   5.735 -26.820  1.00  0.00    -0.267 OA
HETATM   13  H   UNL     1      -2.364   9.005 -30.116  1.00  0.00     0.170 HD
HETATM   14  H   UNL     1      -3.506   6.269 -25.175  1.00  0.00     0.173 HD
ENDROOT
BRANCH   1  15
HETATM   15  N   UNL     1      -5.163   5.717 -30.093  1.00  0.00    -0.327 N 
HETATM   16  C   UNL     1      -4.140   5.046 -30.723  1.00  0.00     0.253 C 
HETATM   17  O   UNL     1      -2.998   5.479 -30.806  1.00  0.00    -0.268 OA
HETATM   18  H   UNL     1      -6.110   5.440 -30.328  1.00  0.00     0.164 HD
BRANCH  16  19
HETATM   19  C   UNL     1      -4.505   3.757 -31.367  1.00  0.00     0.032 A 
HETATM   20  C   UNL     1      -5.852   3.483 -31.602  1.00  0.00     0.017 A 
HETATM   21  C   UNL     1      -6.229   2.280 -32.209  1.00  0.00     0.009 A 
HETATM   22  C   UNL     1      -5.273   1.333 -32.622  1.00  0.00    -0.051 A 
HETATM   23  C   UNL     1      -3.921   1.631 -32.366  1.00  0.00     0.009 A 
HETATM   24  C   UNL     1      -3.537   2.831 -31.755  1.00  0.00     0.017 A 
BRANCH  22  25
HETATM   25  C   UNL     1      -5.697   0.009 -33.287  1.00  0.00    -0.024 C 
HETATM   26  C   UNL     1      -6.430   0.238 -34.629  1.00  0.00     0.019 C 
HETATM   27  C   UNL     1      -6.648  -0.731 -32.326  1.00  0.00     0.019 C 
HETATM   28  C   UNL     1      -4.497  -0.915 -33.598  1.00  0.00     0.019 C 
ENDBRANCH  22  25
ENDBRANCH  16  19
ENDBRANCH   1  15
BRANCH   1  29
HETATM   29  C   UNL     1      -6.328   7.808 -29.283  1.00  0.00     0.426 C 
HETATM   30  F   UNL     1      -6.863   8.224 -30.457  1.00  0.00    -0.167 F 
HETATM   31  F   UNL     1      -7.264   7.016 -28.706  1.00  0.00    -0.167 F 
HETATM   32  F   UNL     1      -6.188   8.894 -28.490  1.00  0.00    -0.167 F 
ENDBRANCH   1  29
BRANCH   7  33
HETATM   33  C   UNL     1      -0.976   8.975 -27.703  1.00  0.00     0.140 C 
BRANCH  33  34
HETATM   34  C   UNL     1       0.343   8.196 -27.682  1.00  0.00     0.059 C 
BRANCH  34  35
HETATM   35  C   UNL     1       0.425   7.189 -28.802  1.00  0.00    -0.057 A 
HETATM   36  C   UNL     1       0.563   5.822 -28.525  1.00  0.00     0.007 A 
HETATM   37  C   UNL     1       0.655   4.895 -29.564  1.00  0.00     0.001 A 
HETATM   38  C   UNL     1       0.605   5.324 -30.888  1.00  0.00     0.000 A 
HETATM   39  C   UNL     1       0.464   6.680 -31.175  1.00  0.00     0.001 A 
HETATM   40  C   UNL     1       0.377   7.610 -30.137  1.00  0.00     0.007 A 
ENDBRANCH  34  35
ENDBRANCH  33  34
ENDBRANCH   7  33
TORSDOF 7
ENDMDL
MODEL 9
REMARK VINA RESULT:      -8.5      3.786      5.299
REMARK  7 active torsions:
REMARK  status: ('A' for Active; 'I' for Inactive)
REMARK    1  A    between atoms: C_2  and  C_3 
REMARK    2  A    between atoms: C_6  and  C_7 
REMARK       I    between atoms: C_7  and  N_8 
REMARK    3  A    between atoms: N_8  and  C_9 
REMARK    4  A    between atoms: C_9  and  C_10 
REMARK    5  A    between atoms: N_19  and  C_20 
REMARK    6  A    between atoms: C_20  and  C_21 
REMARK    7  A    between atoms: C_21  and  C_22 
ROOT
HETATM    1  C   UNL     1      -4.836   3.989 -32.168  1.00  0.00     0.249 A 
HETATM    2  C   UNL     1      -4.790   4.281 -30.657  1.00  0.00     0.266 A 
HETATM    3  O   UNL     1      -5.394   3.699 -29.770  1.00  0.00    -0.270 OA
HETATM    4  N   UNL     1      -3.953   5.375 -30.462  1.00  0.00    -0.310 N 
HETATM    5  C   UNL     1      -3.499   5.860 -31.643  1.00  0.00     0.129 A 
HETATM    6  C   UNL     1      -3.977   5.118 -32.640  1.00  0.00     0.101 A 
HETATM    7  N   UNL     1      -2.669   6.930 -31.832  1.00  0.00    -0.284 N 
HETATM    8  C   UNL     1      -2.246   7.269 -33.118  1.00  0.00     0.331 A 
HETATM    9  O   UNL     1      -1.453   8.173 -33.370  1.00  0.00    -0.246 OA
HETATM   10  N   UNL     1      -2.760   6.500 -34.137  1.00  0.00    -0.275 N 
HETATM   11  C   UNL     1      -3.602   5.428 -34.007  1.00  0.00     0.262 A 
HETATM   12  O   UNL     1      -3.993   4.759 -34.953  1.00  0.00    -0.267 OA
HETATM   13  H   UNL     1      -3.801   5.778 -29.549  1.00  0.00     0.170 HD
HETATM   14  H   UNL     1      -2.467   6.743 -35.071  1.00  0.00     0.173 HD
ENDROOT
BRANCH   1  15
HETATM   15  N   UNL     1      -6.226   4.035 -32.668  1.00  0.00    -0.327 N 
HETATM   16  C   UNL     1      -7.091   5.071 -32.399  1.00  0.00     0.253 C 
HETATM   17  O   UNL     1      -6.771   6.072 -31.769  1.00  0.00    -0.268 OA
HETATM   18  H   UNL     1      -6.638   3.144 -32.919  1.00  0.00     0.164 HD
BRANCH  16  19
HETATM   19  C   UNL     1      -8.487   4.895 -32.875  1.00  0.00     0.032 A 
HETATM   20  C   UNL     1      -8.715   4.122 -34.013  1.00  0.00     0.017 A 
HETATM   21  C   UNL     1     -10.019   3.934 -34.485  1.00  0.00     0.009 A 
HETATM   22  C   UNL     1     -11.129   4.487 -33.821  1.00  0.00    -0.051 A 
HETATM   23  C   UNL     1     -10.871   5.269 -32.679  1.00  0.00     0.009 A 
HETATM   24  C   UNL     1      -9.569   5.466 -32.203  1.00  0.00     0.017 A 
BRANCH  22  25
HETATM   25  C   UNL     1     -12.561   4.277 -34.350  1.00  0.00    -0.024 C 
HETATM   26  C   UNL     1     -13.041   5.457 -35.226  1.00  0.00     0.019 C 
HETATM   27  C   UNL     1     -13.508   4.142 -33.142  1.00  0.00     0.019 C 
HETATM   28  C   UNL     1     -12.695   3.005 -35.221  1.00  0.00     0.019 C 
ENDBRANCH  22  25
ENDBRANCH  16  19
ENDBRANCH   1  15
BRANCH   1  29
HETATM   29  C   UNL     1      -4.152   2.629 -32.342  1.00  0.00     0.426 C 
HETATM   30  F   UNL     1      -2.889   2.768 -32.815  1.00  0.00    -0.167 F 
HETATM   31  F   UNL     1      -4.039   1.966 -31.167  1.00  0.00    -0.167 F 
HETATM   32  F   UNL     1      -4.819   1.815 -33.192  1.00  0.00    -0.167 F 
ENDBRANCH   1  29
BRANCH   7  33
HETATM   33  C   UNL     1      -2.173   7.718 -30.703  1.00  0.00     0.140 C 
BRANCH  33  34
HETATM   34  C   UNL     1      -0.887   7.131 -30.111  1.00  0.00     0.059 C 
BRANCH  34  35
HETATM   35  C   UNL     1      -0.319   8.002 -29.018  1.00  0.00    -0.057 A 
HETATM   36  C   UNL     1      -1.101   8.999 -28.420  1.00  0.00     0.007 A 
HETATM   37  C   UNL     1      -0.565   9.815 -27.421  1.00  0.00     0.001 A 
HETATM   38  C   UNL     1       0.752   9.636 -27.008  1.00  0.00     0.000 A 
HETATM   39  C   UNL     1       1.537   8.645 -27.593  1.00  0.00     0.001 A 
HETATM   40  C   UNL     1       1.006   7.832 -28.596  1.00  0.00     0.007 A 
ENDBRANCH  34  35
ENDBRANCH  33  34
ENDBRANCH   7  33
TORSDOF 7
ENDMDL
MODEL 10
REMARK VINA RESULT:      -8.4      2.260      9.793
REMARK  7 active torsions:
REMARK  status: ('A' for Active; 'I' for Inactive)
REMARK    1  A    between atoms: C_2  and  C_3 
REMARK    2  A    between atoms: C_6  and  C_7 
REMARK       I    between atoms: C_7  and  N_8 
REMARK    3  A    between atoms: N_8  and  C_9 
REMARK    4  A    between atoms: C_9  and  C_10 
REMARK    5  A    between atoms: N_19  and  C_20 
REMARK    6  A    between atoms: C_20  and  C_21 
REMARK    7  A    between atoms: C_21  and  C_22 
ROOT
HETATM    1  C   UNL     1      -4.198   4.982 -32.029  1.00  0.00     0.249 A 
HETATM    2  C   UNL     1      -5.559   5.682 -32.190  1.00  0.00     0.266 A 
HETATM    3  O   UNL     1      -5.763   6.843 -32.511  1.00  0.00    -0.270 OA
HETATM    4  N   UNL     1      -6.550   4.764 -31.863  1.00  0.00    -0.310 N 
HETATM    5  C   UNL     1      -6.013   3.587 -31.461  1.00  0.00     0.129 A 
HETATM    6  C   UNL     1      -4.685   3.661 -31.526  1.00  0.00     0.101 A 
HETATM    7  N   UNL     1      -6.685   2.467 -31.056  1.00  0.00    -0.284 N 
HETATM    8  C   UNL     1      -5.980   1.309 -30.724  1.00  0.00     0.331 A 
HETATM    9  O   UNL     1      -6.506   0.244 -30.412  1.00  0.00    -0.246 OA
HETATM   10  N   UNL     1      -4.607   1.408 -30.785  1.00  0.00    -0.275 N 
HETATM   11  C   UNL     1      -3.884   2.504 -31.170  1.00  0.00     0.262 A 
HETATM   12  O   UNL     1      -2.663   2.515 -31.242  1.00  0.00    -0.267 OA
HETATM   13  H   UNL     1      -7.530   5.010 -31.854  1.00  0.00     0.170 HD
HETATM   14  H   UNL     1      -4.089   0.579 -30.539  1.00  0.00     0.173 HD
ENDROOT
BRANCH   1  15
HETATM   15  N   UNL     1      -3.342   5.716 -31.073  1.00  0.00    -0.327 N 
HETATM   16  C   UNL     1      -3.801   6.209 -29.873  1.00  0.00     0.253 C 
HETATM   17  O   UNL     1      -4.943   6.037 -29.465  1.00  0.00    -0.268 OA
HETATM   18  H   UNL     1      -2.509   6.147 -31.461  1.00  0.00     0.164 HD
BRANCH  16  19
HETATM   19  C   UNL     1      -2.837   7.028 -29.094  1.00  0.00     0.032 A 
HETATM   20  C   UNL     1      -1.568   7.257 -29.625  1.00  0.00     0.017 A 
HETATM   21  C   UNL     1      -0.638   8.027 -28.918  1.00  0.00     0.009 A 
HETATM   22  C   UNL     1      -0.958   8.612 -27.678  1.00  0.00    -0.051 A 
HETATM   23  C   UNL     1      -2.244   8.361 -27.161  1.00  0.00     0.009 A 
HETATM   24  C   UNL     1      -3.177   7.586 -27.861  1.00  0.00     0.017 A 
BRANCH  22  25
HETATM   25  C   UNL     1       0.073   9.457 -26.905  1.00  0.00    -0.024 C 
HETATM   26  C   UNL     1      -0.167  10.975 -27.076  1.00  0.00     0.019 C 
HETATM   27  C   UNL     1       1.476   9.116 -27.443  1.00  0.00     0.019 C 
HETATM   28  C   UNL     1       0.051   9.182 -25.384  1.00  0.00     0.019 C 
ENDBRANCH  22  25
ENDBRANCH  16  19
ENDBRANCH   1  15
BRANCH   1  29
HETATM   29  C   UNL     1      -3.618   4.885 -33.444  1.00  0.00     0.426 C 
HETATM   30  F   UNL     1      -4.460   4.229 -34.279  1.00  0.00    -0.167 F 
HETATM   31  F   UNL     1      -3.423   6.107 -33.995  1.00  0.00    -0.167 F 
HETATM   32  F   UNL     1      -2.428   4.244 -33.476  1.00  0.00    -0.167 F 
ENDBRANCH   1  29
BRANCH   7  33
HETATM   33  C   UNL     1      -8.146   2.435 -30.996  1.00  0.00     0.140 C 
BRANCH  33  34
HETATM   34  C   UNL     1      -8.781   2.432 -32.391  1.00  0.00     0.059 C 
BRANCH  34  35
HETATM   35  C   UNL     1      -8.207   1.350 -33.271  1.00  0.00    -0.057 A 
HETATM   36  C   UNL     1      -7.342   1.672 -34.327  1.00  0.00     0.007 A 
HETATM   37  C   UNL     1      -6.828   0.669 -35.150  1.00  0.00     0.001 A 
HETATM   38  C   UNL     1      -7.167  -0.663 -34.922  1.00  0.00     0.000 A 
HETATM   39  C   UNL     1      -8.022  -0.993 -33.874  1.00  0.00     0.001 A 
HETATM   40  C   UNL     1      -8.543   0.008 -33.053  1.00  0.00     0.007 A 
ENDBRANCH  34  35
ENDBRANCH  33  34
ENDBRANCH   7  33
TORSDOF 7
ENDMDL
