MODEL 1
REMARK VINA RESULT:      -8.8      0.000      0.000
REMARK  4 active torsions:
REMARK  status: ('A' for Active; 'I' for Inactive)
REMARK    1  A    between atoms: C_2  and  C_3 
REMARK       I    between atoms: N_10  and  C_11 
REMARK    2  A    between atoms: C_11  and  C_12 
REMARK    3  A    between atoms: C_16  and  C_17 
REMARK    4  A    between atoms: C_18  and  O_19 
ROOT
HETATM    1  C   UNL     1      -4.140   5.188 -32.968  1.00  0.00     0.068 A 
HETATM    2  N   UNL     1      -4.153   6.440 -32.484  1.00  0.00    -0.178 NA
HETATM    3  N   UNL     1      -5.445   6.812 -32.538  1.00  0.00    -0.281 N 
HETATM    4  H   UNL     1      -5.696   7.733 -32.197  1.00  0.00     0.189 HD
HETATM    5  C   UNL     1      -6.250   5.833 -33.026  1.00  0.00     0.039 A 
HETATM    6  C   UNL     1      -5.439   4.773 -33.353  1.00  0.00     0.011 A 
HETATM    7  C   UNL     1      -5.939   3.497 -33.920  1.00  0.00     0.169 C 
HETATM    8  N   UNL     1      -7.394   3.376 -33.678  1.00  0.00    -0.342 N 
HETATM    9  C   UNL     1      -8.063   2.157 -33.864  1.00  0.00     0.272 C 
HETATM   10  O   UNL     1      -9.247   2.125 -34.199  1.00  0.00    -0.266 OA
HETATM   11  C   UNL     1      -8.189   4.604 -33.926  1.00  0.00     0.132 C 
HETATM   12  C   UNL     1      -7.726   5.835 -33.111  1.00  0.00     0.079 C 
ENDROOT
BRANCH   9  13
HETATM   13  C   UNL     1      -7.339   0.919 -33.708  1.00  0.00     0.120 C 
HETATM   14  N   UNL     1      -6.857   0.526 -32.490  1.00  0.00    -0.272 N 
HETATM   15  H   UNL     1      -6.919   1.045 -31.618  1.00  0.00     0.189 HD
HETATM   16  N   UNL     1      -6.317  -0.704 -32.483  1.00  0.00    -0.174 NA
HETATM   17  C   UNL     1      -6.362  -1.097 -33.769  1.00  0.00     0.092 C 
HETATM   18  C   UNL     1      -6.895  -0.056 -34.577  1.00  0.00     0.071 C 
BRANCH  17  19
HETATM   19  C   UNL     1      -5.928  -2.441 -34.175  1.00  0.00     0.028 A 
HETATM   20  C   UNL     1      -4.652  -2.939 -33.853  1.00  0.00     0.078 A 
HETATM   21  C   UNL     1      -4.264  -4.232 -34.207  1.00  0.00     0.037 A 
HETATM   22  C   UNL     1      -5.155  -5.061 -34.885  1.00  0.00     0.003 A 
HETATM   23  C   UNL     1      -6.425  -4.594 -35.212  1.00  0.00     0.001 A 
HETATM   24  C   UNL     1      -6.808  -3.295 -34.863  1.00  0.00     0.017 A 
BRANCH  20  25
HETATM   25  O   UNL     1      -3.722  -2.201 -33.163  1.00  0.00    -0.360 OA
HETATM   26  H   UNL     1      -2.909  -2.197 -33.721  1.00  0.00     0.217 HD
ENDBRANCH  20  25
ENDBRANCH  17  19
ENDBRANCH   9  13
BRANCH   1  27
HETATM   27  C   UNL     1      -2.873   4.374 -32.991  1.00  0.00     0.032 C 
HETATM   28  C   UNL     1      -2.221   4.348 -31.606  1.00  0.00     0.016 C 
HETATM   29  C   UNL     1      -1.875   4.852 -34.046  1.00  0.00     0.016 C 
ENDBRANCH   1  27
TORSDOF 4
ENDMDL
MODEL 2
REMARK VINA RESULT:      -8.7      2.726      7.593
REMARK  4 active torsions:
REMARK  status: ('A' for Active; 'I' for Inactive)
REMARK    1  A    between atoms: C_2  and  C_3 
REMARK       I    between atoms: N_10  and  C_11 
REMARK    2  A    between atoms: C_11  and  C_12 
REMARK    3  A    between atoms: C_16  and  C_17 
REMARK    4  A    between atoms: C_18  and  O_19 
ROOT
HETATM    1  C   UNL     1      -5.587  -0.833 -33.394  1.00  0.00     0.068 A 
HETATM    2  N   UNL     1      -6.315  -1.867 -33.843  1.00  0.00    -0.178 NA
HETATM    3  N   UNL     1      -7.466  -1.314 -34.267  1.00  0.00    -0.281 N 
HETATM    4  H   UNL     1      -8.171  -1.921 -34.672  1.00  0.00     0.189 HD
HETATM    5  C   UNL     1      -7.484   0.035 -34.115  1.00  0.00     0.039 A 
HETATM    6  C   UNL     1      -6.298   0.386 -33.517  1.00  0.00     0.011 A 
HETATM    7  C   UNL     1      -5.928   1.782 -33.180  1.00  0.00     0.169 C 
HETATM    8  N   UNL     1      -6.777   2.725 -33.941  1.00  0.00    -0.342 N 
HETATM    9  C   UNL     1      -6.457   4.089 -34.021  1.00  0.00     0.272 C 
HETATM   10  O   UNL     1      -7.336   4.942 -34.146  1.00  0.00    -0.266 OA
HETATM   11  C   UNL     1      -8.220   2.386 -33.999  1.00  0.00     0.132 C 
HETATM   12  C   UNL     1      -8.519   0.983 -34.579  1.00  0.00     0.079 C 
ENDROOT
BRANCH   9  13
HETATM   13  C   UNL     1      -5.081   4.505 -33.905  1.00  0.00     0.120 C 
HETATM   14  N   UNL     1      -4.370   4.920 -34.997  1.00  0.00    -0.272 N 
HETATM   15  H   UNL     1      -4.697   4.948 -35.959  1.00  0.00     0.189 HD
HETATM   16  N   UNL     1      -3.145   5.392 -34.708  1.00  0.00    -0.174 NA
HETATM   17  C   UNL     1      -3.012   5.191 -33.384  1.00  0.00     0.092 C 
HETATM   18  C   UNL     1      -4.165   4.535 -32.874  1.00  0.00     0.071 C 
BRANCH  17  19
HETATM   19  C   UNL     1      -1.820   5.649 -32.656  1.00  0.00     0.028 A 
HETATM   20  C   UNL     1      -1.201   6.880 -32.942  1.00  0.00     0.078 A 
HETATM   21  C   UNL     1      -0.095   7.324 -32.217  1.00  0.00     0.037 A 
HETATM   22  C   UNL     1       0.411   6.546 -31.178  1.00  0.00     0.003 A 
HETATM   23  C   UNL     1      -0.186   5.326 -30.872  1.00  0.00     0.001 A 
HETATM   24  C   UNL     1      -1.291   4.879 -31.605  1.00  0.00     0.017 A 
BRANCH  20  25
HETATM   25  O   UNL     1      -1.649   7.721 -33.929  1.00  0.00    -0.360 OA
HETATM   26  H   UNL     1      -2.348   8.280 -33.515  1.00  0.00     0.217 HD
ENDBRANCH  20  25
ENDBRANCH  17  19
ENDBRANCH   9  13
BRANCH   1  27
HETATM   27  C   UNL     1      -4.174  -1.026 -32.909  1.00  0.00     0.032 C 
HETATM   28  C   UNL     1      -3.748  -2.490 -33.051  1.00  0.00     0.016 C 
HETATM   29  C   UNL     1      -3.963  -0.541 -31.475  1.00  0.00     0.016 C 
ENDBRANCH   1  27
TORSDOF 4
ENDMDL
MODEL 3
REMARK VINA RESULT:      -8.6      3.044      7.102
REMARK  4 active torsions:
REMARK  status: ('A' for Active; 'I' for Inactive)
REMARK    1  A    between atoms: C_2  and  C_3 
REMARK       I    between atoms: N_10  and  C_11 
REMARK    2  A    between atoms: C_11  and  C_12 
REMARK    3  A    between atoms: C_16  and  C_17 
REMARK    4  A    between atoms: C_18  and  O_19 
ROOT
HETATM    1  C   UNL     1      -4.737  -2.469 -33.845  1.00  0.00     0.068 A 
HETATM    2  N   UNL     1      -3.866  -3.342 -33.313  1.00  0.00    -0.178 NA
HETATM    3  N   UNL     1      -3.237  -2.648 -32.347  1.00  0.00    -0.281 N 
HETATM    4  H   UNL     1      -2.536  -3.125 -31.790  1.00  0.00     0.189 HD
HETATM    5  C   UNL     1      -3.690  -1.372 -32.241  1.00  0.00     0.039 A 
HETATM    6  C   UNL     1      -4.639  -1.202 -33.219  1.00  0.00     0.011 A 
HETATM    7  C   UNL     1      -5.381   0.064 -33.435  1.00  0.00     0.169 C 
HETATM    8  N   UNL     1      -5.277   0.919 -32.232  1.00  0.00    -0.342 N 
HETATM    9  C   UNL     1      -6.104   2.040 -32.062  1.00  0.00     0.272 C 
HETATM   10  O   UNL     1      -5.723   3.022 -31.427  1.00  0.00    -0.266 OA
HETATM   11  C   UNL     1      -3.928   1.002 -31.620  1.00  0.00     0.132 C 
HETATM   12  C   UNL     1      -3.327  -0.367 -31.220  1.00  0.00     0.079 C 
ENDROOT
BRANCH   9  13
HETATM   13  C   UNL     1      -7.405   2.063 -32.685  1.00  0.00     0.120 C 
HETATM   14  N   UNL     1      -7.624   2.752 -33.846  1.00  0.00    -0.272 N 
HETATM   15  H   UNL     1      -6.948   3.319 -34.352  1.00  0.00     0.189 HD
HETATM   16  N   UNL     1      -8.851   2.575 -34.367  1.00  0.00    -0.174 NA
HETATM   17  C   UNL     1      -9.493   1.814 -33.461  1.00  0.00     0.092 C 
HETATM   18  C   UNL     1      -8.648   1.571 -32.344  1.00  0.00     0.071 C 
BRANCH  17  19
HETATM   19  C   UNL     1     -10.860   1.330 -33.700  1.00  0.00     0.028 A 
HETATM   20  C   UNL     1     -11.788   2.067 -34.458  1.00  0.00     0.078 A 
HETATM   21  C   UNL     1     -13.070   1.578 -34.713  1.00  0.00     0.037 A 
HETATM   22  C   UNL     1     -13.447   0.331 -34.221  1.00  0.00     0.003 A 
HETATM   23  C   UNL     1     -12.546  -0.420 -33.471  1.00  0.00     0.001 A 
HETATM   24  C   UNL     1     -11.264   0.075 -33.210  1.00  0.00     0.017 A 
BRANCH  20  25
HETATM   25  O   UNL     1     -11.492   3.290 -35.004  1.00  0.00    -0.360 OA
HETATM   26  H   UNL     1     -10.519   3.291 -35.161  1.00  0.00     0.217 HD
ENDBRANCH  20  25
ENDBRANCH  17  19
ENDBRANCH   9  13
BRANCH   1  27
HETATM   27  C   UNL     1      -5.708  -2.892 -34.915  1.00  0.00     0.032 C 
HETATM   28  C   UNL     1      -7.119  -2.387 -34.596  1.00  0.00     0.016 C 
HETATM   29  C   UNL     1      -5.718  -4.403 -35.150  1.00  0.00     0.016 C 
ENDBRANCH   1  27
TORSDOF 4
ENDMDL
MODEL 4
REMARK VINA RESULT:      -8.5      2.693      3.002
REMARK  4 active torsions:
REMARK  status: ('A' for Active; 'I' for Inactive)
REMARK    1  A    between atoms: C_2  and  C_3 
REMARK       I    between atoms: N_10  and  C_11 
REMARK    2  A    between atoms: C_11  and  C_12 
REMARK    3  A    between atoms: C_16  and  C_17 
REMARK    4  A    between atoms: C_18  and  O_19 
ROOT
HETATM    1  C   UNL     1      -3.424   5.633 -32.867  1.00  0.00     0.068 A 
HETATM    2  N   UNL     1      -3.175   6.885 -32.452  1.00  0.00    -0.178 NA
HETATM    3  N   UNL     1      -3.805   6.984 -31.268  1.00  0.00    -0.281 N 
HETATM    4  H   UNL     1      -3.734   7.856 -30.755  1.00  0.00     0.189 HD
HETATM    5  C   UNL     1      -4.432   5.832 -30.913  1.00  0.00     0.039 A 
HETATM    6  C   UNL     1      -4.241   4.940 -31.940  1.00  0.00     0.011 A 
HETATM    7  C   UNL     1      -4.771   3.554 -31.936  1.00  0.00     0.169 C 
HETATM    8  N   UNL     1      -5.130   3.157 -30.557  1.00  0.00    -0.342 N 
HETATM    9  C   UNL     1      -5.393   1.818 -30.230  1.00  0.00     0.272 C 
HETATM   10  O   UNL     1      -6.174   1.525 -29.326  1.00  0.00    -0.266 OA
HETATM   11  C   UNL     1      -5.856   4.180 -29.764  1.00  0.00     0.132 C 
HETATM   12  C   UNL     1      -5.112   5.530 -29.635  1.00  0.00     0.079 C 
ENDROOT
BRANCH   9  13
HETATM   13  C   UNL     1      -4.777   0.765 -31.001  1.00  0.00     0.120 C 
HETATM   14  N   UNL     1      -3.419   0.609 -31.030  1.00  0.00    -0.272 N 
HETATM   15  H   UNL     1      -2.730   1.199 -30.571  1.00  0.00     0.189 HD
HETATM   16  N   UNL     1      -3.006  -0.488 -31.688  1.00  0.00    -0.174 NA
HETATM   17  C   UNL     1      -4.135  -1.022 -32.191  1.00  0.00     0.092 C 
HETATM   18  C   UNL     1      -5.247  -0.197 -31.870  1.00  0.00     0.071 C 
BRANCH  17  19
HETATM   19  C   UNL     1      -4.119  -2.295 -32.925  1.00  0.00     0.028 A 
HETATM   20  C   UNL     1      -3.370  -3.400 -32.481  1.00  0.00     0.078 A 
HETATM   21  C   UNL     1      -3.394  -4.617 -33.163  1.00  0.00     0.037 A 
HETATM   22  C   UNL     1      -4.183  -4.757 -34.303  1.00  0.00     0.003 A 
HETATM   23  C   UNL     1      -4.938  -3.680 -34.760  1.00  0.00     0.001 A 
HETATM   24  C   UNL     1      -4.905  -2.459 -34.079  1.00  0.00     0.017 A 
BRANCH  20  25
HETATM   25  O   UNL     1      -2.588  -3.359 -31.354  1.00  0.00    -0.360 OA
HETATM   26  H   UNL     1      -1.799  -2.817 -31.588  1.00  0.00     0.217 HD
ENDBRANCH  20  25
ENDBRANCH  17  19
ENDBRANCH   9  13
BRANCH   1  27
HETATM   27  C   UNL     1      -2.809   5.093 -34.130  1.00  0.00     0.032 C 
HETATM   28  C   UNL     1      -1.463   5.770 -34.410  1.00  0.00     0.016 C 
HETATM   29  C   UNL     1      -3.732   5.213 -35.343  1.00  0.00     0.016 C 
ENDBRANCH   1  27
TORSDOF 4
ENDMDL
MODEL 5
REMARK VINA RESULT:      -8.5      2.410      2.572
REMARK  4 active torsions:
REMARK  status: ('A' for Active; 'I' for Inactive)
REMARK    1  A    between atoms: C_2  and  C_3 
REMARK       I    between atoms: N_10  and  C_11 
REMARK    2  A    between atoms: C_11  and  C_12 
REMARK    3  A    between atoms: C_16  and  C_17 
REMARK    4  A    between atoms: C_18  and  O_19 
ROOT
HETATM    1  C   UNL     1      -5.604   3.579 -30.419  1.00  0.00     0.068 A 
HETATM    2  N   UNL     1      -5.712   4.238 -29.254  1.00  0.00    -0.178 NA
HETATM    3  N   UNL     1      -7.028   4.484 -29.123  1.00  0.00    -0.281 N 
HETATM    4  H   UNL     1      -7.347   4.965 -28.289  1.00  0.00     0.189 HD
HETATM    5  C   UNL     1      -7.757   3.991 -30.157  1.00  0.00     0.039 A 
HETATM    6  C   UNL     1      -6.868   3.427 -31.040  1.00  0.00     0.011 A 
HETATM    7  C   UNL     1      -7.272   2.772 -32.309  1.00  0.00     0.169 C 
HETATM    8  N   UNL     1      -8.713   2.442 -32.267  1.00  0.00    -0.342 N 
HETATM    9  C   UNL     1      -9.289   1.579 -33.212  1.00  0.00     0.272 C 
HETATM   10  O   UNL     1     -10.467   1.698 -33.548  1.00  0.00    -0.266 OA
HETATM   11  C   UNL     1      -9.599   3.500 -31.721  1.00  0.00     0.132 C 
HETATM   12  C   UNL     1      -9.229   3.961 -30.292  1.00  0.00     0.079 C 
ENDROOT
BRANCH   9  13
HETATM   13  C   UNL     1      -8.474   0.566 -33.839  1.00  0.00     0.120 C 
HETATM   14  N   UNL     1      -7.958   0.747 -35.092  1.00  0.00    -0.272 N 
HETATM   15  H   UNL     1      -8.108   1.547 -35.701  1.00  0.00     0.189 HD
HETATM   16  N   UNL     1      -7.120  -0.228 -35.487  1.00  0.00    -0.174 NA
HETATM   17  C   UNL     1      -7.162  -1.130 -34.489  1.00  0.00     0.092 C 
HETATM   18  C   UNL     1      -8.088  -0.712 -33.495  1.00  0.00     0.071 C 
BRANCH  17  19
HETATM   19  C   UNL     1      -6.312  -2.329 -34.505  1.00  0.00     0.028 A 
HETATM   20  C   UNL     1      -4.950  -2.278 -34.158  1.00  0.00     0.078 A 
HETATM   21  C   UNL     1      -4.162  -3.429 -34.136  1.00  0.00     0.037 A 
HETATM   22  C   UNL     1      -4.726  -4.663 -34.452  1.00  0.00     0.003 A 
HETATM   23  C   UNL     1      -6.074  -4.741 -34.794  1.00  0.00     0.001 A 
HETATM   24  C   UNL     1      -6.860  -3.584 -34.823  1.00  0.00     0.017 A 
BRANCH  20  25
HETATM   25  O   UNL     1      -4.318  -1.112 -33.807  1.00  0.00    -0.360 OA
HETATM   26  H   UNL     1      -5.005  -0.406 -33.851  1.00  0.00     0.217 HD
ENDBRANCH  20  25
ENDBRANCH  17  19
ENDBRANCH   9  13
BRANCH   1  27
HETATM   27  C   UNL     1      -4.280   3.039 -30.890  1.00  0.00     0.032 C 
HETATM   28  C   UNL     1      -3.805   3.783 -32.141  1.00  0.00     0.016 C 
HETATM   29  C   UNL     1      -4.304   1.530 -31.139  1.00  0.00     0.016 C 
ENDBRANCH   1  27
TORSDOF 4
ENDMDL
MODEL 6
REMARK VINA RESULT:      -8.4      2.405      7.268
REMARK  4 active torsions:
REMARK  status: ('A' for Active; 'I' for Inactive)
REMARK    1  A    between atoms: C_2  and  C_3 
REMARK       I    between atoms: N_10  and  C_11 
REMARK    2  A    between atoms: C_11  and  C_12 
REMARK    3  A    between atoms: C_16  and  C_17 
REMARK    4  A    between atoms: C_18  and  O_19 
ROOT
HETATM    1  C   UNL     1      -5.068  -1.172 -33.237  1.00  0.00     0.068 A 
HETATM    2  N   UNL     1      -5.251  -2.244 -34.024  1.00  0.00    -0.178 NA
HETATM    3  N   UNL     1      -6.309  -1.926 -34.792  1.00  0.00    -0.281 N 
HETATM    4  H   UNL     1      -6.617  -2.597 -35.488  1.00  0.00     0.189 HD
HETATM    5  C   UNL     1      -6.792  -0.685 -34.528  1.00  0.00     0.039 A 
HETATM    6  C   UNL     1      -6.039  -0.173 -33.499  1.00  0.00     0.011 A 
HETATM    7  C   UNL     1      -6.250   1.174 -32.915  1.00  0.00     0.169 C 
HETATM    8  N   UNL     1      -7.047   2.005 -33.844  1.00  0.00    -0.342 N 
HETATM    9  C   UNL     1      -7.157   3.392 -33.666  1.00  0.00     0.272 C 
HETATM   10  O   UNL     1      -8.163   4.003 -34.028  1.00  0.00    -0.266 OA
HETATM   11  C   UNL     1      -8.211   1.330 -34.469  1.00  0.00     0.132 C 
HETATM   12  C   UNL     1      -7.854   0.044 -35.252  1.00  0.00     0.079 C 
ENDROOT
BRANCH   9  13
HETATM   13  C   UNL     1      -6.095   4.110 -33.004  1.00  0.00     0.120 C 
HETATM   14  N   UNL     1      -6.147   4.377 -31.664  1.00  0.00    -0.272 N 
HETATM   15  H   UNL     1      -6.907   4.146 -31.028  1.00  0.00     0.189 HD
HETATM   16  N   UNL     1      -5.031   4.940 -31.172  1.00  0.00    -0.174 NA
HETATM   17  C   UNL     1      -4.250   5.136 -32.251  1.00  0.00     0.092 C 
HETATM   18  C   UNL     1      -4.937   4.728 -33.427  1.00  0.00     0.071 C 
BRANCH  17  19
HETATM   19  C   UNL     1      -2.888   5.673 -32.124  1.00  0.00     0.028 A 
HETATM   20  C   UNL     1      -1.842   4.920 -31.559  1.00  0.00     0.078 A 
HETATM   21  C   UNL     1      -0.544   5.423 -31.481  1.00  0.00     0.037 A 
HETATM   22  C   UNL     1      -0.261   6.693 -31.979  1.00  0.00     0.003 A 
HETATM   23  C   UNL     1      -1.277   7.457 -32.547  1.00  0.00     0.001 A 
HETATM   24  C   UNL     1      -2.580   6.953 -32.617  1.00  0.00     0.017 A 
BRANCH  20  25
HETATM   25  O   UNL     1      -2.025   3.651 -31.069  1.00  0.00    -0.360 OA
HETATM   26  H   UNL     1      -2.533   3.753 -30.230  1.00  0.00     0.217 HD
ENDBRANCH  20  25
ENDBRANCH  17  19
ENDBRANCH   9  13
BRANCH   1  27
HETATM   27  C   UNL     1      -3.908  -1.095 -32.280  1.00  0.00     0.032 C 
HETATM   28  C   UNL     1      -2.889  -0.052 -32.747  1.00  0.00     0.016 C 
HETATM   29  C   UNL     1      -3.229  -2.447 -32.055  1.00  0.00     0.016 C 
ENDBRANCH   1  27
TORSDOF 4
ENDMDL
MODEL 7
REMARK VINA RESULT:      -8.4      3.263      7.337
REMARK  4 active torsions:
REMARK  status: ('A' for Active; 'I' for Inactive)
REMARK    1  A    between atoms: C_2  and  C_3 
REMARK       I    between atoms: N_10  and  C_11 
REMARK    2  A    between atoms: C_11  and  C_12 
REMARK    3  A    between atoms: C_16  and  C_17 
REMARK    4  A    between atoms: C_18  and  O_19 
ROOT
HETATM    1  C   UNL     1      -4.698  -2.618 -33.770  1.00  0.00     0.068 A 
HETATM    2  N   UNL     1      -3.741  -3.478 -33.386  1.00  0.00    -0.178 NA
HETATM    3  N   UNL     1      -3.010  -2.795 -32.488  1.00  0.00    -0.281 N 
HETATM    4  H   UNL     1      -2.229  -3.266 -32.044  1.00  0.00     0.189 HD
HETATM    5  C   UNL     1      -3.480  -1.538 -32.279  1.00  0.00     0.039 A 
HETATM    6  C   UNL     1      -4.554  -1.368 -33.119  1.00  0.00     0.011 A 
HETATM    7  C   UNL     1      -5.353  -0.121 -33.192  1.00  0.00     0.169 C 
HETATM    8  N   UNL     1      -5.114   0.701 -31.984  1.00  0.00    -0.342 N 
HETATM    9  C   UNL     1      -5.943   1.788 -31.669  1.00  0.00     0.272 C 
HETATM   10  O   UNL     1      -5.509   2.763 -31.055  1.00  0.00    -0.266 OA
HETATM   11  C   UNL     1      -3.699   0.808 -31.551  1.00  0.00     0.132 C 
HETATM   12  C   UNL     1      -3.014  -0.553 -31.280  1.00  0.00     0.079 C 
ENDROOT
BRANCH   9  13
HETATM   13  C   UNL     1      -7.315   1.789 -32.115  1.00  0.00     0.120 C 
HETATM   14  N   UNL     1      -8.339   1.478 -31.263  1.00  0.00    -0.272 N 
HETATM   15  H   UNL     1      -8.253   1.195 -30.291  1.00  0.00     0.189 HD
HETATM   16  N   UNL     1      -9.563   1.644 -31.792  1.00  0.00    -0.174 NA
HETATM   17  C   UNL     1      -9.332   1.988 -33.072  1.00  0.00     0.092 C 
HETATM   18  C   UNL     1      -7.934   1.978 -33.333  1.00  0.00     0.071 C 
BRANCH  17  19
HETATM   19  C   UNL     1     -10.432   2.336 -33.982  1.00  0.00     0.028 A 
HETATM   20  C   UNL     1     -11.600   1.557 -34.069  1.00  0.00     0.078 A 
HETATM   21  C   UNL     1     -12.656   1.919 -34.906  1.00  0.00     0.037 A 
HETATM   22  C   UNL     1     -12.568   3.080 -35.669  1.00  0.00     0.003 A 
HETATM   23  C   UNL     1     -11.425   3.872 -35.599  1.00  0.00     0.001 A 
HETATM   24  C   UNL     1     -10.364   3.502 -34.765  1.00  0.00     0.017 A 
BRANCH  20  25
HETATM   25  O   UNL     1     -11.782   0.413 -33.333  1.00  0.00    -0.360 OA
HETATM   26  H   UNL     1     -11.215   0.510 -32.533  1.00  0.00     0.217 HD
ENDBRANCH  20  25
ENDBRANCH  17  19
ENDBRANCH   9  13
BRANCH   1  27
HETATM   27  C   UNL     1      -5.790  -3.039 -34.717  1.00  0.00     0.032 C 
HETATM   28  C   UNL     1      -7.149  -2.510 -34.247  1.00  0.00     0.016 C 
HETATM   29  C   UNL     1      -5.847  -4.552 -34.929  1.00  0.00     0.016 C 
ENDBRANCH   1  27
TORSDOF 4
ENDMDL
MODEL 8
REMARK VINA RESULT:      -8.2      5.066      9.497
REMARK  4 active torsions:
REMARK  status: ('A' for Active; 'I' for Inactive)
REMARK    1  A    between atoms: C_2  and  C_3 
REMARK       I    between atoms: N_10  and  C_11 
REMARK    2  A    between atoms: C_11  and  C_12 
REMARK    3  A    between atoms: C_16  and  C_17 
REMARK    4  A    between atoms: C_18  and  O_19 
ROOT
HETATM    1  C   UNL     1      -5.556   3.643 -31.882  1.00  0.00     0.068 A 
HETATM    2  N   UNL     1      -6.286   2.882 -32.713  1.00  0.00    -0.178 NA
HETATM    3  N   UNL     1      -5.891   3.248 -33.946  1.00  0.00    -0.281 N 
HETATM    4  H   UNL     1      -6.306   2.779 -34.744  1.00  0.00     0.189 HD
HETATM    5  C   UNL     1      -4.925   4.203 -33.922  1.00  0.00     0.039 A 
HETATM    6  C   UNL     1      -4.703   4.515 -32.603  1.00  0.00     0.011 A 
HETATM    7  C   UNL     1      -3.712   5.522 -32.151  1.00  0.00     0.169 C 
HETATM    8  N   UNL     1      -2.745   5.797 -33.236  1.00  0.00    -0.342 N 
HETATM    9  C   UNL     1      -1.553   6.495 -32.987  1.00  0.00     0.272 C 
HETATM   10  O   UNL     1      -1.027   7.187 -33.859  1.00  0.00    -0.266 OA
HETATM   11  C   UNL     1      -3.329   5.960 -34.590  1.00  0.00     0.132 C 
HETATM   12  C   UNL     1      -4.169   4.751 -35.068  1.00  0.00     0.079 C 
ENDROOT
BRANCH   9  13
HETATM   13  C   UNL     1      -0.959   6.441 -31.674  1.00  0.00     0.120 C 
HETATM   14  N   UNL     1      -0.331   5.312 -31.224  1.00  0.00    -0.272 N 
HETATM   15  H   UNL     1      -0.247   4.428 -31.717  1.00  0.00     0.189 HD
HETATM   16  N   UNL     1       0.278   5.459 -30.035  1.00  0.00    -0.174 NA
HETATM   17  C   UNL     1      -0.042   6.708 -29.646  1.00  0.00     0.092 C 
HETATM   18  C   UNL     1      -0.908   7.307 -30.601  1.00  0.00     0.071 C 
BRANCH  17  19
HETATM   19  C   UNL     1       0.501   7.288 -28.410  1.00  0.00     0.028 A 
HETATM   20  C   UNL     1       0.262   6.710 -27.150  1.00  0.00     0.078 A 
HETATM   21  C   UNL     1       0.817   7.245 -25.987  1.00  0.00     0.037 A 
HETATM   22  C   UNL     1       1.636   8.369 -26.063  1.00  0.00     0.003 A 
HETATM   23  C   UNL     1       1.892   8.958 -27.299  1.00  0.00     0.001 A 
HETATM   24  C   UNL     1       1.328   8.424 -28.463  1.00  0.00     0.017 A 
BRANCH  20  25
HETATM   25  O   UNL     1      -0.509   5.587 -26.985  1.00  0.00    -0.360 OA
HETATM   26  H   UNL     1      -0.969   5.696 -26.120  1.00  0.00     0.217 HD
ENDBRANCH  20  25
ENDBRANCH  17  19
ENDBRANCH   9  13
BRANCH   1  27
HETATM   27  C   UNL     1      -5.640   3.469 -30.389  1.00  0.00     0.032 C 
HETATM   28  C   UNL     1      -5.797   1.990 -30.023  1.00  0.00     0.016 C 
HETATM   29  C   UNL     1      -6.754   4.301 -29.753  1.00  0.00     0.016 C 
ENDBRANCH   1  27
TORSDOF 4
ENDMDL
MODEL 9
REMARK VINA RESULT:      -8.1      1.985      2.188
REMARK  4 active torsions:
REMARK  status: ('A' for Active; 'I' for Inactive)
REMARK    1  A    between atoms: C_2  and  C_3 
REMARK       I    between atoms: N_10  and  C_11 
REMARK    2  A    between atoms: C_11  and  C_12 
REMARK    3  A    between atoms: C_16  and  C_17 
REMARK    4  A    between atoms: C_18  and  O_19 
ROOT
HETATM    1  C   UNL     1      -3.611   5.054 -31.800  1.00  0.00     0.068 A 
HETATM    2  N   UNL     1      -3.009   5.832 -30.886  1.00  0.00    -0.178 NA
HETATM    3  N   UNL     1      -3.919   5.970 -29.904  1.00  0.00    -0.281 N 
HETATM    4  H   UNL     1      -3.666   6.514 -29.086  1.00  0.00     0.189 HD
HETATM    5  C   UNL     1      -5.069   5.293 -30.159  1.00  0.00     0.039 A 
HETATM    6  C   UNL     1      -4.926   4.714 -31.397  1.00  0.00     0.011 A 
HETATM    7  C   UNL     1      -5.970   3.880 -32.041  1.00  0.00     0.169 C 
HETATM    8  N   UNL     1      -6.946   3.424 -31.026  1.00  0.00    -0.342 N 
HETATM    9  C   UNL     1      -7.869   2.407 -31.311  1.00  0.00     0.272 C 
HETATM   10  O   UNL     1      -8.971   2.376 -30.763  1.00  0.00    -0.266 OA
HETATM   11  C   UNL     1      -7.384   4.453 -30.051  1.00  0.00     0.132 C 
HETATM   12  C   UNL     1      -6.228   5.111 -29.261  1.00  0.00     0.079 C 
ENDROOT
BRANCH   9  13
HETATM   13  C   UNL     1      -7.543   1.407 -32.299  1.00  0.00     0.120 C 
HETATM   14  N   UNL     1      -7.578   1.694 -33.636  1.00  0.00    -0.272 N 
HETATM   15  H   UNL     1      -7.853   2.575 -34.060  1.00  0.00     0.189 HD
HETATM   16  N   UNL     1      -7.129   0.700 -34.422  1.00  0.00    -0.174 NA
HETATM   17  C   UNL     1      -6.878  -0.313 -33.572  1.00  0.00     0.092 C 
HETATM   18  C   UNL     1      -7.234   0.064 -32.248  1.00  0.00     0.071 C 
BRANCH  17  19
HETATM   19  C   UNL     1      -6.291  -1.576 -34.039  1.00  0.00     0.028 A 
HETATM   20  C   UNL     1      -4.904  -1.808 -34.009  1.00  0.00     0.078 A 
HETATM   21  C   UNL     1      -4.361  -3.027 -34.416  1.00  0.00     0.037 A 
HETATM   22  C   UNL     1      -5.200  -4.048 -34.854  1.00  0.00     0.003 A 
HETATM   23  C   UNL     1      -6.578  -3.847 -34.889  1.00  0.00     0.001 A 
HETATM   24  C   UNL     1      -7.119  -2.621 -34.488  1.00  0.00     0.017 A 
BRANCH  20  25
HETATM   25  O   UNL     1      -4.006  -0.869 -33.567  1.00  0.00    -0.360 OA
HETATM   26  H   UNL     1      -3.112  -1.223 -33.781  1.00  0.00     0.217 HD
ENDBRANCH  20  25
ENDBRANCH  17  19
ENDBRANCH   9  13
BRANCH   1  27
HETATM   27  C   UNL     1      -2.879   4.587 -33.030  1.00  0.00     0.032 C 
HETATM   28  C   UNL     1      -1.378   4.868 -32.907  1.00  0.00     0.016 C 
HETATM   29  C   UNL     1      -3.434   5.190 -34.321  1.00  0.00     0.016 C 
ENDBRANCH   1  27
TORSDOF 4
ENDMDL
MODEL 10
REMARK VINA RESULT:      -7.9      3.348      5.211
REMARK  4 active torsions:
REMARK  status: ('A' for Active; 'I' for Inactive)
REMARK    1  A    between atoms: C_2  and  C_3 
REMARK       I    between atoms: N_10  and  C_11 
REMARK    2  A    between atoms: C_11  and  C_12 
REMARK    3  A    between atoms: C_16  and  C_17 
REMARK    4  A    between atoms: C_18  and  O_19 
ROOT
HETATM    1  C   UNL     1     -11.756   2.970 -33.073  1.00  0.00     0.068 A 
HETATM    2  N   UNL     1     -12.501   4.006 -33.491  1.00  0.00    -0.178 NA
HETATM    3  N   UNL     1     -11.991   5.073 -32.850  1.00  0.00    -0.281 N 
HETATM    4  H   UNL     1     -12.396   5.984 -33.034  1.00  0.00     0.189 HD
HETATM    5  C   UNL     1     -10.941   4.749 -32.052  1.00  0.00     0.039 A 
HETATM    6  C   UNL     1     -10.777   3.388 -32.138  1.00  0.00     0.011 A 
HETATM    7  C   UNL     1      -9.724   2.638 -31.411  1.00  0.00     0.169 C 
HETATM    8  N   UNL     1      -8.665   3.567 -30.960  1.00  0.00    -0.342 N 
HETATM    9  C   UNL     1      -7.430   3.092 -30.495  1.00  0.00     0.272 C 
HETATM   10  O   UNL     1      -6.782   3.716 -29.655  1.00  0.00    -0.266 OA
HETATM   11  C   UNL     1      -9.140   4.843 -30.370  1.00  0.00     0.132 C 
HETATM   12  C   UNL     1     -10.060   5.668 -31.300  1.00  0.00     0.079 C 
ENDROOT
BRANCH   9  13
HETATM   13  C   UNL     1      -6.932   1.824 -30.971  1.00  0.00     0.120 C 
HETATM   14  N   UNL     1      -6.719   0.778 -30.115  1.00  0.00    -0.272 N 
HETATM   15  H   UNL     1      -6.845   0.785 -29.107  1.00  0.00     0.189 HD
HETATM   16  N   UNL     1      -6.375  -0.369 -30.724  1.00  0.00    -0.174 NA
HETATM   17  C   UNL     1      -6.266  -0.039 -32.025  1.00  0.00     0.092 C 
HETATM   18  C   UNL     1      -6.500   1.353 -32.194  1.00  0.00     0.071 C 
BRANCH  17  19
HETATM   19  C   UNL     1      -5.974  -1.050 -33.050  1.00  0.00     0.028 A 
HETATM   20  C   UNL     1      -4.698  -1.628 -33.182  1.00  0.00     0.078 A 
HETATM   21  C   UNL     1      -4.443  -2.618 -34.132  1.00  0.00     0.037 A 
HETATM   22  C   UNL     1      -5.467  -3.059 -34.966  1.00  0.00     0.003 A 
HETATM   23  C   UNL     1      -6.740  -2.506 -34.853  1.00  0.00     0.001 A 
HETATM   24  C   UNL     1      -6.992  -1.508 -33.905  1.00  0.00     0.017 A 
BRANCH  20  25
HETATM   25  O   UNL     1      -3.639  -1.274 -32.384  1.00  0.00    -0.360 OA
HETATM   26  H   UNL     1      -4.029  -0.977 -31.529  1.00  0.00     0.217 HD
ENDBRANCH  20  25
ENDBRANCH  17  19
ENDBRANCH   9  13
BRANCH   1  27
HETATM   27  C   UNL     1     -11.955   1.589 -33.637  1.00  0.00     0.032 C 
HETATM   28  C   UNL     1     -10.670   1.083 -34.299  1.00  0.00     0.016 C 
HETATM   29  C   UNL     1     -13.131   1.504 -34.611  1.00  0.00     0.016 C 
ENDBRANCH   1  27
TORSDOF 4
ENDMDL
