MODEL 1
REMARK VINA RESULT:      -8.4      0.000      0.000
REMARK  7 active torsions:
REMARK  status: ('A' for Active; 'I' for Inactive)
REMARK    1  A    between atoms: C_2  and  O_3 
REMARK    2  A    between atoms: O_3  and  C_4 
REMARK    3  A    between atoms: C_4  and  C_5 
REMARK    4  A    between atoms: C_6  and  C_7 
REMARK    5  A    between atoms: C_18  and  S_19 
REMARK    6  A    between atoms: S_19  and  C_20 
REMARK    7  A    between atoms: C_20  and  C_21 
ROOT
HETATM    1  C   UNL     1      -7.384   3.793 -32.083  1.00  0.00     0.070 A 
HETATM    2  C   UNL     1      -5.985   3.208 -32.205  1.00  0.00     0.203 A 
HETATM    3  N   UNL     1      -5.104   4.091 -32.978  1.00  0.00    -0.082 N 
HETATM    4  C   UNL     1      -5.508   5.255 -33.571  1.00  0.00     0.726 A 
HETATM    5  N   UNL     1      -6.788   5.651 -33.439  1.00  0.00    -0.192 N 
HETATM    6  N   UNL     1      -3.788   3.878 -33.162  1.00  0.00    -0.128 NA
HETATM    7  C   UNL     1      -3.469   4.923 -33.934  1.00  0.00     0.226 A 
HETATM    8  N   UNL     1      -4.493   5.802 -34.190  1.00  0.00    -0.035 NA
HETATM    9  C   UNL     1      -7.728   4.963 -32.676  1.00  0.00     0.037 A 
HETATM   10  C   UNL     1      -9.072   5.633 -32.533  1.00  0.00     0.070 C 
HETATM   11  H   UNL     1      -7.074   6.535 -33.854  1.00  0.00     0.184 HD
ENDROOT
BRANCH   7  12
HETATM   12  S   UNL     1      -1.858   5.093 -34.565  1.00  0.00    -0.083 SA
BRANCH  12  13
HETATM   13  C   UNL     1      -1.503   6.803 -34.086  1.00  0.00     0.121 C 
BRANCH  13  14
HETATM   14  C   UNL     1      -1.218   6.907 -32.605  1.00  0.00    -0.047 A 
HETATM   15  C   UNL     1      -0.438   5.934 -31.960  1.00  0.00     0.031 A 
HETATM   16  C   UNL     1      -0.202   6.021 -30.588  1.00  0.00     0.034 A 
HETATM   17 CL   UNL     1       0.760   4.824 -29.811  1.00  0.00    -0.084 Cl
HETATM   18  C   UNL     1      -0.740   7.067 -29.841  1.00  0.00     0.024 A 
HETATM   19  C   UNL     1      -1.520   8.036 -30.472  1.00  0.00     0.002 A 
HETATM   20  C   UNL     1      -1.757   7.957 -31.845  1.00  0.00     0.008 A 
ENDBRANCH  13  14
ENDBRANCH  12  13
ENDBRANCH   7  12
BRANCH   2  21
HETATM   21  C   UNL     1      -5.981   1.807 -32.817  1.00  0.00    -0.028 A 
HETATM   22  C   UNL     1      -5.474   0.696 -32.119  1.00  0.00     0.011 A 
HETATM   23  C   UNL     1      -5.486  -0.573 -32.702  1.00  0.00     0.024 A 
HETATM   24  C   UNL     1      -6.001  -0.743 -33.985  1.00  0.00     0.034 A 
HETATM   25 CL   UNL     1      -6.015  -2.308 -34.699  1.00  0.00    -0.084 Cl
HETATM   26  C   UNL     1      -6.503   0.345 -34.693  1.00  0.00     0.024 A 
HETATM   27  C   UNL     1      -6.491   1.615 -34.113  1.00  0.00     0.011 A 
ENDBRANCH   2  21
BRANCH   1  28
HETATM   28  C   UNL     1      -8.281   2.981 -31.238  1.00  0.00     0.293 C 
HETATM   29  O   UNL     1      -8.179   2.930 -30.023  1.00  0.00    -0.259 OA
BRANCH  28  30
HETATM   30  O   UNL     1      -9.126   2.256 -32.011  1.00  0.00    -0.318 OA
BRANCH  30  31
HETATM   31  C   UNL     1      -9.210   0.858 -31.697  1.00  0.00     0.174 C 
HETATM   32  C   UNL     1      -9.760   0.074 -32.874  1.00  0.00     0.034 C 
ENDBRANCH  30  31
ENDBRANCH  28  30
ENDBRANCH   1  28
TORSDOF 7
ENDMDL
MODEL 2
REMARK VINA RESULT:      -8.3      0.856      1.219
REMARK  7 active torsions:
REMARK  status: ('A' for Active; 'I' for Inactive)
REMARK    1  A    between atoms: C_2  and  O_3 
REMARK    2  A    between atoms: O_3  and  C_4 
REMARK    3  A    between atoms: C_4  and  C_5 
REMARK    4  A    between atoms: C_6  and  C_7 
REMARK    5  A    between atoms: C_18  and  S_19 
REMARK    6  A    between atoms: S_19  and  C_20 
REMARK    7  A    between atoms: C_20  and  C_21 
ROOT
HETATM    1  C   UNL     1      -7.378   3.783 -32.103  1.00  0.00     0.070 A 
HETATM    2  C   UNL     1      -5.972   3.208 -32.193  1.00  0.00     0.203 A 
HETATM    3  N   UNL     1      -5.086   4.086 -32.964  1.00  0.00    -0.082 N 
HETATM    4  C   UNL     1      -5.489   5.238 -33.582  1.00  0.00     0.726 A 
HETATM    5  N   UNL     1      -6.774   5.626 -33.477  1.00  0.00    -0.192 N 
HETATM    6  N   UNL     1      -3.765   3.881 -33.124  1.00  0.00    -0.128 NA
HETATM    7  C   UNL     1      -3.442   4.916 -33.906  1.00  0.00     0.226 A 
HETATM    8  N   UNL     1      -4.468   5.784 -34.192  1.00  0.00    -0.035 NA
HETATM    9  C   UNL     1      -7.721   4.941 -32.719  1.00  0.00     0.037 A 
HETATM   10  C   UNL     1      -9.073   5.602 -32.608  1.00  0.00     0.070 C 
HETATM   11  H   UNL     1      -7.060   6.501 -33.909  1.00  0.00     0.184 HD
ENDROOT
BRANCH   7  12
HETATM   12  S   UNL     1      -1.822   5.091 -34.512  1.00  0.00    -0.083 SA
BRANCH  12  13
HETATM   13  C   UNL     1      -1.375   6.689 -33.787  1.00  0.00     0.121 C 
BRANCH  13  14
HETATM   14  C   UNL     1      -0.981   6.538 -32.336  1.00  0.00    -0.047 A 
HETATM   15  C   UNL     1      -1.215   7.577 -31.422  1.00  0.00     0.031 A 
HETATM   16  C   UNL     1      -0.824   7.441 -30.090  1.00  0.00     0.034 A 
HETATM   17 CL   UNL     1      -1.122   8.721 -28.979  1.00  0.00    -0.084 Cl
HETATM   18  C   UNL     1      -0.192   6.279 -29.652  1.00  0.00     0.024 A 
HETATM   19  C   UNL     1       0.051   5.243 -30.553  1.00  0.00     0.002 A 
HETATM   20  C   UNL     1      -0.342   5.371 -31.886  1.00  0.00     0.008 A 
ENDBRANCH  13  14
ENDBRANCH  12  13
ENDBRANCH   7  12
BRANCH   2  21
HETATM   21  C   UNL     1      -5.947   1.798 -32.784  1.00  0.00    -0.028 A 
HETATM   22  C   UNL     1      -5.425   0.705 -32.068  1.00  0.00     0.011 A 
HETATM   23  C   UNL     1      -5.418  -0.573 -32.632  1.00  0.00     0.024 A 
HETATM   24  C   UNL     1      -5.929  -0.770 -33.913  1.00  0.00     0.034 A 
HETATM   25 CL   UNL     1      -5.919  -2.345 -34.604  1.00  0.00    -0.084 Cl
HETATM   26  C   UNL     1      -6.445   0.300 -34.638  1.00  0.00     0.024 A 
HETATM   27  C   UNL     1      -6.453   1.579 -34.077  1.00  0.00     0.011 A 
ENDBRANCH   2  21
BRANCH   1  28
HETATM   28  C   UNL     1      -8.283   2.976 -31.261  1.00  0.00     0.293 C 
HETATM   29  O   UNL     1      -8.200   2.944 -30.044  1.00  0.00    -0.259 OA
BRANCH  28  30
HETATM   30  O   UNL     1      -9.109   2.233 -32.037  1.00  0.00    -0.318 OA
BRANCH  30  31
HETATM   31  C   UNL     1      -9.192   0.840 -31.701  1.00  0.00     0.174 C 
HETATM   32  C   UNL     1      -9.830   0.052 -32.829  1.00  0.00     0.034 C 
ENDBRANCH  30  31
ENDBRANCH  28  30
ENDBRANCH   1  28
TORSDOF 7
ENDMDL
MODEL 3
REMARK VINA RESULT:      -8.3      3.353      7.708
REMARK  7 active torsions:
REMARK  status: ('A' for Active; 'I' for Inactive)
REMARK    1  A    between atoms: C_2  and  O_3 
REMARK    2  A    between atoms: O_3  and  C_4 
REMARK    3  A    between atoms: C_4  and  C_5 
REMARK    4  A    between atoms: C_6  and  C_7 
REMARK    5  A    between atoms: C_18  and  S_19 
REMARK    6  A    between atoms: S_19  and  C_20 
REMARK    7  A    between atoms: C_20  and  C_21 
ROOT
HETATM    1  C   UNL     1      -5.443   5.595 -30.431  1.00  0.00     0.070 A 
HETATM    2  C   UNL     1      -5.547   4.740 -31.686  1.00  0.00     0.203 A 
HETATM    3  N   UNL     1      -5.765   3.328 -31.352  1.00  0.00    -0.082 N 
HETATM    4  C   UNL     1      -5.802   2.835 -30.077  1.00  0.00     0.726 A 
HETATM    5  N   UNL     1      -5.647   3.680 -29.040  1.00  0.00    -0.192 N 
HETATM    6  N   UNL     1      -5.993   2.361 -32.258  1.00  0.00    -0.128 NA
HETATM    7  C   UNL     1      -6.095   1.289 -31.464  1.00  0.00     0.226 A 
HETATM    8  N   UNL     1      -6.004   1.543 -30.116  1.00  0.00    -0.035 NA
HETATM    9  C   UNL     1      -5.504   5.057 -29.188  1.00  0.00     0.037 A 
HETATM   10  C   UNL     1      -5.484   5.855 -27.908  1.00  0.00     0.070 C 
HETATM   11  H   UNL     1      -5.710   3.312 -28.093  1.00  0.00     0.184 HD
ENDROOT
BRANCH   7  12
HETATM   12  S   UNL     1      -6.302  -0.297 -32.145  1.00  0.00    -0.083 SA
BRANCH  12  13
HETATM   13  C   UNL     1      -4.626  -0.610 -32.753  1.00  0.00     0.121 C 
BRANCH  13  14
HETATM   14  C   UNL     1      -4.467  -2.045 -33.199  1.00  0.00    -0.047 A 
HETATM   15  C   UNL     1      -5.328  -2.591 -34.163  1.00  0.00     0.031 A 
HETATM   16  C   UNL     1      -5.193  -3.925 -34.550  1.00  0.00     0.034 A 
HETATM   17 CL   UNL     1      -6.251  -4.580 -35.737  1.00  0.00    -0.084 Cl
HETATM   18  C   UNL     1      -4.209  -4.731 -33.981  1.00  0.00     0.024 A 
HETATM   19  C   UNL     1      -3.352  -4.200 -33.018  1.00  0.00     0.002 A 
HETATM   20  C   UNL     1      -3.479  -2.865 -32.630  1.00  0.00     0.008 A 
ENDBRANCH  13  14
ENDBRANCH  12  13
ENDBRANCH   7  12
BRANCH   2  21
HETATM   21  C   UNL     1      -4.324   4.874 -32.595  1.00  0.00    -0.028 A 
HETATM   22  C   UNL     1      -3.040   4.484 -32.169  1.00  0.00     0.011 A 
HETATM   23  C   UNL     1      -1.942   4.615 -33.022  1.00  0.00     0.024 A 
HETATM   24  C   UNL     1      -2.114   5.136 -34.302  1.00  0.00     0.034 A 
HETATM   25 CL   UNL     1      -0.759   5.294 -35.350  1.00  0.00    -0.084 Cl
HETATM   26  C   UNL     1      -3.375   5.531 -34.738  1.00  0.00     0.024 A 
HETATM   27  C   UNL     1      -4.476   5.402 -33.888  1.00  0.00     0.011 A 
ENDBRANCH   2  21
BRANCH   1  28
HETATM   28  C   UNL     1      -5.311   7.036 -30.720  1.00  0.00     0.293 C 
HETATM   29  O   UNL     1      -6.214   7.700 -31.202  1.00  0.00    -0.259 OA
BRANCH  28  30
HETATM   30  O   UNL     1      -4.045   7.451 -30.472  1.00  0.00    -0.318 OA
BRANCH  30  31
HETATM   31  C   UNL     1      -3.434   8.239 -31.505  1.00  0.00     0.174 C 
HETATM   32  C   UNL     1      -1.933   8.022 -31.530  1.00  0.00     0.034 C 
ENDBRANCH  30  31
ENDBRANCH  28  30
ENDBRANCH   1  28
TORSDOF 7
ENDMDL
MODEL 4
REMARK VINA RESULT:      -8.2      3.924      6.095
REMARK  7 active torsions:
REMARK  status: ('A' for Active; 'I' for Inactive)
REMARK    1  A    between atoms: C_2  and  O_3 
REMARK    2  A    between atoms: O_3  and  C_4 
REMARK    3  A    between atoms: C_4  and  C_5 
REMARK    4  A    between atoms: C_6  and  C_7 
REMARK    5  A    between atoms: C_18  and  S_19 
REMARK    6  A    between atoms: S_19  and  C_20 
REMARK    7  A    between atoms: C_20  and  C_21 
ROOT
HETATM    1  C   UNL     1      -4.262  -1.408 -33.184  1.00  0.00     0.070 A 
HETATM    2  C   UNL     1      -4.720  -0.003 -33.547  1.00  0.00     0.203 A 
HETATM    3  N   UNL     1      -4.140   0.996 -32.642  1.00  0.00    -0.082 N 
HETATM    4  C   UNL     1      -3.346   0.696 -31.569  1.00  0.00     0.726 A 
HETATM    5  N   UNL     1      -3.046  -0.592 -31.313  1.00  0.00    -0.192 N 
HETATM    6  N   UNL     1      -4.290   2.325 -32.783  1.00  0.00    -0.128 NA
HETATM    7  C   UNL     1      -3.612   2.770 -31.720  1.00  0.00     0.226 A 
HETATM    8  N   UNL     1      -3.000   1.801 -30.962  1.00  0.00    -0.035 NA
HETATM    9  C   UNL     1      -3.457  -1.650 -32.120  1.00  0.00     0.037 A 
HETATM   10  C   UNL     1      -2.907  -3.006 -31.752  1.00  0.00     0.070 C 
HETATM   11  H   UNL     1      -2.427  -0.806 -30.534  1.00  0.00     0.184 HD
ENDROOT
BRANCH   7  12
HETATM   12  S   UNL     1      -3.562   4.469 -31.354  1.00  0.00    -0.083 SA
BRANCH  12  13
HETATM   13  C   UNL     1      -4.871   4.571 -30.108  1.00  0.00     0.121 C 
BRANCH  13  14
HETATM   14  C   UNL     1      -6.219   4.242 -30.706  1.00  0.00    -0.047 A 
HETATM   15  C   UNL     1      -6.629   4.837 -31.910  1.00  0.00     0.031 A 
HETATM   16  C   UNL     1      -7.886   4.549 -32.442  1.00  0.00     0.034 A 
HETATM   17 CL   UNL     1      -8.374   5.281 -33.921  1.00  0.00    -0.084 Cl
HETATM   18  C   UNL     1      -8.751   3.676 -31.785  1.00  0.00     0.024 A 
HETATM   19  C   UNL     1      -8.355   3.084 -30.586  1.00  0.00     0.002 A 
HETATM   20  C   UNL     1      -7.098   3.364 -30.050  1.00  0.00     0.008 A 
ENDBRANCH  13  14
ENDBRANCH  12  13
ENDBRANCH   7  12
BRANCH   2  21
HETATM   21  C   UNL     1      -6.242   0.136 -33.564  1.00  0.00    -0.028 A 
HETATM   22  C   UNL     1      -7.016  -0.060 -32.405  1.00  0.00     0.011 A 
HETATM   23  C   UNL     1      -8.406   0.076 -32.449  1.00  0.00     0.024 A 
HETATM   24  C   UNL     1      -9.033   0.406 -33.648  1.00  0.00     0.034 A 
HETATM   25 CL   UNL     1     -10.744   0.574 -33.699  1.00  0.00    -0.084 Cl
HETATM   26  C   UNL     1      -8.285   0.599 -34.805  1.00  0.00     0.024 A 
HETATM   27  C   UNL     1      -6.895   0.463 -34.765  1.00  0.00     0.011 A 
ENDBRANCH   2  21
BRANCH   1  28
HETATM   28  C   UNL     1      -4.750  -2.438 -34.122  1.00  0.00     0.293 C 
HETATM   29  O   UNL     1      -4.193  -2.688 -35.179  1.00  0.00    -0.259 OA
BRANCH  28  30
HETATM   30  O   UNL     1      -5.922  -2.957 -33.682  1.00  0.00    -0.318 OA
BRANCH  30  31
HETATM   31  C   UNL     1      -6.895  -3.244 -34.698  1.00  0.00     0.174 C 
HETATM   32  C   UNL     1      -6.688  -4.636 -35.263  1.00  0.00     0.034 C 
ENDBRANCH  30  31
ENDBRANCH  28  30
ENDBRANCH   1  28
TORSDOF 7
ENDMDL
MODEL 5
REMARK VINA RESULT:      -8.1      3.415      5.127
REMARK  7 active torsions:
REMARK  status: ('A' for Active; 'I' for Inactive)
REMARK    1  A    between atoms: C_2  and  O_3 
REMARK    2  A    between atoms: O_3  and  C_4 
REMARK    3  A    between atoms: C_4  and  C_5 
REMARK    4  A    between atoms: C_6  and  C_7 
REMARK    5  A    between atoms: C_18  and  S_19 
REMARK    6  A    between atoms: S_19  and  C_20 
REMARK    7  A    between atoms: C_20  and  C_21 
ROOT
HETATM    1  C   UNL     1      -4.198  -1.585 -33.276  1.00  0.00     0.070 A 
HETATM    2  C   UNL     1      -4.616  -0.160 -33.609  1.00  0.00     0.203 A 
HETATM    3  N   UNL     1      -4.050   0.798 -32.654  1.00  0.00    -0.082 N 
HETATM    4  C   UNL     1      -3.300   0.448 -31.564  1.00  0.00     0.726 A 
HETATM    5  N   UNL     1      -3.034  -0.853 -31.339  1.00  0.00    -0.192 N 
HETATM    6  N   UNL     1      -4.169   2.134 -32.757  1.00  0.00    -0.128 NA
HETATM    7  C   UNL     1      -3.520   2.531 -31.658  1.00  0.00     0.226 A 
HETATM    8  N   UNL     1      -2.954   1.527 -30.910  1.00  0.00    -0.035 NA
HETATM    9  C   UNL     1      -3.437  -1.876 -32.193  1.00  0.00     0.037 A 
HETATM   10  C   UNL     1      -2.927  -3.254 -31.850  1.00  0.00     0.070 C 
HETATM   11  H   UNL     1      -2.447  -1.104 -30.546  1.00  0.00     0.184 HD
ENDROOT
BRANCH   7  12
HETATM   12  S   UNL     1      -3.450   4.217 -31.236  1.00  0.00    -0.083 SA
BRANCH  12  13
HETATM   13  C   UNL     1      -1.749   4.602 -31.722  1.00  0.00     0.121 C 
BRANCH  13  14
HETATM   14  C   UNL     1      -1.128   5.610 -30.784  1.00  0.00    -0.047 A 
HETATM   15  C   UNL     1      -1.712   6.875 -30.610  1.00  0.00     0.031 A 
HETATM   16  C   UNL     1      -1.119   7.811 -29.763  1.00  0.00     0.034 A 
HETATM   17 CL   UNL     1      -1.847   9.356 -29.555  1.00  0.00    -0.084 Cl
HETATM   18  C   UNL     1       0.060   7.507 -29.086  1.00  0.00     0.024 A 
HETATM   19  C   UNL     1       0.651   6.255 -29.255  1.00  0.00     0.002 A 
HETATM   20  C   UNL     1       0.060   5.313 -30.098  1.00  0.00     0.008 A 
ENDBRANCH  13  14
ENDBRANCH  12  13
ENDBRANCH   7  12
BRANCH   2  21
HETATM   21  C   UNL     1      -6.134   0.010 -33.675  1.00  0.00    -0.028 A 
HETATM   22  C   UNL     1      -6.802   0.228 -34.894  1.00  0.00     0.011 A 
HETATM   23  C   UNL     1      -8.190   0.377 -34.925  1.00  0.00     0.024 A 
HETATM   24  C   UNL     1      -8.922   0.313 -33.742  1.00  0.00     0.034 A 
HETATM   25 CL   UNL     1     -10.632   0.496 -33.784  1.00  0.00    -0.084 Cl
HETATM   26  C   UNL     1      -8.279   0.102 -32.526  1.00  0.00     0.024 A 
HETATM   27  C   UNL     1      -6.890  -0.046 -32.492  1.00  0.00     0.011 A 
ENDBRANCH   2  21
BRANCH   1  28
HETATM   28  C   UNL     1      -4.673  -2.575 -34.263  1.00  0.00     0.293 C 
HETATM   29  O   UNL     1      -4.142  -2.732 -35.350  1.00  0.00    -0.259 OA
BRANCH  28  30
HETATM   30  O   UNL     1      -5.806  -3.173 -33.821  1.00  0.00    -0.318 OA
BRANCH  30  31
HETATM   31  C   UNL     1      -6.030  -4.509 -34.297  1.00  0.00     0.174 C 
HETATM   32  C   UNL     1      -6.898  -4.498 -35.541  1.00  0.00     0.034 C 
ENDBRANCH  30  31
ENDBRANCH  28  30
ENDBRANCH   1  28
TORSDOF 7
ENDMDL
MODEL 6
REMARK VINA RESULT:      -8.0      5.618      8.150
REMARK  7 active torsions:
REMARK  status: ('A' for Active; 'I' for Inactive)
REMARK    1  A    between atoms: C_2  and  O_3 
REMARK    2  A    between atoms: O_3  and  C_4 
REMARK    3  A    between atoms: C_4  and  C_5 
REMARK    4  A    between atoms: C_6  and  C_7 
REMARK    5  A    between atoms: C_18  and  S_19 
REMARK    6  A    between atoms: S_19  and  C_20 
REMARK    7  A    between atoms: C_20  and  C_21 
ROOT
HETATM    1  C   UNL     1     -11.900   2.343 -33.918  1.00  0.00     0.070 A 
HETATM    2  C   UNL     1     -10.459   2.799 -33.740  1.00  0.00     0.203 A 
HETATM    3  N   UNL     1      -9.592   1.683 -33.343  1.00  0.00    -0.082 N 
HETATM    4  C   UNL     1     -10.036   0.412 -33.099  1.00  0.00     0.726 A 
HETATM    5  N   UNL     1     -11.346   0.134 -33.240  1.00  0.00    -0.192 N 
HETATM    6  N   UNL     1      -8.256   1.770 -33.211  1.00  0.00    -0.128 NA
HETATM    7  C   UNL     1      -7.961   0.526 -32.819  1.00  0.00     0.226 A 
HETATM    8  N   UNL     1      -9.024  -0.343 -32.758  1.00  0.00    -0.035 NA
HETATM    9  C   UNL     1     -12.284   1.065 -33.680  1.00  0.00     0.037 A 
HETATM   10  C   UNL     1     -13.676   0.532 -33.910  1.00  0.00     0.070 C 
HETATM   11  H   UNL     1     -11.664  -0.821 -33.090  1.00  0.00     0.184 HD
ENDROOT
BRANCH   7  12
HETATM   12  S   UNL     1      -6.328   0.097 -32.402  1.00  0.00    -0.083 SA
BRANCH  12  13
HETATM   13  C   UNL     1      -5.681  -0.341 -34.035  1.00  0.00     0.121 C 
BRANCH  13  14
HETATM   14  C   UNL     1      -5.689  -1.838 -34.241  1.00  0.00    -0.047 A 
HETATM   15  C   UNL     1      -4.539  -2.600 -33.976  1.00  0.00     0.031 A 
HETATM   16  C   UNL     1      -4.545  -3.977 -34.195  1.00  0.00     0.034 A 
HETATM   17 CL   UNL     1      -3.131  -4.900 -33.861  1.00  0.00    -0.084 Cl
HETATM   18  C   UNL     1      -5.685  -4.613 -34.682  1.00  0.00     0.024 A 
HETATM   19  C   UNL     1      -6.830  -3.865 -34.953  1.00  0.00     0.002 A 
HETATM   20  C   UNL     1      -6.833  -2.487 -34.733  1.00  0.00     0.008 A 
ENDBRANCH  13  14
ENDBRANCH  12  13
ENDBRANCH   7  12
BRANCH   2  21
HETATM   21  C   UNL     1     -10.321   3.943 -32.735  1.00  0.00    -0.028 A 
HETATM   22  C   UNL     1     -10.537   3.749 -31.358  1.00  0.00     0.011 A 
HETATM   23  C   UNL     1     -10.402   4.812 -30.463  1.00  0.00     0.024 A 
HETATM   24  C   UNL     1     -10.053   6.076 -30.933  1.00  0.00     0.034 A 
HETATM   25 CL   UNL     1      -9.885   7.383 -29.827  1.00  0.00    -0.084 Cl
HETATM   26  C   UNL     1      -9.839   6.288 -32.292  1.00  0.00     0.024 A 
HETATM   27  C   UNL     1      -9.975   5.228 -33.190  1.00  0.00     0.011 A 
ENDBRANCH   2  21
BRANCH   1  28
HETATM   28  C   UNL     1     -12.791   3.415 -34.403  1.00  0.00     0.293 C 
HETATM   29  O   UNL     1     -12.628   3.978 -35.473  1.00  0.00    -0.259 OA
BRANCH  28  30
HETATM   30  O   UNL     1     -13.712   3.724 -33.457  1.00  0.00    -0.318 OA
BRANCH  30  31
HETATM   31  C   UNL     1     -13.701   5.085 -33.001  1.00  0.00     0.174 C 
HETATM   32  C   UNL     1     -13.929   5.151 -31.503  1.00  0.00     0.034 C 
ENDBRANCH  30  31
ENDBRANCH  28  30
ENDBRANCH   1  28
TORSDOF 7
ENDMDL
MODEL 7
REMARK VINA RESULT:      -7.9      3.311      7.539
REMARK  7 active torsions:
REMARK  status: ('A' for Active; 'I' for Inactive)
REMARK    1  A    between atoms: C_2  and  O_3 
REMARK    2  A    between atoms: O_3  and  C_4 
REMARK    3  A    between atoms: C_4  and  C_5 
REMARK    4  A    between atoms: C_6  and  C_7 
REMARK    5  A    between atoms: C_18  and  S_19 
REMARK    6  A    between atoms: S_19  and  C_20 
REMARK    7  A    between atoms: C_20  and  C_21 
ROOT
HETATM    1  C   UNL     1      -6.181   5.316 -30.571  1.00  0.00     0.070 A 
HETATM    2  C   UNL     1      -6.294   4.663 -31.941  1.00  0.00     0.203 A 
HETATM    3  N   UNL     1      -6.691   3.255 -31.828  1.00  0.00    -0.082 N 
HETATM    4  C   UNL     1      -6.869   2.597 -30.642  1.00  0.00     0.726 A 
HETATM    5  N   UNL     1      -6.692   3.265 -29.486  1.00  0.00    -0.192 N 
HETATM    6  N   UNL     1      -6.963   2.458 -32.877  1.00  0.00    -0.128 NA
HETATM    7  C   UNL     1      -7.238   1.307 -32.254  1.00  0.00     0.226 A 
HETATM    8  N   UNL     1      -7.211   1.357 -30.881  1.00  0.00    -0.035 NA
HETATM    9  C   UNL     1      -6.386   4.622 -29.424  1.00  0.00     0.037 A 
HETATM   10  C   UNL     1      -6.364   5.226 -28.042  1.00  0.00     0.070 C 
HETATM   11  H   UNL     1      -6.859   2.779 -28.608  1.00  0.00     0.184 HD
ENDROOT
BRANCH   7  12
HETATM   12  S   UNL     1      -7.575  -0.133 -33.169  1.00  0.00    -0.083 SA
BRANCH  12  13
HETATM   13  C   UNL     1      -5.907  -0.555 -33.733  1.00  0.00     0.121 C 
BRANCH  13  14
HETATM   14  C   UNL     1      -5.806  -2.022 -34.085  1.00  0.00    -0.047 A 
HETATM   15  C   UNL     1      -4.613  -2.727 -33.861  1.00  0.00     0.031 A 
HETATM   16  C   UNL     1      -4.518  -4.074 -34.214  1.00  0.00     0.034 A 
HETATM   17 CL   UNL     1      -3.052  -4.928 -33.930  1.00  0.00    -0.084 Cl
HETATM   18  C   UNL     1      -5.599  -4.732 -34.796  1.00  0.00     0.024 A 
HETATM   19  C   UNL     1      -6.787  -4.038 -35.027  1.00  0.00     0.002 A 
HETATM   20  C   UNL     1      -6.890  -2.692 -34.673  1.00  0.00     0.008 A 
ENDBRANCH  13  14
ENDBRANCH  12  13
ENDBRANCH   7  12
BRANCH   2  21
HETATM   21  C   UNL     1      -5.005   4.774 -32.756  1.00  0.00    -0.028 A 
HETATM   22  C   UNL     1      -4.994   5.322 -34.052  1.00  0.00     0.011 A 
HETATM   23  C   UNL     1      -3.801   5.413 -34.773  1.00  0.00     0.024 A 
HETATM   24  C   UNL     1      -2.612   4.958 -34.209  1.00  0.00     0.034 A 
HETATM   25 CL   UNL     1      -1.145   5.073 -35.099  1.00  0.00    -0.084 Cl
HETATM   26  C   UNL     1      -2.604   4.409 -32.930  1.00  0.00     0.024 A 
HETATM   27  C   UNL     1      -3.795   4.315 -32.207  1.00  0.00     0.011 A 
ENDBRANCH   2  21
BRANCH   1  28
HETATM   28  C   UNL     1      -5.869   6.757 -30.639  1.00  0.00     0.293 C 
HETATM   29  O   UNL     1      -4.734   7.194 -30.539  1.00  0.00    -0.259 OA
BRANCH  28  30
HETATM   30  O   UNL     1      -7.011   7.482 -30.719  1.00  0.00    -0.318 OA
BRANCH  30  31
HETATM   31  C   UNL     1      -7.189   8.230 -31.931  1.00  0.00     0.174 C 
HETATM   32  C   UNL     1      -8.655   8.293 -32.314  1.00  0.00     0.034 C 
ENDBRANCH  30  31
ENDBRANCH  28  30
ENDBRANCH   1  28
TORSDOF 7
ENDMDL
MODEL 8
REMARK VINA RESULT:      -7.8      3.017      7.300
REMARK  7 active torsions:
REMARK  status: ('A' for Active; 'I' for Inactive)
REMARK    1  A    between atoms: C_2  and  O_3 
REMARK    2  A    between atoms: O_3  and  C_4 
REMARK    3  A    between atoms: C_4  and  C_5 
REMARK    4  A    between atoms: C_6  and  C_7 
REMARK    5  A    between atoms: C_18  and  S_19 
REMARK    6  A    between atoms: S_19  and  C_20 
REMARK    7  A    between atoms: C_20  and  C_21 
ROOT
HETATM    1  C   UNL     1      -7.506   4.584 -32.304  1.00  0.00     0.070 A 
HETATM    2  C   UNL     1      -6.423   3.757 -32.982  1.00  0.00     0.203 A 
HETATM    3  N   UNL     1      -6.106   2.555 -32.204  1.00  0.00    -0.082 N 
HETATM    4  C   UNL     1      -6.664   2.252 -30.992  1.00  0.00     0.726 A 
HETATM    5  N   UNL     1      -7.578   3.086 -30.462  1.00  0.00    -0.192 N 
HETATM    6  N   UNL     1      -5.260   1.590 -32.609  1.00  0.00    -0.128 NA
HETATM    7  C   UNL     1      -5.302   0.762 -31.560  1.00  0.00     0.226 A 
HETATM    8  N   UNL     1      -6.168   1.123 -30.556  1.00  0.00    -0.035 NA
HETATM    9  C   UNL     1      -8.040   4.229 -31.109  1.00  0.00     0.037 A 
HETATM   10  C   UNL     1      -9.165   4.962 -30.423  1.00  0.00     0.070 C 
HETATM   11  H   UNL     1      -8.014   2.838 -29.576  1.00  0.00     0.184 HD
ENDROOT
BRANCH   7  12
HETATM   12  S   UNL     1      -4.289  -0.650 -31.511  1.00  0.00    -0.083 SA
BRANCH  12  13
HETATM   13  C   UNL     1      -4.073  -0.956 -33.282  1.00  0.00     0.121 C 
BRANCH  13  14
HETATM   14  C   UNL     1      -4.263  -2.419 -33.610  1.00  0.00    -0.047 A 
HETATM   15  C   UNL     1      -5.296  -2.828 -34.468  1.00  0.00     0.031 A 
HETATM   16  C   UNL     1      -5.483  -4.183 -34.744  1.00  0.00     0.034 A 
HETATM   17 CL   UNL     1      -6.750  -4.670 -35.802  1.00  0.00    -0.084 Cl
HETATM   18  C   UNL     1      -4.654  -5.144 -34.171  1.00  0.00     0.024 A 
HETATM   19  C   UNL     1      -3.628  -4.748 -33.313  1.00  0.00     0.002 A 
HETATM   20  C   UNL     1      -3.433  -3.394 -33.035  1.00  0.00     0.008 A 
ENDBRANCH  13  14
ENDBRANCH  12  13
ENDBRANCH   7  12
BRANCH   2  21
HETATM   21  C   UNL     1      -5.146   4.557 -33.243  1.00  0.00    -0.028 A 
HETATM   22  C   UNL     1      -4.387   5.101 -32.191  1.00  0.00     0.011 A 
HETATM   23  C   UNL     1      -3.222   5.825 -32.459  1.00  0.00     0.024 A 
HETATM   24  C   UNL     1      -2.808   6.012 -33.775  1.00  0.00     0.034 A 
HETATM   25 CL   UNL     1      -1.373   6.902 -34.101  1.00  0.00    -0.084 Cl
HETATM   26  C   UNL     1      -3.548   5.484 -34.829  1.00  0.00     0.024 A 
HETATM   27  C   UNL     1      -4.714   4.761 -34.565  1.00  0.00     0.011 A 
ENDBRANCH   2  21
BRANCH   1  28
HETATM   28  C   UNL     1      -7.920   5.759 -33.096  1.00  0.00     0.293 C 
HETATM   29  O   UNL     1      -7.899   6.896 -32.653  1.00  0.00    -0.259 OA
BRANCH  28  30
HETATM   30  O   UNL     1      -8.404   5.368 -34.300  1.00  0.00    -0.318 OA
BRANCH  30  31
HETATM   31  C   UNL     1      -9.655   4.666 -34.269  1.00  0.00     0.174 C 
HETATM   32  C   UNL     1     -10.586   5.178 -35.352  1.00  0.00     0.034 C 
ENDBRANCH  30  31
ENDBRANCH  28  30
ENDBRANCH   1  28
TORSDOF 7
ENDMDL
MODEL 9
REMARK VINA RESULT:      -7.6      2.953      7.475
REMARK  7 active torsions:
REMARK  status: ('A' for Active; 'I' for Inactive)
REMARK    1  A    between atoms: C_2  and  O_3 
REMARK    2  A    between atoms: O_3  and  C_4 
REMARK    3  A    between atoms: C_4  and  C_5 
REMARK    4  A    between atoms: C_6  and  C_7 
REMARK    5  A    between atoms: C_18  and  S_19 
REMARK    6  A    between atoms: S_19  and  C_20 
REMARK    7  A    between atoms: C_20  and  C_21 
ROOT
HETATM    1  C   UNL     1      -7.229   5.684 -31.577  1.00  0.00     0.070 A 
HETATM    2  C   UNL     1      -6.493   5.071 -32.760  1.00  0.00     0.203 A 
HETATM    3  N   UNL     1      -6.963   3.708 -33.031  1.00  0.00    -0.082 N 
HETATM    4  C   UNL     1      -7.894   3.049 -32.275  1.00  0.00     0.726 A 
HETATM    5  N   UNL     1      -8.443   3.674 -31.216  1.00  0.00    -0.192 N 
HETATM    6  N   UNL     1      -6.563   2.961 -34.076  1.00  0.00    -0.128 NA
HETATM    7  C   UNL     1      -7.245   1.832 -33.855  1.00  0.00     0.226 A 
HETATM    8  N   UNL     1      -8.088   1.854 -32.770  1.00  0.00    -0.035 NA
HETATM    9  C   UNL     1      -8.157   4.992 -30.871  1.00  0.00     0.037 A 
HETATM   10  C   UNL     1      -8.974   5.565 -29.740  1.00  0.00     0.070 C 
HETATM   11  H   UNL     1      -9.159   3.191 -30.678  1.00  0.00     0.184 HD
ENDROOT
BRANCH   7  12
HETATM   12  S   UNL     1      -7.021   0.450 -34.886  1.00  0.00    -0.083 SA
BRANCH  12  13
HETATM   13  C   UNL     1      -5.622  -0.348 -34.059  1.00  0.00     0.121 C 
BRANCH  13  14
HETATM   14  C   UNL     1      -5.661  -1.847 -34.248  1.00  0.00    -0.047 A 
HETATM   15  C   UNL     1      -4.514  -2.624 -34.018  1.00  0.00     0.031 A 
HETATM   16  C   UNL     1      -4.549  -4.003 -34.220  1.00  0.00     0.034 A 
HETATM   17 CL   UNL     1      -3.139  -4.944 -33.930  1.00  0.00    -0.084 Cl
HETATM   18  C   UNL     1      -5.717  -4.626 -34.657  1.00  0.00     0.024 A 
HETATM   19  C   UNL     1      -6.860  -3.862 -34.893  1.00  0.00     0.002 A 
HETATM   20  C   UNL     1      -6.832  -2.482 -34.689  1.00  0.00     0.008 A 
ENDBRANCH  13  14
ENDBRANCH  12  13
ENDBRANCH   7  12
BRANCH   2  21
HETATM   21  C   UNL     1      -4.975   5.068 -32.575  1.00  0.00    -0.028 A 
HETATM   22  C   UNL     1      -4.357   4.330 -31.549  1.00  0.00     0.011 A 
HETATM   23  C   UNL     1      -2.968   4.343 -31.405  1.00  0.00     0.024 A 
HETATM   24  C   UNL     1      -2.186   5.093 -32.280  1.00  0.00     0.034 A 
HETATM   25 CL   UNL     1      -0.475   5.106 -32.101  1.00  0.00    -0.084 Cl
HETATM   26  C   UNL     1      -2.780   5.833 -33.298  1.00  0.00     0.024 A 
HETATM   27  C   UNL     1      -4.169   5.823 -33.444  1.00  0.00     0.011 A 
ENDBRANCH   2  21
BRANCH   1  28
HETATM   28  C   UNL     1      -6.850   7.088 -31.323  1.00  0.00     0.293 C 
HETATM   29  O   UNL     1      -7.190   8.007 -32.050  1.00  0.00    -0.259 OA
BRANCH  28  30
HETATM   30  O   UNL     1      -6.015   7.164 -30.258  1.00  0.00    -0.318 OA
BRANCH  30  31
HETATM   31  C   UNL     1      -4.809   7.914 -30.466  1.00  0.00     0.174 C 
HETATM   32  C   UNL     1      -3.824   7.672 -29.338  1.00  0.00     0.034 C 
ENDBRANCH  30  31
ENDBRANCH  28  30
ENDBRANCH   1  28
TORSDOF 7
ENDMDL
MODEL 10
REMARK VINA RESULT:      -7.5      3.662      7.709
REMARK  7 active torsions:
REMARK  status: ('A' for Active; 'I' for Inactive)
REMARK    1  A    between atoms: C_2  and  O_3 
REMARK    2  A    between atoms: O_3  and  C_4 
REMARK    3  A    between atoms: C_4  and  C_5 
REMARK    4  A    between atoms: C_6  and  C_7 
REMARK    5  A    between atoms: C_18  and  S_19 
REMARK    6  A    between atoms: S_19  and  C_20 
REMARK    7  A    between atoms: C_20  and  C_21 
ROOT
HETATM    1  C   UNL     1      -5.735   5.972 -32.946  1.00  0.00     0.070 A 
HETATM    2  C   UNL     1      -6.648   5.069 -33.763  1.00  0.00     0.203 A 
HETATM    3  N   UNL     1      -8.039   5.534 -33.716  1.00  0.00    -0.082 N 
HETATM    4  C   UNL     1      -8.470   6.602 -32.977  1.00  0.00     0.726 A 
HETATM    5  N   UNL     1      -7.578   7.300 -32.248  1.00  0.00    -0.192 N 
HETATM    6  N   UNL     1      -9.045   4.990 -34.423  1.00  0.00    -0.128 NA
HETATM    7  C   UNL     1     -10.075   5.738 -34.013  1.00  0.00     0.226 A 
HETATM    8  N   UNL     1      -9.759   6.751 -33.140  1.00  0.00    -0.035 NA
HETATM    9  C   UNL     1      -6.212   7.031 -32.245  1.00  0.00     0.037 A 
HETATM   10  C   UNL     1      -5.354   8.006 -31.479  1.00  0.00     0.070 C 
HETATM   11  H   UNL     1      -7.899   8.113 -31.727  1.00  0.00     0.184 HD
ENDROOT
BRANCH   7  12
HETATM   12  S   UNL     1     -11.689   5.391 -34.559  1.00  0.00    -0.083 SA
BRANCH  12  13
HETATM   13  C   UNL     1     -11.374   3.950 -35.608  1.00  0.00     0.121 C 
BRANCH  13  14
HETATM   14  C   UNL     1     -11.757   2.669 -34.905  1.00  0.00    -0.047 A 
HETATM   15  C   UNL     1     -10.800   1.942 -34.178  1.00  0.00     0.031 A 
HETATM   16  C   UNL     1     -11.154   0.746 -33.554  1.00  0.00     0.034 A 
HETATM   17 CL   UNL     1      -9.973  -0.132 -32.662  1.00  0.00    -0.084 Cl
HETATM   18  C   UNL     1     -12.454   0.255 -33.648  1.00  0.00     0.024 A 
HETATM   19  C   UNL     1     -13.410   0.967 -34.372  1.00  0.00     0.002 A 
HETATM   20  C   UNL     1     -13.064   2.166 -34.995  1.00  0.00     0.008 A 
ENDBRANCH  13  14
ENDBRANCH  12  13
ENDBRANCH   7  12
BRANCH   2  21
HETATM   21  C   UNL     1      -6.576   3.606 -33.327  1.00  0.00    -0.028 A 
HETATM   22  C   UNL     1      -6.797   3.221 -31.991  1.00  0.00     0.011 A 
HETATM   23  C   UNL     1      -6.728   1.876 -31.621  1.00  0.00     0.024 A 
HETATM   24  C   UNL     1      -6.437   0.906 -32.578  1.00  0.00     0.034 A 
HETATM   25 CL   UNL     1      -6.354  -0.750 -32.118  1.00  0.00    -0.084 Cl
HETATM   26  C   UNL     1      -6.211   1.268 -33.902  1.00  0.00     0.024 A 
HETATM   27  C   UNL     1      -6.278   2.613 -34.276  1.00  0.00     0.011 A 
ENDBRANCH   2  21
BRANCH   1  28
HETATM   28  C   UNL     1      -4.312   5.594 -33.037  1.00  0.00     0.293 C 
HETATM   29  O   UNL     1      -3.713   5.049 -32.124  1.00  0.00    -0.259 OA
BRANCH  28  30
HETATM   30  O   UNL     1      -3.783   6.029 -34.206  1.00  0.00    -0.318 OA
BRANCH  30  31
HETATM   31  C   UNL     1      -2.394   6.387 -34.165  1.00  0.00     0.174 C 
HETATM   32  C   UNL     1      -1.540   5.301 -34.793  1.00  0.00     0.034 C 
ENDBRANCH  30  31
ENDBRANCH  28  30
ENDBRANCH   1  28
TORSDOF 7
ENDMDL
