MODEL 1
REMARK VINA RESULT:      -8.9      0.000      0.000
REMARK  6 active torsions:
REMARK  status: ('A' for Active; 'I' for Inactive)
REMARK    1  A    between atoms: O_2  and  C_3 
REMARK    2  A    between atoms: C_6  and  C_7 
REMARK    3  A    between atoms: C_7  and  N_8 
REMARK       I    between atoms: N_8  and  C_9 
REMARK    4  A    between atoms: C_9  and  C_10 
REMARK    5  A    between atoms: C_10  and  O_11 
REMARK    6  A    between atoms: N_12  and  C_13 
ROOT
HETATM    1  C   UNL     1      -9.022   2.153 -32.148  1.00  0.00     0.256 C 
HETATM    2  N   UNL     1      -9.865   3.126 -32.852  1.00  0.00    -0.248 N 
HETATM    3  C   UNL     1      -9.285   4.080 -33.670  1.00  0.00     0.330 C 
HETATM    4  O   UNL     1      -9.871   4.662 -34.583  1.00  0.00    -0.246 OA
HETATM    5  N   UNL     1      -7.966   4.361 -33.467  1.00  0.00    -0.308 N 
HETATM    6  C   UNL     1      -7.186   3.818 -32.455  1.00  0.00     0.048 A 
HETATM    7  C   UNL     1      -7.689   2.744 -31.729  1.00  0.00     0.034 A 
HETATM    8  C   UNL     1      -5.925   4.349 -32.185  1.00  0.00     0.030 A 
HETATM    9  C   UNL     1      -5.153   3.804 -31.159  1.00  0.00     0.002 A 
HETATM   10  C   UNL     1      -5.639   2.729 -30.418  1.00  0.00     0.001 A 
HETATM   11  C   UNL     1      -6.897   2.196 -30.706  1.00  0.00     0.015 A 
HETATM   12  H   UNL     1      -7.611   5.126 -34.027  1.00  0.00     0.170 HD
ENDROOT
BRANCH   1  13
HETATM   13  C   UNL     1      -8.737   0.847 -33.002  1.00  0.00     0.279 C 
HETATM   14  N   UNL     1      -7.746   0.899 -33.964  1.00  0.00    -0.352 N 
HETATM   15  H   UNL     1      -7.431   1.805 -34.285  1.00  0.00     0.162 HD
HETATM   16  O   UNL     1      -9.354  -0.195 -32.754  1.00  0.00    -0.268 OA
BRANCH  14  17
HETATM   17  C   UNL     1      -7.591  -0.215 -34.869  1.00  0.00     0.161 C 
BRANCH  17  18
HETATM   18  C   UNL     1      -6.439  -1.107 -34.492  1.00  0.00    -0.040 A 
HETATM   19  C   UNL     1      -5.406  -0.625 -33.676  1.00  0.00     0.011 A 
HETATM   20  C   UNL     1      -4.379  -1.472 -33.246  1.00  0.00     0.037 A 
HETATM   21  C   UNL     1      -4.372  -2.813 -33.626  1.00  0.00     0.068 A 
HETATM   22  C   UNL     1      -5.376  -3.288 -34.470  1.00  0.00     0.037 A 
HETATM   23  C   UNL     1      -6.406  -2.446 -34.898  1.00  0.00     0.011 A 
BRANCH  21  24
HETATM   24  O   UNL     1      -3.446  -3.747 -33.250  1.00  0.00    -0.356 OA
HETATM   25  C   UNL     1      -2.970  -3.664 -31.912  1.00  0.00     0.210 C 
ENDBRANCH  21  24
ENDBRANCH  17  18
ENDBRANCH  14  17
ENDBRANCH   1  13
BRANCH   1  26
HETATM   26  O   UNL     1      -9.684   1.791 -30.926  1.00  0.00    -0.359 OA
HETATM   27  H   UNL     1      -9.181   1.024 -30.590  1.00  0.00     0.213 HD
ENDBRANCH   1  26
BRANCH   2  28
HETATM   28  C   UNL     1     -11.300   3.041 -32.785  1.00  0.00     0.120 A 
HETATM   29  C   UNL     1     -12.073   3.815 -31.910  1.00  0.00     0.146 A 
HETATM   30  F   UNL     1     -11.495   4.646 -31.031  1.00  0.00    -0.204 F 
HETATM   31  C   UNL     1     -13.467   3.721 -31.874  1.00  0.00     0.045 A 
HETATM   32  C   UNL     1     -14.131   2.856 -32.737  1.00  0.00     0.006 A 
HETATM   33  C   UNL     1     -13.393   2.090 -33.634  1.00  0.00     0.045 A 
HETATM   34  C   UNL     1     -11.999   2.186 -33.653  1.00  0.00     0.146 A 
HETATM   35  F   UNL     1     -11.348   1.494 -34.602  1.00  0.00    -0.204 F 
ENDBRANCH   2  28
TORSDOF 6
ENDMDL
MODEL 2
REMARK VINA RESULT:      -8.9      0.449      1.528
REMARK  6 active torsions:
REMARK  status: ('A' for Active; 'I' for Inactive)
REMARK    1  A    between atoms: O_2  and  C_3 
REMARK    2  A    between atoms: C_6  and  C_7 
REMARK    3  A    between atoms: C_7  and  N_8 
REMARK       I    between atoms: N_8  and  C_9 
REMARK    4  A    between atoms: C_9  and  C_10 
REMARK    5  A    between atoms: C_10  and  O_11 
REMARK    6  A    between atoms: N_12  and  C_13 
ROOT
HETATM    1  C   UNL     1      -9.120   2.215 -32.139  1.00  0.00     0.256 C 
HETATM    2  N   UNL     1      -9.993   3.168 -32.832  1.00  0.00    -0.248 N 
HETATM    3  C   UNL     1      -9.446   4.139 -33.653  1.00  0.00     0.330 C 
HETATM    4  O   UNL     1     -10.056   4.708 -34.559  1.00  0.00    -0.246 OA
HETATM    5  N   UNL     1      -8.133   4.452 -33.463  1.00  0.00    -0.308 N 
HETATM    6  C   UNL     1      -7.329   3.927 -32.461  1.00  0.00     0.048 A 
HETATM    7  C   UNL     1      -7.798   2.839 -31.732  1.00  0.00     0.034 A 
HETATM    8  C   UNL     1      -6.079   4.489 -32.201  1.00  0.00     0.030 A 
HETATM    9  C   UNL     1      -5.284   3.962 -31.185  1.00  0.00     0.002 A 
HETATM   10  C   UNL     1      -5.734   2.873 -30.442  1.00  0.00     0.001 A 
HETATM   11  C   UNL     1      -6.981   2.309 -30.718  1.00  0.00     0.015 A 
HETATM   12  H   UNL     1      -7.803   5.227 -34.024  1.00  0.00     0.170 HD
ENDROOT
BRANCH   1  13
HETATM   13  C   UNL     1      -8.810   0.919 -32.998  1.00  0.00     0.279 C 
HETATM   14  N   UNL     1      -7.888   1.019 -34.022  1.00  0.00    -0.352 N 
HETATM   15  H   UNL     1      -7.650   1.938 -34.370  1.00  0.00     0.162 HD
HETATM   16  O   UNL     1      -9.345  -0.156 -32.703  1.00  0.00    -0.268 OA
BRANCH  14  17
HETATM   17  C   UNL     1      -7.723  -0.095 -34.926  1.00  0.00     0.161 C 
BRANCH  17  18
HETATM   18  C   UNL     1      -6.549  -0.963 -34.563  1.00  0.00    -0.040 A 
HETATM   19  C   UNL     1      -5.490  -0.443 -33.804  1.00  0.00     0.011 A 
HETATM   20  C   UNL     1      -4.439  -1.265 -33.385  1.00  0.00     0.037 A 
HETATM   21  C   UNL     1      -4.433  -2.619 -33.717  1.00  0.00     0.068 A 
HETATM   22  C   UNL     1      -5.464  -3.132 -34.504  1.00  0.00     0.037 A 
HETATM   23  C   UNL     1      -6.518  -2.315 -34.922  1.00  0.00     0.011 A 
BRANCH  21  24
HETATM   24  O   UNL     1      -3.485  -3.532 -33.344  1.00  0.00    -0.356 OA
HETATM   25  C   UNL     1      -3.714  -4.879 -33.738  1.00  0.00     0.210 C 
ENDBRANCH  21  24
ENDBRANCH  17  18
ENDBRANCH  14  17
ENDBRANCH   1  13
BRANCH   1  26
HETATM   26  O   UNL     1      -9.759   1.834 -30.911  1.00  0.00    -0.359 OA
HETATM   27  H   UNL     1      -9.972   0.887 -31.025  1.00  0.00     0.213 HD
ENDBRANCH   1  26
BRANCH   2  28
HETATM   28  C   UNL     1     -11.425   3.047 -32.750  1.00  0.00     0.120 A 
HETATM   29  C   UNL     1     -12.163   2.146 -33.528  1.00  0.00     0.146 A 
HETATM   30  F   UNL     1     -11.564   1.378 -34.449  1.00  0.00    -0.204 F 
HETATM   31  C   UNL     1     -13.553   2.040 -33.421  1.00  0.00     0.045 A 
HETATM   32  C   UNL     1     -14.244   2.829 -32.507  1.00  0.00     0.006 A 
HETATM   33  C   UNL     1     -13.537   3.718 -31.703  1.00  0.00     0.045 A 
HETATM   34  C   UNL     1     -12.149   3.821 -31.828  1.00  0.00     0.146 A 
HETATM   35  F   UNL     1     -11.513   4.626 -30.963  1.00  0.00    -0.204 F 
ENDBRANCH   2  28
TORSDOF 6
ENDMDL
MODEL 3
REMARK VINA RESULT:      -8.6      3.181      4.540
REMARK  6 active torsions:
REMARK  status: ('A' for Active; 'I' for Inactive)
REMARK    1  A    between atoms: O_2  and  C_3 
REMARK    2  A    between atoms: C_6  and  C_7 
REMARK    3  A    between atoms: C_7  and  N_8 
REMARK       I    between atoms: N_8  and  C_9 
REMARK    4  A    between atoms: C_9  and  C_10 
REMARK    5  A    between atoms: C_10  and  O_11 
REMARK    6  A    between atoms: N_12  and  C_13 
ROOT
HETATM    1  C   UNL     1      -4.339   3.915 -31.579  1.00  0.00     0.256 C 
HETATM    2  N   UNL     1      -5.590   4.318 -32.230  1.00  0.00    -0.248 N 
HETATM    3  C   UNL     1      -5.576   4.774 -33.536  1.00  0.00     0.330 C 
HETATM    4  O   UNL     1      -6.550   4.759 -34.289  1.00  0.00    -0.246 OA
HETATM    5  N   UNL     1      -4.390   5.236 -34.026  1.00  0.00    -0.308 N 
HETATM    6  C   UNL     1      -3.220   5.353 -33.288  1.00  0.00     0.048 A 
HETATM    7  C   UNL     1      -3.159   4.754 -32.035  1.00  0.00     0.034 A 
HETATM    8  C   UNL     1      -2.135   6.059 -33.808  1.00  0.00     0.030 A 
HETATM    9  C   UNL     1      -0.967   6.181 -33.055  1.00  0.00     0.002 A 
HETATM   10  C   UNL     1      -0.886   5.590 -31.796  1.00  0.00     0.001 A 
HETATM   11  C   UNL     1      -1.973   4.873 -31.291  1.00  0.00     0.015 A 
HETATM   12  H   UNL     1      -4.449   5.641 -34.951  1.00  0.00     0.170 HD
ENDROOT
BRANCH   1  13
HETATM   13  C   UNL     1      -3.979   2.389 -31.816  1.00  0.00     0.279 C 
HETATM   14  N   UNL     1      -4.510   1.451 -30.952  1.00  0.00    -0.352 N 
HETATM   15  H   UNL     1      -4.871   1.764 -30.060  1.00  0.00     0.162 HD
HETATM   16  O   UNL     1      -3.290   2.065 -32.790  1.00  0.00    -0.268 OA
BRANCH  14  17
HETATM   17  C   UNL     1      -4.057   0.082 -31.039  1.00  0.00     0.161 C 
BRANCH  17  18
HETATM   18  C   UNL     1      -4.699  -0.666 -32.175  1.00  0.00    -0.040 A 
HETATM   19  C   UNL     1      -3.929  -1.495 -33.003  1.00  0.00     0.011 A 
HETATM   20  C   UNL     1      -4.531  -2.265 -34.005  1.00  0.00     0.037 A 
HETATM   21  C   UNL     1      -5.912  -2.216 -34.190  1.00  0.00     0.068 A 
HETATM   22  C   UNL     1      -6.677  -1.363 -33.394  1.00  0.00     0.037 A 
HETATM   23  C   UNL     1      -6.080  -0.596 -32.391  1.00  0.00     0.011 A 
BRANCH  21  24
HETATM   24  O   UNL     1      -6.623  -2.939 -35.108  1.00  0.00    -0.356 OA
HETATM   25  C   UNL     1      -6.621  -4.352 -34.940  1.00  0.00     0.210 C 
ENDBRANCH  21  24
ENDBRANCH  17  18
ENDBRANCH  14  17
ENDBRANCH   1  13
BRANCH   1  26
HETATM   26  O   UNL     1      -4.467   4.164 -30.171  1.00  0.00    -0.359 OA
HETATM   27  H   UNL     1      -3.605   4.540 -29.906  1.00  0.00     0.213 HD
ENDBRANCH   1  26
BRANCH   2  28
HETATM   28  C   UNL     1      -6.854   4.150 -31.562  1.00  0.00     0.120 A 
HETATM   29  C   UNL     1      -7.415   5.125 -30.727  1.00  0.00     0.146 A 
HETATM   30  F   UNL     1      -6.758   6.261 -30.457  1.00  0.00    -0.204 F 
HETATM   31  C   UNL     1      -8.650   4.941 -30.099  1.00  0.00     0.045 A 
HETATM   32  C   UNL     1      -9.373   3.771 -30.310  1.00  0.00     0.006 A 
HETATM   33  C   UNL     1      -8.853   2.792 -31.152  1.00  0.00     0.045 A 
HETATM   34  C   UNL     1      -7.613   2.985 -31.766  1.00  0.00     0.146 A 
HETATM   35  F   UNL     1      -7.207   2.049 -32.639  1.00  0.00    -0.204 F 
ENDBRANCH   2  28
TORSDOF 6
ENDMDL
MODEL 4
REMARK VINA RESULT:      -8.5      1.754      4.655
REMARK  6 active torsions:
REMARK  status: ('A' for Active; 'I' for Inactive)
REMARK    1  A    between atoms: O_2  and  C_3 
REMARK    2  A    between atoms: C_6  and  C_7 
REMARK    3  A    between atoms: C_7  and  N_8 
REMARK       I    between atoms: N_8  and  C_9 
REMARK    4  A    between atoms: C_9  and  C_10 
REMARK    5  A    between atoms: C_10  and  O_11 
REMARK    6  A    between atoms: N_12  and  C_13 
ROOT
HETATM    1  C   UNL     1      -9.062   3.118 -33.540  1.00  0.00     0.256 C 
HETATM    2  N   UNL     1      -8.805   3.316 -32.109  1.00  0.00    -0.248 N 
HETATM    3  C   UNL     1      -9.844   3.222 -31.199  1.00  0.00     0.330 C 
HETATM    4  O   UNL     1      -9.699   2.977 -30.002  1.00  0.00    -0.246 OA
HETATM    5  N   UNL     1     -11.111   3.375 -31.678  1.00  0.00    -0.308 N 
HETATM    6  C   UNL     1     -11.431   3.693 -32.991  1.00  0.00     0.048 A 
HETATM    7  C   UNL     1     -10.429   3.631 -33.954  1.00  0.00     0.034 A 
HETATM    8  C   UNL     1     -12.733   4.065 -33.323  1.00  0.00     0.030 A 
HETATM    9  C   UNL     1     -13.041   4.394 -34.642  1.00  0.00     0.002 A 
HETATM   10  C   UNL     1     -12.053   4.340 -35.623  1.00  0.00     0.001 A 
HETATM   11  C   UNL     1     -10.755   3.953 -35.283  1.00  0.00     0.015 A 
HETATM   12  H   UNL     1     -11.829   3.387 -30.965  1.00  0.00     0.170 HD
ENDROOT
BRANCH   1  13
HETATM   13  C   UNL     1      -8.948   1.601 -33.987  1.00  0.00     0.279 C 
HETATM   14  N   UNL     1      -7.807   1.201 -34.655  1.00  0.00    -0.352 N 
HETATM   15  H   UNL     1      -7.219   1.909 -35.076  1.00  0.00     0.162 HD
HETATM   16  O   UNL     1      -9.841   0.803 -33.683  1.00  0.00    -0.268 OA
BRANCH  14  17
HETATM   17  C   UNL     1      -7.758  -0.125 -35.226  1.00  0.00     0.161 C 
BRANCH  17  18
HETATM   18  C   UNL     1      -6.591  -0.928 -34.720  1.00  0.00    -0.040 A 
HETATM   19  C   UNL     1      -5.604  -0.323 -33.929  1.00  0.00     0.011 A 
HETATM   20  C   UNL     1      -4.564  -1.081 -33.379  1.00  0.00     0.037 A 
HETATM   21  C   UNL     1      -4.498  -2.453 -33.613  1.00  0.00     0.068 A 
HETATM   22  C   UNL     1      -5.456  -3.052 -34.432  1.00  0.00     0.037 A 
HETATM   23  C   UNL     1      -6.498  -2.300 -34.980  1.00  0.00     0.011 A 
BRANCH  21  24
HETATM   24  O   UNL     1      -3.555  -3.307 -33.111  1.00  0.00    -0.356 OA
HETATM   25  C   UNL     1      -3.555  -4.630 -33.635  1.00  0.00     0.210 C 
ENDBRANCH  21  24
ENDBRANCH  17  18
ENDBRANCH  14  17
ENDBRANCH   1  13
BRANCH   1  26
HETATM   26  O   UNL     1      -8.115   3.907 -34.277  1.00  0.00    -0.359 OA
HETATM   27  H   UNL     1      -8.652   4.384 -34.940  1.00  0.00     0.213 HD
ENDBRANCH   1  26
BRANCH   2  28
HETATM   28  C   UNL     1      -7.465   3.508 -31.622  1.00  0.00     0.120 A 
HETATM   29  C   UNL     1      -6.906   4.772 -31.395  1.00  0.00     0.146 A 
HETATM   30  F   UNL     1      -7.587   5.889 -31.684  1.00  0.00    -0.204 F 
HETATM   31  C   UNL     1      -5.604   4.930 -30.910  1.00  0.00     0.045 A 
HETATM   32  C   UNL     1      -4.828   3.813 -30.618  1.00  0.00     0.006 A 
HETATM   33  C   UNL     1      -5.363   2.543 -30.811  1.00  0.00     0.045 A 
HETATM   34  C   UNL     1      -6.661   2.399 -31.306  1.00  0.00     0.146 A 
HETATM   35  F   UNL     1      -7.155   1.153 -31.382  1.00  0.00    -0.204 F 
ENDBRANCH   2  28
TORSDOF 6
ENDMDL
MODEL 5
REMARK VINA RESULT:      -8.4      3.064      5.048
REMARK  6 active torsions:
REMARK  status: ('A' for Active; 'I' for Inactive)
REMARK    1  A    between atoms: O_2  and  C_3 
REMARK    2  A    between atoms: C_6  and  C_7 
REMARK    3  A    between atoms: C_7  and  N_8 
REMARK       I    between atoms: N_8  and  C_9 
REMARK    4  A    between atoms: C_9  and  C_10 
REMARK    5  A    between atoms: C_10  and  O_11 
REMARK    6  A    between atoms: N_12  and  C_13 
ROOT
HETATM    1  C   UNL     1      -7.390   2.279 -33.205  1.00  0.00     0.256 C 
HETATM    2  N   UNL     1      -8.750   2.388 -32.667  1.00  0.00    -0.248 N 
HETATM    3  C   UNL     1      -8.949   2.467 -31.300  1.00  0.00     0.330 C 
HETATM    4  O   UNL     1      -9.953   2.944 -30.770  1.00  0.00    -0.246 OA
HETATM    5  N   UNL     1      -7.946   2.017 -30.493  1.00  0.00    -0.308 N 
HETATM    6  C   UNL     1      -6.776   1.418 -30.942  1.00  0.00     0.048 A 
HETATM    7  C   UNL     1      -6.476   1.475 -32.298  1.00  0.00     0.034 A 
HETATM    8  C   UNL     1      -5.929   0.777 -30.038  1.00  0.00     0.030 A 
HETATM    9  C   UNL     1      -4.762   0.169 -30.499  1.00  0.00     0.002 A 
HETATM   10  C   UNL     1      -4.443   0.213 -31.855  1.00  0.00     0.001 A 
HETATM   11  C   UNL     1      -5.291   0.869 -32.750  1.00  0.00     0.015 A 
HETATM   12  H   UNL     1      -8.172   2.012 -29.507  1.00  0.00     0.170 HD
ENDROOT
BRANCH   1  13
HETATM   13  C   UNL     1      -6.710   3.688 -33.467  1.00  0.00     0.279 C 
HETATM   14  N   UNL     1      -5.691   3.759 -34.397  1.00  0.00    -0.352 N 
HETATM   15  H   UNL     1      -5.228   2.903 -34.674  1.00  0.00     0.162 HD
HETATM   16  O   UNL     1      -7.138   4.693 -32.888  1.00  0.00    -0.268 OA
BRANCH  14  17
HETATM   17  C   UNL     1      -4.942   4.987 -34.522  1.00  0.00     0.161 C 
BRANCH  17  18
HETATM   18  C   UNL     1      -3.693   4.988 -33.684  1.00  0.00    -0.040 A 
HETATM   19  C   UNL     1      -3.593   4.158 -32.558  1.00  0.00     0.011 A 
HETATM   20  C   UNL     1      -2.403   4.084 -31.826  1.00  0.00     0.037 A 
HETATM   21  C   UNL     1      -1.296   4.839 -32.211  1.00  0.00     0.068 A 
HETATM   22  C   UNL     1      -1.402   5.695 -33.307  1.00  0.00     0.037 A 
HETATM   23  C   UNL     1      -2.588   5.769 -34.043  1.00  0.00     0.011 A 
BRANCH  21  24
HETATM   24  O   UNL     1      -0.071   4.833 -31.601  1.00  0.00    -0.356 OA
HETATM   25  C   UNL     1       0.036   5.574 -30.391  1.00  0.00     0.210 C 
ENDBRANCH  21  24
ENDBRANCH  17  18
ENDBRANCH  14  17
ENDBRANCH   1  13
BRANCH   1  26
HETATM   26  O   UNL     1      -7.454   1.542 -34.436  1.00  0.00    -0.359 OA
HETATM   27  H   UNL     1      -7.842   2.167 -35.080  1.00  0.00     0.213 HD
ENDBRANCH   1  26
BRANCH   2  28
HETATM   28  C   UNL     1      -9.881   2.518 -33.547  1.00  0.00     0.120 A 
HETATM   29  C   UNL     1     -10.265   3.733 -34.128  1.00  0.00     0.146 A 
HETATM   30  F   UNL     1      -9.618   4.870 -33.837  1.00  0.00    -0.204 F 
HETATM   31  C   UNL     1     -11.362   3.828 -34.989  1.00  0.00     0.045 A 
HETATM   32  C   UNL     1     -12.097   2.693 -35.310  1.00  0.00     0.006 A 
HETATM   33  C   UNL     1     -11.728   1.466 -34.767  1.00  0.00     0.045 A 
HETATM   34  C   UNL     1     -10.636   1.386 -33.900  1.00  0.00     0.146 A 
HETATM   35  F   UNL     1     -10.270   0.163 -33.483  1.00  0.00    -0.204 F 
ENDBRANCH   2  28
TORSDOF 6
ENDMDL
MODEL 6
REMARK VINA RESULT:      -8.3      2.942      6.775
REMARK  6 active torsions:
REMARK  status: ('A' for Active; 'I' for Inactive)
REMARK    1  A    between atoms: O_2  and  C_3 
REMARK    2  A    between atoms: C_6  and  C_7 
REMARK    3  A    between atoms: C_7  and  N_8 
REMARK       I    between atoms: N_8  and  C_9 
REMARK    4  A    between atoms: C_9  and  C_10 
REMARK    5  A    between atoms: C_10  and  O_11 
REMARK    6  A    between atoms: N_12  and  C_13 
ROOT
HETATM    1  C   UNL     1      -5.246   2.537 -32.139  1.00  0.00     0.256 C 
HETATM    2  N   UNL     1      -5.554   1.213 -31.588  1.00  0.00    -0.248 N 
HETATM    3  C   UNL     1      -6.430   1.093 -30.523  1.00  0.00     0.330 C 
HETATM    4  O   UNL     1      -7.052   0.067 -30.247  1.00  0.00    -0.246 OA
HETATM    5  N   UNL     1      -6.641   2.201 -29.757  1.00  0.00    -0.308 N 
HETATM    6  C   UNL     1      -5.985   3.414 -29.919  1.00  0.00     0.048 A 
HETATM    7  C   UNL     1      -5.231   3.615 -31.070  1.00  0.00     0.034 A 
HETATM    8  C   UNL     1      -6.091   4.402 -28.940  1.00  0.00     0.030 A 
HETATM    9  C   UNL     1      -5.420   5.612 -29.107  1.00  0.00     0.002 A 
HETATM   10  C   UNL     1      -4.658   5.834 -30.252  1.00  0.00     0.001 A 
HETATM   11  C   UNL     1      -4.569   4.844 -31.233  1.00  0.00     0.015 A 
HETATM   12  H   UNL     1      -7.217   2.041 -28.940  1.00  0.00     0.170 HD
ENDROOT
BRANCH   1  13
HETATM   13  C   UNL     1      -6.255   2.986 -33.277  1.00  0.00     0.279 C 
HETATM   14  N   UNL     1      -7.607   2.981 -32.992  1.00  0.00    -0.352 N 
HETATM   15  H   UNL     1      -7.931   2.447 -32.196  1.00  0.00     0.162 HD
HETATM   16  O   UNL     1      -5.818   3.384 -34.363  1.00  0.00    -0.268 OA
BRANCH  14  17
HETATM   17  C   UNL     1      -8.549   3.213 -34.061  1.00  0.00     0.161 C 
BRANCH  17  18
HETATM   18  C   UNL     1      -9.798   2.386 -33.918  1.00  0.00    -0.040 A 
HETATM   19  C   UNL     1     -10.981   2.770 -34.565  1.00  0.00     0.011 A 
HETATM   20  C   UNL     1     -12.121   1.961 -34.513  1.00  0.00     0.037 A 
HETATM   21  C   UNL     1     -12.092   0.755 -33.812  1.00  0.00     0.068 A 
HETATM   22  C   UNL     1     -10.930   0.388 -33.134  1.00  0.00     0.037 A 
HETATM   23  C   UNL     1      -9.788   1.192 -33.188  1.00  0.00     0.011 A 
BRANCH  21  24
HETATM   24  O   UNL     1     -13.124  -0.137 -33.710  1.00  0.00    -0.356 OA
HETATM   25  C   UNL     1     -14.435   0.392 -33.873  1.00  0.00     0.210 C 
ENDBRANCH  21  24
ENDBRANCH  17  18
ENDBRANCH  14  17
ENDBRANCH   1  13
BRANCH   1  26
HETATM   26  O   UNL     1      -3.912   2.502 -32.668  1.00  0.00    -0.359 OA
HETATM   27  H   UNL     1      -3.614   3.432 -32.653  1.00  0.00     0.213 HD
ENDBRANCH   1  26
BRANCH   2  28
HETATM   28  C   UNL     1      -5.036   0.021 -32.205  1.00  0.00     0.120 A 
HETATM   29  C   UNL     1      -3.917  -0.668 -31.719  1.00  0.00     0.146 A 
HETATM   30  F   UNL     1      -3.225  -0.205 -30.669  1.00  0.00    -0.204 F 
HETATM   31  C   UNL     1      -3.441  -1.831 -32.331  1.00  0.00     0.045 A 
HETATM   32  C   UNL     1      -4.092  -2.351 -33.444  1.00  0.00     0.006 A 
HETATM   33  C   UNL     1      -5.220  -1.702 -33.938  1.00  0.00     0.045 A 
HETATM   34  C   UNL     1      -5.680  -0.535 -33.323  1.00  0.00     0.146 A 
HETATM   35  F   UNL     1      -6.825  -0.007 -33.785  1.00  0.00    -0.204 F 
ENDBRANCH   2  28
TORSDOF 6
ENDMDL
MODEL 7
REMARK VINA RESULT:      -8.2      4.149      7.128
REMARK  6 active torsions:
REMARK  status: ('A' for Active; 'I' for Inactive)
REMARK    1  A    between atoms: O_2  and  C_3 
REMARK    2  A    between atoms: C_6  and  C_7 
REMARK    3  A    between atoms: C_7  and  N_8 
REMARK       I    between atoms: N_8  and  C_9 
REMARK    4  A    between atoms: C_9  and  C_10 
REMARK    5  A    between atoms: C_10  and  O_11 
REMARK    6  A    between atoms: N_12  and  C_13 
ROOT
HETATM    1  C   UNL     1      -6.004   2.626 -32.483  1.00  0.00     0.256 C 
HETATM    2  N   UNL     1      -6.256   2.455 -31.048  1.00  0.00    -0.248 N 
HETATM    3  C   UNL     1      -6.152   1.201 -30.472  1.00  0.00     0.330 C 
HETATM    4  O   UNL     1      -5.951   1.001 -29.274  1.00  0.00    -0.246 OA
HETATM    5  N   UNL     1      -6.244   0.121 -31.300  1.00  0.00    -0.308 N 
HETATM    6  C   UNL     1      -6.509   0.186 -32.662  1.00  0.00     0.048 A 
HETATM    7  C   UNL     1      -6.454   1.424 -33.293  1.00  0.00     0.034 A 
HETATM    8  C   UNL     1      -6.822  -0.975 -33.368  1.00  0.00     0.030 A 
HETATM    9  C   UNL     1      -7.098  -0.898 -34.732  1.00  0.00     0.002 A 
HETATM   10  C   UNL     1      -7.050   0.332 -35.385  1.00  0.00     0.001 A 
HETATM   11  C   UNL     1      -6.722   1.487 -34.671  1.00  0.00     0.015 A 
HETATM   12  H   UNL     1      -6.252  -0.772 -30.824  1.00  0.00     0.170 HD
ENDROOT
BRANCH   1  13
HETATM   13  C   UNL     1      -4.479   2.904 -32.817  1.00  0.00     0.279 C 
HETATM   14  N   UNL     1      -4.124   4.167 -33.249  1.00  0.00    -0.352 N 
HETATM   15  H   UNL     1      -4.849   4.780 -33.599  1.00  0.00     0.162 HD
HETATM   16  O   UNL     1      -3.638   2.017 -32.631  1.00  0.00    -0.268 OA
BRANCH  14  17
HETATM   17  C   UNL     1      -2.780   4.392 -33.727  1.00  0.00     0.161 C 
BRANCH  17  18
HETATM   18  C   UNL     1      -1.954   5.200 -32.764  1.00  0.00    -0.040 A 
HETATM   19  C   UNL     1      -1.774   6.576 -32.965  1.00  0.00     0.011 A 
HETATM   20  C   UNL     1      -1.084   7.352 -32.028  1.00  0.00     0.037 A 
HETATM   21  C   UNL     1      -0.566   6.762 -30.876  1.00  0.00     0.068 A 
HETATM   22  C   UNL     1      -0.708   5.387 -30.691  1.00  0.00     0.037 A 
HETATM   23  C   UNL     1      -1.399   4.609 -31.623  1.00  0.00     0.011 A 
BRANCH  21  24
HETATM   24  O   UNL     1       0.099   7.413 -29.872  1.00  0.00    -0.356 OA
HETATM   25  C   UNL     1       0.288   6.686 -28.664  1.00  0.00     0.210 C 
ENDBRANCH  21  24
ENDBRANCH  17  18
ENDBRANCH  14  17
ENDBRANCH   1  13
BRANCH   1  26
HETATM   26  O   UNL     1      -6.804   3.724 -32.949  1.00  0.00    -0.359 OA
HETATM   27  H   UNL     1      -6.783   4.374 -32.219  1.00  0.00     0.213 HD
ENDBRANCH   1  26
BRANCH   2  28
HETATM   28  C   UNL     1      -6.512   3.593 -30.205  1.00  0.00     0.120 A 
HETATM   29  C   UNL     1      -5.508   4.473 -29.781  1.00  0.00     0.146 A 
HETATM   30  F   UNL     1      -4.224   4.258 -30.097  1.00  0.00    -0.204 F 
HETATM   31  C   UNL     1      -5.786   5.578 -28.971  1.00  0.00     0.045 A 
HETATM   32  C   UNL     1      -7.094   5.844 -28.579  1.00  0.00     0.006 A 
HETATM   33  C   UNL     1      -8.117   5.001 -29.003  1.00  0.00     0.045 A 
HETATM   34  C   UNL     1      -7.824   3.894 -29.804  1.00  0.00     0.146 A 
HETATM   35  F   UNL     1      -8.861   3.173 -30.258  1.00  0.00    -0.204 F 
ENDBRANCH   2  28
TORSDOF 6
ENDMDL
MODEL 8
REMARK VINA RESULT:      -8.2     15.670     17.575
REMARK  6 active torsions:
REMARK  status: ('A' for Active; 'I' for Inactive)
REMARK    1  A    between atoms: O_2  and  C_3 
REMARK    2  A    between atoms: C_6  and  C_7 
REMARK    3  A    between atoms: C_7  and  N_8 
REMARK       I    between atoms: N_8  and  C_9 
REMARK    4  A    between atoms: C_9  and  C_10 
REMARK    5  A    between atoms: C_10  and  O_11 
REMARK    6  A    between atoms: N_12  and  C_13 
ROOT
HETATM    1  C   UNL     1      -7.007 -13.626 -38.326  1.00  0.00     0.256 C 
HETATM    2  N   UNL     1      -7.148 -14.690 -37.326  1.00  0.00    -0.248 N 
HETATM    3  C   UNL     1      -8.041 -15.726 -37.538  1.00  0.00     0.330 C 
HETATM    4  O   UNL     1      -7.965 -16.831 -37.000  1.00  0.00    -0.246 OA
HETATM    5  N   UNL     1      -9.049 -15.511 -38.431  1.00  0.00    -0.308 N 
HETATM    6  C   UNL     1      -9.288 -14.309 -39.083  1.00  0.00     0.048 A 
HETATM    7  C   UNL     1      -8.321 -13.312 -39.019  1.00  0.00     0.034 A 
HETATM    8  C   UNL     1     -10.479 -14.120 -39.785  1.00  0.00     0.030 A 
HETATM    9  C   UNL     1     -10.715 -12.905 -40.427  1.00  0.00     0.002 A 
HETATM   10  C   UNL     1      -9.760 -11.892 -40.374  1.00  0.00     0.001 A 
HETATM   11  C   UNL     1      -8.565 -12.096 -39.681  1.00  0.00     0.015 A 
HETATM   12  H   UNL     1      -9.726 -16.261 -38.485  1.00  0.00     0.170 HD
ENDROOT
BRANCH   1  13
HETATM   13  C   UNL     1      -5.930 -13.959 -39.441  1.00  0.00     0.279 C 
HETATM   14  N   UNL     1      -4.638 -13.504 -39.257  1.00  0.00    -0.352 N 
HETATM   15  H   UNL     1      -4.477 -12.763 -38.588  1.00  0.00     0.162 HD
HETATM   16  O   UNL     1      -6.244 -14.660 -40.409  1.00  0.00    -0.268 OA
BRANCH  14  17
HETATM   17  C   UNL     1      -3.688 -13.641 -40.336  1.00  0.00     0.161 C 
BRANCH  17  18
HETATM   18  C   UNL     1      -2.279 -13.826 -39.843  1.00  0.00    -0.040 A 
HETATM   19  C   UNL     1      -1.975 -13.660 -38.484  1.00  0.00     0.011 A 
HETATM   20  C   UNL     1      -0.688 -13.918 -38.001  1.00  0.00     0.037 A 
HETATM   21  C   UNL     1       0.313 -14.347 -38.871  1.00  0.00     0.068 A 
HETATM   22  C   UNL     1       0.026 -14.476 -40.230  1.00  0.00     0.037 A 
HETATM   23  C   UNL     1      -1.260 -14.223 -40.716  1.00  0.00     0.011 A 
BRANCH  21  24
HETATM   24  O   UNL     1       1.598 -14.662 -38.522  1.00  0.00    -0.356 OA
HETATM   25  C   UNL     1       1.762 -15.765 -37.638  1.00  0.00     0.210 C 
ENDBRANCH  21  24
ENDBRANCH  17  18
ENDBRANCH  14  17
ENDBRANCH   1  13
BRANCH   1  26
HETATM   26  O   UNL     1      -6.634 -12.418 -37.644  1.00  0.00    -0.359 OA
HETATM   27  H   UNL     1      -6.930 -12.552 -36.723  1.00  0.00     0.213 HD
ENDBRANCH   1  26
BRANCH   2  28
HETATM   28  C   UNL     1      -6.294 -14.729 -36.169  1.00  0.00     0.120 A 
HETATM   29  C   UNL     1      -5.050 -15.374 -36.155  1.00  0.00     0.146 A 
HETATM   30  F   UNL     1      -4.614 -16.052 -37.226  1.00  0.00    -0.204 F 
HETATM   31  C   UNL     1      -4.235 -15.386 -35.020  1.00  0.00     0.045 A 
HETATM   32  C   UNL     1      -4.639 -14.728 -33.864  1.00  0.00     0.006 A 
HETATM   33  C   UNL     1      -5.859 -14.059 -33.852  1.00  0.00     0.045 A 
HETATM   34  C   UNL     1      -6.669 -14.062 -34.990  1.00  0.00     0.146 A 
HETATM   35  F   UNL     1      -7.789 -13.323 -34.950  1.00  0.00    -0.204 F 
ENDBRANCH   2  28
TORSDOF 6
ENDMDL
MODEL 9
REMARK VINA RESULT:      -8.2      2.732      6.748
REMARK  6 active torsions:
REMARK  status: ('A' for Active; 'I' for Inactive)
REMARK    1  A    between atoms: O_2  and  C_3 
REMARK    2  A    between atoms: C_6  and  C_7 
REMARK    3  A    between atoms: C_7  and  N_8 
REMARK       I    between atoms: N_8  and  C_9 
REMARK    4  A    between atoms: C_9  and  C_10 
REMARK    5  A    between atoms: C_10  and  O_11 
REMARK    6  A    between atoms: N_12  and  C_13 
ROOT
HETATM    1  C   UNL     1      -5.987   3.280 -32.984  1.00  0.00     0.256 C 
HETATM    2  N   UNL     1      -5.789   2.018 -32.264  1.00  0.00    -0.248 N 
HETATM    3  C   UNL     1      -5.395   2.031 -30.937  1.00  0.00     0.330 C 
HETATM    4  O   UNL     1      -5.578   1.104 -30.149  1.00  0.00    -0.246 OA
HETATM    5  N   UNL     1      -4.800   3.166 -30.472  1.00  0.00    -0.308 N 
HETATM    6  C   UNL     1      -4.491   4.275 -31.248  1.00  0.00     0.048 A 
HETATM    7  C   UNL     1      -5.017   4.357 -32.533  1.00  0.00     0.034 A 
HETATM    8  C   UNL     1      -3.669   5.279 -30.736  1.00  0.00     0.030 A 
HETATM    9  C   UNL     1      -3.356   6.383 -31.527  1.00  0.00     0.002 A 
HETATM   10  C   UNL     1      -3.871   6.485 -32.817  1.00  0.00     0.001 A 
HETATM   11  C   UNL     1      -4.704   5.481 -33.316  1.00  0.00     0.015 A 
HETATM   12  H   UNL     1      -4.450   3.097 -29.525  1.00  0.00     0.170 HD
ENDROOT
BRANCH   1  13
HETATM   13  C   UNL     1      -7.459   3.851 -32.842  1.00  0.00     0.279 C 
HETATM   14  N   UNL     1      -8.246   3.921 -33.975  1.00  0.00    -0.352 N 
HETATM   15  H   UNL     1      -7.795   3.875 -34.880  1.00  0.00     0.162 HD
HETATM   16  O   UNL     1      -7.892   4.163 -31.726  1.00  0.00    -0.268 OA
BRANCH  14  17
HETATM   17  C   UNL     1      -9.519   4.599 -33.904  1.00  0.00     0.161 C 
BRANCH  17  18
HETATM   18  C   UNL     1     -10.675   3.686 -34.207  1.00  0.00    -0.040 A 
HETATM   19  C   UNL     1     -11.166   2.813 -33.226  1.00  0.00     0.011 A 
HETATM   20  C   UNL     1     -12.297   2.026 -33.468  1.00  0.00     0.037 A 
HETATM   21  C   UNL     1     -12.954   2.103 -34.695  1.00  0.00     0.068 A 
HETATM   22  C   UNL     1     -12.446   2.941 -35.689  1.00  0.00     0.037 A 
HETATM   23  C   UNL     1     -11.319   3.732 -35.449  1.00  0.00     0.011 A 
BRANCH  21  24
HETATM   24  O   UNL     1     -14.082   1.413 -35.045  1.00  0.00    -0.356 OA
HETATM   25  C   UNL     1     -14.652   0.583 -34.041  1.00  0.00     0.210 C 
ENDBRANCH  21  24
ENDBRANCH  17  18
ENDBRANCH  14  17
ENDBRANCH   1  13
BRANCH   1  26
HETATM   26  O   UNL     1      -5.693   3.055 -34.371  1.00  0.00    -0.359 OA
HETATM   27  H   UNL     1      -6.518   2.689 -34.744  1.00  0.00     0.213 HD
ENDBRANCH   1  26
BRANCH   2  28
HETATM   28  C   UNL     1      -6.095   0.759 -32.890  1.00  0.00     0.120 A 
HETATM   29  C   UNL     1      -5.114  -0.117 -33.371  1.00  0.00     0.146 A 
HETATM   30  F   UNL     1      -3.815   0.211 -33.326  1.00  0.00    -0.204 F 
HETATM   31  C   UNL     1      -5.439  -1.340 -33.964  1.00  0.00     0.045 A 
HETATM   32  C   UNL     1      -6.769  -1.731 -34.073  1.00  0.00     0.006 A 
HETATM   33  C   UNL     1      -7.767  -0.894 -33.583  1.00  0.00     0.045 A 
HETATM   34  C   UNL     1      -7.429   0.330 -33.002  1.00  0.00     0.146 A 
HETATM   35  F   UNL     1      -8.426   1.051 -32.464  1.00  0.00    -0.204 F 
ENDBRANCH   2  28
TORSDOF 6
ENDMDL
MODEL 10
REMARK VINA RESULT:      -8.1      2.251      3.536
REMARK  6 active torsions:
REMARK  status: ('A' for Active; 'I' for Inactive)
REMARK    1  A    between atoms: O_2  and  C_3 
REMARK    2  A    between atoms: C_6  and  C_7 
REMARK    3  A    between atoms: C_7  and  N_8 
REMARK       I    between atoms: N_8  and  C_9 
REMARK    4  A    between atoms: C_9  and  C_10 
REMARK    5  A    between atoms: C_10  and  O_11 
REMARK    6  A    between atoms: N_12  and  C_13 
ROOT
HETATM    1  C   UNL     1      -6.613   2.673 -30.937  1.00  0.00     0.256 C 
HETATM    2  N   UNL     1      -7.117   2.526 -32.307  1.00  0.00    -0.248 N 
HETATM    3  C   UNL     1      -6.394   3.039 -33.370  1.00  0.00     0.330 C 
HETATM    4  O   UNL     1      -6.497   2.650 -34.533  1.00  0.00    -0.246 OA
HETATM    5  N   UNL     1      -5.483   4.016 -33.095  1.00  0.00    -0.308 N 
HETATM    6  C   UNL     1      -5.283   4.584 -31.844  1.00  0.00     0.048 A 
HETATM    7  C   UNL     1      -5.870   3.981 -30.736  1.00  0.00     0.034 A 
HETATM    8  C   UNL     1      -4.507   5.736 -31.716  1.00  0.00     0.030 A 
HETATM    9  C   UNL     1      -4.321   6.305 -30.457  1.00  0.00     0.002 A 
HETATM   10  C   UNL     1      -4.900   5.718 -29.334  1.00  0.00     0.001 A 
HETATM   11  C   UNL     1      -5.665   4.557 -29.471  1.00  0.00     0.015 A 
HETATM   12  H   UNL     1      -5.045   4.421 -33.911  1.00  0.00     0.170 HD
ENDROOT
BRANCH   1  13
HETATM   13  C   UNL     1      -5.655   1.488 -30.498  1.00  0.00     0.279 C 
HETATM   14  N   UNL     1      -4.498   1.280 -31.225  1.00  0.00    -0.352 N 
HETATM   15  H   UNL     1      -4.428   1.685 -32.149  1.00  0.00     0.162 HD
HETATM   16  O   UNL     1      -5.925   0.821 -29.493  1.00  0.00    -0.268 OA
BRANCH  14  17
HETATM   17  C   UNL     1      -3.705   0.104 -30.955  1.00  0.00     0.161 C 
BRANCH  17  18
HETATM   18  C   UNL     1      -3.975  -1.009 -31.931  1.00  0.00    -0.040 A 
HETATM   19  C   UNL     1      -4.815  -0.798 -33.033  1.00  0.00     0.011 A 
HETATM   20  C   UNL     1      -5.001  -1.798 -33.994  1.00  0.00     0.037 A 
HETATM   21  C   UNL     1      -4.347  -3.023 -33.865  1.00  0.00     0.068 A 
HETATM   22  C   UNL     1      -3.541  -3.252 -32.749  1.00  0.00     0.037 A 
HETATM   23  C   UNL     1      -3.351  -2.254 -31.790  1.00  0.00     0.011 A 
BRANCH  21  24
HETATM   24  O   UNL     1      -4.420  -4.066 -34.747  1.00  0.00    -0.356 OA
HETATM   25  C   UNL     1      -5.725  -4.468 -35.145  1.00  0.00     0.210 C 
ENDBRANCH  21  24
ENDBRANCH  17  18
ENDBRANCH  14  17
ENDBRANCH   1  13
BRANCH   1  26
HETATM   26  O   UNL     1      -7.741   2.731 -30.050  1.00  0.00    -0.359 OA
HETATM   27  H   UNL     1      -8.519   2.772 -30.640  1.00  0.00     0.213 HD
ENDBRANCH   1  26
BRANCH   2  28
HETATM   28  C   UNL     1      -8.308   1.764 -32.575  1.00  0.00     0.120 A 
HETATM   29  C   UNL     1      -8.379   0.374 -32.421  1.00  0.00     0.146 A 
HETATM   30  F   UNL     1      -7.299  -0.336 -32.068  1.00  0.00    -0.204 F 
HETATM   31  C   UNL     1      -9.553  -0.341 -32.677  1.00  0.00     0.045 A 
HETATM   32  C   UNL     1     -10.704   0.329 -33.077  1.00  0.00     0.006 A 
HETATM   33  C   UNL     1     -10.673   1.714 -33.217  1.00  0.00     0.045 A 
HETATM   34  C   UNL     1      -9.490   2.414 -32.968  1.00  0.00     0.146 A 
HETATM   35  F   UNL     1      -9.546   3.754 -33.028  1.00  0.00    -0.204 F 
ENDBRANCH   2  28
TORSDOF 6
ENDMDL
