MODEL 1
REMARK VINA RESULT:      -8.7      0.000      0.000
REMARK  8 active torsions:
REMARK  status: ('A' for Active; 'I' for Inactive)
REMARK    1  A    between atoms: C_6  and  O_7 
REMARK    2  A    between atoms: O_7  and  C_8 
REMARK    3  A    between atoms: C_8  and  C_9 
REMARK    4  A    between atoms: C_9  and  C_10 
REMARK    5  A    between atoms: C_10  and  C_11 
REMARK    6  A    between atoms: C_11  and  N_12 
REMARK       I    between atoms: N_12  and  C_13 
REMARK    7  A    between atoms: C_13  and  C_14 
REMARK    8  A    between atoms: C_18  and  C_19 
ROOT
HETATM    1  N   UNL     1      -5.759   3.638 -33.955  1.00  0.00    -0.345 N 
HETATM    2  C   UNL     1      -6.991   3.033 -33.983  1.00  0.00     0.270 C 
HETATM    3  O   UNL     1      -8.040   3.648 -33.829  1.00  0.00    -0.266 OA
HETATM    4  H   UNL     1      -4.921   3.086 -34.044  1.00  0.00     0.163 HD
ENDROOT
BRANCH   2   5
HETATM    5  C   UNL     1      -6.976   1.615 -34.229  1.00  0.00     0.120 A 
HETATM    6  N   UNL     1      -7.913   1.024 -35.028  1.00  0.00    -0.272 N 
HETATM    7  H   UNL     1      -8.688   1.483 -35.497  1.00  0.00     0.189 HD
HETATM    8  N   UNL     1      -7.748  -0.297 -35.187  1.00  0.00    -0.174 NA
HETATM    9  C   UNL     1      -6.640  -0.587 -34.486  1.00  0.00     0.089 A 
HETATM   10  C   UNL     1      -6.141   0.585 -33.847  1.00  0.00     0.071 A 
BRANCH   9  11
HETATM   11  C   UNL     1      -6.088  -1.946 -34.457  1.00  0.00    -0.005 A 
HETATM   12  C   UNL     1      -4.749  -2.178 -34.101  1.00  0.00     0.017 A 
HETATM   13  C   UNL     1      -4.230  -3.476 -34.094  1.00  0.00     0.043 A 
HETATM   14  C   UNL     1      -5.046  -4.545 -34.440  1.00  0.00     0.116 A 
HETATM   15  F   UNL     1      -4.545  -5.786 -34.434  1.00  0.00    -0.206 F 
HETATM   16  C   UNL     1      -6.373  -4.343 -34.796  1.00  0.00     0.043 A 
HETATM   17  C   UNL     1      -6.892  -3.045 -34.806  1.00  0.00     0.017 A 
ENDBRANCH   9  11
ENDBRANCH   2   5
BRANCH   1  18
HETATM   18  C   UNL     1      -5.621   5.066 -33.862  1.00  0.00     0.217 C 
BRANCH  18  19
HETATM   19  C   UNL     1      -4.166   5.469 -34.035  1.00  0.00    -0.085 C 
BRANCH  19  20
HETATM   20  C   UNL     1      -2.918   5.816 -34.183  1.00  0.00    -0.078 C 
BRANCH  20  21
HETATM   21  C   UNL     1      -1.514   6.213 -34.363  1.00  0.00     0.269 C 
BRANCH  21  22
HETATM   22  O   UNL     1      -1.336   7.531 -33.849  1.00  0.00    -0.340 OA
BRANCH  22  23
HETATM   23  C   UNL     1      -1.398   7.685 -32.491  1.00  0.00     0.071 A 
HETATM   24  C   UNL     1      -0.602   6.791 -31.769  1.00  0.00     0.055 A 
HETATM   25  C   UNL     1      -0.575   6.844 -30.376  1.00  0.00     0.013 A 
HETATM   26  C   UNL     1      -1.336   7.788 -29.690  1.00  0.00     0.019 A 
HETATM   27 BR   UNL     1       0.502   5.628 -29.410  1.00  0.00    -0.051 Br
HETATM   28  C   UNL     1      -2.129   8.683 -30.407  1.00  0.00     0.004 A 
HETATM   29  C   UNL     1      -2.161   8.633 -31.805  1.00  0.00     0.037 A 
ENDBRANCH  22  23
ENDBRANCH  21  22
ENDBRANCH  20  21
ENDBRANCH  19  20
ENDBRANCH  18  19
ENDBRANCH   1  18
TORSDOF 8
ENDMDL
MODEL 2
REMARK VINA RESULT:      -8.7      1.063      1.406
REMARK  8 active torsions:
REMARK  status: ('A' for Active; 'I' for Inactive)
REMARK    1  A    between atoms: C_6  and  O_7 
REMARK    2  A    between atoms: O_7  and  C_8 
REMARK    3  A    between atoms: C_8  and  C_9 
REMARK    4  A    between atoms: C_9  and  C_10 
REMARK    5  A    between atoms: C_10  and  C_11 
REMARK    6  A    between atoms: C_11  and  N_12 
REMARK       I    between atoms: N_12  and  C_13 
REMARK    7  A    between atoms: C_13  and  C_14 
REMARK    8  A    between atoms: C_18  and  C_19 
ROOT
HETATM    1  N   UNL     1      -5.762   3.644 -33.967  1.00  0.00    -0.345 N 
HETATM    2  C   UNL     1      -6.993   3.036 -33.983  1.00  0.00     0.270 C 
HETATM    3  O   UNL     1      -8.042   3.650 -33.822  1.00  0.00    -0.266 OA
HETATM    4  H   UNL     1      -4.923   3.093 -34.061  1.00  0.00     0.163 HD
ENDROOT
BRANCH   2   5
HETATM    5  C   UNL     1      -6.978   1.618 -34.223  1.00  0.00     0.120 A 
HETATM    6  N   UNL     1      -7.932   1.020 -34.997  1.00  0.00    -0.272 N 
HETATM    7  H   UNL     1      -8.720   1.474 -35.450  1.00  0.00     0.189 HD
HETATM    8  N   UNL     1      -7.764  -0.301 -35.156  1.00  0.00    -0.174 NA
HETATM    9  C   UNL     1      -6.638  -0.584 -34.481  1.00  0.00     0.089 A 
HETATM   10  C   UNL     1      -6.129   0.592 -33.858  1.00  0.00     0.071 A 
BRANCH   9  11
HETATM   11  C   UNL     1      -6.080  -1.940 -34.460  1.00  0.00    -0.005 A 
HETATM   12  C   UNL     1      -4.746  -2.170 -34.083  1.00  0.00     0.017 A 
HETATM   13  C   UNL     1      -4.220  -3.466 -34.084  1.00  0.00     0.043 A 
HETATM   14  C   UNL     1      -5.025  -4.534 -34.459  1.00  0.00     0.116 A 
HETATM   15  F   UNL     1      -4.517  -5.773 -34.461  1.00  0.00    -0.206 F 
HETATM   16  C   UNL     1      -6.346  -4.334 -34.837  1.00  0.00     0.043 A 
HETATM   17  C   UNL     1      -6.871  -3.039 -34.838  1.00  0.00     0.017 A 
ENDBRANCH   9  11
ENDBRANCH   2   5
BRANCH   1  18
HETATM   18  C   UNL     1      -5.625   5.072 -33.880  1.00  0.00     0.217 C 
BRANCH  18  19
HETATM   19  C   UNL     1      -4.173   5.477 -34.073  1.00  0.00    -0.085 C 
BRANCH  19  20
HETATM   20  C   UNL     1      -2.928   5.826 -34.238  1.00  0.00    -0.078 C 
BRANCH  20  21
HETATM   21  C   UNL     1      -1.528   6.225 -34.436  1.00  0.00     0.269 C 
BRANCH  21  22
HETATM   22  O   UNL     1      -1.324   7.510 -33.851  1.00  0.00    -0.340 OA
BRANCH  22  23
HETATM   23  C   UNL     1      -1.139   7.556 -32.496  1.00  0.00     0.071 A 
HETATM   24  C   UNL     1      -2.025   8.398 -31.818  1.00  0.00     0.055 A 
HETATM   25  C   UNL     1      -1.942   8.533 -30.433  1.00  0.00     0.013 A 
HETATM   26  C   UNL     1      -0.981   7.831 -29.711  1.00  0.00     0.019 A 
HETATM   27 BR   UNL     1      -3.143   9.678 -29.527  1.00  0.00    -0.051 Br
HETATM   28  C   UNL     1      -0.097   6.988 -30.383  1.00  0.00     0.004 A 
HETATM   29  C   UNL     1      -0.175   6.849 -31.773  1.00  0.00     0.037 A 
ENDBRANCH  22  23
ENDBRANCH  21  22
ENDBRANCH  20  21
ENDBRANCH  19  20
ENDBRANCH  18  19
ENDBRANCH   1  18
TORSDOF 8
ENDMDL
MODEL 3
REMARK VINA RESULT:      -8.4      4.833     10.526
REMARK  8 active torsions:
REMARK  status: ('A' for Active; 'I' for Inactive)
REMARK    1  A    between atoms: C_6  and  O_7 
REMARK    2  A    between atoms: O_7  and  C_8 
REMARK    3  A    between atoms: C_8  and  C_9 
REMARK    4  A    between atoms: C_9  and  C_10 
REMARK    5  A    between atoms: C_10  and  C_11 
REMARK    6  A    between atoms: C_11  and  N_12 
REMARK       I    between atoms: N_12  and  C_13 
REMARK    7  A    between atoms: C_13  and  C_14 
REMARK    8  A    between atoms: C_18  and  C_19 
ROOT
HETATM    1  N   UNL     1      -2.196   5.439 -33.665  1.00  0.00    -0.345 N 
HETATM    2  C   UNL     1      -1.522   6.568 -33.269  1.00  0.00     0.270 C 
HETATM    3  O   UNL     1      -1.488   7.594 -33.940  1.00  0.00    -0.266 OA
HETATM    4  H   UNL     1      -2.162   4.604 -33.102  1.00  0.00     0.163 HD
ENDROOT
BRANCH   2   5
HETATM    5  C   UNL     1      -0.867   6.479 -31.992  1.00  0.00     0.120 A 
HETATM    6  N   UNL     1      -0.022   5.445 -31.699  1.00  0.00    -0.272 N 
HETATM    7  H   UNL     1       0.212   4.663 -32.302  1.00  0.00     0.189 HD
HETATM    8  N   UNL     1       0.537   5.520 -30.483  1.00  0.00    -0.174 NA
HETATM    9  C   UNL     1       0.065   6.663 -29.961  1.00  0.00     0.089 A 
HETATM   10  C   UNL     1      -0.842   7.280 -30.869  1.00  0.00     0.071 A 
BRANCH   9  11
HETATM   11  C   UNL     1       0.494   7.134 -28.639  1.00  0.00    -0.005 A 
HETATM   12  C   UNL     1       0.099   6.468 -27.467  1.00  0.00     0.017 A 
HETATM   13  C   UNL     1       0.500   6.938 -26.213  1.00  0.00     0.043 A 
HETATM   14  C   UNL     1       1.297   8.073 -26.126  1.00  0.00     0.116 A 
HETATM   15  F   UNL     1       1.676   8.521 -24.923  1.00  0.00    -0.206 F 
HETATM   16  C   UNL     1       1.700   8.750 -27.269  1.00  0.00     0.043 A 
HETATM   17  C   UNL     1       1.298   8.282 -28.523  1.00  0.00     0.017 A 
ENDBRANCH   9  11
ENDBRANCH   2   5
BRANCH   1  18
HETATM   18  C   UNL     1      -3.015   5.423 -34.847  1.00  0.00     0.217 C 
BRANCH  18  19
HETATM   19  C   UNL     1      -4.422   4.958 -34.509  1.00  0.00    -0.085 C 
BRANCH  19  20
HETATM   20  C   UNL     1      -5.628   4.560 -34.220  1.00  0.00    -0.078 C 
BRANCH  20  21
HETATM   21  C   UNL     1      -6.995   4.120 -33.903  1.00  0.00     0.269 C 
BRANCH  21  22
HETATM   22  O   UNL     1      -6.929   2.959 -33.078  1.00  0.00    -0.340 OA
BRANCH  22  23
HETATM   23  C   UNL     1      -6.896   1.746 -33.709  1.00  0.00     0.071 A 
HETATM   24  C   UNL     1      -5.837   0.920 -33.323  1.00  0.00     0.055 A 
HETATM   25  C   UNL     1      -5.691  -0.345 -33.892  1.00  0.00     0.013 A 
HETATM   26  C   UNL     1      -6.597  -0.799 -34.847  1.00  0.00     0.019 A 
HETATM   27 BR   UNL     1      -4.252  -1.453 -33.363  1.00  0.00    -0.051 Br
HETATM   28  C   UNL     1      -7.655   0.022 -35.234  1.00  0.00     0.004 A 
HETATM   29  C   UNL     1      -7.806   1.292 -34.667  1.00  0.00     0.037 A 
ENDBRANCH  22  23
ENDBRANCH  21  22
ENDBRANCH  20  21
ENDBRANCH  19  20
ENDBRANCH  18  19
ENDBRANCH   1  18
TORSDOF 8
ENDMDL
MODEL 4
REMARK VINA RESULT:      -8.1      5.968     11.932
REMARK  8 active torsions:
REMARK  status: ('A' for Active; 'I' for Inactive)
REMARK    1  A    between atoms: C_6  and  O_7 
REMARK    2  A    between atoms: O_7  and  C_8 
REMARK    3  A    between atoms: C_8  and  C_9 
REMARK    4  A    between atoms: C_9  and  C_10 
REMARK    5  A    between atoms: C_10  and  C_11 
REMARK    6  A    between atoms: C_11  and  N_12 
REMARK       I    between atoms: N_12  and  C_13 
REMARK    7  A    between atoms: C_13  and  C_14 
REMARK    8  A    between atoms: C_18  and  C_19 
ROOT
HETATM    1  N   UNL     1      -1.625   5.479 -31.605  1.00  0.00    -0.345 N 
HETATM    2  C   UNL     1      -0.451   5.388 -30.901  1.00  0.00     0.270 C 
HETATM    3  O   UNL     1       0.465   4.638 -31.223  1.00  0.00    -0.266 OA
HETATM    4  H   UNL     1      -2.367   6.077 -31.279  1.00  0.00     0.163 HD
ENDROOT
BRANCH   2   5
HETATM    5  C   UNL     1      -0.350   6.254 -29.756  1.00  0.00     0.120 A 
HETATM    6  N   UNL     1      -1.386   6.390 -28.876  1.00  0.00    -0.272 N 
HETATM    7  H   UNL     1      -2.294   5.939 -28.932  1.00  0.00     0.189 HD
HETATM    8  N   UNL     1      -1.128   7.206 -27.844  1.00  0.00    -0.174 NA
HETATM    9  C   UNL     1       0.140   7.604 -28.034  1.00  0.00     0.089 A 
HETATM   10  C   UNL     1       0.654   7.049 -29.241  1.00  0.00     0.071 A 
BRANCH   9  11
HETATM   11  C   UNL     1       0.820   8.477 -27.071  1.00  0.00    -0.005 A 
HETATM   12  C   UNL     1       1.843   7.987 -26.243  1.00  0.00     0.017 A 
HETATM   13  C   UNL     1       2.471   8.825 -25.317  1.00  0.00     0.043 A 
HETATM   14  C   UNL     1       2.080  10.154 -25.215  1.00  0.00     0.116 A 
HETATM   15  F   UNL     1       2.682  10.952 -24.325  1.00  0.00    -0.206 F 
HETATM   16  C   UNL     1       1.071  10.663 -26.021  1.00  0.00     0.043 A 
HETATM   17  C   UNL     1       0.441   9.826 -26.946  1.00  0.00     0.017 A 
ENDBRANCH   9  11
ENDBRANCH   2   5
BRANCH   1  18
HETATM   18  C   UNL     1      -1.816   4.782 -32.849  1.00  0.00     0.217 C 
BRANCH  18  19
HETATM   19  C   UNL     1      -2.877   3.705 -32.694  1.00  0.00    -0.085 C 
BRANCH  19  20
HETATM   20  C   UNL     1      -3.787   2.781 -32.563  1.00  0.00    -0.078 C 
BRANCH  20  21
HETATM   21  C   UNL     1      -4.812   1.737 -32.429  1.00  0.00     0.269 C 
BRANCH  21  22
HETATM   22  O   UNL     1      -4.178   0.460 -32.435  1.00  0.00    -0.340 OA
BRANCH  22  23
HETATM   23  C   UNL     1      -4.736  -0.511 -33.220  1.00  0.00     0.071 A 
HETATM   24  C   UNL     1      -4.086  -1.747 -33.164  1.00  0.00     0.055 A 
HETATM   25  C   UNL     1      -4.557  -2.822 -33.918  1.00  0.00     0.013 A 
HETATM   26  C   UNL     1      -5.678  -2.676 -34.732  1.00  0.00     0.019 A 
HETATM   27 BR   UNL     1      -3.669  -4.489 -33.836  1.00  0.00    -0.051 Br
HETATM   28  C   UNL     1      -6.330  -1.445 -34.789  1.00  0.00     0.004 A 
HETATM   29  C   UNL     1      -5.861  -0.364 -34.035  1.00  0.00     0.037 A 
ENDBRANCH  22  23
ENDBRANCH  21  22
ENDBRANCH  20  21
ENDBRANCH  19  20
ENDBRANCH  18  19
ENDBRANCH   1  18
TORSDOF 8
ENDMDL
MODEL 5
REMARK VINA RESULT:      -8.0      5.804     11.748
REMARK  8 active torsions:
REMARK  status: ('A' for Active; 'I' for Inactive)
REMARK    1  A    between atoms: C_6  and  O_7 
REMARK    2  A    between atoms: O_7  and  C_8 
REMARK    3  A    between atoms: C_8  and  C_9 
REMARK    4  A    between atoms: C_9  and  C_10 
REMARK    5  A    between atoms: C_10  and  C_11 
REMARK    6  A    between atoms: C_11  and  N_12 
REMARK       I    between atoms: N_12  and  C_13 
REMARK    7  A    between atoms: C_13  and  C_14 
REMARK    8  A    between atoms: C_18  and  C_19 
ROOT
HETATM    1  N   UNL     1      -2.441   4.681 -31.212  1.00  0.00    -0.345 N 
HETATM    2  C   UNL     1      -1.172   5.188 -31.093  1.00  0.00     0.270 C 
HETATM    3  O   UNL     1      -0.260   4.891 -31.859  1.00  0.00    -0.266 OA
HETATM    4  H   UNL     1      -3.148   4.919 -30.535  1.00  0.00     0.163 HD
ENDROOT
BRANCH   2   5
HETATM    5  C   UNL     1      -0.977   6.117 -30.013  1.00  0.00     0.120 A 
HETATM    6  N   UNL     1      -2.035   6.610 -29.302  1.00  0.00    -0.272 N 
HETATM    7  H   UNL     1      -3.018   6.404 -29.454  1.00  0.00     0.189 HD
HETATM    8  N   UNL     1      -1.691   7.439 -28.306  1.00  0.00    -0.174 NA
HETATM    9  C   UNL     1      -0.350   7.475 -28.342  1.00  0.00     0.089 A 
HETATM   10  C   UNL     1       0.135   6.679 -29.419  1.00  0.00     0.071 A 
BRANCH   9  11
HETATM   11  C   UNL     1       0.421   8.244 -27.359  1.00  0.00    -0.005 A 
HETATM   12  C   UNL     1       0.142   9.599 -27.116  1.00  0.00     0.017 A 
HETATM   13  C   UNL     1       0.896  10.325 -26.188  1.00  0.00     0.043 A 
HETATM   14  C   UNL     1       1.928   9.700 -25.501  1.00  0.00     0.116 A 
HETATM   15  F   UNL     1       2.649  10.399 -24.616  1.00  0.00    -0.206 F 
HETATM   16  C   UNL     1       2.225   8.362 -25.723  1.00  0.00     0.043 A 
HETATM   17  C   UNL     1       1.474   7.636 -26.652  1.00  0.00     0.017 A 
ENDBRANCH   9  11
ENDBRANCH   2   5
BRANCH   1  18
HETATM   18  C   UNL     1      -2.824   3.853 -32.324  1.00  0.00     0.217 C 
BRANCH  18  19
HETATM   19  C   UNL     1      -3.249   2.477 -31.837  1.00  0.00    -0.085 C 
BRANCH  19  20
HETATM   20  C   UNL     1      -3.613   1.297 -31.420  1.00  0.00    -0.078 C 
BRANCH  20  21
HETATM   21  C   UNL     1      -4.029  -0.027 -30.937  1.00  0.00     0.269 C 
BRANCH  21  22
HETATM   22  O   UNL     1      -3.701  -1.004 -31.922  1.00  0.00    -0.340 OA
BRANCH  22  23
HETATM   23  C   UNL     1      -4.678  -1.338 -32.820  1.00  0.00     0.071 A 
HETATM   24  C   UNL     1      -5.895  -0.679 -32.624  1.00  0.00     0.055 A 
HETATM   25  C   UNL     1      -6.973  -0.930 -33.473  1.00  0.00     0.013 A 
HETATM   26  C   UNL     1      -6.848  -1.836 -34.523  1.00  0.00     0.019 A 
HETATM   27 BR   UNL     1      -8.614  -0.034 -33.197  1.00  0.00    -0.051 Br
HETATM   28  C   UNL     1      -5.635  -2.494 -34.723  1.00  0.00     0.004 A 
HETATM   29  C   UNL     1      -4.551  -2.246 -33.874  1.00  0.00     0.037 A 
ENDBRANCH  22  23
ENDBRANCH  21  22
ENDBRANCH  20  21
ENDBRANCH  19  20
ENDBRANCH  18  19
ENDBRANCH   1  18
TORSDOF 8
ENDMDL
MODEL 6
REMARK VINA RESULT:      -7.8      1.872      2.345
REMARK  8 active torsions:
REMARK  status: ('A' for Active; 'I' for Inactive)
REMARK    1  A    between atoms: C_6  and  O_7 
REMARK    2  A    between atoms: O_7  and  C_8 
REMARK    3  A    between atoms: C_8  and  C_9 
REMARK    4  A    between atoms: C_9  and  C_10 
REMARK    5  A    between atoms: C_10  and  C_11 
REMARK    6  A    between atoms: C_11  and  N_12 
REMARK       I    between atoms: N_12  and  C_13 
REMARK    7  A    between atoms: C_13  and  C_14 
REMARK    8  A    between atoms: C_18  and  C_19 
ROOT
HETATM    1  N   UNL     1      -5.738   4.199 -31.623  1.00  0.00    -0.345 N 
HETATM    2  C   UNL     1      -6.171   3.553 -32.753  1.00  0.00     0.270 C 
HETATM    3  O   UNL     1      -6.740   4.129 -33.674  1.00  0.00    -0.266 OA
HETATM    4  H   UNL     1      -5.313   3.678 -30.871  1.00  0.00     0.163 HD
ENDROOT
BRANCH   2   5
HETATM    5  C   UNL     1      -5.896   2.142 -32.801  1.00  0.00     0.120 A 
HETATM    6  N   UNL     1      -5.444   1.470 -31.701  1.00  0.00    -0.272 N 
HETATM    7  H   UNL     1      -5.247   1.865 -30.786  1.00  0.00     0.189 HD
HETATM    8  N   UNL     1      -5.266   0.155 -31.893  1.00  0.00    -0.174 NA
HETATM    9  C   UNL     1      -5.640  -0.056 -33.165  1.00  0.00     0.089 A 
HETATM   10  C   UNL     1      -6.017   1.174 -33.777  1.00  0.00     0.071 A 
BRANCH   9  11
HETATM   11  C   UNL     1      -5.643  -1.402 -33.748  1.00  0.00    -0.005 A 
HETATM   12  C   UNL     1      -4.444  -2.104 -33.958  1.00  0.00     0.017 A 
HETATM   13  C   UNL     1      -4.458  -3.380 -34.531  1.00  0.00     0.043 A 
HETATM   14  C   UNL     1      -5.668  -3.957 -34.894  1.00  0.00     0.116 A 
HETATM   15  F   UNL     1      -5.677  -5.177 -35.445  1.00  0.00    -0.206 F 
HETATM   16  C   UNL     1      -6.867  -3.284 -34.699  1.00  0.00     0.043 A 
HETATM   17  C   UNL     1      -6.853  -2.008 -34.128  1.00  0.00     0.017 A 
ENDBRANCH   9  11
ENDBRANCH   2   5
BRANCH   1  18
HETATM   18  C   UNL     1      -5.814   5.629 -31.493  1.00  0.00     0.217 C 
BRANCH  18  19
HETATM   19  C   UNL     1      -4.516   6.272 -31.953  1.00  0.00    -0.085 C 
BRANCH  19  20
HETATM   20  C   UNL     1      -3.402   6.822 -32.348  1.00  0.00    -0.078 C 
BRANCH  20  21
HETATM   21  C   UNL     1      -2.139   7.432 -32.786  1.00  0.00     0.269 C 
BRANCH  21  22
HETATM   22  O   UNL     1      -1.435   7.915 -31.644  1.00  0.00    -0.340 OA
BRANCH  22  23
HETATM   23  C   UNL     1      -0.697   7.006 -30.936  1.00  0.00     0.071 A 
HETATM   24  C   UNL     1      -0.782   7.145 -29.548  1.00  0.00     0.055 A 
HETATM   25  C   UNL     1      -0.077   6.279 -28.712  1.00  0.00     0.013 A 
HETATM   26  C   UNL     1       0.715   5.268 -29.249  1.00  0.00     0.019 A 
HETATM   27 BR   UNL     1      -0.197   6.479 -26.836  1.00  0.00    -0.051 Br
HETATM   28  C   UNL     1       0.800   5.125 -30.633  1.00  0.00     0.004 A 
HETATM   29  C   UNL     1       0.096   5.991 -31.476  1.00  0.00     0.037 A 
ENDBRANCH  22  23
ENDBRANCH  21  22
ENDBRANCH  20  21
ENDBRANCH  19  20
ENDBRANCH  18  19
ENDBRANCH   1  18
TORSDOF 8
ENDMDL
MODEL 7
REMARK VINA RESULT:      -7.8      4.359     10.213
REMARK  8 active torsions:
REMARK  status: ('A' for Active; 'I' for Inactive)
REMARK    1  A    between atoms: C_6  and  O_7 
REMARK    2  A    between atoms: O_7  and  C_8 
REMARK    3  A    between atoms: C_8  and  C_9 
REMARK    4  A    between atoms: C_9  and  C_10 
REMARK    5  A    between atoms: C_10  and  C_11 
REMARK    6  A    between atoms: C_11  and  N_12 
REMARK       I    between atoms: N_12  and  C_13 
REMARK    7  A    between atoms: C_13  and  C_14 
REMARK    8  A    between atoms: C_18  and  C_19 
ROOT
HETATM    1  N   UNL     1      -5.289   4.682 -33.328  1.00  0.00    -0.345 N 
HETATM    2  C   UNL     1      -4.246   5.210 -34.048  1.00  0.00     0.270 C 
HETATM    3  O   UNL     1      -4.283   5.356 -35.266  1.00  0.00    -0.266 OA
HETATM    4  H   UNL     1      -5.198   4.541 -32.334  1.00  0.00     0.163 HD
ENDROOT
BRANCH   2   5
HETATM    5  C   UNL     1      -3.100   5.606 -33.275  1.00  0.00     0.120 A 
HETATM    6  N   UNL     1      -2.084   6.329 -33.833  1.00  0.00    -0.272 N 
HETATM    7  H   UNL     1      -2.016   6.637 -34.799  1.00  0.00     0.189 HD
HETATM    8  N   UNL     1      -1.102   6.650 -32.978  1.00  0.00    -0.174 NA
HETATM    9  C   UNL     1      -1.498   6.142 -31.800  1.00  0.00     0.089 A 
HETATM   10  C   UNL     1      -2.736   5.454 -31.952  1.00  0.00     0.071 A 
BRANCH   9  11
HETATM   11  C   UNL     1      -0.707   6.334 -30.580  1.00  0.00    -0.005 A 
HETATM   12  C   UNL     1       0.017   5.274 -30.010  1.00  0.00     0.017 A 
HETATM   13  C   UNL     1       0.754   5.465 -28.837  1.00  0.00     0.043 A 
HETATM   14  C   UNL     1       0.770   6.715 -28.231  1.00  0.00     0.116 A 
HETATM   15  F   UNL     1       1.473   6.893 -27.106  1.00  0.00    -0.206 F 
HETATM   16  C   UNL     1       0.062   7.779 -28.773  1.00  0.00     0.043 A 
HETATM   17  C   UNL     1      -0.676   7.588 -29.944  1.00  0.00     0.017 A 
ENDBRANCH   9  11
ENDBRANCH   2   5
BRANCH   1  18
HETATM   18  C   UNL     1      -6.552   4.373 -33.941  1.00  0.00     0.217 C 
BRANCH  18  19
HETATM   19  C   UNL     1      -6.768   2.869 -33.979  1.00  0.00    -0.085 C 
BRANCH  19  20
HETATM   20  C   UNL     1      -6.953   1.579 -34.010  1.00  0.00    -0.078 C 
BRANCH  20  21
HETATM   21  C   UNL     1      -7.171   0.126 -34.034  1.00  0.00     0.269 C 
BRANCH  21  22
HETATM   22  O   UNL     1      -5.919  -0.527 -34.234  1.00  0.00    -0.340 OA
BRANCH  22  23
HETATM   23  C   UNL     1      -5.947  -1.881 -34.432  1.00  0.00     0.071 A 
HETATM   24  C   UNL     1      -4.806  -2.555 -33.986  1.00  0.00     0.055 A 
HETATM   25  C   UNL     1      -4.710  -3.939 -34.128  1.00  0.00     0.013 A 
HETATM   26  C   UNL     1      -5.746  -4.663 -34.712  1.00  0.00     0.019 A 
HETATM   27 BR   UNL     1      -3.161  -4.840 -33.524  1.00  0.00    -0.051 Br
HETATM   28  C   UNL     1      -6.886  -3.994 -35.156  1.00  0.00     0.004 A 
HETATM   29  C   UNL     1      -6.988  -2.606 -35.016  1.00  0.00     0.037 A 
ENDBRANCH  22  23
ENDBRANCH  21  22
ENDBRANCH  20  21
ENDBRANCH  19  20
ENDBRANCH  18  19
ENDBRANCH   1  18
TORSDOF 8
ENDMDL
MODEL 8
REMARK VINA RESULT:      -7.6      3.574      4.510
REMARK  8 active torsions:
REMARK  status: ('A' for Active; 'I' for Inactive)
REMARK    1  A    between atoms: C_6  and  O_7 
REMARK    2  A    between atoms: O_7  and  C_8 
REMARK    3  A    between atoms: C_8  and  C_9 
REMARK    4  A    between atoms: C_9  and  C_10 
REMARK    5  A    between atoms: C_10  and  C_11 
REMARK    6  A    between atoms: C_11  and  N_12 
REMARK       I    between atoms: N_12  and  C_13 
REMARK    7  A    between atoms: C_13  and  C_14 
REMARK    8  A    between atoms: C_18  and  C_19 
ROOT
HETATM    1  N   UNL     1      -6.814   4.188 -28.880  1.00  0.00    -0.345 N 
HETATM    2  C   UNL     1      -7.632   3.472 -29.718  1.00  0.00     0.270 C 
HETATM    3  O   UNL     1      -8.784   3.808 -29.973  1.00  0.00    -0.266 OA
HETATM    4  H   UNL     1      -5.889   3.852 -28.665  1.00  0.00     0.163 HD
ENDROOT
BRANCH   2   5
HETATM    5  C   UNL     1      -7.041   2.299 -30.303  1.00  0.00     0.120 A 
HETATM    6  N   UNL     1      -6.338   1.406 -29.545  1.00  0.00    -0.272 N 
HETATM    7  H   UNL     1      -6.150   1.470 -28.549  1.00  0.00     0.189 HD
HETATM    8  N   UNL     1      -5.878   0.347 -30.227  1.00  0.00    -0.174 NA
HETATM    9  C   UNL     1      -6.317   0.534 -31.481  1.00  0.00     0.089 A 
HETATM   10  C   UNL     1      -7.029   1.764 -31.575  1.00  0.00     0.071 A 
BRANCH   9  11
HETATM   11  C   UNL     1      -6.062  -0.454 -32.536  1.00  0.00    -0.005 A 
HETATM   12  C   UNL     1      -7.066  -0.815 -33.450  1.00  0.00     0.017 A 
HETATM   13  C   UNL     1      -6.816  -1.771 -34.440  1.00  0.00     0.043 A 
HETATM   14  C   UNL     1      -5.564  -2.368 -34.519  1.00  0.00     0.116 A 
HETATM   15  F   UNL     1      -5.330  -3.284 -35.466  1.00  0.00    -0.206 F 
HETATM   16  C   UNL     1      -4.556  -2.030 -33.627  1.00  0.00     0.043 A 
HETATM   17  C   UNL     1      -4.805  -1.076 -32.636  1.00  0.00     0.017 A 
ENDBRANCH   9  11
ENDBRANCH   2   5
BRANCH   1  18
HETATM   18  C   UNL     1      -7.215   5.457 -28.334  1.00  0.00     0.217 C 
BRANCH  18  19
HETATM   19  C   UNL     1      -5.998   6.247 -27.883  1.00  0.00    -0.085 C 
BRANCH  19  20
HETATM   20  C   UNL     1      -4.954   6.926 -27.496  1.00  0.00    -0.078 C 
BRANCH  20  21
HETATM   21  C   UNL     1      -3.770   7.678 -27.059  1.00  0.00     0.269 C 
BRANCH  21  22
HETATM   22  O   UNL     1      -2.678   6.775 -26.901  1.00  0.00    -0.340 OA
BRANCH  22  23
HETATM   23  C   UNL     1      -1.456   7.187 -27.356  1.00  0.00     0.071 A 
HETATM   24  C   UNL     1      -1.185   6.842 -28.684  1.00  0.00     0.055 A 
HETATM   25  C   UNL     1       0.028   7.205 -29.269  1.00  0.00     0.013 A 
HETATM   26  C   UNL     1       0.978   7.916 -28.541  1.00  0.00     0.019 A 
HETATM   27 BR   UNL     1       0.384   6.730 -31.064  1.00  0.00    -0.051 Br
HETATM   28  C   UNL     1       0.711   8.264 -27.218  1.00  0.00     0.004 A 
HETATM   29  C   UNL     1      -0.504   7.902 -26.626  1.00  0.00     0.037 A 
ENDBRANCH  22  23
ENDBRANCH  21  22
ENDBRANCH  20  21
ENDBRANCH  19  20
ENDBRANCH  18  19
ENDBRANCH   1  18
TORSDOF 8
ENDMDL
MODEL 9
REMARK VINA RESULT:      -7.6      3.056      3.699
REMARK  8 active torsions:
REMARK  status: ('A' for Active; 'I' for Inactive)
REMARK    1  A    between atoms: C_6  and  O_7 
REMARK    2  A    between atoms: O_7  and  C_8 
REMARK    3  A    between atoms: C_8  and  C_9 
REMARK    4  A    between atoms: C_9  and  C_10 
REMARK    5  A    between atoms: C_10  and  C_11 
REMARK    6  A    between atoms: C_11  and  N_12 
REMARK       I    between atoms: N_12  and  C_13 
REMARK    7  A    between atoms: C_13  and  C_14 
REMARK    8  A    between atoms: C_18  and  C_19 
ROOT
HETATM    1  N   UNL     1      -6.603   4.092 -28.969  1.00  0.00    -0.345 N 
HETATM    2  C   UNL     1      -7.489   3.373 -29.733  1.00  0.00     0.270 C 
HETATM    3  O   UNL     1      -8.645   3.732 -29.928  1.00  0.00    -0.266 OA
HETATM    4  H   UNL     1      -5.675   3.737 -28.801  1.00  0.00     0.163 HD
ENDROOT
BRANCH   2   5
HETATM    5  C   UNL     1      -6.964   2.168 -30.316  1.00  0.00     0.120 A 
HETATM    6  N   UNL     1      -6.414   1.186 -29.541  1.00  0.00    -0.272 N 
HETATM    7  H   UNL     1      -6.303   1.200 -28.531  1.00  0.00     0.189 HD
HETATM    8  N   UNL     1      -6.000   0.110 -30.225  1.00  0.00    -0.174 NA
HETATM    9  C   UNL     1      -6.314   0.379 -31.503  1.00  0.00     0.089 A 
HETATM   10  C   UNL     1      -6.897   1.675 -31.604  1.00  0.00     0.071 A 
BRANCH   9  11
HETATM   11  C   UNL     1      -6.068  -0.594 -32.572  1.00  0.00    -0.005 A 
HETATM   12  C   UNL     1      -4.796  -1.160 -32.759  1.00  0.00     0.017 A 
HETATM   13  C   UNL     1      -4.569  -2.074 -33.793  1.00  0.00     0.043 A 
HETATM   14  C   UNL     1      -5.611  -2.425 -34.641  1.00  0.00     0.116 A 
HETATM   15  F   UNL     1      -5.390  -3.298 -35.632  1.00  0.00    -0.206 F 
HETATM   16  C   UNL     1      -6.878  -1.880 -34.479  1.00  0.00     0.043 A 
HETATM   17  C   UNL     1      -7.104  -0.965 -33.447  1.00  0.00     0.017 A 
ENDBRANCH   9  11
ENDBRANCH   2   5
BRANCH   1  18
HETATM   18  C   UNL     1      -6.938   5.386 -28.440  1.00  0.00     0.217 C 
BRANCH  18  19
HETATM   19  C   UNL     1      -5.893   6.411 -28.850  1.00  0.00    -0.085 C 
BRANCH  19  20
HETATM   20  C   UNL     1      -4.998   7.291 -29.202  1.00  0.00    -0.078 C 
BRANCH  20  21
HETATM   21  C   UNL     1      -3.989   8.288 -29.585  1.00  0.00     0.269 C 
BRANCH  21  22
HETATM   22  O   UNL     1      -3.403   7.901 -30.827  1.00  0.00    -0.340 OA
BRANCH  22  23
HETATM   23  C   UNL     1      -2.120   7.427 -30.790  1.00  0.00     0.071 A 
HETATM   24  C   UNL     1      -1.360   7.892 -29.714  1.00  0.00     0.055 A 
HETATM   25  C   UNL     1      -0.036   7.481 -29.561  1.00  0.00     0.013 A 
HETATM   26  C   UNL     1       0.541   6.604 -30.475  1.00  0.00     0.019 A 
HETATM   27 BR   UNL     1       0.983   8.120 -28.102  1.00  0.00    -0.051 Br
HETATM   28  C   UNL     1      -0.215   6.136 -31.549  1.00  0.00     0.004 A 
HETATM   29  C   UNL     1      -1.543   6.545 -31.707  1.00  0.00     0.037 A 
ENDBRANCH  22  23
ENDBRANCH  21  22
ENDBRANCH  20  21
ENDBRANCH  19  20
ENDBRANCH  18  19
ENDBRANCH   1  18
TORSDOF 8
ENDMDL
MODEL 10
REMARK VINA RESULT:      -7.5      2.409      3.273
REMARK  8 active torsions:
REMARK  status: ('A' for Active; 'I' for Inactive)
REMARK    1  A    between atoms: C_6  and  O_7 
REMARK    2  A    between atoms: O_7  and  C_8 
REMARK    3  A    between atoms: C_8  and  C_9 
REMARK    4  A    between atoms: C_9  and  C_10 
REMARK    5  A    between atoms: C_10  and  C_11 
REMARK    6  A    between atoms: C_11  and  N_12 
REMARK       I    between atoms: N_12  and  C_13 
REMARK    7  A    between atoms: C_13  and  C_14 
REMARK    8  A    between atoms: C_18  and  C_19 
ROOT
HETATM    1  N   UNL     1      -8.174   3.621 -33.860  1.00  0.00    -0.345 N 
HETATM    2  C   UNL     1      -8.648   2.492 -33.241  1.00  0.00     0.270 C 
HETATM    3  O   UNL     1      -9.463   2.525 -32.325  1.00  0.00    -0.266 OA
HETATM    4  H   UNL     1      -7.473   3.548 -34.581  1.00  0.00     0.163 HD
ENDROOT
BRANCH   2   5
HETATM    5  C   UNL     1      -8.140   1.247 -33.753  1.00  0.00     0.120 A 
HETATM    6  N   UNL     1      -8.475   0.804 -35.001  1.00  0.00    -0.272 N 
HETATM    7  H   UNL     1      -9.095   1.262 -35.662  1.00  0.00     0.189 HD
HETATM    8  N   UNL     1      -7.895  -0.354 -35.348  1.00  0.00    -0.174 NA
HETATM    9  C   UNL     1      -7.124  -0.676 -34.298  1.00  0.00     0.089 A 
HETATM   10  C   UNL     1      -7.272   0.292 -33.264  1.00  0.00     0.071 A 
BRANCH   9  11
HETATM   11  C   UNL     1      -6.271  -1.870 -34.313  1.00  0.00    -0.005 A 
HETATM   12  C   UNL     1      -6.739  -3.090 -34.829  1.00  0.00     0.017 A 
HETATM   13  C   UNL     1      -5.922  -4.225 -34.822  1.00  0.00     0.043 A 
HETATM   14  C   UNL     1      -4.638  -4.145 -34.300  1.00  0.00     0.116 A 
HETATM   15  F   UNL     1      -3.860  -5.234 -34.291  1.00  0.00    -0.206 F 
HETATM   16  C   UNL     1      -4.152  -2.952 -33.782  1.00  0.00     0.043 A 
HETATM   17  C   UNL     1      -4.968  -1.817 -33.787  1.00  0.00     0.017 A 
ENDBRANCH   9  11
ENDBRANCH   2   5
BRANCH   1  18
HETATM   18  C   UNL     1      -8.696   4.926 -33.556  1.00  0.00     0.217 C 
BRANCH  18  19
HETATM   19  C   UNL     1      -7.624   5.785 -32.905  1.00  0.00    -0.085 C 
BRANCH  19  20
HETATM   20  C   UNL     1      -6.706   6.523 -32.347  1.00  0.00    -0.078 C 
BRANCH  20  21
HETATM   21  C   UNL     1      -5.662   7.351 -31.727  1.00  0.00     0.269 C 
BRANCH  21  22
HETATM   22  O   UNL     1      -4.868   6.532 -30.871  1.00  0.00    -0.340 OA
BRANCH  22  23
HETATM   23  C   UNL     1      -4.181   5.502 -31.453  1.00  0.00     0.071 A 
HETATM   24  C   UNL     1      -3.341   5.885 -32.502  1.00  0.00     0.055 A 
HETATM   25  C   UNL     1      -2.584   4.929 -33.179  1.00  0.00     0.013 A 
HETATM   26  C   UNL     1      -2.655   3.586 -32.818  1.00  0.00     0.019 A 
HETATM   27 BR   UNL     1      -1.453   5.459 -34.599  1.00  0.00    -0.051 Br
HETATM   28  C   UNL     1      -3.491   3.200 -31.771  1.00  0.00     0.004 A 
HETATM   29  C   UNL     1      -4.253   4.155 -31.089  1.00  0.00     0.037 A 
ENDBRANCH  22  23
ENDBRANCH  21  22
ENDBRANCH  20  21
ENDBRANCH  19  20
ENDBRANCH  18  19
ENDBRANCH   1  18
TORSDOF 8
ENDMDL
