MODEL 1
REMARK VINA RESULT:      -9.4      0.000      0.000
REMARK  6 active torsions:
REMARK  status: ('A' for Active; 'I' for Inactive)
REMARK    1  A    between atoms: C_2  and  C_3 
REMARK    2  A    between atoms: C_3  and  C_4 
REMARK    3  A    between atoms: C_3  and  C_10 
REMARK    4  A    between atoms: C_10  and  C_11 
REMARK       I    between atoms: C_11  and  N_12 
REMARK    5  A    between atoms: N_12  and  C_13 
REMARK    6  A    between atoms: C_20  and  C_21 
REMARK       I    between atoms: C_21  and  N_22 
ROOT
HETATM    1  C   UNL     1     -10.116   2.016 -34.132  1.00  0.00     0.035 A 
HETATM    2  C   UNL     1     -11.369   1.388 -34.180  1.00  0.00     0.046 A 
HETATM    3  C   UNL     1     -12.492   2.029 -33.610  1.00  0.00     0.030 A 
HETATM    4  C   UNL     1     -12.324   3.269 -33.008  1.00  0.00     0.063 A 
HETATM    5  N   UNL     1     -13.561   3.622 -32.550  1.00  0.00    -0.277 N 
HETATM    6  H   UNL     1     -13.813   4.469 -32.051  1.00  0.00     0.189 HD
HETATM    7  N   UNL     1     -14.528   2.727 -32.810  1.00  0.00    -0.168 NA
HETATM    8  C   UNL     1     -13.883   1.736 -33.468  1.00  0.00     0.156 A 
HETATM    9  C   UNL     1     -11.093   3.925 -32.945  1.00  0.00     0.034 A 
HETATM   10  C   UNL     1      -9.997   3.273 -33.524  1.00  0.00     0.032 A 
ENDROOT
BRANCH   1  11
HETATM   11  N   UNL     1      -8.937   1.459 -34.670  1.00  0.00    -0.327 N 
HETATM   12  C   UNL     1      -8.331   0.258 -34.327  1.00  0.00     0.222 C 
HETATM   13  O   UNL     1      -8.714  -0.527 -33.470  1.00  0.00    -0.273 OA
HETATM   14  H   UNL     1      -8.448   2.030 -35.347  1.00  0.00     0.169 HD
BRANCH  12  15
HETATM   15  C   UNL     1      -7.073   0.022 -35.154  1.00  0.00     0.113 C 
BRANCH  15  16
HETATM   16  C   UNL     1      -5.857  -0.442 -34.319  1.00  0.00     0.030 C 
BRANCH  16  17
HETATM   17  C   UNL     1      -5.862   0.102 -32.855  1.00  0.00    -0.014 C 
HETATM   18  C   UNL     1      -5.095   1.425 -32.740  1.00  0.00     0.010 C 
HETATM   19  C   UNL     1      -5.352  -0.876 -31.793  1.00  0.00     0.010 C 
ENDBRANCH  16  17
BRANCH  16  20
HETATM   20  C   UNL     1      -5.686  -1.959 -34.410  1.00  0.00    -0.053 A 
HETATM   21  C   UNL     1      -6.761  -2.821 -34.674  1.00  0.00     0.007 A 
HETATM   22  C   UNL     1      -6.567  -4.202 -34.759  1.00  0.00     0.001 A 
HETATM   23  C   UNL     1      -5.294  -4.740 -34.584  1.00  0.00     0.000 A 
HETATM   24  C   UNL     1      -4.217  -3.899 -34.320  1.00  0.00     0.001 A 
HETATM   25  C   UNL     1      -4.410  -2.519 -34.234  1.00  0.00     0.007 A 
ENDBRANCH  16  20
ENDBRANCH  15  16
ENDBRANCH  12  15
ENDBRANCH   1  11
BRANCH   8  26
HETATM   26  C   UNL     1     -14.605   0.548 -33.946  1.00  0.00     0.270 C 
HETATM   27  N   UNL     1     -14.153  -0.629 -33.414  1.00  0.00    -0.365 N 
HETATM   28  H   UNL     1     -13.390  -0.600 -32.750  1.00  0.00     0.159 HD
HETATM   29  H   UNL     1     -14.595  -1.496 -33.676  1.00  0.00     0.159 HD
HETATM   30  O   UNL     1     -15.536   0.567 -34.744  1.00  0.00    -0.266 OA
ENDBRANCH   8  26
TORSDOF 6
ENDMDL
MODEL 2
REMARK VINA RESULT:      -9.4      1.652      2.049
REMARK  6 active torsions:
REMARK  status: ('A' for Active; 'I' for Inactive)
REMARK    1  A    between atoms: C_2  and  C_3 
REMARK    2  A    between atoms: C_3  and  C_4 
REMARK    3  A    between atoms: C_3  and  C_10 
REMARK    4  A    between atoms: C_10  and  C_11 
REMARK       I    between atoms: C_11  and  N_12 
REMARK    5  A    between atoms: N_12  and  C_13 
REMARK    6  A    between atoms: C_20  and  C_21 
REMARK       I    between atoms: C_21  and  N_22 
ROOT
HETATM    1  C   UNL     1      -9.119   1.224 -33.458  1.00  0.00     0.035 A 
HETATM    2  C   UNL     1     -10.414   0.688 -33.499  1.00  0.00     0.046 A 
HETATM    3  C   UNL     1     -11.475   1.469 -34.010  1.00  0.00     0.030 A 
HETATM    4  C   UNL     1     -11.208   2.757 -34.455  1.00  0.00     0.063 A 
HETATM    5  N   UNL     1     -12.409   3.255 -34.872  1.00  0.00    -0.277 N 
HETATM    6  H   UNL     1     -12.593   4.176 -35.256  1.00  0.00     0.189 HD
HETATM    7  N   UNL     1     -13.439   2.401 -34.751  1.00  0.00    -0.168 NA
HETATM    8  C   UNL     1     -12.877   1.290 -34.221  1.00  0.00     0.156 A 
HETATM    9  C   UNL     1      -9.931   3.321 -34.433  1.00  0.00     0.034 A 
HETATM   10  C   UNL     1      -8.894   2.525 -33.930  1.00  0.00     0.032 A 
ENDROOT
BRANCH   1  11
HETATM   11  N   UNL     1      -7.994   0.527 -32.967  1.00  0.00    -0.327 N 
HETATM   12  C   UNL     1      -7.348   0.708 -31.752  1.00  0.00     0.222 C 
HETATM   13  O   UNL     1      -7.636   1.531 -30.893  1.00  0.00    -0.273 OA
HETATM   14  H   UNL     1      -7.581  -0.145 -33.600  1.00  0.00     0.169 HD
BRANCH  12  15
HETATM   15  C   UNL     1      -6.177  -0.256 -31.605  1.00  0.00     0.113 C 
BRANCH  15  16
HETATM   16  C   UNL     1      -5.234  -0.283 -32.830  1.00  0.00     0.030 C 
BRANCH  16  17
HETATM   17  C   UNL     1      -3.788   0.216 -32.514  1.00  0.00    -0.014 C 
HETATM   18  C   UNL     1      -3.317  -0.252 -31.130  1.00  0.00     0.010 C 
HETATM   19  C   UNL     1      -3.576   1.728 -32.638  1.00  0.00     0.010 C 
ENDBRANCH  16  17
BRANCH  16  20
HETATM   20  C   UNL     1      -5.274  -1.649 -33.515  1.00  0.00    -0.053 A 
HETATM   21  C   UNL     1      -6.399  -2.099 -34.225  1.00  0.00     0.007 A 
HETATM   22  C   UNL     1      -6.398  -3.349 -34.847  1.00  0.00     0.001 A 
HETATM   23  C   UNL     1      -5.273  -4.167 -34.771  1.00  0.00     0.000 A 
HETATM   24  C   UNL     1      -4.150  -3.737 -34.070  1.00  0.00     0.001 A 
HETATM   25  C   UNL     1      -4.150  -2.488 -33.448  1.00  0.00     0.007 A 
ENDBRANCH  16  20
ENDBRANCH  15  16
ENDBRANCH  12  15
ENDBRANCH   1  11
BRANCH   8  26
HETATM   26  C   UNL     1     -13.683   0.094 -33.937  1.00  0.00     0.270 C 
HETATM   27  N   UNL     1     -14.974   0.174 -34.383  1.00  0.00    -0.365 N 
HETATM   28  H   UNL     1     -15.270   1.014 -34.864  1.00  0.00     0.159 HD
HETATM   29  H   UNL     1     -15.599  -0.604 -34.241  1.00  0.00     0.159 HD
HETATM   30  O   UNL     1     -13.272  -0.907 -33.360  1.00  0.00    -0.266 OA
ENDBRANCH   8  26
TORSDOF 6
ENDMDL
MODEL 3
REMARK VINA RESULT:      -9.3      5.539      8.857
REMARK  6 active torsions:
REMARK  status: ('A' for Active; 'I' for Inactive)
REMARK    1  A    between atoms: C_2  and  C_3 
REMARK    2  A    between atoms: C_3  and  C_4 
REMARK    3  A    between atoms: C_3  and  C_10 
REMARK    4  A    between atoms: C_10  and  C_11 
REMARK       I    between atoms: C_11  and  N_12 
REMARK    5  A    between atoms: N_12  and  C_13 
REMARK    6  A    between atoms: C_20  and  C_21 
REMARK       I    between atoms: C_21  and  N_22 
ROOT
HETATM    1  C   UNL     1      -3.381   3.886 -32.960  1.00  0.00     0.035 A 
HETATM    2  C   UNL     1      -2.331   4.060 -32.047  1.00  0.00     0.046 A 
HETATM    3  C   UNL     1      -1.567   5.248 -32.082  1.00  0.00     0.030 A 
HETATM    4  C   UNL     1      -1.875   6.217 -33.028  1.00  0.00     0.063 A 
HETATM    5  N   UNL     1      -0.974   7.224 -32.824  1.00  0.00    -0.277 N 
HETATM    6  H   UNL     1      -0.899   8.094 -33.339  1.00  0.00     0.189 HD
HETATM    7  N   UNL     1      -0.111   7.004 -31.819  1.00  0.00    -0.168 NA
HETATM    8  C   UNL     1      -0.466   5.787 -31.347  1.00  0.00     0.156 A 
HETATM    9  C   UNL     1      -2.915   6.081 -33.948  1.00  0.00     0.034 A 
HETATM   10  C   UNL     1      -3.663   4.898 -33.889  1.00  0.00     0.032 A 
ENDROOT
BRANCH   1  11
HETATM   11  N   UNL     1      -4.201   2.739 -33.007  1.00  0.00    -0.327 N 
HETATM   12  C   UNL     1      -5.504   2.607 -32.547  1.00  0.00     0.222 C 
HETATM   13  O   UNL     1      -6.169   3.475 -31.996  1.00  0.00    -0.273 OA
HETATM   14  H   UNL     1      -3.766   1.900 -33.370  1.00  0.00     0.169 HD
BRANCH  12  15
HETATM   15  C   UNL     1      -6.034   1.201 -32.796  1.00  0.00     0.113 C 
BRANCH  15  16
HETATM   16  C   UNL     1      -4.946   0.104 -32.730  1.00  0.00     0.030 C 
BRANCH  16  17
HETATM   17  C   UNL     1      -4.462  -0.207 -31.278  1.00  0.00    -0.014 C 
HETATM   18  C   UNL     1      -5.401   0.400 -30.226  1.00  0.00     0.010 C 
HETATM   19  C   UNL     1      -3.020   0.202 -30.968  1.00  0.00     0.010 C 
ENDBRANCH  16  17
BRANCH  16  20
HETATM   20  C   UNL     1      -5.381  -1.137 -33.510  1.00  0.00    -0.053 A 
HETATM   21  C   UNL     1      -6.725  -1.395 -33.822  1.00  0.00     0.007 A 
HETATM   22  C   UNL     1      -7.085  -2.534 -34.546  1.00  0.00     0.001 A 
HETATM   23  C   UNL     1      -6.108  -3.431 -34.969  1.00  0.00     0.000 A 
HETATM   24  C   UNL     1      -4.770  -3.191 -34.667  1.00  0.00     0.001 A 
HETATM   25  C   UNL     1      -4.409  -2.053 -33.944  1.00  0.00     0.007 A 
ENDBRANCH  16  20
ENDBRANCH  15  16
ENDBRANCH  12  15
ENDBRANCH   1  11
BRANCH   8  26
HETATM   26  C   UNL     1       0.243   5.176 -30.214  1.00  0.00     0.270 C 
HETATM   27  N   UNL     1      -0.253   5.531 -28.989  1.00  0.00    -0.365 N 
HETATM   28  H   UNL     1      -1.047   6.158 -28.951  1.00  0.00     0.159 HD
HETATM   29  H   UNL     1       0.164   5.153 -28.154  1.00  0.00     0.159 HD
HETATM   30  O   UNL     1       1.195   4.409 -30.314  1.00  0.00    -0.266 OA
ENDBRANCH   8  26
TORSDOF 6
ENDMDL
MODEL 4
REMARK VINA RESULT:      -9.3      4.787      8.309
REMARK  6 active torsions:
REMARK  status: ('A' for Active; 'I' for Inactive)
REMARK    1  A    between atoms: C_2  and  C_3 
REMARK    2  A    between atoms: C_3  and  C_4 
REMARK    3  A    between atoms: C_3  and  C_10 
REMARK    4  A    between atoms: C_10  and  C_11 
REMARK       I    between atoms: C_11  and  N_12 
REMARK    5  A    between atoms: N_12  and  C_13 
REMARK    6  A    between atoms: C_20  and  C_21 
REMARK       I    between atoms: C_21  and  N_22 
ROOT
HETATM    1  C   UNL     1      -4.207   3.142 -32.746  1.00  0.00     0.035 A 
HETATM    2  C   UNL     1      -3.037   3.577 -32.106  1.00  0.00     0.046 A 
HETATM    3  C   UNL     1      -2.481   4.830 -32.446  1.00  0.00     0.030 A 
HETATM    4  C   UNL     1      -3.108   5.602 -33.416  1.00  0.00     0.063 A 
HETATM    5  N   UNL     1      -2.346   6.730 -33.532  1.00  0.00    -0.277 N 
HETATM    6  H   UNL     1      -2.503   7.516 -34.154  1.00  0.00     0.189 HD
HETATM    7  N   UNL     1      -1.281   6.769 -32.715  1.00  0.00    -0.168 NA
HETATM    8  C   UNL     1      -1.352   5.602 -32.034  1.00  0.00     0.156 A 
HETATM    9  C   UNL     1      -4.275   5.204 -34.070  1.00  0.00     0.034 A 
HETATM   10  C   UNL     1      -4.812   3.962 -33.710  1.00  0.00     0.032 A 
ENDROOT
BRANCH   1  11
HETATM   11  N   UNL     1      -4.839   1.910 -32.478  1.00  0.00    -0.327 N 
HETATM   12  C   UNL     1      -6.033   1.698 -31.802  1.00  0.00     0.222 C 
HETATM   13  O   UNL     1      -6.743   2.558 -31.298  1.00  0.00    -0.273 OA
HETATM   14  H   UNL     1      -4.334   1.082 -32.766  1.00  0.00     0.169 HD
BRANCH  12  15
HETATM   15  C   UNL     1      -6.369   0.213 -31.734  1.00  0.00     0.113 C 
BRANCH  15  16
HETATM   16  C   UNL     1      -7.163  -0.302 -32.957  1.00  0.00     0.030 C 
BRANCH  16  17
HETATM   17  C   UNL     1      -7.567   0.826 -33.958  1.00  0.00    -0.014 C 
HETATM   18  C   UNL     1      -9.089   1.015 -34.014  1.00  0.00     0.010 C 
HETATM   19  C   UNL     1      -7.022   0.665 -35.380  1.00  0.00     0.010 C 
ENDBRANCH  16  17
BRANCH  16  20
HETATM   20  C   UNL     1      -6.439  -1.477 -33.616  1.00  0.00    -0.053 A 
HETATM   21  C   UNL     1      -5.041  -1.602 -33.598  1.00  0.00     0.007 A 
HETATM   22  C   UNL     1      -4.413  -2.693 -34.203  1.00  0.00     0.001 A 
HETATM   23  C   UNL     1      -5.173  -3.676 -34.832  1.00  0.00     0.000 A 
HETATM   24  C   UNL     1      -6.560  -3.567 -34.860  1.00  0.00     0.001 A 
HETATM   25  C   UNL     1      -7.189  -2.476 -34.257  1.00  0.00     0.007 A 
ENDBRANCH  16  20
ENDBRANCH  15  16
ENDBRANCH  12  15
ENDBRANCH   1  11
BRANCH   8  26
HETATM   26  C   UNL     1      -0.353   5.258 -31.012  1.00  0.00     0.270 C 
HETATM   27  N   UNL     1      -0.723   5.588 -29.737  1.00  0.00    -0.365 N 
HETATM   28  H   UNL     1      -1.627   6.022 -29.592  1.00  0.00     0.159 HD
HETATM   29  H   UNL     1      -0.105   5.381 -28.969  1.00  0.00     0.159 HD
HETATM   30  O   UNL     1       0.725   4.719 -31.240  1.00  0.00    -0.266 OA
ENDBRANCH   8  26
TORSDOF 6
ENDMDL
MODEL 5
REMARK VINA RESULT:      -9.0      4.903      8.143
REMARK  6 active torsions:
REMARK  status: ('A' for Active; 'I' for Inactive)
REMARK    1  A    between atoms: C_2  and  C_3 
REMARK    2  A    between atoms: C_3  and  C_4 
REMARK    3  A    between atoms: C_3  and  C_10 
REMARK    4  A    between atoms: C_10  and  C_11 
REMARK       I    between atoms: C_11  and  N_12 
REMARK    5  A    between atoms: N_12  and  C_13 
REMARK    6  A    between atoms: C_20  and  C_21 
REMARK       I    between atoms: C_21  and  N_22 
ROOT
HETATM    1  C   UNL     1      -4.346   3.513 -32.409  1.00  0.00     0.035 A 
HETATM    2  C   UNL     1      -3.068   3.831 -31.927  1.00  0.00     0.046 A 
HETATM    3  C   UNL     1      -2.874   5.029 -31.203  1.00  0.00     0.030 A 
HETATM    4  C   UNL     1      -3.960   5.868 -30.990  1.00  0.00     0.063 A 
HETATM    5  N   UNL     1      -3.467   6.928 -30.284  1.00  0.00    -0.277 N 
HETATM    6  H   UNL     1      -3.979   7.741 -29.958  1.00  0.00     0.189 HD
HETATM    7  N   UNL     1      -2.155   6.851 -30.005  1.00  0.00    -0.168 NA
HETATM    8  C   UNL     1      -1.774   5.680 -30.564  1.00  0.00     0.156 A 
HETATM    9  C   UNL     1      -5.246   5.582 -31.451  1.00  0.00     0.034 A 
HETATM   10  C   UNL     1      -5.415   4.386 -32.159  1.00  0.00     0.032 A 
ENDROOT
BRANCH   1  11
HETATM   11  N   UNL     1      -4.643   2.344 -33.141  1.00  0.00    -0.327 N 
HETATM   12  C   UNL     1      -5.156   1.148 -32.659  1.00  0.00     0.222 C 
HETATM   13  O   UNL     1      -5.426   0.893 -31.493  1.00  0.00    -0.273 OA
HETATM   14  H   UNL     1      -4.401   2.365 -34.123  1.00  0.00     0.169 HD
BRANCH  12  15
HETATM   15  C   UNL     1      -5.338   0.136 -33.783  1.00  0.00     0.113 C 
BRANCH  15  16
HETATM   16  C   UNL     1      -6.422  -0.928 -33.495  1.00  0.00     0.030 C 
BRANCH  16  17
HETATM   17  C   UNL     1      -7.839  -0.532 -34.020  1.00  0.00    -0.014 C 
HETATM   18  C   UNL     1      -7.752   0.393 -35.241  1.00  0.00     0.010 C 
HETATM   19  C   UNL     1      -8.771   0.090 -32.976  1.00  0.00     0.010 C 
ENDBRANCH  16  17
BRANCH  16  20
HETATM   20  C   UNL     1      -5.961  -2.310 -33.960  1.00  0.00    -0.053 A 
HETATM   21  C   UNL     1      -4.634  -2.745 -33.818  1.00  0.00     0.007 A 
HETATM   22  C   UNL     1      -4.249  -4.018 -34.245  1.00  0.00     0.001 A 
HETATM   23  C   UNL     1      -5.185  -4.876 -34.818  1.00  0.00     0.000 A 
HETATM   24  C   UNL     1      -6.505  -4.459 -34.967  1.00  0.00     0.001 A 
HETATM   25  C   UNL     1      -6.891  -3.187 -34.542  1.00  0.00     0.007 A 
ENDBRANCH  16  20
ENDBRANCH  15  16
ENDBRANCH  12  15
ENDBRANCH   1  11
BRANCH   8  26
HETATM   26  C   UNL     1      -0.384   5.212 -30.472  1.00  0.00     0.270 C 
HETATM   27  N   UNL     1       0.118   5.205 -29.199  1.00  0.00    -0.365 N 
HETATM   28  H   UNL     1      -0.482   5.503 -28.439  1.00  0.00     0.159 HD
HETATM   29  H   UNL     1       1.062   4.890 -29.037  1.00  0.00     0.159 HD
HETATM   30  O   UNL     1       0.298   4.848 -31.424  1.00  0.00    -0.266 OA
ENDBRANCH   8  26
TORSDOF 6
ENDMDL
MODEL 6
REMARK VINA RESULT:      -8.9      5.152      9.070
REMARK  6 active torsions:
REMARK  status: ('A' for Active; 'I' for Inactive)
REMARK    1  A    between atoms: C_2  and  C_3 
REMARK    2  A    between atoms: C_3  and  C_4 
REMARK    3  A    between atoms: C_3  and  C_10 
REMARK    4  A    between atoms: C_10  and  C_11 
REMARK       I    between atoms: C_11  and  N_12 
REMARK    5  A    between atoms: N_12  and  C_13 
REMARK    6  A    between atoms: C_20  and  C_21 
REMARK       I    between atoms: C_21  and  N_22 
ROOT
HETATM    1  C   UNL     1      -3.890   3.474 -32.588  1.00  0.00     0.035 A 
HETATM    2  C   UNL     1      -2.685   3.750 -31.927  1.00  0.00     0.046 A 
HETATM    3  C   UNL     1      -2.001   4.957 -32.198  1.00  0.00     0.030 A 
HETATM    4  C   UNL     1      -2.542   5.841 -33.123  1.00  0.00     0.063 A 
HETATM    5  N   UNL     1      -1.668   6.889 -33.178  1.00  0.00    -0.277 N 
HETATM    6  H   UNL     1      -1.741   7.720 -33.755  1.00  0.00     0.189 HD
HETATM    7  N   UNL     1      -0.609   6.775 -32.361  1.00  0.00    -0.168 NA
HETATM    8  C   UNL     1      -0.801   5.586 -31.746  1.00  0.00     0.156 A 
HETATM    9  C   UNL     1      -3.741   5.601 -33.797  1.00  0.00     0.034 A 
HETATM   10  C   UNL     1      -4.403   4.402 -33.505  1.00  0.00     0.032 A 
ENDROOT
BRANCH   1  11
HETATM   11  N   UNL     1      -4.646   2.299 -32.387  1.00  0.00    -0.327 N 
HETATM   12  C   UNL     1      -5.365   1.936 -31.257  1.00  0.00     0.222 C 
HETATM   13  O   UNL     1      -5.451   2.575 -30.217  1.00  0.00    -0.273 OA
HETATM   14  H   UNL     1      -4.614   1.620 -33.136  1.00  0.00     0.169 HD
BRANCH  12  15
HETATM   15  C   UNL     1      -6.049   0.589 -31.451  1.00  0.00     0.113 C 
BRANCH  15  16
HETATM   16  C   UNL     1      -6.392   0.270 -32.925  1.00  0.00     0.030 C 
BRANCH  16  17
HETATM   17  C   UNL     1      -6.013  -1.183 -33.353  1.00  0.00    -0.014 C 
HETATM   18  C   UNL     1      -4.522  -1.469 -33.128  1.00  0.00     0.010 C 
HETATM   19  C   UNL     1      -6.392  -1.562 -34.787  1.00  0.00     0.010 C 
ENDBRANCH  16  17
BRANCH  16  20
HETATM   20  C   UNL     1      -7.842   0.642 -33.235  1.00  0.00    -0.053 A 
HETATM   21  C   UNL     1      -8.929  -0.096 -32.740  1.00  0.00     0.007 A 
HETATM   22  C   UNL     1     -10.242   0.278 -33.035  1.00  0.00     0.001 A 
HETATM   23  C   UNL     1     -10.488   1.397 -33.828  1.00  0.00     0.000 A 
HETATM   24  C   UNL     1      -9.422   2.139 -34.328  1.00  0.00     0.001 A 
HETATM   25  C   UNL     1      -8.110   1.766 -34.033  1.00  0.00     0.007 A 
ENDBRANCH  16  20
ENDBRANCH  15  16
ENDBRANCH  12  15
ENDBRANCH   1  11
BRANCH   8  26
HETATM   26  C   UNL     1       0.153   5.086 -30.745  1.00  0.00     0.270 C 
HETATM   27  N   UNL     1      -0.246   5.277 -29.450  1.00  0.00    -0.365 N 
HETATM   28  H   UNL     1      -1.138   5.724 -29.279  1.00  0.00     0.159 HD
HETATM   29  H   UNL     1       0.340   4.957 -28.696  1.00  0.00     0.159 HD
HETATM   30  O   UNL     1       1.218   4.538 -31.006  1.00  0.00    -0.266 OA
ENDBRANCH   8  26
TORSDOF 6
ENDMDL
MODEL 7
REMARK VINA RESULT:      -8.9      5.517      9.020
REMARK  6 active torsions:
REMARK  status: ('A' for Active; 'I' for Inactive)
REMARK    1  A    between atoms: C_2  and  C_3 
REMARK    2  A    between atoms: C_3  and  C_4 
REMARK    3  A    between atoms: C_3  and  C_10 
REMARK    4  A    between atoms: C_10  and  C_11 
REMARK       I    between atoms: C_11  and  N_12 
REMARK    5  A    between atoms: N_12  and  C_13 
REMARK    6  A    between atoms: C_20  and  C_21 
REMARK       I    between atoms: C_21  and  N_22 
ROOT
HETATM    1  C   UNL     1      -5.170   0.524 -33.384  1.00  0.00     0.035 A 
HETATM    2  C   UNL     1      -4.543  -0.720 -33.221  1.00  0.00     0.046 A 
HETATM    3  C   UNL     1      -5.110  -1.870 -33.816  1.00  0.00     0.030 A 
HETATM    4  C   UNL     1      -6.283  -1.738 -34.546  1.00  0.00     0.063 A 
HETATM    5  N   UNL     1      -6.585  -2.998 -34.980  1.00  0.00    -0.277 N 
HETATM    6  H   UNL     1      -7.382  -3.280 -35.540  1.00  0.00     0.189 HD
HETATM    7  N   UNL     1      -5.705  -3.941 -34.607  1.00  0.00    -0.168 NA
HETATM    8  C   UNL     1      -4.784  -3.259 -33.889  1.00  0.00     0.156 A 
HETATM    9  C   UNL     1      -6.933  -0.517 -34.733  1.00  0.00     0.034 A 
HETATM   10  C   UNL     1      -6.348   0.609 -34.140  1.00  0.00     0.032 A 
ENDROOT
BRANCH   1  11
HETATM   11  N   UNL     1      -4.685   1.727 -32.831  1.00  0.00    -0.327 N 
HETATM   12  C   UNL     1      -3.623   1.890 -31.952  1.00  0.00     0.222 C 
HETATM   13  O   UNL     1      -2.927   0.999 -31.484  1.00  0.00    -0.273 OA
HETATM   14  H   UNL     1      -5.208   2.562 -33.061  1.00  0.00     0.169 HD
BRANCH  12  15
HETATM   15  C   UNL     1      -3.421   3.359 -31.601  1.00  0.00     0.113 C 
BRANCH  15  16
HETATM   16  C   UNL     1      -2.348   4.064 -32.464  1.00  0.00     0.030 C 
BRANCH  16  17
HETATM   17  C   UNL     1      -2.896   4.597 -33.826  1.00  0.00    -0.014 C 
HETATM   18  C   UNL     1      -1.846   5.433 -34.570  1.00  0.00     0.010 C 
HETATM   19  C   UNL     1      -4.206   5.385 -33.740  1.00  0.00     0.010 C 
ENDBRANCH  16  17
BRANCH  16  20
HETATM   20  C   UNL     1      -1.605   5.120 -31.646  1.00  0.00    -0.053 A 
HETATM   21  C   UNL     1      -0.206   5.232 -31.659  1.00  0.00     0.007 A 
HETATM   22  C   UNL     1       0.440   6.216 -30.908  1.00  0.00     0.001 A 
HETATM   23  C   UNL     1      -0.303   7.104 -30.132  1.00  0.00     0.000 A 
HETATM   24  C   UNL     1      -1.691   7.006 -30.107  1.00  0.00     0.001 A 
HETATM   25  C   UNL     1      -2.338   6.023 -30.858  1.00  0.00     0.007 A 
ENDBRANCH  16  20
ENDBRANCH  15  16
ENDBRANCH  12  15
ENDBRANCH   1  11
BRANCH   8  26
HETATM   26  C   UNL     1      -3.624  -3.942 -33.299  1.00  0.00     0.270 C 
HETATM   27  N   UNL     1      -3.189  -5.023 -34.017  1.00  0.00    -0.365 N 
HETATM   28  H   UNL     1      -3.673  -5.262 -34.874  1.00  0.00     0.159 HD
HETATM   29  H   UNL     1      -2.392  -5.547 -33.694  1.00  0.00     0.159 HD
HETATM   30  O   UNL     1      -3.064  -3.603 -32.262  1.00  0.00    -0.266 OA
ENDBRANCH   8  26
TORSDOF 6
ENDMDL
MODEL 8
REMARK VINA RESULT:      -8.8      1.151      2.875
REMARK  6 active torsions:
REMARK  status: ('A' for Active; 'I' for Inactive)
REMARK    1  A    between atoms: C_2  and  C_3 
REMARK    2  A    between atoms: C_3  and  C_4 
REMARK    3  A    between atoms: C_3  and  C_10 
REMARK    4  A    between atoms: C_10  and  C_11 
REMARK       I    between atoms: C_11  and  N_12 
REMARK    5  A    between atoms: N_12  and  C_13 
REMARK    6  A    between atoms: C_20  and  C_21 
REMARK       I    between atoms: C_21  and  N_22 
ROOT
HETATM    1  C   UNL     1      -9.560   2.090 -34.311  1.00  0.00     0.035 A 
HETATM    2  C   UNL     1     -10.911   1.738 -34.186  1.00  0.00     0.046 A 
HETATM    3  C   UNL     1     -11.854   2.718 -33.798  1.00  0.00     0.030 A 
HETATM    4  C   UNL     1     -11.413   4.010 -33.545  1.00  0.00     0.063 A 
HETATM    5  N   UNL     1     -12.529   4.712 -33.188  1.00  0.00    -0.277 N 
HETATM    6  H   UNL     1     -12.582   5.691 -32.929  1.00  0.00     0.189 HD
HETATM    7  N   UNL     1     -13.665   3.995 -33.198  1.00  0.00    -0.168 NA
HETATM    8  C   UNL     1     -13.264   2.759 -33.576  1.00  0.00     0.156 A 
HETATM    9  C   UNL     1     -10.077   4.397 -33.663  1.00  0.00     0.034 A 
HETATM   10  C   UNL     1      -9.163   3.410 -34.056  1.00  0.00     0.032 A 
ENDROOT
BRANCH   1  11
HETATM   11  N   UNL     1      -8.544   1.187 -34.691  1.00  0.00    -0.327 N 
HETATM   12  C   UNL     1      -8.220  -0.024 -34.095  1.00  0.00     0.222 C 
HETATM   13  O   UNL     1      -8.756  -0.514 -33.110  1.00  0.00    -0.273 OA
HETATM   14  H   UNL     1      -7.950   1.485 -35.453  1.00  0.00     0.169 HD
BRANCH  12  15
HETATM   15  C   UNL     1      -7.060  -0.698 -34.819  1.00  0.00     0.113 C 
BRANCH  15  16
HETATM   16  C   UNL     1      -6.292  -1.720 -33.949  1.00  0.00     0.030 C 
BRANCH  16  17
HETATM   17  C   UNL     1      -5.701  -2.913 -34.766  1.00  0.00    -0.014 C 
HETATM   18  C   UNL     1      -6.762  -3.983 -35.053  1.00  0.00     0.010 C 
HETATM   19  C   UNL     1      -4.463  -3.575 -34.154  1.00  0.00     0.010 C 
ENDBRANCH  16  17
BRANCH  16  20
HETATM   20  C   UNL     1      -5.264  -1.013 -33.065  1.00  0.00    -0.053 A 
HETATM   21  C   UNL     1      -4.005  -0.620 -33.545  1.00  0.00     0.007 A 
HETATM   22  C   UNL     1      -3.094   0.033 -32.712  1.00  0.00     0.001 A 
HETATM   23  C   UNL     1      -3.428   0.304 -31.387  1.00  0.00     0.000 A 
HETATM   24  C   UNL     1      -4.671  -0.081 -30.895  1.00  0.00     0.001 A 
HETATM   25  C   UNL     1      -5.583  -0.733 -31.726  1.00  0.00     0.007 A 
ENDBRANCH  16  20
ENDBRANCH  15  16
ENDBRANCH  12  15
ENDBRANCH   1  11
BRANCH   8  26
HETATM   26  C   UNL     1     -14.229   1.660 -33.720  1.00  0.00     0.270 C 
HETATM   27  N   UNL     1     -14.903   1.356 -32.569  1.00  0.00    -0.365 N 
HETATM   28  H   UNL     1     -14.703   1.892 -31.734  1.00  0.00     0.159 HD
HETATM   29  H   UNL     1     -15.593   0.621 -32.574  1.00  0.00     0.159 HD
HETATM   30  O   UNL     1     -14.445   1.049 -34.761  1.00  0.00    -0.266 OA
ENDBRANCH   8  26
TORSDOF 6
ENDMDL
MODEL 9
REMARK VINA RESULT:      -8.7      5.109      8.442
REMARK  6 active torsions:
REMARK  status: ('A' for Active; 'I' for Inactive)
REMARK    1  A    between atoms: C_2  and  C_3 
REMARK    2  A    between atoms: C_3  and  C_4 
REMARK    3  A    between atoms: C_3  and  C_10 
REMARK    4  A    between atoms: C_10  and  C_11 
REMARK       I    between atoms: C_11  and  N_12 
REMARK    5  A    between atoms: N_12  and  C_13 
REMARK    6  A    between atoms: C_20  and  C_21 
REMARK       I    between atoms: C_21  and  N_22 
ROOT
HETATM    1  C   UNL     1      -5.469   0.020 -33.498  1.00  0.00     0.035 A 
HETATM    2  C   UNL     1      -4.751  -1.174 -33.341  1.00  0.00     0.046 A 
HETATM    3  C   UNL     1      -5.228  -2.359 -33.946  1.00  0.00     0.030 A 
HETATM    4  C   UNL     1      -6.405  -2.311 -34.681  1.00  0.00     0.063 A 
HETATM    5  N   UNL     1      -6.611  -3.587 -35.123  1.00  0.00    -0.277 N 
HETATM    6  H   UNL     1      -7.382  -3.924 -35.689  1.00  0.00     0.189 HD
HETATM    7  N   UNL     1      -5.664  -4.464 -34.753  1.00  0.00    -0.168 NA
HETATM    8  C   UNL     1      -4.800  -3.720 -34.026  1.00  0.00     0.156 A 
HETATM    9  C   UNL     1      -7.143  -1.140 -34.862  1.00  0.00     0.034 A 
HETATM   10  C   UNL     1      -6.646   0.023 -34.260  1.00  0.00     0.032 A 
ENDROOT
BRANCH   1  11
HETATM   11  N   UNL     1      -5.077   1.253 -32.935  1.00  0.00    -0.327 N 
HETATM   12  C   UNL     1      -4.943   1.567 -31.590  1.00  0.00     0.222 C 
HETATM   13  O   UNL     1      -5.164   0.820 -30.646  1.00  0.00    -0.273 OA
HETATM   14  H   UNL     1      -4.929   2.010 -33.590  1.00  0.00     0.169 HD
BRANCH  12  15
HETATM   15  C   UNL     1      -4.490   3.010 -31.406  1.00  0.00     0.113 C 
BRANCH  15  16
HETATM   16  C   UNL     1      -4.676   3.887 -32.666  1.00  0.00     0.030 C 
BRANCH  16  17
HETATM   17  C   UNL     1      -5.855   4.905 -32.547  1.00  0.00    -0.014 C 
HETATM   18  C   UNL     1      -6.821   4.794 -33.733  1.00  0.00     0.010 C 
HETATM   19  C   UNL     1      -5.440   6.368 -32.365  1.00  0.00     0.010 C 
ENDBRANCH  16  17
BRANCH  16  20
HETATM   20  C   UNL     1      -3.351   4.529 -33.079  1.00  0.00    -0.053 A 
HETATM   21  C   UNL     1      -2.291   4.709 -32.177  1.00  0.00     0.007 A 
HETATM   22  C   UNL     1      -1.090   5.290 -32.591  1.00  0.00     0.001 A 
HETATM   23  C   UNL     1      -0.931   5.698 -33.913  1.00  0.00     0.000 A 
HETATM   24  C   UNL     1      -1.973   5.528 -34.821  1.00  0.00     0.001 A 
HETATM   25  C   UNL     1      -3.173   4.947 -34.408  1.00  0.00     0.007 A 
ENDBRANCH  16  20
ENDBRANCH  15  16
ENDBRANCH  12  15
ENDBRANCH   1  11
BRANCH   8  26
HETATM   26  C   UNL     1      -3.594  -4.318 -33.435  1.00  0.00     0.270 C 
HETATM   27  N   UNL     1      -3.033  -5.308 -34.196  1.00  0.00    -0.365 N 
HETATM   28  H   UNL     1      -3.465  -5.543 -35.081  1.00  0.00     0.159 HD
HETATM   29  H   UNL     1      -2.197  -5.769 -33.875  1.00  0.00     0.159 HD
HETATM   30  O   UNL     1      -3.100  -3.987 -32.362  1.00  0.00    -0.266 OA
ENDBRANCH   8  26
TORSDOF 6
ENDMDL
MODEL 10
REMARK VINA RESULT:      -8.7      2.499      2.937
REMARK  6 active torsions:
REMARK  status: ('A' for Active; 'I' for Inactive)
REMARK    1  A    between atoms: C_2  and  C_3 
REMARK    2  A    between atoms: C_3  and  C_4 
REMARK    3  A    between atoms: C_3  and  C_10 
REMARK    4  A    between atoms: C_10  and  C_11 
REMARK       I    between atoms: C_11  and  N_12 
REMARK    5  A    between atoms: N_12  and  C_13 
REMARK    6  A    between atoms: C_20  and  C_21 
REMARK       I    between atoms: C_21  and  N_22 
ROOT
HETATM    1  C   UNL     1      -8.191   2.697 -33.573  1.00  0.00     0.035 A 
HETATM    2  C   UNL     1      -9.431   2.563 -34.214  1.00  0.00     0.046 A 
HETATM    3  C   UNL     1     -10.119   3.718 -34.650  1.00  0.00     0.030 A 
HETATM    4  C   UNL     1      -9.549   4.964 -34.425  1.00  0.00     0.063 A 
HETATM    5  N   UNL     1     -10.435   5.868 -34.938  1.00  0.00    -0.277 N 
HETATM    6  H   UNL     1     -10.347   6.878 -34.945  1.00  0.00     0.189 HD
HETATM    7  N   UNL     1     -11.531   5.322 -35.490  1.00  0.00    -0.168 NA
HETATM    8  C   UNL     1     -11.350   3.992 -35.322  1.00  0.00     0.156 A 
HETATM    9  C   UNL     1      -8.315   5.135 -33.795  1.00  0.00     0.034 A 
HETATM   10  C   UNL     1      -7.649   3.976 -33.380  1.00  0.00     0.032 A 
ENDROOT
BRANCH   1  11
HETATM   11  N   UNL     1      -7.428   1.609 -33.102  1.00  0.00    -0.327 N 
HETATM   12  C   UNL     1      -7.359   1.118 -31.805  1.00  0.00     0.222 C 
HETATM   13  O   UNL     1      -7.945   1.568 -30.829  1.00  0.00    -0.273 OA
HETATM   14  H   UNL     1      -6.819   1.170 -33.780  1.00  0.00     0.169 HD
BRANCH  12  15
HETATM   15  C   UNL     1      -6.420  -0.078 -31.719  1.00  0.00     0.113 C 
BRANCH  15  16
HETATM   16  C   UNL     1      -5.411  -0.164 -32.888  1.00  0.00     0.030 C 
BRANCH  16  17
HETATM   17  C   UNL     1      -3.952   0.217 -32.481  1.00  0.00    -0.014 C 
HETATM   18  C   UNL     1      -3.584  -0.346 -31.102  1.00  0.00     0.010 C 
HETATM   19  C   UNL     1      -3.632   1.714 -32.520  1.00  0.00     0.010 C 
ENDBRANCH  16  17
BRANCH  16  20
HETATM   20  C   UNL     1      -5.517  -1.514 -33.597  1.00  0.00    -0.053 A 
HETATM   21  C   UNL     1      -6.726  -1.989 -34.130  1.00  0.00     0.007 A 
HETATM   22  C   UNL     1      -6.784  -3.224 -34.780  1.00  0.00     0.001 A 
HETATM   23  C   UNL     1      -5.636  -4.002 -34.908  1.00  0.00     0.000 A 
HETATM   24  C   UNL     1      -4.430  -3.547 -34.384  1.00  0.00     0.001 A 
HETATM   25  C   UNL     1      -4.370  -2.313 -33.734  1.00  0.00     0.007 A 
ENDBRANCH  16  20
ENDBRANCH  15  16
ENDBRANCH  12  15
ENDBRANCH   1  11
BRANCH   8  26
HETATM   26  C   UNL     1     -12.343   3.023 -35.808  1.00  0.00     0.270 C 
HETATM   27  N   UNL     1     -12.214   2.710 -37.134  1.00  0.00    -0.365 N 
HETATM   28  H   UNL     1     -11.469   3.145 -37.664  1.00  0.00     0.159 HD
HETATM   29  H   UNL     1     -12.846   2.047 -37.553  1.00  0.00     0.159 HD
HETATM   30  O   UNL     1     -13.221   2.514 -35.119  1.00  0.00    -0.266 OA
ENDBRANCH   8  26
TORSDOF 6
ENDMDL
