MODEL 1
REMARK VINA RESULT:      -9.8      0.000      0.000
REMARK  9 active torsions:
REMARK  status: ('A' for Active; 'I' for Inactive)
REMARK    1  A    between atoms: C_9  and  O_10 
REMARK    2  A    between atoms: O_10  and  C_11 
REMARK    3  A    between atoms: C_22  and  C_23 
REMARK    4  A    between atoms: N_30  and  C_31 
REMARK    5  A    between atoms: C_31  and  C_32 
REMARK    6  A    between atoms: C_32  and  O_33 
REMARK    7  A    between atoms: O_33  and  C_34 
REMARK    8  A    between atoms: C_35  and  C_36 
REMARK    9  A    between atoms: C_36  and  C_37 
ROOT
HETATM    1  H   UNL     1      -1.855   6.802 -32.970  1.00  0.00     0.188 HD
HETATM    2  N   UNL     1      -2.528   6.043 -33.110  1.00  0.00    -0.282 NA
HETATM    3  C   UNL     1      -3.343   6.015 -32.096  1.00  0.00     0.155 C 
HETATM    4  N   UNL     1      -3.217   6.834 -30.997  1.00  0.00    -0.230 N 
HETATM    5  C   UNL     1      -4.141   6.804 -29.967  1.00  0.00     0.195 A 
HETATM    6  N   UNL     1      -5.229   6.120 -29.909  1.00  0.00    -0.183 NA
HETATM    7  N   UNL     1      -2.114   7.657 -30.756  1.00  0.00    -0.186 NA
HETATM    8  C   UNL     1      -2.143   8.218 -29.481  1.00  0.00     0.094 A 
HETATM    9  C   UNL     1      -1.155   8.910 -28.897  1.00  0.00     0.175 C 
HETATM   10  S   UNL     1      -3.643   7.841 -28.618  1.00  0.00    -0.035 SA
HETATM   11  C   UNL     1      -4.506   5.063 -32.029  1.00  0.00     0.082 C 
HETATM   12  C   UNL     1      -5.581   5.356 -31.006  1.00  0.00     0.283 C 
HETATM   13  O   UNL     1      -6.731   4.962 -31.151  1.00  0.00    -0.265 OA
HETATM   14  C   UNL     1      -4.492   4.002 -32.861  1.00  0.00     0.034 C 
HETATM   15  H   UNL     1      -1.205   7.240 -30.957  1.00  0.00     0.154 HD
ENDROOT
BRANCH  14  16
HETATM   16  C   UNL     1      -5.375   2.881 -32.913  1.00  0.00    -0.007 A 
HETATM   17  C   UNL     1      -5.629   1.949 -31.864  1.00  0.00     0.002 A 
HETATM   18  C   UNL     1      -6.638   1.080 -32.308  1.00  0.00     0.045 A 
HETATM   19  C   UNL     1      -5.098   1.776 -30.565  1.00  0.00     0.014 A 
HETATM   20  C   UNL     1      -7.127   0.058 -31.476  1.00  0.00     0.030 A 
HETATM   21  N   UNL     1      -6.965   1.466 -33.594  1.00  0.00    -0.353 N 
HETATM   22  C   UNL     1      -6.580  -0.095 -30.198  1.00  0.00     0.002 A 
HETATM   23  C   UNL     1      -5.577   0.751 -29.745  1.00  0.00     0.001 A 
HETATM   24  C   UNL     1      -6.227   2.575 -33.946  1.00  0.00     0.103 A 
BRANCH  21  25
HETATM   25  C   UNL     1      -8.008   0.934 -34.465  1.00  0.00     0.155 C 
BRANCH  25  26
HETATM   26  C   UNL     1      -7.730  -0.412 -35.137  1.00  0.00     0.196 C 
BRANCH  26  27
HETATM   27  O   UNL     1      -6.377  -0.764 -34.842  1.00  0.00    -0.349 OA
BRANCH  27  28
HETATM   28  C   UNL     1      -6.033  -2.083 -34.761  1.00  0.00     0.075 A 
HETATM   29  C   UNL     1      -4.804  -2.351 -34.126  1.00  0.00    -0.021 A 
HETATM   30  C   UNL     1      -4.387  -3.682 -33.968  1.00  0.00     0.010 A 
HETATM   31  C   UNL     1      -5.169  -4.731 -34.447  1.00  0.00     0.001 A 
HETATM   32  C   UNL     1      -6.376  -4.460 -35.085  1.00  0.00     0.003 A 
HETATM   33  C   UNL     1      -6.809  -3.141 -35.242  1.00  0.00     0.037 A 
BRANCH  29  34
HETATM   34  C   UNL     1      -3.924  -1.233 -33.600  1.00  0.00     0.067 C 
BRANCH  34  35
HETATM   35  C   UNL     1      -3.424  -1.364 -32.185  1.00  0.00    -0.032 C 
HETATM   36  C   UNL     1      -2.633  -0.521 -31.508  1.00  0.00     0.007 C 
ENDBRANCH  34  35
ENDBRANCH  29  34
ENDBRANCH  27  28
ENDBRANCH  26  27
ENDBRANCH  25  26
ENDBRANCH  21  25
ENDBRANCH  14  16
BRANCH   9  37
HETATM   37  O   UNL     1      -1.234   9.393 -27.610  1.00  0.00    -0.320 OA
BRANCH  37  38
HETATM   38  C   UNL     1      -0.133   9.287 -26.791  1.00  0.00     0.081 A 
HETATM   39  C   UNL     1      -0.288   9.674 -25.450  1.00  0.00    -0.028 A 
HETATM   40  C   UNL     1      -1.599  10.204 -24.944  1.00  0.00     0.051 C 
HETATM   41  C   UNL     1       0.789   9.510 -24.568  1.00  0.00     0.009 A 
HETATM   42  C   UNL     1       1.998   8.975 -25.017  1.00  0.00     0.001 A 
HETATM   43  C   UNL     1       2.138   8.581 -26.346  1.00  0.00     0.003 A 
HETATM   44  C   UNL     1       1.069   8.724 -27.232  1.00  0.00     0.038 A 
ENDBRANCH  37  38
ENDBRANCH   9  37
TORSDOF 9
ENDMDL
MODEL 2
REMARK VINA RESULT:      -9.6      1.805      2.484
REMARK  9 active torsions:
REMARK  status: ('A' for Active; 'I' for Inactive)
REMARK    1  A    between atoms: C_9  and  O_10 
REMARK    2  A    between atoms: O_10  and  C_11 
REMARK    3  A    between atoms: C_22  and  C_23 
REMARK    4  A    between atoms: N_30  and  C_31 
REMARK    5  A    between atoms: C_31  and  C_32 
REMARK    6  A    between atoms: C_32  and  O_33 
REMARK    7  A    between atoms: O_33  and  C_34 
REMARK    8  A    between atoms: C_35  and  C_36 
REMARK    9  A    between atoms: C_36  and  C_37 
ROOT
HETATM    1  H   UNL     1       0.735   5.022 -30.552  1.00  0.00     0.188 HD
HETATM    2  N   UNL     1      -0.169   4.713 -30.922  1.00  0.00    -0.282 NA
HETATM    3  C   UNL     1      -1.058   5.630 -30.671  1.00  0.00     0.155 C 
HETATM    4  N   UNL     1      -0.792   6.767 -29.941  1.00  0.00    -0.230 N 
HETATM    5  C   UNL     1      -1.757   7.740 -29.747  1.00  0.00     0.195 A 
HETATM    6  N   UNL     1      -2.942   7.780 -30.247  1.00  0.00    -0.183 NA
HETATM    7  N   UNL     1       0.396   6.986 -29.239  1.00  0.00    -0.186 NA
HETATM    8  C   UNL     1       0.324   8.112 -28.420  1.00  0.00     0.094 A 
HETATM    9  C   UNL     1       1.230   8.487 -27.506  1.00  0.00     0.175 C 
HETATM   10  S   UNL     1      -1.190   9.005 -28.642  1.00  0.00    -0.035 SA
HETATM   11  C   UNL     1      -2.478   5.523 -31.155  1.00  0.00     0.082 C 
HETATM   12  C   UNL     1      -3.315   6.783 -31.129  1.00  0.00     0.283 C 
HETATM   13  O   UNL     1      -4.269   6.936 -31.880  1.00  0.00    -0.265 OA
HETATM   14  C   UNL     1      -2.913   4.308 -31.546  1.00  0.00     0.034 C 
HETATM   15  H   UNL     1       0.758   6.180 -28.729  1.00  0.00     0.154 HD
ENDROOT
BRANCH  14  16
HETATM   16  C   UNL     1      -4.231   3.891 -31.906  1.00  0.00    -0.007 A 
HETATM   17  C   UNL     1      -5.381   3.884 -31.064  1.00  0.00     0.002 A 
HETATM   18  C   UNL     1      -6.478   3.505 -31.853  1.00  0.00     0.045 A 
HETATM   19  C   UNL     1      -5.590   4.182 -29.697  1.00  0.00     0.014 A 
HETATM   20  C   UNL     1      -7.770   3.431 -31.303  1.00  0.00     0.030 A 
HETATM   21  N   UNL     1      -5.997   3.272 -33.127  1.00  0.00    -0.353 N 
HETATM   22  C   UNL     1      -7.947   3.725 -29.948  1.00  0.00     0.002 A 
HETATM   23  C   UNL     1      -6.872   4.095 -29.151  1.00  0.00     0.001 A 
HETATM   24  C   UNL     1      -4.646   3.538 -33.168  1.00  0.00     0.103 A 
BRANCH  21  25
HETATM   25  C   UNL     1      -6.745   2.929 -34.332  1.00  0.00     0.155 C 
BRANCH  25  26
HETATM   26  C   UNL     1      -7.230   1.484 -34.460  1.00  0.00     0.196 C 
BRANCH  26  27
HETATM   27  O   UNL     1      -6.565   0.720 -33.452  1.00  0.00    -0.349 OA
BRANCH  27  28
HETATM   28  C   UNL     1      -6.069  -0.512 -33.767  1.00  0.00     0.075 A 
HETATM   29  C   UNL     1      -4.786  -0.796 -33.259  1.00  0.00    -0.021 A 
HETATM   30  C   UNL     1      -4.211  -2.054 -33.505  1.00  0.00     0.010 A 
HETATM   31  C   UNL     1      -4.892  -3.009 -34.258  1.00  0.00     0.001 A 
HETATM   32  C   UNL     1      -6.153  -2.717 -34.768  1.00  0.00     0.003 A 
HETATM   33  C   UNL     1      -6.743  -1.473 -34.525  1.00  0.00     0.037 A 
BRANCH  29  34
HETATM   34  C   UNL     1      -4.013   0.223 -32.444  1.00  0.00     0.067 C 
BRANCH  34  35
HETATM   35  C   UNL     1      -4.197   0.184 -30.949  1.00  0.00    -0.032 C 
HETATM   36  C   UNL     1      -5.332   0.338 -30.253  1.00  0.00     0.007 C 
ENDBRANCH  34  35
ENDBRANCH  29  34
ENDBRANCH  27  28
ENDBRANCH  26  27
ENDBRANCH  25  26
ENDBRANCH  21  25
ENDBRANCH  14  16
BRANCH   9  37
HETATM   37  O   UNL     1       1.068   9.587 -26.695  1.00  0.00    -0.320 OA
BRANCH  37  38
HETATM   38  C   UNL     1       1.508   9.524 -25.392  1.00  0.00     0.081 A 
HETATM   39  C   UNL     1       0.706  10.127 -24.411  1.00  0.00    -0.028 A 
HETATM   40  C   UNL     1      -0.569  10.832 -24.779  1.00  0.00     0.051 C 
HETATM   41  C   UNL     1       1.083  10.019 -23.066  1.00  0.00     0.009 A 
HETATM   42  C   UNL     1       2.241   9.326 -22.707  1.00  0.00     0.001 A 
HETATM   43  C   UNL     1       3.024   8.719 -23.687  1.00  0.00     0.003 A 
HETATM   44  C   UNL     1       2.652   8.805 -25.029  1.00  0.00     0.038 A 
ENDBRANCH  37  38
ENDBRANCH   9  37
TORSDOF 9
ENDMDL
MODEL 3
REMARK VINA RESULT:      -9.6      2.859     10.886
REMARK  9 active torsions:
REMARK  status: ('A' for Active; 'I' for Inactive)
REMARK    1  A    between atoms: C_9  and  O_10 
REMARK    2  A    between atoms: O_10  and  C_11 
REMARK    3  A    between atoms: C_22  and  C_23 
REMARK    4  A    between atoms: N_30  and  C_31 
REMARK    5  A    between atoms: C_31  and  C_32 
REMARK    6  A    between atoms: C_32  and  O_33 
REMARK    7  A    between atoms: O_33  and  C_34 
REMARK    8  A    between atoms: C_35  and  C_36 
REMARK    9  A    between atoms: C_36  and  C_37 
ROOT
HETATM    1  H   UNL     1      -9.737   1.364 -30.902  1.00  0.00     0.188 HD
HETATM    2  N   UNL     1      -9.351   2.211 -30.474  1.00  0.00    -0.282 NA
HETATM    3  C   UNL     1      -8.279   2.556 -31.126  1.00  0.00     0.155 C 
HETATM    4  N   UNL     1      -7.743   1.815 -32.155  1.00  0.00    -0.230 N 
HETATM    5  C   UNL     1      -6.630   2.251 -32.853  1.00  0.00     0.195 A 
HETATM    6  N   UNL     1      -6.013   3.372 -32.723  1.00  0.00    -0.183 NA
HETATM    7  N   UNL     1      -8.172   0.531 -32.501  1.00  0.00    -0.186 NA
HETATM    8  C   UNL     1      -7.330  -0.073 -33.432  1.00  0.00     0.094 A 
HETATM    9  C   UNL     1      -7.379  -1.352 -33.832  1.00  0.00     0.175 C 
HETATM   10  S   UNL     1      -6.067   1.028 -34.007  1.00  0.00    -0.035 SA
HETATM   11  C   UNL     1      -7.512   3.810 -30.801  1.00  0.00     0.082 C 
HETATM   12  C   UNL     1      -6.519   4.299 -31.831  1.00  0.00     0.283 C 
HETATM   13  O   UNL     1      -6.195   5.477 -31.902  1.00  0.00    -0.265 OA
HETATM   14  C   UNL     1      -7.741   4.387 -29.605  1.00  0.00     0.034 C 
HETATM   15  H   UNL     1      -8.365  -0.092 -31.716  1.00  0.00     0.154 HD
ENDROOT
BRANCH  14  16
HETATM   16  C   UNL     1      -7.064   5.481 -28.983  1.00  0.00    -0.007 A 
HETATM   17  C   UNL     1      -7.605   6.769 -28.706  1.00  0.00     0.002 A 
HETATM   18  C   UNL     1      -6.633   7.490 -27.994  1.00  0.00     0.045 A 
HETATM   19  C   UNL     1      -8.847   7.386 -28.985  1.00  0.00     0.014 A 
HETATM   20  C   UNL     1      -6.887   8.801 -27.553  1.00  0.00     0.030 A 
HETATM   21  N   UNL     1      -5.533   6.664 -27.866  1.00  0.00    -0.353 N 
HETATM   22  C   UNL     1      -8.121   9.388 -27.848  1.00  0.00     0.002 A 
HETATM   23  C   UNL     1      -9.091   8.692 -28.557  1.00  0.00     0.001 A 
HETATM   24  C   UNL     1      -5.806   5.439 -28.433  1.00  0.00     0.103 A 
BRANCH  21  25
HETATM   25  C   UNL     1      -4.290   6.913 -27.144  1.00  0.00     0.155 C 
BRANCH  25  26
HETATM   26  C   UNL     1      -3.266   7.827 -27.818  1.00  0.00     0.196 C 
BRANCH  26  27
HETATM   27  O   UNL     1      -2.094   7.047 -28.061  1.00  0.00    -0.349 OA
BRANCH  27  28
HETATM   28  C   UNL     1      -1.523   7.069 -29.301  1.00  0.00     0.075 A 
HETATM   29  C   UNL     1      -0.173   6.668 -29.353  1.00  0.00    -0.021 A 
HETATM   30  C   UNL     1       0.485   6.627 -30.594  1.00  0.00     0.010 A 
HETATM   31  C   UNL     1      -0.181   6.994 -31.761  1.00  0.00     0.001 A 
HETATM   32  C   UNL     1      -1.510   7.401 -31.702  1.00  0.00     0.003 A 
HETATM   33  C   UNL     1      -2.182   7.439 -30.477  1.00  0.00     0.037 A 
BRANCH  29  34
HETATM   34  C   UNL     1       0.585   6.272 -28.101  1.00  0.00     0.067 C 
BRANCH  34  35
HETATM   35  C   UNL     1       1.172   7.387 -27.276  1.00  0.00    -0.032 C 
HETATM   36  C   UNL     1       1.518   8.618 -27.679  1.00  0.00     0.007 C 
ENDBRANCH  34  35
ENDBRANCH  29  34
ENDBRANCH  27  28
ENDBRANCH  26  27
ENDBRANCH  25  26
ENDBRANCH  21  25
ENDBRANCH  14  16
BRANCH   9  37
HETATM   37  O   UNL     1      -6.479  -1.896 -34.721  1.00  0.00    -0.320 OA
BRANCH  37  38
HETATM   38  C   UNL     1      -5.534  -2.781 -34.254  1.00  0.00     0.081 A 
HETATM   39  C   UNL     1      -5.615  -4.108 -34.706  1.00  0.00    -0.028 A 
HETATM   40  C   UNL     1      -6.706  -4.542 -35.642  1.00  0.00     0.051 C 
HETATM   41  C   UNL     1      -4.627  -5.020 -34.310  1.00  0.00     0.009 A 
HETATM   42  C   UNL     1      -3.581  -4.616 -33.477  1.00  0.00     0.001 A 
HETATM   43  C   UNL     1      -3.503  -3.294 -33.046  1.00  0.00     0.003 A 
HETATM   44  C   UNL     1      -4.470  -2.371 -33.443  1.00  0.00     0.038 A 
ENDBRANCH  37  38
ENDBRANCH   9  37
TORSDOF 9
ENDMDL
MODEL 4
REMARK VINA RESULT:      -9.6      2.822     10.966
REMARK  9 active torsions:
REMARK  status: ('A' for Active; 'I' for Inactive)
REMARK    1  A    between atoms: C_9  and  O_10 
REMARK    2  A    between atoms: O_10  and  C_11 
REMARK    3  A    between atoms: C_22  and  C_23 
REMARK    4  A    between atoms: N_30  and  C_31 
REMARK    5  A    between atoms: C_31  and  C_32 
REMARK    6  A    between atoms: C_32  and  O_33 
REMARK    7  A    between atoms: O_33  and  C_34 
REMARK    8  A    between atoms: C_35  and  C_36 
REMARK    9  A    between atoms: C_36  and  C_37 
ROOT
HETATM    1  H   UNL     1      -7.826   2.179 -29.764  1.00  0.00     0.188 HD
HETATM    2  N   UNL     1      -7.499   3.061 -29.358  1.00  0.00    -0.282 NA
HETATM    3  C   UNL     1      -6.358   3.372 -29.902  1.00  0.00     0.155 C 
HETATM    4  N   UNL     1      -5.698   2.565 -30.801  1.00  0.00    -0.230 N 
HETATM    5  C   UNL     1      -4.513   2.965 -31.392  1.00  0.00     0.195 A 
HETATM    6  N   UNL     1      -3.922   4.100 -31.275  1.00  0.00    -0.183 NA
HETATM    7  N   UNL     1      -6.076   1.253 -31.098  1.00  0.00    -0.186 NA
HETATM    8  C   UNL     1      -5.126   0.594 -31.875  1.00  0.00     0.094 A 
HETATM    9  C   UNL     1      -5.119  -0.711 -32.181  1.00  0.00     0.175 C 
HETATM   10  S   UNL     1      -3.809   1.668 -32.376  1.00  0.00    -0.035 SA
HETATM   11  C   UNL     1      -5.643   4.658 -29.583  1.00  0.00     0.082 C 
HETATM   12  C   UNL     1      -4.537   5.084 -30.522  1.00  0.00     0.283 C 
HETATM   13  O   UNL     1      -4.212   6.258 -30.641  1.00  0.00    -0.265 OA
HETATM   14  C   UNL     1      -6.017   5.318 -28.469  1.00  0.00     0.034 C 
HETATM   15  H   UNL     1      -6.359   0.687 -30.298  1.00  0.00     0.154 HD
ENDROOT
BRANCH  14  16
HETATM   16  C   UNL     1      -5.425   6.464 -27.855  1.00  0.00    -0.007 A 
HETATM   17  C   UNL     1      -5.894   7.808 -27.932  1.00  0.00     0.002 A 
HETATM   18  C   UNL     1      -5.078   8.587 -27.096  1.00  0.00     0.045 A 
HETATM   19  C   UNL     1      -6.953   8.432 -28.630  1.00  0.00     0.014 A 
HETATM   20  C   UNL     1      -5.312   9.965 -26.941  1.00  0.00     0.030 A 
HETATM   21  N   UNL     1      -4.135   7.739 -26.550  1.00  0.00    -0.353 N 
HETATM   22  C   UNL     1      -6.363  10.557 -27.648  1.00  0.00     0.002 A 
HETATM   23  C   UNL     1      -7.175   9.803 -28.484  1.00  0.00     0.001 A 
HETATM   24  C   UNL     1      -4.365   6.451 -26.981  1.00  0.00     0.103 A 
BRANCH  21  25
HETATM   25  C   UNL     1      -3.107   8.041 -25.559  1.00  0.00     0.155 C 
BRANCH  25  26
HETATM   26  C   UNL     1      -1.753   7.352 -25.732  1.00  0.00     0.196 C 
BRANCH  26  27
HETATM   27  O   UNL     1      -1.034   8.070 -26.737  1.00  0.00    -0.349 OA
BRANCH  27  28
HETATM   28  C   UNL     1      -0.698   7.436 -27.898  1.00  0.00     0.075 A 
HETATM   29  C   UNL     1      -1.176   8.040 -29.078  1.00  0.00    -0.021 A 
HETATM   30  C   UNL     1      -0.849   7.474 -30.321  1.00  0.00     0.010 A 
HETATM   31  C   UNL     1      -0.074   6.319 -30.393  1.00  0.00     0.001 A 
HETATM   32  C   UNL     1       0.384   5.719 -29.223  1.00  0.00     0.003 A 
HETATM   33  C   UNL     1       0.075   6.274 -27.978  1.00  0.00     0.037 A 
BRANCH  29  34
HETATM   34  C   UNL     1      -2.029   9.293 -29.037  1.00  0.00     0.067 C 
BRANCH  34  35
HETATM   35  C   UNL     1      -2.698   9.706 -30.322  1.00  0.00    -0.032 C 
HETATM   36  C   UNL     1      -4.010   9.807 -30.574  1.00  0.00     0.007 C 
ENDBRANCH  34  35
ENDBRANCH  29  34
ENDBRANCH  27  28
ENDBRANCH  26  27
ENDBRANCH  25  26
ENDBRANCH  21  25
ENDBRANCH  14  16
BRANCH   9  37
HETATM   37  O   UNL     1      -4.117  -1.307 -32.913  1.00  0.00    -0.320 OA
BRANCH  37  38
HETATM   38  C   UNL     1      -4.346  -2.542 -33.475  1.00  0.00     0.081 A 
HETATM   39  C   UNL     1      -3.667  -3.638 -32.922  1.00  0.00    -0.028 A 
HETATM   40  C   UNL     1      -2.710  -3.459 -31.777  1.00  0.00     0.051 C 
HETATM   41  C   UNL     1      -3.931  -4.922 -33.418  1.00  0.00     0.009 A 
HETATM   42  C   UNL     1      -4.853  -5.107 -34.451  1.00  0.00     0.001 A 
HETATM   43  C   UNL     1      -5.533  -4.013 -34.984  1.00  0.00     0.003 A 
HETATM   44  C   UNL     1      -5.291  -2.732 -34.489  1.00  0.00     0.038 A 
ENDBRANCH  37  38
ENDBRANCH   9  37
TORSDOF 9
ENDMDL
MODEL 5
REMARK VINA RESULT:      -9.4      2.886     11.193
REMARK  9 active torsions:
REMARK  status: ('A' for Active; 'I' for Inactive)
REMARK    1  A    between atoms: C_9  and  O_10 
REMARK    2  A    between atoms: O_10  and  C_11 
REMARK    3  A    between atoms: C_22  and  C_23 
REMARK    4  A    between atoms: N_30  and  C_31 
REMARK    5  A    between atoms: C_31  and  C_32 
REMARK    6  A    between atoms: C_32  and  O_33 
REMARK    7  A    between atoms: O_33  and  C_34 
REMARK    8  A    between atoms: C_35  and  C_36 
REMARK    9  A    between atoms: C_36  and  C_37 
ROOT
HETATM    1  H   UNL     1      -9.775   1.344 -30.907  1.00  0.00     0.188 HD
HETATM    2  N   UNL     1      -9.401   2.194 -30.475  1.00  0.00    -0.282 NA
HETATM    3  C   UNL     1      -8.329   2.553 -31.119  1.00  0.00     0.155 C 
HETATM    4  N   UNL     1      -7.779   1.821 -32.148  1.00  0.00    -0.230 N 
HETATM    5  C   UNL     1      -6.668   2.272 -32.839  1.00  0.00     0.195 A 
HETATM    6  N   UNL     1      -6.063   3.398 -32.702  1.00  0.00    -0.183 NA
HETATM    7  N   UNL     1      -8.193   0.534 -32.501  1.00  0.00    -0.186 NA
HETATM    8  C   UNL     1      -7.340  -0.058 -33.430  1.00  0.00     0.094 A 
HETATM    9  C   UNL     1      -7.373  -1.335 -33.835  1.00  0.00     0.175 C 
HETATM   10  S   UNL     1      -6.086   1.059 -33.994  1.00  0.00    -0.035 SA
HETATM   11  C   UNL     1      -7.578   3.813 -30.785  1.00  0.00     0.082 C 
HETATM   12  C   UNL     1      -6.585   4.317 -31.809  1.00  0.00     0.283 C 
HETATM   13  O   UNL     1      -6.272   5.499 -31.873  1.00  0.00    -0.265 OA
HETATM   14  C   UNL     1      -7.819   4.384 -29.589  1.00  0.00     0.034 C 
HETATM   15  H   UNL     1      -8.384  -0.094 -31.720  1.00  0.00     0.154 HD
ENDROOT
BRANCH  14  16
HETATM   16  C   UNL     1      -7.157   5.482 -28.960  1.00  0.00    -0.007 A 
HETATM   17  C   UNL     1      -7.703   6.774 -28.709  1.00  0.00     0.002 A 
HETATM   18  C   UNL     1      -6.749   7.500 -27.978  1.00  0.00     0.045 A 
HETATM   19  C   UNL     1      -8.935   7.390 -29.028  1.00  0.00     0.014 A 
HETATM   20  C   UNL     1      -7.012   8.815 -27.556  1.00  0.00     0.030 A 
HETATM   21  N   UNL     1      -5.654   6.674 -27.813  1.00  0.00    -0.353 N 
HETATM   22  C   UNL     1      -8.237   9.402 -27.891  1.00  0.00     0.002 A 
HETATM   23  C   UNL     1      -9.188   8.701 -28.619  1.00  0.00     0.001 A 
HETATM   24  C   UNL     1      -5.914   5.444 -28.375  1.00  0.00     0.103 A 
BRANCH  21  25
HETATM   25  C   UNL     1      -4.431   6.928 -27.059  1.00  0.00     0.155 C 
BRANCH  25  26
HETATM   26  C   UNL     1      -3.377   7.814 -27.725  1.00  0.00     0.196 C 
BRANCH  26  27
HETATM   27  O   UNL     1      -2.238   6.994 -27.994  1.00  0.00    -0.349 OA
BRANCH  27  28
HETATM   28  C   UNL     1      -1.000   7.428 -27.620  1.00  0.00     0.075 A 
HETATM   29  C   UNL     1      -0.102   7.680 -28.676  1.00  0.00    -0.021 A 
HETATM   30  C   UNL     1       1.185   8.162 -28.385  1.00  0.00     0.010 A 
HETATM   31  C   UNL     1       1.580   8.376 -27.067  1.00  0.00     0.001 A 
HETATM   32  C   UNL     1       0.693   8.113 -26.027  1.00  0.00     0.003 A 
HETATM   33  C   UNL     1      -0.594   7.641 -26.300  1.00  0.00     0.037 A 
BRANCH  29  34
HETATM   34  C   UNL     1      -0.495   7.450 -30.123  1.00  0.00     0.067 C 
BRANCH  34  35
HETATM   35  C   UNL     1       0.017   6.194 -30.779  1.00  0.00    -0.032 C 
HETATM   36  C   UNL     1       0.526   5.103 -30.189  1.00  0.00     0.007 C 
ENDBRANCH  34  35
ENDBRANCH  29  34
ENDBRANCH  27  28
ENDBRANCH  26  27
ENDBRANCH  25  26
ENDBRANCH  21  25
ENDBRANCH  14  16
BRANCH   9  37
HETATM   37  O   UNL     1      -6.463  -1.867 -34.721  1.00  0.00    -0.320 OA
BRANCH  37  38
HETATM   38  C   UNL     1      -5.522  -2.756 -34.256  1.00  0.00     0.081 A 
HETATM   39  C   UNL     1      -5.640  -4.093 -34.666  1.00  0.00    -0.028 A 
HETATM   40  C   UNL     1      -6.765  -4.533 -35.559  1.00  0.00     0.051 C 
HETATM   41  C   UNL     1      -4.658  -5.013 -34.272  1.00  0.00     0.009 A 
HETATM   42  C   UNL     1      -3.581  -4.606 -33.481  1.00  0.00     0.001 A 
HETATM   43  C   UNL     1      -3.466  -3.273 -33.091  1.00  0.00     0.003 A 
HETATM   44  C   UNL     1      -4.427  -2.344 -33.487  1.00  0.00     0.038 A 
ENDBRANCH  37  38
ENDBRANCH   9  37
TORSDOF 9
ENDMDL
MODEL 6
REMARK VINA RESULT:      -9.4      2.372      3.795
REMARK  9 active torsions:
REMARK  status: ('A' for Active; 'I' for Inactive)
REMARK    1  A    between atoms: C_9  and  O_10 
REMARK    2  A    between atoms: O_10  and  C_11 
REMARK    3  A    between atoms: C_22  and  C_23 
REMARK    4  A    between atoms: N_30  and  C_31 
REMARK    5  A    between atoms: C_31  and  C_32 
REMARK    6  A    between atoms: C_32  and  O_33 
REMARK    7  A    between atoms: O_33  and  C_34 
REMARK    8  A    between atoms: C_35  and  C_36 
REMARK    9  A    between atoms: C_36  and  C_37 
ROOT
HETATM    1  H   UNL     1      -3.425   6.439 -33.699  1.00  0.00     0.188 HD
HETATM    2  N   UNL     1      -4.345   6.025 -33.876  1.00  0.00    -0.282 NA
HETATM    3  C   UNL     1      -4.999   5.964 -32.752  1.00  0.00     0.155 C 
HETATM    4  N   UNL     1      -4.459   6.326 -31.538  1.00  0.00    -0.230 N 
HETATM    5  C   UNL     1      -5.213   6.295 -30.378  1.00  0.00     0.195 A 
HETATM    6  N   UNL     1      -6.465   6.025 -30.263  1.00  0.00    -0.183 NA
HETATM    7  N   UNL     1      -3.109   6.626 -31.340  1.00  0.00    -0.186 NA
HETATM    8  C   UNL     1      -2.791   6.754 -29.989  1.00  0.00     0.094 A 
HETATM    9  C   UNL     1      -1.559   6.872 -29.473  1.00  0.00     0.175 C 
HETATM   10  S   UNL     1      -4.223   6.654 -28.951  1.00  0.00    -0.035 SA
HETATM   11  C   UNL     1      -6.420   5.476 -32.678  1.00  0.00     0.082 C 
HETATM   12  C   UNL     1      -7.192   5.787 -31.415  1.00  0.00     0.283 C 
HETATM   13  O   UNL     1      -8.414   5.858 -31.410  1.00  0.00    -0.265 OA
HETATM   14  C   UNL     1      -6.893   4.773 -33.726  1.00  0.00     0.034 C 
HETATM   15  H   UNL     1      -2.450   6.013 -31.819  1.00  0.00     0.154 HD
ENDROOT
BRANCH  14  16
HETATM   16  C   UNL     1      -8.132   4.076 -33.863  1.00  0.00    -0.007 A 
HETATM   17  C   UNL     1      -9.346   4.597 -34.398  1.00  0.00     0.002 A 
HETATM   18  C   UNL     1     -10.273   3.543 -34.444  1.00  0.00     0.045 A 
HETATM   19  C   UNL     1      -9.738   5.874 -34.862  1.00  0.00     0.014 A 
HETATM   20  C   UNL     1     -11.567   3.744 -34.953  1.00  0.00     0.030 A 
HETATM   21  N   UNL     1      -9.639   2.427 -33.933  1.00  0.00    -0.353 N 
HETATM   22  C   UNL     1     -11.930   5.018 -35.400  1.00  0.00     0.002 A 
HETATM   23  C   UNL     1     -11.029   6.073 -35.356  1.00  0.00     0.001 A 
HETATM   24  C   UNL     1      -8.336   2.740 -33.614  1.00  0.00     0.103 A 
BRANCH  21  25
HETATM   25  C   UNL     1     -10.143   1.061 -33.835  1.00  0.00     0.155 C 
BRANCH  25  26
HETATM   26  C   UNL     1      -9.506   0.160 -32.776  1.00  0.00     0.196 C 
BRANCH  26  27
HETATM   27  O   UNL     1      -8.467  -0.582 -33.417  1.00  0.00    -0.349 OA
BRANCH  27  28
HETATM   28  C   UNL     1      -7.222  -0.607 -32.858  1.00  0.00     0.075 A 
HETATM   29  C   UNL     1      -6.251  -1.335 -33.574  1.00  0.00    -0.021 A 
HETATM   30  C   UNL     1      -4.934  -1.387 -33.089  1.00  0.00     0.010 A 
HETATM   31  C   UNL     1      -4.589  -0.740 -31.904  1.00  0.00     0.001 A 
HETATM   32  C   UNL     1      -5.556  -0.034 -31.194  1.00  0.00     0.003 A 
HETATM   33  C   UNL     1      -6.869   0.034 -31.668  1.00  0.00     0.037 A 
BRANCH  29  34
HETATM   34  C   UNL     1      -6.593  -2.059 -34.862  1.00  0.00     0.067 C 
BRANCH  34  35
HETATM   35  C   UNL     1      -6.807  -3.548 -34.774  1.00  0.00    -0.032 C 
HETATM   36  C   UNL     1      -5.940  -4.525 -35.075  1.00  0.00     0.007 C 
ENDBRANCH  34  35
ENDBRANCH  29  34
ENDBRANCH  27  28
ENDBRANCH  26  27
ENDBRANCH  25  26
ENDBRANCH  21  25
ENDBRANCH  14  16
BRANCH   9  37
HETATM   37  O   UNL     1      -1.315   6.944 -28.120  1.00  0.00    -0.320 OA
BRANCH  37  38
HETATM   38  C   UNL     1      -0.412   7.873 -27.656  1.00  0.00     0.081 A 
HETATM   39  C   UNL     1      -0.814   8.681 -26.581  1.00  0.00    -0.028 A 
HETATM   40  C   UNL     1      -2.186   8.548 -25.982  1.00  0.00     0.051 C 
HETATM   41  C   UNL     1       0.105   9.587 -26.033  1.00  0.00     0.009 A 
HETATM   42  C   UNL     1       1.398   9.687 -26.550  1.00  0.00     0.001 A 
HETATM   43  C   UNL     1       1.792   8.870 -27.608  1.00  0.00     0.003 A 
HETATM   44  C   UNL     1       0.893   7.954 -28.154  1.00  0.00     0.038 A 
ENDBRANCH  37  38
ENDBRANCH   9  37
TORSDOF 9
ENDMDL
MODEL 7
REMARK VINA RESULT:      -9.2      2.197      3.320
REMARK  9 active torsions:
REMARK  status: ('A' for Active; 'I' for Inactive)
REMARK    1  A    between atoms: C_9  and  O_10 
REMARK    2  A    between atoms: O_10  and  C_11 
REMARK    3  A    between atoms: C_22  and  C_23 
REMARK    4  A    between atoms: N_30  and  C_31 
REMARK    5  A    between atoms: C_31  and  C_32 
REMARK    6  A    between atoms: C_32  and  O_33 
REMARK    7  A    between atoms: O_33  and  C_34 
REMARK    8  A    between atoms: C_35  and  C_36 
REMARK    9  A    between atoms: C_36  and  C_37 
ROOT
HETATM    1  H   UNL     1      -6.229   5.274 -27.394  1.00  0.00     0.188 HD
HETATM    2  N   UNL     1      -6.736   4.831 -28.166  1.00  0.00    -0.282 NA
HETATM    3  C   UNL     1      -6.044   4.977 -29.259  1.00  0.00     0.155 C 
HETATM    4  N   UNL     1      -4.873   5.698 -29.326  1.00  0.00    -0.230 N 
HETATM    5  C   UNL     1      -4.145   5.779 -30.500  1.00  0.00     0.195 A 
HETATM    6  N   UNL     1      -4.377   5.174 -31.610  1.00  0.00    -0.183 NA
HETATM    7  N   UNL     1      -4.387   6.500 -28.290  1.00  0.00    -0.186 NA
HETATM    8  C   UNL     1      -3.304   7.279 -28.690  1.00  0.00     0.094 A 
HETATM    9  C   UNL     1      -2.730   8.262 -27.983  1.00  0.00     0.175 C 
HETATM   10  S   UNL     1      -2.779   6.899 -30.339  1.00  0.00    -0.035 SA
HETATM   11  C   UNL     1      -6.474   4.369 -30.566  1.00  0.00     0.082 C 
HETATM   12  C   UNL     1      -5.436   4.287 -31.664  1.00  0.00     0.283 C 
HETATM   13  O   UNL     1      -5.507   3.449 -32.554  1.00  0.00    -0.265 OA
HETATM   14  C   UNL     1      -7.757   3.971 -30.677  1.00  0.00     0.034 C 
HETATM   15  H   UNL     1      -5.088   7.061 -27.805  1.00  0.00     0.154 HD
ENDROOT
BRANCH  14  16
HETATM   16  C   UNL     1      -8.463   3.504 -31.827  1.00  0.00    -0.007 A 
HETATM   17  C   UNL     1      -9.076   4.306 -32.832  1.00  0.00     0.002 A 
HETATM   18  C   UNL     1      -9.559   3.440 -33.826  1.00  0.00     0.045 A 
HETATM   19  C   UNL     1      -9.252   5.700 -32.995  1.00  0.00     0.014 A 
HETATM   20  C   UNL     1     -10.198   3.943 -34.973  1.00  0.00     0.030 A 
HETATM   21  N   UNL     1      -9.262   2.154 -33.418  1.00  0.00    -0.353 N 
HETATM   22  C   UNL     1     -10.364   5.325 -35.104  1.00  0.00     0.002 A 
HETATM   23  C   UNL     1      -9.899   6.196 -34.128  1.00  0.00     0.001 A 
HETATM   24  C   UNL     1      -8.570   2.194 -32.228  1.00  0.00     0.103 A 
BRANCH  21  25
HETATM   25  C   UNL     1      -9.484   0.901 -34.132  1.00  0.00     0.155 C 
BRANCH  25  26
HETATM   26  C   UNL     1      -8.248   0.191 -34.687  1.00  0.00     0.196 C 
BRANCH  26  27
HETATM   27  O   UNL     1      -7.787  -0.713 -33.681  1.00  0.00    -0.349 OA
BRANCH  27  28
HETATM   28  C   UNL     1      -6.727  -1.529 -33.951  1.00  0.00     0.075 A 
HETATM   29  C   UNL     1      -5.509  -1.160 -33.348  1.00  0.00    -0.021 A 
HETATM   30  C   UNL     1      -4.373  -1.962 -33.544  1.00  0.00     0.010 A 
HETATM   31  C   UNL     1      -4.441  -3.104 -34.340  1.00  0.00     0.001 A 
HETATM   32  C   UNL     1      -5.644  -3.457 -34.943  1.00  0.00     0.003 A 
HETATM   33  C   UNL     1      -6.786  -2.674 -34.751  1.00  0.00     0.037 A 
BRANCH  29  34
HETATM   34  C   UNL     1      -5.397   0.081 -32.484  1.00  0.00     0.067 C 
BRANCH  34  35
HETATM   35  C   UNL     1      -5.445  -0.118 -30.991  1.00  0.00    -0.032 C 
HETATM   36  C   UNL     1      -5.982   0.691 -30.068  1.00  0.00     0.007 C 
ENDBRANCH  34  35
ENDBRANCH  29  34
ENDBRANCH  27  28
ENDBRANCH  26  27
ENDBRANCH  25  26
ENDBRANCH  21  25
ENDBRANCH  14  16
BRANCH   9  37
HETATM   37  O   UNL     1      -1.691   9.027 -28.464  1.00  0.00    -0.320 OA
BRANCH  37  38
HETATM   38  C   UNL     1      -0.465   8.948 -27.845  1.00  0.00     0.081 A 
HETATM   39  C   UNL     1      -0.049  10.058 -27.093  1.00  0.00    -0.028 A 
HETATM   40  C   UNL     1      -0.905  11.289 -26.991  1.00  0.00     0.051 C 
HETATM   41  C   UNL     1       1.160   9.986 -26.389  1.00  0.00     0.009 A 
HETATM   42  C   UNL     1       1.942   8.830 -26.438  1.00  0.00     0.001 A 
HETATM   43  C   UNL     1       1.515   7.729 -27.177  1.00  0.00     0.003 A 
HETATM   44  C   UNL     1       0.306   7.781 -27.871  1.00  0.00     0.038 A 
ENDBRANCH  37  38
ENDBRANCH   9  37
TORSDOF 9
ENDMDL
MODEL 8
REMARK VINA RESULT:      -9.2      2.506     10.658
REMARK  9 active torsions:
REMARK  status: ('A' for Active; 'I' for Inactive)
REMARK    1  A    between atoms: C_9  and  O_10 
REMARK    2  A    between atoms: O_10  and  C_11 
REMARK    3  A    between atoms: C_22  and  C_23 
REMARK    4  A    between atoms: N_30  and  C_31 
REMARK    5  A    between atoms: C_31  and  C_32 
REMARK    6  A    between atoms: C_32  and  O_33 
REMARK    7  A    between atoms: O_33  and  C_34 
REMARK    8  A    between atoms: C_35  and  C_36 
REMARK    9  A    between atoms: C_36  and  C_37 
ROOT
HETATM    1  H   UNL     1      -7.464   2.177 -29.322  1.00  0.00     0.188 HD
HETATM    2  N   UNL     1      -7.088   3.109 -29.120  1.00  0.00    -0.282 NA
HETATM    3  C   UNL     1      -6.123   3.360 -29.956  1.00  0.00     0.155 C 
HETATM    4  N   UNL     1      -5.662   2.449 -30.880  1.00  0.00    -0.230 N 
HETATM    5  C   UNL     1      -4.668   2.782 -31.784  1.00  0.00     0.195 A 
HETATM    6  N   UNL     1      -4.115   3.930 -31.954  1.00  0.00    -0.183 NA
HETATM    7  N   UNL     1      -6.043   1.105 -30.913  1.00  0.00    -0.186 NA
HETATM    8  C   UNL     1      -5.276   0.361 -31.807  1.00  0.00     0.094 A 
HETATM    9  C   UNL     1      -5.286  -0.972 -31.941  1.00  0.00     0.175 C 
HETATM   10  S   UNL     1      -4.163   1.376 -32.739  1.00  0.00    -0.035 SA
HETATM   11  C   UNL     1      -5.409   4.684 -29.980  1.00  0.00     0.082 C 
HETATM   12  C   UNL     1      -4.575   4.997 -31.203  1.00  0.00     0.283 C 
HETATM   13  O   UNL     1      -4.339   6.149 -31.542  1.00  0.00    -0.265 OA
HETATM   14  C   UNL     1      -5.536   5.480 -28.900  1.00  0.00     0.034 C 
HETATM   15  H   UNL     1      -6.103   0.645 -30.004  1.00  0.00     0.154 HD
ENDROOT
BRANCH  14  16
HETATM   16  C   UNL     1      -4.865   6.703 -28.594  1.00  0.00    -0.007 A 
HETATM   17  C   UNL     1      -3.957   6.929 -27.519  1.00  0.00     0.002 A 
HETATM   18  C   UNL     1      -3.455   8.232 -27.658  1.00  0.00     0.045 A 
HETATM   19  C   UNL     1      -3.504   6.132 -26.442  1.00  0.00     0.014 A 
HETATM   20  C   UNL     1      -2.508   8.741 -26.752  1.00  0.00     0.030 A 
HETATM   21  N   UNL     1      -4.060   8.780 -28.773  1.00  0.00    -0.353 N 
HETATM   22  C   UNL     1      -2.082   7.933 -25.693  1.00  0.00     0.002 A 
HETATM   23  C   UNL     1      -2.573   6.644 -25.536  1.00  0.00     0.001 A 
HETATM   24  C   UNL     1      -4.885   7.845 -29.358  1.00  0.00     0.103 A 
BRANCH  21  25
HETATM   25  C   UNL     1      -3.822  10.081 -29.388  1.00  0.00     0.155 C 
BRANCH  25  26
HETATM   26  C   UNL     1      -2.858  10.123 -30.574  1.00  0.00     0.196 C 
BRANCH  26  27
HETATM   27  O   UNL     1      -1.807   9.193 -30.302  1.00  0.00    -0.349 OA
BRANCH  27  28
HETATM   28  C   UNL     1      -1.552   8.194 -31.196  1.00  0.00     0.075 A 
HETATM   29  C   UNL     1      -1.004   7.017 -30.649  1.00  0.00    -0.021 A 
HETATM   30  C   UNL     1      -0.741   5.925 -31.491  1.00  0.00     0.010 A 
HETATM   31  C   UNL     1      -1.002   6.004 -32.858  1.00  0.00     0.001 A 
HETATM   32  C   UNL     1      -1.531   7.174 -33.394  1.00  0.00     0.003 A 
HETATM   33  C   UNL     1      -1.807   8.267 -32.568  1.00  0.00     0.037 A 
BRANCH  29  34
HETATM   34  C   UNL     1      -0.699   6.899 -29.168  1.00  0.00     0.067 C 
BRANCH  34  35
HETATM   35  C   UNL     1       0.709   7.214 -28.733  1.00  0.00    -0.032 C 
HETATM   36  C   UNL     1       1.144   8.286 -28.057  1.00  0.00     0.007 C 
ENDBRANCH  34  35
ENDBRANCH  29  34
ENDBRANCH  27  28
ENDBRANCH  26  27
ENDBRANCH  25  26
ENDBRANCH  21  25
ENDBRANCH  14  16
BRANCH   9  37
HETATM   37  O   UNL     1      -4.461  -1.646 -32.813  1.00  0.00    -0.320 OA
BRANCH  37  38
HETATM   38  C   UNL     1      -5.011  -2.582 -33.660  1.00  0.00     0.081 A 
HETATM   39  C   UNL     1      -4.407  -3.849 -33.699  1.00  0.00    -0.028 A 
HETATM   40  C   UNL     1      -3.195  -4.156 -32.865  1.00  0.00     0.051 C 
HETATM   41  C   UNL     1      -4.982  -4.850 -34.493  1.00  0.00     0.009 A 
HETATM   42  C   UNL     1      -6.135  -4.591 -35.237  1.00  0.00     0.001 A 
HETATM   43  C   UNL     1      -6.735  -3.335 -35.180  1.00  0.00     0.003 A 
HETATM   44  C   UNL     1      -6.182  -2.333 -34.383  1.00  0.00     0.038 A 
ENDBRANCH  37  38
ENDBRANCH   9  37
TORSDOF 9
ENDMDL
MODEL 9
REMARK VINA RESULT:      -9.1      2.041      3.001
REMARK  9 active torsions:
REMARK  status: ('A' for Active; 'I' for Inactive)
REMARK    1  A    between atoms: C_9  and  O_10 
REMARK    2  A    between atoms: O_10  and  C_11 
REMARK    3  A    between atoms: C_22  and  C_23 
REMARK    4  A    between atoms: N_30  and  C_31 
REMARK    5  A    between atoms: C_31  and  C_32 
REMARK    6  A    between atoms: C_32  and  O_33 
REMARK    7  A    between atoms: O_33  and  C_34 
REMARK    8  A    between atoms: C_35  and  C_36 
REMARK    9  A    between atoms: C_36  and  C_37 
ROOT
HETATM    1  H   UNL     1      -6.494   8.170 -32.415  1.00  0.00     0.188 HD
HETATM    2  N   UNL     1      -6.969   7.276 -32.577  1.00  0.00    -0.282 NA
HETATM    3  C   UNL     1      -6.847   6.540 -31.510  1.00  0.00     0.155 C 
HETATM    4  N   UNL     1      -6.111   6.914 -30.408  1.00  0.00    -0.230 N 
HETATM    5  C   UNL     1      -6.057   6.119 -29.277  1.00  0.00     0.195 A 
HETATM    6  N   UNL     1      -6.700   5.029 -29.052  1.00  0.00    -0.183 NA
HETATM    7  N   UNL     1      -5.270   8.028 -30.370  1.00  0.00    -0.186 NA
HETATM    8  C   UNL     1      -4.488   8.059 -29.217  1.00  0.00     0.094 A 
HETATM    9  C   UNL     1      -3.474   8.901 -28.969  1.00  0.00     0.175 C 
HETATM   10  S   UNL     1      -4.912   6.764 -28.085  1.00  0.00    -0.035 SA
HETATM   11  C   UNL     1      -7.503   5.191 -31.390  1.00  0.00     0.082 C 
HETATM   12  C   UNL     1      -7.604   4.593 -30.004  1.00  0.00     0.283 C 
HETATM   13  O   UNL     1      -8.471   3.778 -29.718  1.00  0.00    -0.265 OA
HETATM   14  C   UNL     1      -7.922   4.599 -32.526  1.00  0.00     0.034 C 
HETATM   15  H   UNL     1      -4.704   8.179 -31.206  1.00  0.00     0.154 HD
ENDROOT
BRANCH  14  16
HETATM   16  C   UNL     1      -8.436   3.281 -32.722  1.00  0.00    -0.007 A 
HETATM   17  C   UNL     1      -9.789   2.928 -32.999  1.00  0.00     0.002 A 
HETATM   18  C   UNL     1      -9.826   1.543 -33.226  1.00  0.00     0.045 A 
HETATM   19  C   UNL     1     -10.990   3.669 -33.092  1.00  0.00     0.014 A 
HETATM   20  C   UNL     1     -11.031   0.897 -33.551  1.00  0.00     0.030 A 
HETATM   21  N   UNL     1      -8.535   1.075 -33.069  1.00  0.00    -0.353 N 
HETATM   22  C   UNL     1     -12.204   1.653 -33.630  1.00  0.00     0.002 A 
HETATM   23  C   UNL     1     -12.188   3.022 -33.403  1.00  0.00     0.001 A 
HETATM   24  C   UNL     1      -7.690   2.129 -32.800  1.00  0.00     0.103 A 
BRANCH  21  25
HETATM   25  C   UNL     1      -8.028  -0.277 -33.273  1.00  0.00     0.155 C 
BRANCH  25  26
HETATM   26  C   UNL     1      -7.545  -0.633 -34.680  1.00  0.00     0.196 C 
BRANCH  26  27
HETATM   27  O   UNL     1      -6.158  -0.964 -34.584  1.00  0.00    -0.349 OA
BRANCH  27  28
HETATM   28  C   UNL     1      -5.786  -2.277 -34.557  1.00  0.00     0.075 A 
HETATM   29  C   UNL     1      -4.536  -2.541 -33.961  1.00  0.00    -0.021 A 
HETATM   30  C   UNL     1      -4.089  -3.868 -33.860  1.00  0.00     0.010 A 
HETATM   31  C   UNL     1      -4.860  -4.916 -34.357  1.00  0.00     0.001 A 
HETATM   32  C   UNL     1      -6.088  -4.649 -34.956  1.00  0.00     0.003 A 
HETATM   33  C   UNL     1      -6.552  -3.334 -35.057  1.00  0.00     0.037 A 
BRANCH  29  34
HETATM   34  C   UNL     1      -3.667  -1.423 -33.418  1.00  0.00     0.067 C 
BRANCH  34  35
HETATM   35  C   UNL     1      -3.574  -1.296 -31.920  1.00  0.00    -0.032 C 
HETATM   36  C   UNL     1      -3.731  -0.193 -31.174  1.00  0.00     0.007 C 
ENDBRANCH  34  35
ENDBRANCH  29  34
ENDBRANCH  27  28
ENDBRANCH  26  27
ENDBRANCH  25  26
ENDBRANCH  21  25
ENDBRANCH  14  16
BRANCH   9  37
HETATM   37  O   UNL     1      -2.710   8.841 -27.826  1.00  0.00    -0.320 OA
BRANCH  37  38
HETATM   38  C   UNL     1      -1.343   8.739 -27.944  1.00  0.00     0.081 A 
HETATM   39  C   UNL     1      -0.561   9.553 -27.109  1.00  0.00    -0.028 A 
HETATM   40  C   UNL     1      -1.199  10.511 -26.144  1.00  0.00     0.051 C 
HETATM   41  C   UNL     1       0.834   9.424 -27.149  1.00  0.00     0.009 A 
HETATM   42  C   UNL     1       1.437   8.503 -28.009  1.00  0.00     0.001 A 
HETATM   43  C   UNL     1       0.652   7.691 -28.824  1.00  0.00     0.003 A 
HETATM   44  C   UNL     1      -0.738   7.797 -28.784  1.00  0.00     0.038 A 
ENDBRANCH  37  38
ENDBRANCH   9  37
TORSDOF 9
ENDMDL
MODEL 10
REMARK VINA RESULT:      -9.0      4.824      9.352
REMARK  9 active torsions:
REMARK  status: ('A' for Active; 'I' for Inactive)
REMARK    1  A    between atoms: C_9  and  O_10 
REMARK    2  A    between atoms: O_10  and  C_11 
REMARK    3  A    between atoms: C_22  and  C_23 
REMARK    4  A    between atoms: N_30  and  C_31 
REMARK    5  A    between atoms: C_31  and  C_32 
REMARK    6  A    between atoms: C_32  and  O_33 
REMARK    7  A    between atoms: O_33  and  C_34 
REMARK    8  A    between atoms: C_35  and  C_36 
REMARK    9  A    between atoms: C_36  and  C_37 
ROOT
HETATM    1  H   UNL     1     -11.344   1.687 -35.142  1.00  0.00     0.188 HD
HETATM    2  N   UNL     1     -10.492   1.146 -34.969  1.00  0.00    -0.282 NA
HETATM    3  C   UNL     1      -9.994   1.509 -33.822  1.00  0.00     0.155 C 
HETATM    4  N   UNL     1     -10.516   2.524 -33.053  1.00  0.00    -0.230 N 
HETATM    5  C   UNL     1      -9.982   2.837 -31.816  1.00  0.00     0.195 A 
HETATM    6  N   UNL     1      -9.040   2.225 -31.190  1.00  0.00    -0.183 NA
HETATM    7  N   UNL     1     -11.519   3.397 -33.485  1.00  0.00    -0.186 NA
HETATM    8  C   UNL     1     -11.715   4.454 -32.599  1.00  0.00     0.094 A 
HETATM    9  C   UNL     1     -12.479   5.535 -32.811  1.00  0.00     0.175 C 
HETATM   10  S   UNL     1     -10.745   4.282 -31.126  1.00  0.00    -0.035 SA
HETATM   11  C   UNL     1      -8.778   0.846 -33.232  1.00  0.00     0.082 C 
HETATM   12  C   UNL     1      -8.507   1.085 -31.763  1.00  0.00     0.283 C 
HETATM   13  O   UNL     1      -7.868   0.287 -31.090  1.00  0.00    -0.265 OA
HETATM   14  C   UNL     1      -8.003   0.117 -34.058  1.00  0.00     0.034 C 
HETATM   15  H   UNL     1     -11.425   3.730 -34.445  1.00  0.00     0.154 HD
ENDROOT
BRANCH  14  16
HETATM   16  C   UNL     1      -6.735  -0.491 -33.808  1.00  0.00    -0.007 A 
HETATM   17  C   UNL     1      -6.353  -1.826 -34.129  1.00  0.00     0.002 A 
HETATM   18  C   UNL     1      -4.994  -1.964 -33.808  1.00  0.00     0.045 A 
HETATM   19  C   UNL     1      -7.042  -2.931 -34.681  1.00  0.00     0.014 A 
HETATM   20  C   UNL     1      -4.318  -3.175 -34.039  1.00  0.00     0.030 A 
HETATM   21  N   UNL     1      -4.577  -0.753 -33.289  1.00  0.00    -0.353 N 
HETATM   22  C   UNL     1      -5.025  -4.253 -34.580  1.00  0.00     0.002 A 
HETATM   23  C   UNL     1      -6.371  -4.136 -34.897  1.00  0.00     0.001 A 
HETATM   24  C   UNL     1      -5.619   0.147 -33.321  1.00  0.00     0.103 A 
BRANCH  21  25
HETATM   25  C   UNL     1      -3.236  -0.355 -32.877  1.00  0.00     0.155 C 
BRANCH  25  26
HETATM   26  C   UNL     1      -3.121   0.483 -31.603  1.00  0.00     0.196 C 
BRANCH  26  27
HETATM   27  O   UNL     1      -2.931   1.842 -32.002  1.00  0.00    -0.349 OA
BRANCH  27  28
HETATM   28  C   UNL     1      -3.678   2.821 -31.413  1.00  0.00     0.075 A 
HETATM   29  C   UNL     1      -3.189   4.133 -31.571  1.00  0.00    -0.021 A 
HETATM   30  C   UNL     1      -3.912   5.207 -31.027  1.00  0.00     0.010 A 
HETATM   31  C   UNL     1      -5.093   4.982 -30.322  1.00  0.00     0.001 A 
HETATM   32  C   UNL     1      -5.563   3.682 -30.158  1.00  0.00     0.003 A 
HETATM   33  C   UNL     1      -4.860   2.603 -30.701  1.00  0.00     0.037 A 
BRANCH  29  34
HETATM   34  C   UNL     1      -1.903   4.414 -32.324  1.00  0.00     0.067 C 
BRANCH  34  35
HETATM   35  C   UNL     1      -1.995   5.334 -33.514  1.00  0.00    -0.032 C 
HETATM   36  C   UNL     1      -2.162   5.003 -34.802  1.00  0.00     0.007 C 
ENDBRANCH  34  35
ENDBRANCH  29  34
ENDBRANCH  27  28
ENDBRANCH  26  27
ENDBRANCH  25  26
ENDBRANCH  21  25
ENDBRANCH  14  16
BRANCH   9  37
HETATM   37  O   UNL     1     -12.586   6.569 -31.909  1.00  0.00    -0.320 OA
BRANCH  37  38
HETATM   38  C   UNL     1     -13.605   6.542 -30.984  1.00  0.00     0.081 A 
HETATM   39  C   UNL     1     -13.347   7.107 -29.725  1.00  0.00    -0.028 A 
HETATM   40  C   UNL     1     -12.004   7.696 -29.401  1.00  0.00     0.051 C 
HETATM   41  C   UNL     1     -14.383   7.165 -28.783  1.00  0.00     0.009 A 
HETATM   42  C   UNL     1     -15.650   6.663 -29.089  1.00  0.00     0.001 A 
HETATM   43  C   UNL     1     -15.899   6.116 -30.346  1.00  0.00     0.003 A 
HETATM   44  C   UNL     1     -14.882   6.066 -31.299  1.00  0.00     0.038 A 
ENDBRANCH  37  38
ENDBRANCH   9  37
TORSDOF 9
ENDMDL
