MODEL 1
REMARK VINA RESULT:     -10.2      0.000      0.000
REMARK  7 active torsions:
REMARK  status: ('A' for Active; 'I' for Inactive)
REMARK    1  A    between atoms: N_6  and  C_7 
REMARK    2  A    between atoms: C_9  and  N_10 
REMARK    3  A    between atoms: N_10  and  N_11 
REMARK    4  A    between atoms: C_12  and  C_13 
REMARK    5  A    between atoms: C_24  and  N_25 
REMARK    6  A    between atoms: N_25  and  C_26 
REMARK    7  A    between atoms: C_29  and  N_30 
ROOT
HETATM    1  C   UNL     1     -10.363   3.843 -33.909  1.00  0.00     0.756 A 
HETATM    2  N   UNL     1     -10.165   2.618 -34.354  1.00  0.00     0.133 NA
HETATM    3  C   UNL     1      -8.933   2.125 -34.246  1.00  0.00     0.774 A 
HETATM    4  N   UNL     1      -7.929   2.778 -33.679  1.00  0.00     0.133 NA
HETATM    5  C   UNL     1      -8.228   3.966 -33.176  1.00  0.00     0.758 A 
HETATM    6  N   UNL     1      -9.437   4.521 -33.248  1.00  0.00     0.131 NA
ENDROOT
BRANCH   3   7
HETATM    7  N   UNL     1      -8.647   0.835 -34.726  1.00  0.00    -0.105 N 
HETATM    8  H   UNL     1      -9.524   0.381 -34.976  1.00  0.00     0.208 HD
BRANCH   7   9
HETATM    9  N   UNL     1      -7.671   0.123 -34.090  1.00  0.00    -0.171 NA
HETATM   10  C   UNL     1      -6.758  -0.369 -34.864  1.00  0.00     0.153 C 
BRANCH  10  11
HETATM   11  C   UNL     1      -5.694  -1.173 -34.301  1.00  0.00     0.011 A 
HETATM   12  C   UNL     1      -5.469  -2.586 -34.393  1.00  0.00     0.004 A 
HETATM   13  C   UNL     1      -4.299  -2.870 -33.685  1.00  0.00     0.043 A 
HETATM   14  C   UNL     1      -6.142  -3.658 -35.021  1.00  0.00     0.014 A 
HETATM   15  C   UNL     1      -3.773  -4.163 -33.571  1.00  0.00     0.030 A 
HETATM   16  N   UNL     1      -3.828  -1.679 -33.184  1.00  0.00    -0.364 N 
HETATM   17  C   UNL     1      -4.460  -5.202 -34.204  1.00  0.00     0.002 A 
HETATM   18  C   UNL     1      -5.627  -4.956 -34.922  1.00  0.00     0.001 A 
HETATM   19  H   UNL     1      -2.984  -1.585 -32.633  1.00  0.00     0.165 HD
HETATM   20  C   UNL     1      -4.654  -0.651 -33.551  1.00  0.00     0.102 A 
ENDBRANCH  10  11
ENDBRANCH   7   9
ENDBRANCH   3   7
BRANCH   1  21
HETATM   21  N   UNL     1     -11.611   4.431 -34.124  1.00  0.00    -0.210 N 
HETATM   22  C   UNL     1     -12.377   4.791 -32.926  1.00  0.00     0.169 C 
HETATM   23  C   UNL     1     -13.122   3.559 -32.371  1.00  0.00     0.254 C 
HETATM   24  N   UNL     1     -13.975   2.914 -33.473  1.00  0.00    -0.072 N 
HETATM   25  C   UNL     1     -14.738   1.729 -32.968  1.00  0.00     0.269 C 
HETATM   26  H   UNL     1     -14.661   3.620 -33.769  1.00  0.00     0.279 HD
HETATM   27  C   UNL     1     -13.132   2.573 -34.715  1.00  0.00     0.254 C 
HETATM   28  C   UNL     1     -12.399   3.838 -35.215  1.00  0.00     0.169 C 
ENDBRANCH   1  21
BRANCH   5  29
HETATM   29  N   UNL     1      -7.173   4.654 -32.578  1.00  0.00    -0.187 N 
HETATM   30  H   UNL     1      -7.472   5.074 -31.707  1.00  0.00     0.184 HD
BRANCH  29  31
HETATM   31  C   UNL     1      -5.937   5.081 -33.076  1.00  0.00     0.049 A 
HETATM   32  C   UNL     1      -5.425   4.652 -34.308  1.00  0.00     0.032 A 
HETATM   33  C   UNL     1      -4.172   5.077 -34.761  1.00  0.00     0.038 A 
HETATM   34  C   UNL     1      -3.401   5.925 -33.960  1.00  0.00     0.103 A 
HETATM   35  C   UNL     1      -3.880   6.350 -32.717  1.00  0.00     0.038 A 
HETATM   36  C   UNL     1      -5.141   5.924 -32.285  1.00  0.00     0.032 A 
BRANCH  34  37
HETATM   37  N   UNL     1      -2.083   6.368 -34.431  1.00  0.00    -0.116 N 
HETATM   38  O   UNL     1      -1.710   7.502 -34.096  1.00  0.00    -0.532 OA
HETATM   39  O   UNL     1      -1.430   5.589 -35.136  1.00  0.00    -0.532 OA
ENDBRANCH  34  37
ENDBRANCH  29  31
ENDBRANCH   5  29
TORSDOF 7
ENDMDL
MODEL 2
REMARK VINA RESULT:     -10.1      2.510      6.583
REMARK  7 active torsions:
REMARK  status: ('A' for Active; 'I' for Inactive)
REMARK    1  A    between atoms: N_6  and  C_7 
REMARK    2  A    between atoms: C_9  and  N_10 
REMARK    3  A    between atoms: N_10  and  N_11 
REMARK    4  A    between atoms: C_12  and  C_13 
REMARK    5  A    between atoms: C_24  and  N_25 
REMARK    6  A    between atoms: N_25  and  C_26 
REMARK    7  A    between atoms: C_29  and  N_30 
ROOT
HETATM    1  C   UNL     1     -10.708   2.590 -34.542  1.00  0.00     0.756 A 
HETATM    2  N   UNL     1     -10.037   3.716 -34.399  1.00  0.00     0.133 NA
HETATM    3  C   UNL     1      -8.870   3.650 -33.761  1.00  0.00     0.774 A 
HETATM    4  N   UNL     1      -8.341   2.519 -33.316  1.00  0.00     0.133 NA
HETATM    5  C   UNL     1      -9.031   1.420 -33.578  1.00  0.00     0.758 A 
HETATM    6  N   UNL     1     -10.204   1.412 -34.209  1.00  0.00     0.131 NA
ENDROOT
BRANCH   3   7
HETATM    7  N   UNL     1      -8.117   4.818 -33.551  1.00  0.00    -0.105 N 
HETATM    8  H   UNL     1      -8.734   5.623 -33.640  1.00  0.00     0.208 HD
BRANCH   7   9
HETATM    9  N   UNL     1      -6.859   4.865 -34.079  1.00  0.00    -0.171 NA
HETATM   10  C   UNL     1      -5.979   5.471 -33.349  1.00  0.00     0.153 C 
BRANCH  10  11
HETATM   11  C   UNL     1      -4.620   5.614 -33.828  1.00  0.00     0.011 A 
HETATM   12  C   UNL     1      -3.500   6.271 -33.220  1.00  0.00     0.004 A 
HETATM   13  C   UNL     1      -2.409   6.117 -34.078  1.00  0.00     0.043 A 
HETATM   14  C   UNL     1      -3.301   6.976 -32.012  1.00  0.00     0.014 A 
HETATM   15  C   UNL     1      -1.138   6.632 -33.793  1.00  0.00     0.030 A 
HETATM   16  N   UNL     1      -2.844   5.394 -35.164  1.00  0.00    -0.364 N 
HETATM   17  C   UNL     1      -0.972   7.324 -32.591  1.00  0.00     0.002 A 
HETATM   18  C   UNL     1      -2.036   7.494 -31.709  1.00  0.00     0.001 A 
HETATM   19  H   UNL     1      -2.258   5.127 -35.944  1.00  0.00     0.165 HD
HETATM   20  C   UNL     1      -4.170   5.080 -35.023  1.00  0.00     0.102 A 
ENDBRANCH  10  11
ENDBRANCH   7   9
ENDBRANCH   3   7
BRANCH   1  21
HETATM   21  N   UNL     1     -11.990   2.650 -35.093  1.00  0.00    -0.210 N 
HETATM   22  C   UNL     1     -12.741   3.888 -34.859  1.00  0.00     0.169 C 
HETATM   23  C   UNL     1     -13.407   3.862 -33.468  1.00  0.00     0.254 C 
HETATM   24  N   UNL     1     -14.255   2.591 -33.309  1.00  0.00    -0.072 N 
HETATM   25  C   UNL     1     -14.942   2.541 -31.980  1.00  0.00     0.269 C 
HETATM   26  H   UNL     1     -14.984   2.628 -34.032  1.00  0.00     0.279 HD
HETATM   27  C   UNL     1     -13.428   1.321 -33.582  1.00  0.00     0.254 C 
HETATM   28  C   UNL     1     -12.775   1.412 -34.979  1.00  0.00     0.169 C 
ENDBRANCH   1  21
BRANCH   5  29
HETATM   29  N   UNL     1      -8.475   0.230 -33.111  1.00  0.00    -0.187 N 
HETATM   30  H   UNL     1      -9.195  -0.375 -32.737  1.00  0.00     0.184 HD
BRANCH  29  31
HETATM   31  C   UNL     1      -7.154  -0.132 -32.821  1.00  0.00     0.049 A 
HETATM   32  C   UNL     1      -6.311  -0.743 -33.759  1.00  0.00     0.032 A 
HETATM   33  C   UNL     1      -5.006  -1.117 -33.426  1.00  0.00     0.038 A 
HETATM   34  C   UNL     1      -4.539  -0.905 -32.124  1.00  0.00     0.103 A 
HETATM   35  C   UNL     1      -5.369  -0.318 -31.164  1.00  0.00     0.038 A 
HETATM   36  C   UNL     1      -6.668   0.062 -31.519  1.00  0.00     0.032 A 
BRANCH  34  37
HETATM   37  N   UNL     1      -3.171  -1.303 -31.771  1.00  0.00    -0.116 N 
HETATM   38  O   UNL     1      -2.895  -2.510 -31.829  1.00  0.00    -0.532 OA
HETATM   39  O   UNL     1      -2.380  -0.413 -31.432  1.00  0.00    -0.532 OA
ENDBRANCH  34  37
ENDBRANCH  29  31
ENDBRANCH   5  29
TORSDOF 7
ENDMDL
MODEL 3
REMARK VINA RESULT:     -10.1      3.646      7.139
REMARK  7 active torsions:
REMARK  status: ('A' for Active; 'I' for Inactive)
REMARK    1  A    between atoms: N_6  and  C_7 
REMARK    2  A    between atoms: C_9  and  N_10 
REMARK    3  A    between atoms: N_10  and  N_11 
REMARK    4  A    between atoms: C_12  and  C_13 
REMARK    5  A    between atoms: C_24  and  N_25 
REMARK    6  A    between atoms: N_25  and  C_26 
REMARK    7  A    between atoms: C_29  and  N_30 
ROOT
HETATM    1  C   UNL     1      -5.105   3.774 -31.384  1.00  0.00     0.756 A 
HETATM    2  N   UNL     1      -4.245   2.777 -31.308  1.00  0.00     0.133 NA
HETATM    3  C   UNL     1      -4.733   1.578 -30.996  1.00  0.00     0.774 A 
HETATM    4  N   UNL     1      -6.023   1.336 -30.812  1.00  0.00     0.133 NA
HETATM    5  C   UNL     1      -6.832   2.369 -30.994  1.00  0.00     0.758 A 
HETATM    6  N   UNL     1      -6.414   3.594 -31.305  1.00  0.00     0.131 NA
ENDROOT
BRANCH   3   7
HETATM    7  N   UNL     1      -3.867   0.477 -30.872  1.00  0.00    -0.105 N 
HETATM    8  H   UNL     1      -2.912   0.797 -31.023  1.00  0.00     0.208 HD
BRANCH   7   9
HETATM    9  N   UNL     1      -4.275  -0.714 -31.398  1.00  0.00    -0.171 NA
HETATM   10  C   UNL     1      -3.365  -1.371 -32.042  1.00  0.00     0.153 C 
BRANCH  10  11
HETATM   11  C   UNL     1      -3.698  -2.630 -32.674  1.00  0.00     0.011 A 
HETATM   12  C   UNL     1      -4.743  -2.937 -33.607  1.00  0.00     0.004 A 
HETATM   13  C   UNL     1      -4.634  -4.293 -33.925  1.00  0.00     0.043 A 
HETATM   14  C   UNL     1      -5.770  -2.190 -34.226  1.00  0.00     0.014 A 
HETATM   15  C   UNL     1      -5.497  -4.935 -34.822  1.00  0.00     0.030 A 
HETATM   16  N   UNL     1      -3.566  -4.792 -33.218  1.00  0.00    -0.364 N 
HETATM   17  C   UNL     1      -6.503  -4.170 -35.418  1.00  0.00     0.002 A 
HETATM   18  C   UNL     1      -6.639  -2.816 -35.128  1.00  0.00     0.001 A 
HETATM   19  H   UNL     1      -3.251  -5.752 -33.262  1.00  0.00     0.165 HD
HETATM   20  C   UNL     1      -2.991  -3.802 -32.467  1.00  0.00     0.102 A 
ENDBRANCH  10  11
ENDBRANCH   7   9
ENDBRANCH   3   7
BRANCH   1  21
HETATM   21  N   UNL     1      -4.606   5.063 -31.583  1.00  0.00    -0.210 N 
HETATM   22  C   UNL     1      -5.069   5.761 -32.787  1.00  0.00     0.169 C 
HETATM   23  C   UNL     1      -4.247   5.321 -34.016  1.00  0.00     0.254 C 
HETATM   24  N   UNL     1      -2.746   5.499 -33.742  1.00  0.00    -0.072 N 
HETATM   25  C   UNL     1      -1.913   5.108 -34.923  1.00  0.00     0.269 C 
HETATM   26  H   UNL     1      -2.592   6.501 -33.573  1.00  0.00     0.279 HD
HETATM   27  C   UNL     1      -2.314   4.765 -32.460  1.00  0.00     0.254 C 
HETATM   28  C   UNL     1      -3.180   5.234 -31.270  1.00  0.00     0.169 C 
ENDBRANCH   1  21
BRANCH   5  29
HETATM   29  N   UNL     1      -8.190   2.115 -30.801  1.00  0.00    -0.187 N 
HETATM   30  H   UNL     1      -8.377   1.912 -29.828  1.00  0.00     0.184 HD
BRANCH  29  31
HETATM   31  C   UNL     1      -9.222   1.827 -31.701  1.00  0.00     0.049 A 
HETATM   32  C   UNL     1      -9.432   0.547 -32.231  1.00  0.00     0.032 A 
HETATM   33  C   UNL     1     -10.457   0.301 -33.150  1.00  0.00     0.038 A 
HETATM   34  C   UNL     1     -11.272   1.357 -33.572  1.00  0.00     0.103 A 
HETATM   35  C   UNL     1     -11.068   2.648 -33.075  1.00  0.00     0.038 A 
HETATM   36  C   UNL     1     -10.045   2.873 -32.146  1.00  0.00     0.032 A 
BRANCH  34  37
HETATM   37  N   UNL     1     -12.344   1.102 -34.541  1.00  0.00    -0.116 N 
HETATM   38  O   UNL     1     -13.210   0.272 -34.229  1.00  0.00    -0.532 OA
HETATM   39  O   UNL     1     -12.316   1.725 -35.611  1.00  0.00    -0.532 OA
ENDBRANCH  34  37
ENDBRANCH  29  31
ENDBRANCH   5  29
TORSDOF 7
ENDMDL
MODEL 4
REMARK VINA RESULT:     -10.0      3.532      7.821
REMARK  7 active torsions:
REMARK  status: ('A' for Active; 'I' for Inactive)
REMARK    1  A    between atoms: N_6  and  C_7 
REMARK    2  A    between atoms: C_9  and  N_10 
REMARK    3  A    between atoms: N_10  and  N_11 
REMARK    4  A    between atoms: C_12  and  C_13 
REMARK    5  A    between atoms: C_24  and  N_25 
REMARK    6  A    between atoms: N_25  and  C_26 
REMARK    7  A    between atoms: C_29  and  N_30 
ROOT
HETATM    1  C   UNL     1      -8.367   2.704 -32.952  1.00  0.00     0.756 A 
HETATM    2  N   UNL     1      -7.978   3.926 -33.259  1.00  0.00     0.133 NA
HETATM    3  C   UNL     1      -6.690   4.097 -33.550  1.00  0.00     0.774 A 
HETATM    4  N   UNL     1      -5.810   3.107 -33.592  1.00  0.00     0.133 NA
HETATM    5  C   UNL     1      -6.296   1.897 -33.360  1.00  0.00     0.758 A 
HETATM    6  N   UNL     1      -7.570   1.653 -33.062  1.00  0.00     0.131 NA
ENDROOT
BRANCH   3   7
HETATM    7  N   UNL     1      -6.204   5.379 -33.860  1.00  0.00    -0.105 N 
HETATM    8  H   UNL     1      -6.794   5.783 -34.585  1.00  0.00     0.208 HD
BRANCH   7   9
HETATM    9  N   UNL     1      -4.850   5.549 -33.912  1.00  0.00    -0.171 NA
HETATM   10  C   UNL     1      -4.343   6.223 -32.931  1.00  0.00     0.153 C 
BRANCH  10  11
HETATM   11  C   UNL     1      -2.921   6.495 -32.904  1.00  0.00     0.011 A 
HETATM   12  C   UNL     1      -2.027   6.579 -31.786  1.00  0.00     0.004 A 
HETATM   13  C   UNL     1      -0.753   6.853 -32.290  1.00  0.00     0.043 A 
HETATM   14  C   UNL     1      -2.172   6.436 -30.388  1.00  0.00     0.014 A 
HETATM   15  C   UNL     1       0.374   6.996 -31.471  1.00  0.00     0.030 A 
HETATM   16  N   UNL     1      -0.865   6.932 -33.658  1.00  0.00    -0.364 N 
HETATM   17  C   UNL     1       0.199   6.848 -30.092  1.00  0.00     0.002 A 
HETATM   18  C   UNL     1      -1.055   6.571 -29.555  1.00  0.00     0.001 A 
HETATM   19  H   UNL     1      -0.092   7.114 -34.284  1.00  0.00     0.165 HD
HETATM   20  C   UNL     1      -2.161   6.713 -34.040  1.00  0.00     0.102 A 
ENDBRANCH  10  11
ENDBRANCH   7   9
ENDBRANCH   3   7
BRANCH   1  21
HETATM   21  N   UNL     1      -9.682   2.518 -32.520  1.00  0.00    -0.210 N 
HETATM   22  C   UNL     1     -10.358   1.306 -32.993  1.00  0.00     0.169 C 
HETATM   23  C   UNL     1     -10.921   1.521 -34.413  1.00  0.00     0.254 C 
HETATM   24  N   UNL     1     -11.812   2.772 -34.447  1.00  0.00    -0.072 N 
HETATM   25  C   UNL     1     -12.401   3.001 -35.804  1.00  0.00     0.269 C 
HETATM   26  H   UNL     1     -12.589   2.601 -33.797  1.00  0.00     0.279 HD
HETATM   27  C   UNL     1     -11.065   4.012 -33.923  1.00  0.00     0.254 C 
HETATM   28  C   UNL     1     -10.512   3.732 -32.509  1.00  0.00     0.169 C 
ENDBRANCH   1  21
BRANCH   5  29
HETATM   29  N   UNL     1      -5.371   0.855 -33.405  1.00  0.00    -0.187 N 
HETATM   30  H   UNL     1      -4.429   1.213 -33.315  1.00  0.00     0.184 HD
BRANCH  29  31
HETATM   31  C   UNL     1      -5.487  -0.479 -33.814  1.00  0.00     0.049 A 
HETATM   32  C   UNL     1      -6.657  -1.000 -34.380  1.00  0.00     0.032 A 
HETATM   33  C   UNL     1      -6.747  -2.346 -34.751  1.00  0.00     0.038 A 
HETATM   34  C   UNL     1      -5.659  -3.196 -34.528  1.00  0.00     0.103 A 
HETATM   35  C   UNL     1      -4.487  -2.704 -33.944  1.00  0.00     0.038 A 
HETATM   36  C   UNL     1      -4.411  -1.352 -33.591  1.00  0.00     0.032 A 
BRANCH  34  37
HETATM   37  N   UNL     1      -5.753  -4.609 -34.911  1.00  0.00    -0.116 N 
HETATM   38  O   UNL     1      -4.920  -5.389 -34.425  1.00  0.00    -0.532 OA
HETATM   39  O   UNL     1      -6.650  -4.936 -35.698  1.00  0.00    -0.532 OA
ENDBRANCH  34  37
ENDBRANCH  29  31
ENDBRANCH   5  29
TORSDOF 7
ENDMDL
MODEL 5
REMARK VINA RESULT:     -10.0      3.645      5.473
REMARK  7 active torsions:
REMARK  status: ('A' for Active; 'I' for Inactive)
REMARK    1  A    between atoms: N_6  and  C_7 
REMARK    2  A    between atoms: C_9  and  N_10 
REMARK    3  A    between atoms: N_10  and  N_11 
REMARK    4  A    between atoms: C_12  and  C_13 
REMARK    5  A    between atoms: C_24  and  N_25 
REMARK    6  A    between atoms: N_25  and  C_26 
REMARK    7  A    between atoms: C_29  and  N_30 
ROOT
HETATM    1  C   UNL     1      -5.022   4.326 -31.470  1.00  0.00     0.756 A 
HETATM    2  N   UNL     1      -4.890   3.017 -31.383  1.00  0.00     0.133 NA
HETATM    3  C   UNL     1      -3.651   2.530 -31.403  1.00  0.00     0.774 A 
HETATM    4  N   UNL     1      -2.565   3.288 -31.455  1.00  0.00     0.133 NA
HETATM    5  C   UNL     1      -2.777   4.595 -31.449  1.00  0.00     0.758 A 
HETATM    6  N   UNL     1      -3.987   5.151 -31.432  1.00  0.00     0.131 NA
ENDROOT
BRANCH   3   7
HETATM    7  N   UNL     1      -3.441   1.141 -31.341  1.00  0.00    -0.105 N 
HETATM    8  H   UNL     1      -2.456   0.954 -31.519  1.00  0.00     0.208 HD
BRANCH   7   9
HETATM    9  N   UNL     1      -4.395   0.330 -31.884  1.00  0.00    -0.171 NA
HETATM   10  C   UNL     1      -4.087  -0.192 -33.027  1.00  0.00     0.153 C 
BRANCH  10  11
HETATM   11  C   UNL     1      -5.041  -1.039 -33.712  1.00  0.00     0.011 A 
HETATM   12  C   UNL     1      -4.978  -2.444 -33.995  1.00  0.00     0.004 A 
HETATM   13  C   UNL     1      -6.153  -2.787 -34.668  1.00  0.00     0.043 A 
HETATM   14  C   UNL     1      -4.040  -3.467 -33.732  1.00  0.00     0.014 A 
HETATM   15  C   UNL     1      -6.432  -4.091 -35.094  1.00  0.00     0.030 A 
HETATM   16  N   UNL     1      -6.901  -1.640 -34.790  1.00  0.00    -0.364 N 
HETATM   17  C   UNL     1      -5.485  -5.082 -34.819  1.00  0.00     0.002 A 
HETATM   18  C   UNL     1      -4.305  -4.777 -34.146  1.00  0.00     0.001 A 
HETATM   19  H   UNL     1      -7.810  -1.596 -35.234  1.00  0.00     0.165 HD
HETATM   20  C   UNL     1      -6.247  -0.584 -34.215  1.00  0.00     0.102 A 
ENDBRANCH  10  11
ENDBRANCH   7   9
ENDBRANCH   3   7
BRANCH   1  21
HETATM   21  N   UNL     1      -6.310   4.855 -31.580  1.00  0.00    -0.210 N 
HETATM   22  C   UNL     1      -7.378   4.114 -30.901  1.00  0.00     0.169 C 
HETATM   23  C   UNL     1      -7.855   2.933 -31.771  1.00  0.00     0.254 C 
HETATM   24  N   UNL     1      -8.248   3.431 -33.170  1.00  0.00    -0.072 N 
HETATM   25  C   UNL     1      -8.744   2.317 -34.040  1.00  0.00     0.269 C 
HETATM   26  H   UNL     1      -9.024   4.092 -33.043  1.00  0.00     0.279 HD
HETATM   27  C   UNL     1      -7.103   4.218 -33.834  1.00  0.00     0.254 C 
HETATM   28  C   UNL     1      -6.658   5.374 -32.911  1.00  0.00     0.169 C 
ENDBRANCH   1  21
BRANCH   5  29
HETATM   29  N   UNL     1      -1.636   5.394 -31.504  1.00  0.00    -0.187 N 
HETATM   30  H   UNL     1      -1.214   5.346 -32.422  1.00  0.00     0.184 HD
BRANCH  29  31
HETATM   31  C   UNL     1      -0.860   5.982 -30.499  1.00  0.00     0.049 A 
HETATM   32  C   UNL     1       0.062   5.259 -29.730  1.00  0.00     0.032 A 
HETATM   33  C   UNL     1       0.800   5.874 -28.713  1.00  0.00     0.038 A 
HETATM   34  C   UNL     1       0.596   7.230 -28.438  1.00  0.00     0.103 A 
HETATM   35  C   UNL     1      -0.334   7.968 -29.176  1.00  0.00     0.038 A 
HETATM   36  C   UNL     1      -1.055   7.339 -30.198  1.00  0.00     0.032 A 
BRANCH  34  37
HETATM   37  N   UNL     1       1.365   7.876 -27.368  1.00  0.00    -0.116 N 
HETATM   38  O   UNL     1       1.358   7.334 -26.254  1.00  0.00    -0.532 OA
HETATM   39  O   UNL     1       1.968   8.922 -27.640  1.00  0.00    -0.532 OA
ENDBRANCH  34  37
ENDBRANCH  29  31
ENDBRANCH   5  29
TORSDOF 7
ENDMDL
MODEL 6
REMARK VINA RESULT:      -9.9      3.549      8.732
REMARK  7 active torsions:
REMARK  status: ('A' for Active; 'I' for Inactive)
REMARK    1  A    between atoms: N_6  and  C_7 
REMARK    2  A    between atoms: C_9  and  N_10 
REMARK    3  A    between atoms: N_10  and  N_11 
REMARK    4  A    between atoms: C_12  and  C_13 
REMARK    5  A    between atoms: C_24  and  N_25 
REMARK    6  A    between atoms: N_25  and  C_26 
REMARK    7  A    between atoms: C_29  and  N_30 
ROOT
HETATM    1  C   UNL     1      -2.127   4.874 -32.303  1.00  0.00     0.756 A 
HETATM    2  N   UNL     1      -3.096   5.441 -32.994  1.00  0.00     0.133 NA
HETATM    3  C   UNL     1      -4.230   4.755 -33.125  1.00  0.00     0.774 A 
HETATM    4  N   UNL     1      -4.441   3.574 -32.562  1.00  0.00     0.133 NA
HETATM    5  C   UNL     1      -3.453   3.112 -31.810  1.00  0.00     0.758 A 
HETATM    6  N   UNL     1      -2.294   3.743 -31.637  1.00  0.00     0.131 NA
ENDROOT
BRANCH   3   7
HETATM    7  N   UNL     1      -5.294   5.290 -33.872  1.00  0.00    -0.105 N 
HETATM    8  H   UNL     1      -5.505   6.220 -33.515  1.00  0.00     0.208 HD
BRANCH   7   9
HETATM    9  N   UNL     1      -6.311   4.449 -34.220  1.00  0.00    -0.171 NA
HETATM   10  C   UNL     1      -7.419   4.630 -33.577  1.00  0.00     0.153 C 
BRANCH  10  11
HETATM   11  C   UNL     1      -8.553   3.769 -33.839  1.00  0.00     0.011 A 
HETATM   12  C   UNL     1      -8.841   2.458 -33.336  1.00  0.00     0.004 A 
HETATM   13  C   UNL     1     -10.064   2.061 -33.881  1.00  0.00     0.043 A 
HETATM   14  C   UNL     1      -8.186   1.568 -32.455  1.00  0.00     0.014 A 
HETATM   15  C   UNL     1     -10.658   0.825 -33.596  1.00  0.00     0.030 A 
HETATM   16  N   UNL     1     -10.504   3.087 -34.683  1.00  0.00    -0.364 N 
HETATM   17  C   UNL     1      -9.987  -0.033 -32.721  1.00  0.00     0.002 A 
HETATM   18  C   UNL     1      -8.768   0.331 -32.155  1.00  0.00     0.001 A 
HETATM   19  H   UNL     1     -11.373   3.074 -35.201  1.00  0.00     0.165 HD
HETATM   20  C   UNL     1      -9.608   4.122 -34.662  1.00  0.00     0.102 A 
ENDBRANCH  10  11
ENDBRANCH   7   9
ENDBRANCH   3   7
BRANCH   1  21
HETATM   21  N   UNL     1      -0.886   5.514 -32.258  1.00  0.00    -0.210 N 
HETATM   22  C   UNL     1       0.000   5.137 -31.152  1.00  0.00     0.169 C 
HETATM   23  C   UNL     1      -0.376   5.910 -29.871  1.00  0.00     0.254 C 
HETATM   24  N   UNL     1      -0.399   7.421 -30.151  1.00  0.00    -0.072 N 
HETATM   25  C   UNL     1      -0.733   8.211 -28.924  1.00  0.00     0.269 C 
HETATM   26  H   UNL     1       0.551   7.684 -30.439  1.00  0.00     0.279 HD
HETATM   27  C   UNL     1      -1.327   7.763 -31.331  1.00  0.00     0.254 C 
HETATM   28  C   UNL     1      -0.913   6.949 -32.576  1.00  0.00     0.169 C 
ENDBRANCH   1  21
BRANCH   5  29
HETATM   29  N   UNL     1      -3.675   1.869 -31.217  1.00  0.00    -0.187 N 
HETATM   30  H   UNL     1      -3.536   1.925 -30.216  1.00  0.00     0.184 HD
BRANCH  29  31
HETATM   31  C   UNL     1      -3.764   0.581 -31.756  1.00  0.00     0.049 A 
HETATM   32  C   UNL     1      -2.896  -0.457 -31.392  1.00  0.00     0.032 A 
HETATM   33  C   UNL     1      -2.996  -1.725 -31.973  1.00  0.00     0.038 A 
HETATM   34  C   UNL     1      -3.963  -1.957 -32.956  1.00  0.00     0.103 A 
HETATM   35  C   UNL     1      -4.827  -0.932 -33.354  1.00  0.00     0.038 A 
HETATM   36  C   UNL     1      -4.719   0.328 -32.752  1.00  0.00     0.032 A 
BRANCH  34  37
HETATM   37  N   UNL     1      -4.066  -3.286 -33.571  1.00  0.00    -0.116 N 
HETATM   38  O   UNL     1      -4.857  -3.416 -34.517  1.00  0.00    -0.532 OA
HETATM   39  O   UNL     1      -3.366  -4.194 -33.107  1.00  0.00    -0.532 OA
ENDBRANCH  34  37
ENDBRANCH  29  31
ENDBRANCH   5  29
TORSDOF 7
ENDMDL
MODEL 7
REMARK VINA RESULT:      -9.7      3.733      8.791
REMARK  7 active torsions:
REMARK  status: ('A' for Active; 'I' for Inactive)
REMARK    1  A    between atoms: N_6  and  C_7 
REMARK    2  A    between atoms: C_9  and  N_10 
REMARK    3  A    between atoms: N_10  and  N_11 
REMARK    4  A    between atoms: C_12  and  C_13 
REMARK    5  A    between atoms: C_24  and  N_25 
REMARK    6  A    between atoms: N_25  and  C_26 
REMARK    7  A    between atoms: C_29  and  N_30 
ROOT
HETATM    1  C   UNL     1      -3.524   3.829 -31.546  1.00  0.00     0.756 A 
HETATM    2  N   UNL     1      -4.682   3.968 -30.931  1.00  0.00     0.133 NA
HETATM    3  C   UNL     1      -5.299   2.855 -30.539  1.00  0.00     0.774 A 
HETATM    4  N   UNL     1      -4.788   1.641 -30.691  1.00  0.00     0.133 NA
HETATM    5  C   UNL     1      -3.582   1.590 -31.235  1.00  0.00     0.758 A 
HETATM    6  N   UNL     1      -2.909   2.662 -31.651  1.00  0.00     0.131 NA
ENDROOT
BRANCH   3   7
HETATM    7  N   UNL     1      -6.550   2.931 -29.901  1.00  0.00    -0.105 N 
HETATM    8  H   UNL     1      -6.399   2.960 -28.895  1.00  0.00     0.208 HD
BRANCH   7   9
HETATM    9  N   UNL     1      -7.570   2.182 -30.415  1.00  0.00    -0.171 NA
HETATM   10  C   UNL     1      -7.939   2.505 -31.612  1.00  0.00     0.153 C 
BRANCH  10  11
HETATM   11  C   UNL     1      -9.037   1.801 -32.241  1.00  0.00     0.011 A 
HETATM   12  C   UNL     1      -9.959   2.253 -33.242  1.00  0.00     0.004 A 
HETATM   13  C   UNL     1     -10.824   1.193 -33.522  1.00  0.00     0.043 A 
HETATM   14  C   UNL     1     -10.138   3.462 -33.951  1.00  0.00     0.014 A 
HETATM   15  C   UNL     1     -11.855   1.282 -34.466  1.00  0.00     0.030 A 
HETATM   16  N   UNL     1     -10.445   0.138 -32.727  1.00  0.00    -0.364 N 
HETATM   17  C   UNL     1     -12.006   2.489 -35.152  1.00  0.00     0.002 A 
HETATM   18  C   UNL     1     -11.160   3.566 -34.902  1.00  0.00     0.001 A 
HETATM   19  H   UNL     1     -10.896  -0.768 -32.727  1.00  0.00     0.165 HD
HETATM   20  C   UNL     1      -9.369   0.488 -31.956  1.00  0.00     0.102 A 
ENDBRANCH  10  11
ENDBRANCH   7   9
ENDBRANCH   3   7
BRANCH   1  21
HETATM   21  N   UNL     1      -2.918   4.968 -32.080  1.00  0.00    -0.210 N 
HETATM   22  C   UNL     1      -1.464   4.907 -32.261  1.00  0.00     0.169 C 
HETATM   23  C   UNL     1      -0.741   5.220 -30.935  1.00  0.00     0.254 C 
HETATM   24  N   UNL     1      -1.232   6.559 -30.366  1.00  0.00    -0.072 N 
HETATM   25  C   UNL     1      -0.533   6.914 -29.090  1.00  0.00     0.269 C 
HETATM   26  H   UNL     1      -0.997   7.281 -31.058  1.00  0.00     0.279 HD
HETATM   27  C   UNL     1      -2.764   6.581 -30.212  1.00  0.00     0.254 C 
HETATM   28  C   UNL     1      -3.431   6.246 -31.564  1.00  0.00     0.169 C 
ENDBRANCH   1  21
BRANCH   5  29
HETATM   29  N   UNL     1      -3.043   0.314 -31.396  1.00  0.00    -0.187 N 
HETATM   30  H   UNL     1      -2.075   0.299 -31.103  1.00  0.00     0.184 HD
BRANCH  29  31
HETATM   31  C   UNL     1      -3.488  -0.803 -32.112  1.00  0.00     0.049 A 
HETATM   32  C   UNL     1      -3.036  -2.102 -31.849  1.00  0.00     0.032 A 
HETATM   33  C   UNL     1      -3.480  -3.192 -32.604  1.00  0.00     0.038 A 
HETATM   34  C   UNL     1      -4.373  -2.980 -33.660  1.00  0.00     0.103 A 
HETATM   35  C   UNL     1      -4.822  -1.690 -33.957  1.00  0.00     0.038 A 
HETATM   36  C   UNL     1      -4.375  -0.613 -33.183  1.00  0.00     0.032 A 
BRANCH  34  37
HETATM   37  N   UNL     1      -4.836  -4.122 -34.458  1.00  0.00    -0.116 N 
HETATM   38  O   UNL     1      -4.401  -5.243 -34.156  1.00  0.00    -0.532 OA
HETATM   39  O   UNL     1      -5.626  -3.897 -35.384  1.00  0.00    -0.532 OA
ENDBRANCH  34  37
ENDBRANCH  29  31
ENDBRANCH   5  29
TORSDOF 7
ENDMDL
MODEL 8
REMARK VINA RESULT:      -9.6      3.238      8.543
REMARK  7 active torsions:
REMARK  status: ('A' for Active; 'I' for Inactive)
REMARK    1  A    between atoms: N_6  and  C_7 
REMARK    2  A    between atoms: C_9  and  N_10 
REMARK    3  A    between atoms: N_10  and  N_11 
REMARK    4  A    between atoms: C_12  and  C_13 
REMARK    5  A    between atoms: C_24  and  N_25 
REMARK    6  A    between atoms: N_25  and  C_26 
REMARK    7  A    between atoms: C_29  and  N_30 
ROOT
HETATM    1  C   UNL     1      -4.637   4.413 -33.479  1.00  0.00     0.756 A 
HETATM    2  N   UNL     1      -5.605   5.282 -33.692  1.00  0.00     0.133 NA
HETATM    3  C   UNL     1      -6.854   4.848 -33.537  1.00  0.00     0.774 A 
HETATM    4  N   UNL     1      -7.160   3.622 -33.138  1.00  0.00     0.133 NA
HETATM    5  C   UNL     1      -6.132   2.836 -32.857  1.00  0.00     0.758 A 
HETATM    6  N   UNL     1      -4.859   3.203 -32.991  1.00  0.00     0.131 NA
ENDROOT
BRANCH   3   7
HETATM    7  N   UNL     1      -7.935   5.716 -33.775  1.00  0.00    -0.105 N 
HETATM    8  H   UNL     1      -7.728   6.616 -33.346  1.00  0.00     0.208 HD
BRANCH   7   9
HETATM    9  N   UNL     1      -9.195   5.197 -33.693  1.00  0.00    -0.171 NA
HETATM   10  C   UNL     1      -9.672   4.735 -34.804  1.00  0.00     0.153 C 
BRANCH  10  11
HETATM   11  C   UNL     1     -11.015   4.195 -34.841  1.00  0.00     0.011 A 
HETATM   12  C   UNL     1     -11.490   2.899 -34.455  1.00  0.00     0.004 A 
HETATM   13  C   UNL     1     -12.869   2.877 -34.673  1.00  0.00     0.043 A 
HETATM   14  C   UNL     1     -10.883   1.737 -33.926  1.00  0.00     0.014 A 
HETATM   15  C   UNL     1     -13.666   1.760 -34.396  1.00  0.00     0.030 A 
HETATM   16  N   UNL     1     -13.221   4.110 -35.170  1.00  0.00    -0.364 N 
HETATM   17  C   UNL     1     -13.038   0.626 -33.874  1.00  0.00     0.002 A 
HETATM   18  C   UNL     1     -11.666   0.613 -33.639  1.00  0.00     0.001 A 
HETATM   19  H   UNL     1     -14.166   4.379 -35.413  1.00  0.00     0.165 HD
HETATM   20  C   UNL     1     -12.117   4.913 -35.270  1.00  0.00     0.102 A 
ENDBRANCH  10  11
ENDBRANCH   7   9
ENDBRANCH   3   7
BRANCH   1  21
HETATM   21  N   UNL     1      -3.325   4.803 -33.758  1.00  0.00    -0.210 N 
HETATM   22  C   UNL     1      -2.263   4.037 -33.096  1.00  0.00     0.169 C 
HETATM   23  C   UNL     1      -2.044   4.549 -31.658  1.00  0.00     0.254 C 
HETATM   24  N   UNL     1      -1.793   6.065 -31.667  1.00  0.00    -0.072 N 
HETATM   25  C   UNL     1      -1.547   6.598 -30.289  1.00  0.00     0.269 C 
HETATM   26  H   UNL     1      -0.938   6.221 -32.215  1.00  0.00     0.279 HD
HETATM   27  C   UNL     1      -2.923   6.822 -32.388  1.00  0.00     0.254 C 
HETATM   28  C   UNL     1      -3.106   6.256 -33.813  1.00  0.00     0.169 C 
ENDBRANCH   1  21
BRANCH   5  29
HETATM   29  N   UNL     1      -6.453   1.546 -32.437  1.00  0.00    -0.187 N 
HETATM   30  H   UNL     1      -6.660   1.537 -31.447  1.00  0.00     0.184 HD
BRANCH  29  31
HETATM   31  C   UNL     1      -6.271   0.296 -33.040  1.00  0.00     0.049 A 
HETATM   32  C   UNL     1      -7.274  -0.345 -33.778  1.00  0.00     0.032 A 
HETATM   33  C   UNL     1      -7.067  -1.607 -34.342  1.00  0.00     0.038 A 
HETATM   34  C   UNL     1      -5.844  -2.258 -34.144  1.00  0.00     0.103 A 
HETATM   35  C   UNL     1      -4.835  -1.649 -33.392  1.00  0.00     0.038 A 
HETATM   36  C   UNL     1      -5.056  -0.380 -32.845  1.00  0.00     0.032 A 
BRANCH  34  37
HETATM   37  N   UNL     1      -5.626  -3.585 -34.730  1.00  0.00    -0.116 N 
HETATM   38  O   UNL     1      -4.521  -4.116 -34.544  1.00  0.00    -0.532 OA
HETATM   39  O   UNL     1      -6.552  -4.091 -35.377  1.00  0.00    -0.532 OA
ENDBRANCH  34  37
ENDBRANCH  29  31
ENDBRANCH   5  29
TORSDOF 7
ENDMDL
MODEL 9
REMARK VINA RESULT:      -9.5      3.501      8.475
REMARK  7 active torsions:
REMARK  status: ('A' for Active; 'I' for Inactive)
REMARK    1  A    between atoms: N_6  and  C_7 
REMARK    2  A    between atoms: C_9  and  N_10 
REMARK    3  A    between atoms: N_10  and  N_11 
REMARK    4  A    between atoms: C_12  and  C_13 
REMARK    5  A    between atoms: C_24  and  N_25 
REMARK    6  A    between atoms: N_25  and  C_26 
REMARK    7  A    between atoms: C_29  and  N_30 
ROOT
HETATM    1  C   UNL     1      -5.272   3.646 -32.278  1.00  0.00     0.756 A 
HETATM    2  N   UNL     1      -6.368   3.459 -31.568  1.00  0.00     0.133 NA
HETATM    3  C   UNL     1      -6.743   2.200 -31.351  1.00  0.00     0.774 A 
HETATM    4  N   UNL     1      -6.052   1.147 -31.765  1.00  0.00     0.133 NA
HETATM    5  C   UNL     1      -4.916   1.416 -32.392  1.00  0.00     0.758 A 
HETATM    6  N   UNL     1      -4.482   2.649 -32.644  1.00  0.00     0.131 NA
ENDROOT
BRANCH   3   7
HETATM    7  N   UNL     1      -7.916   1.931 -30.625  1.00  0.00    -0.105 N 
HETATM    8  H   UNL     1      -7.788   1.060 -30.114  1.00  0.00     0.208 HD
BRANCH   7   9
HETATM    9  N   UNL     1      -9.111   2.194 -31.230  1.00  0.00    -0.171 NA
HETATM   10  C   UNL     1      -9.121   2.045 -32.515  1.00  0.00     0.153 C 
BRANCH  10  11
HETATM   11  C   UNL     1     -10.325   2.334 -33.265  1.00  0.00     0.011 A 
HETATM   12  C   UNL     1     -11.452   1.492 -33.544  1.00  0.00     0.004 A 
HETATM   13  C   UNL     1     -12.358   2.243 -34.296  1.00  0.00     0.043 A 
HETATM   14  C   UNL     1     -11.800   0.162 -33.220  1.00  0.00     0.014 A 
HETATM   15  C   UNL     1     -13.584   1.733 -34.741  1.00  0.00     0.030 A 
HETATM   16  N   UNL     1     -11.808   3.492 -34.467  1.00  0.00    -0.364 N 
HETATM   17  C   UNL     1     -13.901   0.415 -34.405  1.00  0.00     0.002 A 
HETATM   18  C   UNL     1     -13.024  -0.363 -33.653  1.00  0.00     0.001 A 
HETATM   19  H   UNL     1     -12.254   4.248 -34.971  1.00  0.00     0.165 HD
HETATM   20  C   UNL     1     -10.589   3.561 -33.847  1.00  0.00     0.102 A 
ENDBRANCH  10  11
ENDBRANCH   7   9
ENDBRANCH   3   7
BRANCH   1  21
HETATM   21  N   UNL     1      -4.927   4.953 -32.629  1.00  0.00    -0.210 N 
HETATM   22  C   UNL     1      -3.745   5.106 -33.484  1.00  0.00     0.169 C 
HETATM   23  C   UNL     1      -2.456   5.059 -32.637  1.00  0.00     0.254 C 
HETATM   24  N   UNL     1      -2.529   6.090 -31.501  1.00  0.00    -0.072 N 
HETATM   25  C   UNL     1      -1.284   6.096 -30.671  1.00  0.00     0.269 C 
HETATM   26  H   UNL     1      -2.610   7.014 -31.943  1.00  0.00     0.279 HD
HETATM   27  C   UNL     1      -3.795   5.900 -30.645  1.00  0.00     0.254 C 
HETATM   28  C   UNL     1      -5.048   5.941 -31.547  1.00  0.00     0.169 C 
ENDBRANCH   1  21
BRANCH   5  29
HETATM   29  N   UNL     1      -4.188   0.310 -32.827  1.00  0.00    -0.187 N 
HETATM   30  H   UNL     1      -3.217   0.558 -32.968  1.00  0.00     0.184 HD
BRANCH  29  31
HETATM   31  C   UNL     1      -4.590  -0.926 -33.346  1.00  0.00     0.049 A 
HETATM   32  C   UNL     1      -3.856  -2.104 -33.157  1.00  0.00     0.032 A 
HETATM   33  C   UNL     1      -4.273  -3.317 -33.715  1.00  0.00     0.038 A 
HETATM   34  C   UNL     1      -5.430  -3.352 -34.500  1.00  0.00     0.103 A 
HETATM   35  C   UNL     1      -6.168  -2.186 -34.723  1.00  0.00     0.038 A 
HETATM   36  C   UNL     1      -5.742  -0.983 -34.146  1.00  0.00     0.032 A 
BRANCH  34  37
HETATM   37  N   UNL     1      -5.866  -4.623 -35.092  1.00  0.00    -0.116 N 
HETATM   38  O   UNL     1      -6.921  -4.616 -35.742  1.00  0.00    -0.532 OA
HETATM   39  O   UNL     1      -5.159  -5.621 -34.902  1.00  0.00    -0.532 OA
ENDBRANCH  34  37
ENDBRANCH  29  31
ENDBRANCH   5  29
TORSDOF 7
ENDMDL
MODEL 10
REMARK VINA RESULT:      -9.5      3.841      7.524
REMARK  7 active torsions:
REMARK  status: ('A' for Active; 'I' for Inactive)
REMARK    1  A    between atoms: N_6  and  C_7 
REMARK    2  A    between atoms: C_9  and  N_10 
REMARK    3  A    between atoms: N_10  and  N_11 
REMARK    4  A    between atoms: C_12  and  C_13 
REMARK    5  A    between atoms: C_24  and  N_25 
REMARK    6  A    between atoms: N_25  and  C_26 
REMARK    7  A    between atoms: C_29  and  N_30 
ROOT
HETATM    1  C   UNL     1      -3.517   4.118 -31.581  1.00  0.00     0.756 A 
HETATM    2  N   UNL     1      -3.008   2.916 -31.769  1.00  0.00     0.133 NA
HETATM    3  C   UNL     1      -3.614   1.899 -31.161  1.00  0.00     0.774 A 
HETATM    4  N   UNL     1      -4.713   2.030 -30.432  1.00  0.00     0.133 NA
HETATM    5  C   UNL     1      -5.215   3.253 -30.365  1.00  0.00     0.758 A 
HETATM    6  N   UNL     1      -4.661   4.316 -30.945  1.00  0.00     0.131 NA
ENDROOT
BRANCH   3   7
HETATM    7  N   UNL     1      -3.106   0.594 -31.298  1.00  0.00    -0.105 N 
HETATM    8  H   UNL     1      -2.132   0.655 -31.588  1.00  0.00     0.208 HD
BRANCH   7   9
HETATM    9  N   UNL     1      -3.923  -0.350 -31.850  1.00  0.00    -0.171 NA
HETATM   10  C   UNL     1      -4.259  -0.133 -33.081  1.00  0.00     0.153 C 
BRANCH  10  11
HETATM   11  C   UNL     1      -5.153  -1.051 -33.755  1.00  0.00     0.011 A 
HETATM   12  C   UNL     1      -5.007  -2.457 -33.999  1.00  0.00     0.004 A 
HETATM   13  C   UNL     1      -6.150  -2.884 -34.678  1.00  0.00     0.043 A 
HETATM   14  C   UNL     1      -4.015  -3.417 -33.698  1.00  0.00     0.014 A 
HETATM   15  C   UNL     1      -6.349  -4.213 -35.072  1.00  0.00     0.030 A 
HETATM   16  N   UNL     1      -6.962  -1.786 -34.839  1.00  0.00    -0.364 N 
HETATM   17  C   UNL     1      -5.350  -5.140 -34.760  1.00  0.00     0.002 A 
HETATM   18  C   UNL     1      -4.199  -4.751 -34.081  1.00  0.00     0.001 A 
HETATM   19  H   UNL     1      -7.865  -1.805 -35.294  1.00  0.00     0.165 HD
HETATM   20  C   UNL     1      -6.377  -0.679 -34.284  1.00  0.00     0.102 A 
ENDBRANCH  10  11
ENDBRANCH   7   9
ENDBRANCH   3   7
BRANCH   1  21
HETATM   21  N   UNL     1      -2.828   5.216 -32.100  1.00  0.00    -0.210 N 
HETATM   22  C   UNL     1      -1.411   5.006 -32.415  1.00  0.00     0.169 C 
HETATM   23  C   UNL     1      -0.548   5.145 -31.144  1.00  0.00     0.254 C 
HETATM   24  N   UNL     1      -0.830   6.488 -30.455  1.00  0.00    -0.072 N 
HETATM   25  C   UNL     1       0.009   6.674 -29.229  1.00  0.00     0.269 C 
HETATM   26  H   UNL     1      -0.570   7.225 -31.122  1.00  0.00     0.279 HD
HETATM   27  C   UNL     1      -2.331   6.670 -30.163  1.00  0.00     0.254 C 
HETATM   28  C   UNL     1      -3.143   6.505 -31.466  1.00  0.00     0.169 C 
ENDBRANCH   1  21
BRANCH   5  29
HETATM   29  N   UNL     1      -6.371   3.392 -29.598  1.00  0.00    -0.187 N 
HETATM   30  H   UNL     1      -6.249   2.959 -28.692  1.00  0.00     0.184 HD
BRANCH  29  31
HETATM   31  C   UNL     1      -7.681   3.745 -29.941  1.00  0.00     0.049 A 
HETATM   32  C   UNL     1      -8.564   2.862 -30.577  1.00  0.00     0.032 A 
HETATM   33  C   UNL     1      -9.858   3.259 -30.931  1.00  0.00     0.038 A 
HETATM   34  C   UNL     1     -10.271   4.570 -30.673  1.00  0.00     0.103 A 
HETATM   35  C   UNL     1      -9.401   5.477 -30.060  1.00  0.00     0.038 A 
HETATM   36  C   UNL     1      -8.114   5.058 -29.701  1.00  0.00     0.032 A 
BRANCH  34  37
HETATM   37  N   UNL     1     -11.626   4.990 -31.049  1.00  0.00    -0.116 N 
HETATM   38  O   UNL     1     -11.753   5.627 -32.105  1.00  0.00    -0.532 OA
HETATM   39  O   UNL     1     -12.556   4.689 -30.290  1.00  0.00    -0.532 OA
ENDBRANCH  34  37
ENDBRANCH  29  31
ENDBRANCH   5  29
TORSDOF 7
ENDMDL
