MODEL 1
REMARK VINA RESULT:      -8.4      0.000      0.000
REMARK  7 active torsions:
REMARK  status: ('A' for Active; 'I' for Inactive)
REMARK    1  A    between atoms: C_2  and  N_3 
REMARK    2  A    between atoms: C_2  and  C_17 
REMARK       I    between atoms: N_3  and  C_4 
REMARK    3  A    between atoms: C_4  and  C_5 
REMARK    4  A    between atoms: C_6  and  N_7 
REMARK    5  A    between atoms: C_17  and  O_18 
REMARK    6  A    between atoms: C_17  and  C_19 
REMARK    7  A    between atoms: C_22  and  O_23 
ROOT
HETATM    1  N   UNL     1      -7.217  -0.606 -33.156  1.00  0.00    -0.350 N 
HETATM    2  C   UNL     1      -6.979  -1.230 -34.353  1.00  0.00     0.255 C 
HETATM    3  O   UNL     1      -7.514  -0.862 -35.396  1.00  0.00    -0.268 OA
HETATM    4  H   UNL     1      -6.495  -0.738 -32.454  1.00  0.00     0.163 HD
ENDROOT
BRANCH   1   5
HETATM    5  C   UNL     1      -8.006   0.633 -33.063  1.00  0.00     0.114 C 
HETATM    6  C   UNL     1      -7.152   1.762 -32.473  1.00  0.00     0.035 C 
BRANCH   5   7
HETATM    7  C   UNL     1      -9.300   0.371 -32.237  1.00  0.00     0.173 C 
BRANCH   7   8
HETATM    8  O   UNL     1      -9.273   1.095 -30.999  1.00  0.00    -0.389 OA
HETATM    9  H   UNL     1     -10.164   1.021 -30.617  1.00  0.00     0.210 HD
ENDBRANCH   7   8
BRANCH   7  10
HETATM   10  C   UNL     1     -10.570   0.677 -33.008  1.00  0.00    -0.028 A 
HETATM   11  C   UNL     1     -11.618  -0.256 -33.011  1.00  0.00     0.012 A 
HETATM   12  C   UNL     1     -12.795  -0.003 -33.721  1.00  0.00     0.037 A 
HETATM   13  C   UNL     1     -12.953   1.183 -34.440  1.00  0.00     0.068 A 
HETATM   14  C   UNL     1     -11.919   2.117 -34.443  1.00  0.00     0.037 A 
HETATM   15  C   UNL     1     -10.738   1.865 -33.733  1.00  0.00     0.012 A 
BRANCH  13  16
HETATM   16  O   UNL     1     -14.152   1.303 -35.087  1.00  0.00    -0.356 OA
HETATM   17  C   UNL     1     -15.265   0.643 -34.499  1.00  0.00     0.210 C 
ENDBRANCH  13  16
ENDBRANCH   7  10
ENDBRANCH   5   7
ENDBRANCH   1   5
BRANCH   2  18
HETATM   18  C   UNL     1      -6.128  -2.460 -34.371  1.00  0.00     0.079 A 
HETATM   19  C   UNL     1      -4.859  -2.712 -33.832  1.00  0.00     0.165 A 
HETATM   20  N   UNL     1      -4.245  -3.939 -33.969  1.00  0.00    -0.241 NA
HETATM   21  C   UNL     1      -4.874  -4.921 -34.643  1.00  0.00     0.119 A 
HETATM   22  C   UNL     1      -6.115  -4.763 -35.211  1.00  0.00     0.020 A 
HETATM   23  C   UNL     1      -6.736  -3.527 -35.072  1.00  0.00     0.022 A 
BRANCH  19  24
HETATM   24  N   UNL     1      -4.054  -1.753 -33.128  1.00  0.00    -0.226 N 
HETATM   25  N   UNL     1      -4.033  -0.412 -33.378  1.00  0.00    -0.179 NA
HETATM   26  C   UNL     1      -3.124   0.083 -32.533  1.00  0.00     0.141 A 
HETATM   27  C   UNL     1      -2.591  -0.890 -31.681  1.00  0.00     0.040 A 
HETATM   28  C   UNL     1      -3.211  -2.051 -32.067  1.00  0.00     0.122 A 
ENDBRANCH  19  24
ENDBRANCH   2  18
TORSDOF 7
ENDMDL
MODEL 2
REMARK VINA RESULT:      -8.3      1.004      1.622
REMARK  7 active torsions:
REMARK  status: ('A' for Active; 'I' for Inactive)
REMARK    1  A    between atoms: C_2  and  N_3 
REMARK    2  A    between atoms: C_2  and  C_17 
REMARK       I    between atoms: N_3  and  C_4 
REMARK    3  A    between atoms: C_4  and  C_5 
REMARK    4  A    between atoms: C_6  and  N_7 
REMARK    5  A    between atoms: C_17  and  O_18 
REMARK    6  A    between atoms: C_17  and  C_19 
REMARK    7  A    between atoms: C_22  and  O_23 
ROOT
HETATM    1  N   UNL     1      -7.061  -0.533 -32.980  1.00  0.00    -0.350 N 
HETATM    2  C   UNL     1      -6.928  -1.135 -34.204  1.00  0.00     0.255 C 
HETATM    3  O   UNL     1      -7.504  -0.713 -35.204  1.00  0.00    -0.268 OA
HETATM    4  H   UNL     1      -6.307  -0.720 -32.327  1.00  0.00     0.163 HD
ENDROOT
BRANCH   1   5
HETATM    5  C   UNL     1      -7.779   0.741 -32.811  1.00  0.00     0.114 C 
HETATM    6  C   UNL     1      -7.099   1.591 -31.729  1.00  0.00     0.035 C 
BRANCH   5   7
HETATM    7  C   UNL     1      -9.278   0.462 -32.494  1.00  0.00     0.173 C 
BRANCH   7   8
HETATM    8  O   UNL     1      -9.564   0.712 -31.111  1.00  0.00    -0.389 OA
HETATM    9  H   UNL     1      -8.773   1.135 -30.736  1.00  0.00     0.210 HD
ENDBRANCH   7   8
BRANCH   7  10
HETATM   10  C   UNL     1     -10.229   1.238 -33.385  1.00  0.00    -0.028 A 
HETATM   11  C   UNL     1      -9.788   2.415 -34.008  1.00  0.00     0.012 A 
HETATM   12  C   UNL     1     -10.648   3.154 -34.825  1.00  0.00     0.037 A 
HETATM   13  C   UNL     1     -11.962   2.735 -35.041  1.00  0.00     0.068 A 
HETATM   14  C   UNL     1     -12.410   1.566 -34.428  1.00  0.00     0.037 A 
HETATM   15  C   UNL     1     -11.550   0.825 -33.607  1.00  0.00     0.012 A 
BRANCH  13  16
HETATM   16  O   UNL     1     -12.693   3.548 -35.862  1.00  0.00    -0.356 OA
HETATM   17  C   UNL     1     -12.808   4.911 -35.475  1.00  0.00     0.210 C 
ENDBRANCH  13  16
ENDBRANCH   7  10
ENDBRANCH   5   7
ENDBRANCH   1   5
BRANCH   2  18
HETATM   18  C   UNL     1      -6.145  -2.406 -34.303  1.00  0.00     0.079 A 
HETATM   19  C   UNL     1      -4.870  -2.743 -33.827  1.00  0.00     0.165 A 
HETATM   20  N   UNL     1      -4.327  -3.993 -34.036  1.00  0.00    -0.241 NA
HETATM   21  C   UNL     1      -5.034  -4.916 -34.717  1.00  0.00     0.119 A 
HETATM   22  C   UNL     1      -6.287  -4.673 -35.226  1.00  0.00     0.020 A 
HETATM   23  C   UNL     1      -6.835  -3.413 -35.016  1.00  0.00     0.022 A 
BRANCH  19  24
HETATM   24  N   UNL     1      -3.987  -1.854 -33.124  1.00  0.00    -0.226 N 
HETATM   25  N   UNL     1      -3.861  -0.518 -33.369  1.00  0.00    -0.179 NA
HETATM   26  C   UNL     1      -2.911  -0.101 -32.527  1.00  0.00     0.141 A 
HETATM   27  C   UNL     1      -2.453  -1.117 -31.682  1.00  0.00     0.040 A 
HETATM   28  C   UNL     1      -3.165  -2.223 -32.069  1.00  0.00     0.122 A 
ENDBRANCH  19  24
ENDBRANCH   2  18
TORSDOF 7
ENDMDL
MODEL 3
REMARK VINA RESULT:      -7.9      2.875      7.861
REMARK  7 active torsions:
REMARK  status: ('A' for Active; 'I' for Inactive)
REMARK    1  A    between atoms: C_2  and  N_3 
REMARK    2  A    between atoms: C_2  and  C_17 
REMARK       I    between atoms: N_3  and  C_4 
REMARK    3  A    between atoms: C_4  and  C_5 
REMARK    4  A    between atoms: C_6  and  N_7 
REMARK    5  A    between atoms: C_17  and  O_18 
REMARK    6  A    between atoms: C_17  and  C_19 
REMARK    7  A    between atoms: C_22  and  O_23 
ROOT
HETATM    1  N   UNL     1      -9.295   1.317 -33.193  1.00  0.00    -0.350 N 
HETATM    2  C   UNL     1     -10.374   0.482 -33.068  1.00  0.00     0.255 C 
HETATM    3  O   UNL     1     -10.264  -0.664 -32.638  1.00  0.00    -0.268 OA
HETATM    4  H   UNL     1      -9.520   2.307 -33.212  1.00  0.00     0.163 HD
ENDROOT
BRANCH   1   5
HETATM    5  C   UNL     1      -7.963   0.954 -32.682  1.00  0.00     0.114 C 
HETATM    6  C   UNL     1      -7.536   1.928 -31.577  1.00  0.00     0.035 C 
BRANCH   5   7
HETATM    7  C   UNL     1      -6.944   0.907 -33.859  1.00  0.00     0.173 C 
BRANCH   7   8
HETATM    8  O   UNL     1      -5.954   1.935 -33.722  1.00  0.00    -0.389 OA
HETATM    9  H   UNL     1      -6.437   2.771 -33.608  1.00  0.00     0.210 HD
ENDBRANCH   7   8
BRANCH   7  10
HETATM   10  C   UNL     1      -6.286  -0.450 -34.023  1.00  0.00    -0.028 A 
HETATM   11  C   UNL     1      -4.950  -0.622 -33.632  1.00  0.00     0.012 A 
HETATM   12  C   UNL     1      -4.318  -1.860 -33.782  1.00  0.00     0.037 A 
HETATM   13  C   UNL     1      -5.003  -2.950 -34.321  1.00  0.00     0.068 A 
HETATM   14  C   UNL     1      -6.331  -2.790 -34.711  1.00  0.00     0.037 A 
HETATM   15  C   UNL     1      -6.966  -1.551 -34.563  1.00  0.00     0.012 A 
BRANCH  13  16
HETATM   16  O   UNL     1      -4.266  -4.099 -34.410  1.00  0.00    -0.356 OA
HETATM   17  C   UNL     1      -3.479  -4.444 -33.277  1.00  0.00     0.210 C 
ENDBRANCH  13  16
ENDBRANCH   7  10
ENDBRANCH   5   7
ENDBRANCH   1   5
BRANCH   2  18
HETATM   18  C   UNL     1     -11.706   0.942 -33.571  1.00  0.00     0.079 A 
HETATM   19  C   UNL     1     -12.130   2.188 -34.053  1.00  0.00     0.165 A 
HETATM   20  N   UNL     1     -13.427   2.399 -34.470  1.00  0.00    -0.241 NA
HETATM   21  C   UNL     1     -14.314   1.387 -34.411  1.00  0.00     0.119 A 
HETATM   22  C   UNL     1     -13.991   0.135 -33.946  1.00  0.00     0.020 A 
HETATM   23  C   UNL     1     -12.683  -0.080 -33.526  1.00  0.00     0.022 A 
BRANCH  19  24
HETATM   24  N   UNL     1     -11.311   3.366 -34.135  1.00  0.00    -0.226 N 
HETATM   25  N   UNL     1     -10.820   4.056 -33.066  1.00  0.00    -0.179 NA
HETATM   26  C   UNL     1     -10.161   5.090 -33.595  1.00  0.00     0.141 A 
HETATM   27  C   UNL     1     -10.146   5.063 -34.994  1.00  0.00     0.040 A 
HETATM   28  C   UNL     1     -10.872   3.945 -35.316  1.00  0.00     0.122 A 
ENDBRANCH  19  24
ENDBRANCH   2  18
TORSDOF 7
ENDMDL
MODEL 4
REMARK VINA RESULT:      -7.7      4.814      8.098
REMARK  7 active torsions:
REMARK  status: ('A' for Active; 'I' for Inactive)
REMARK    1  A    between atoms: C_2  and  N_3 
REMARK    2  A    between atoms: C_2  and  C_17 
REMARK       I    between atoms: N_3  and  C_4 
REMARK    3  A    between atoms: C_4  and  C_5 
REMARK    4  A    between atoms: C_6  and  N_7 
REMARK    5  A    between atoms: C_17  and  O_18 
REMARK    6  A    between atoms: C_17  and  C_19 
REMARK    7  A    between atoms: C_22  and  O_23 
ROOT
HETATM    1  N   UNL     1      -4.552   2.362 -32.616  1.00  0.00    -0.350 N 
HETATM    2  C   UNL     1      -3.458   3.088 -32.221  1.00  0.00     0.255 C 
HETATM    3  O   UNL     1      -2.772   2.759 -31.256  1.00  0.00    -0.268 OA
HETATM    4  H   UNL     1      -4.828   2.495 -33.584  1.00  0.00     0.163 HD
ENDROOT
BRANCH   1   5
HETATM    5  C   UNL     1      -4.890   1.065 -32.008  1.00  0.00     0.114 C 
HETATM    6  C   UNL     1      -5.309   1.259 -30.545  1.00  0.00     0.035 C 
BRANCH   5   7
HETATM    7  C   UNL     1      -3.688   0.085 -32.157  1.00  0.00     0.173 C 
BRANCH   7   8
HETATM    8  O   UNL     1      -3.056  -0.147 -30.891  1.00  0.00    -0.389 OA
HETATM    9  H   UNL     1      -2.206   0.323 -30.916  1.00  0.00     0.210 HD
ENDBRANCH   7   8
BRANCH   7  10
HETATM   10  C   UNL     1      -4.069  -1.228 -32.813  1.00  0.00    -0.028 A 
HETATM   11  C   UNL     1      -5.152  -1.268 -33.703  1.00  0.00     0.012 A 
HETATM   12  C   UNL     1      -5.530  -2.468 -34.313  1.00  0.00     0.037 A 
HETATM   13  C   UNL     1      -4.835  -3.650 -34.051  1.00  0.00     0.068 A 
HETATM   14  C   UNL     1      -3.756  -3.621 -33.170  1.00  0.00     0.037 A 
HETATM   15  C   UNL     1      -3.377  -2.421 -32.557  1.00  0.00     0.012 A 
BRANCH  13  16
HETATM   16  O   UNL     1      -5.308  -4.749 -34.715  1.00  0.00    -0.356 OA
HETATM   17  C   UNL     1      -6.455  -4.557 -35.534  1.00  0.00     0.210 C 
ENDBRANCH  13  16
ENDBRANCH   7  10
ENDBRANCH   5   7
ENDBRANCH   1   5
BRANCH   2  18
HETATM   18  C   UNL     1      -3.155   4.376 -32.919  1.00  0.00     0.079 A 
HETATM   19  C   UNL     1      -4.001   5.382 -33.406  1.00  0.00     0.165 A 
HETATM   20  N   UNL     1      -3.503   6.506 -34.031  1.00  0.00    -0.241 NA
HETATM   21  C   UNL     1      -2.172   6.641 -34.186  1.00  0.00     0.119 A 
HETATM   22  C   UNL     1      -1.268   5.703 -33.748  1.00  0.00     0.020 A 
HETATM   23  C   UNL     1      -1.769   4.571 -33.116  1.00  0.00     0.022 A 
BRANCH  19  24
HETATM   24  N   UNL     1      -5.436   5.356 -33.350  1.00  0.00    -0.226 N 
HETATM   25  N   UNL     1      -6.239   4.603 -34.156  1.00  0.00    -0.179 NA
HETATM   26  C   UNL     1      -7.485   4.918 -33.794  1.00  0.00     0.141 A 
HETATM   27  C   UNL     1      -7.527   5.812 -32.718  1.00  0.00     0.040 A 
HETATM   28  C   UNL     1      -6.208   6.065 -32.441  1.00  0.00     0.122 A 
ENDBRANCH  19  24
ENDBRANCH   2  18
TORSDOF 7
ENDMDL
MODEL 5
REMARK VINA RESULT:      -7.7      3.327      8.461
REMARK  7 active torsions:
REMARK  status: ('A' for Active; 'I' for Inactive)
REMARK    1  A    between atoms: C_2  and  N_3 
REMARK    2  A    between atoms: C_2  and  C_17 
REMARK       I    between atoms: N_3  and  C_4 
REMARK    3  A    between atoms: C_4  and  C_5 
REMARK    4  A    between atoms: C_6  and  N_7 
REMARK    5  A    between atoms: C_17  and  O_18 
REMARK    6  A    between atoms: C_17  and  C_19 
REMARK    7  A    between atoms: C_22  and  O_23 
ROOT
HETATM    1  N   UNL     1      -8.898   2.621 -33.280  1.00  0.00    -0.350 N 
HETATM    2  C   UNL     1     -10.021   2.352 -34.018  1.00  0.00     0.255 C 
HETATM    3  O   UNL     1     -10.298   1.215 -34.392  1.00  0.00    -0.268 OA
HETATM    4  H   UNL     1      -8.937   3.478 -32.738  1.00  0.00     0.163 HD
ENDROOT
BRANCH   1   5
HETATM    5  C   UNL     1      -8.030   1.552 -32.760  1.00  0.00     0.114 C 
HETATM    6  C   UNL     1      -7.739   1.784 -31.273  1.00  0.00     0.035 C 
BRANCH   5   7
HETATM    7  C   UNL     1      -6.731   1.467 -33.615  1.00  0.00     0.173 C 
BRANCH   7   8
HETATM    8  O   UNL     1      -5.670   2.221 -33.011  1.00  0.00    -0.389 OA
HETATM    9  H   UNL     1      -4.839   1.830 -33.328  1.00  0.00     0.210 HD
ENDBRANCH   7   8
BRANCH   7  10
HETATM   10  C   UNL     1      -6.288   0.042 -33.885  1.00  0.00    -0.028 A 
HETATM   11  C   UNL     1      -7.182  -0.859 -34.482  1.00  0.00     0.012 A 
HETATM   12  C   UNL     1      -6.801  -2.181 -34.731  1.00  0.00     0.037 A 
HETATM   13  C   UNL     1      -5.524  -2.631 -34.394  1.00  0.00     0.068 A 
HETATM   14  C   UNL     1      -4.627  -1.744 -33.801  1.00  0.00     0.037 A 
HETATM   15  C   UNL     1      -5.007  -0.419 -33.549  1.00  0.00     0.012 A 
BRANCH  13  16
HETATM   16  O   UNL     1      -5.283  -3.943 -34.694  1.00  0.00    -0.356 OA
HETATM   17  C   UNL     1      -6.317  -4.644 -35.373  1.00  0.00     0.210 C 
ENDBRANCH  13  16
ENDBRANCH   7  10
ENDBRANCH   5   7
ENDBRANCH   1   5
BRANCH   2  18
HETATM   18  C   UNL     1     -10.878   3.492 -34.472  1.00  0.00     0.079 A 
HETATM   19  C   UNL     1     -12.271   3.624 -34.552  1.00  0.00     0.165 A 
HETATM   20  N   UNL     1     -12.863   4.781 -35.011  1.00  0.00    -0.241 NA
HETATM   21  C   UNL     1     -12.087   5.812 -35.399  1.00  0.00     0.119 A 
HETATM   22  C   UNL     1     -10.714   5.770 -35.363  1.00  0.00     0.020 A 
HETATM   23  C   UNL     1     -10.116   4.604 -34.899  1.00  0.00     0.022 A 
BRANCH  19  24
HETATM   24  N   UNL     1     -13.220   2.599 -34.214  1.00  0.00    -0.226 N 
HETATM   25  N   UNL     1     -13.611   1.588 -35.042  1.00  0.00    -0.179 NA
HETATM   26  C   UNL     1     -14.525   0.906 -34.347  1.00  0.00     0.141 A 
HETATM   27  C   UNL     1     -14.700   1.402 -33.051  1.00  0.00     0.040 A 
HETATM   28  C   UNL     1     -13.845   2.472 -32.982  1.00  0.00     0.122 A 
ENDBRANCH  19  24
ENDBRANCH   2  18
TORSDOF 7
ENDMDL
MODEL 6
REMARK VINA RESULT:      -7.6     13.356     14.975
REMARK  7 active torsions:
REMARK  status: ('A' for Active; 'I' for Inactive)
REMARK    1  A    between atoms: C_2  and  N_3 
REMARK    2  A    between atoms: C_2  and  C_17 
REMARK       I    between atoms: N_3  and  C_4 
REMARK    3  A    between atoms: C_4  and  C_5 
REMARK    4  A    between atoms: C_6  and  N_7 
REMARK    5  A    between atoms: C_17  and  O_18 
REMARK    6  A    between atoms: C_17  and  C_19 
REMARK    7  A    between atoms: C_22  and  O_23 
ROOT
HETATM    1  N   UNL     1      -4.855 -13.707 -38.808  1.00  0.00    -0.350 N 
HETATM    2  C   UNL     1      -4.735 -13.093 -40.027  1.00  0.00     0.255 C 
HETATM    3  O   UNL     1      -5.140 -11.950 -40.223  1.00  0.00    -0.268 OA
HETATM    4  H   UNL     1      -4.205 -14.470 -38.647  1.00  0.00     0.163 HD
ENDROOT
BRANCH   1   5
HETATM    5  C   UNL     1      -5.336 -12.990 -37.616  1.00  0.00     0.114 C 
HETATM    6  C   UNL     1      -4.225 -12.911 -36.562  1.00  0.00     0.035 C 
BRANCH   5   7
HETATM    7  C   UNL     1      -6.624 -13.678 -37.073  1.00  0.00     0.173 C 
BRANCH   7   8
HETATM    8  O   UNL     1      -7.006 -13.122 -35.807  1.00  0.00    -0.389 OA
HETATM    9  H   UNL     1      -6.188 -12.819 -35.379  1.00  0.00     0.210 HD
ENDBRANCH   7   8
BRANCH   7  10
HETATM   10  C   UNL     1      -7.782 -13.628 -38.050  1.00  0.00    -0.028 A 
HETATM   11  C   UNL     1      -8.442 -14.816 -38.401  1.00  0.00     0.012 A 
HETATM   12  C   UNL     1      -9.506 -14.799 -39.307  1.00  0.00     0.037 A 
HETATM   13  C   UNL     1      -9.936 -13.600 -39.880  1.00  0.00     0.068 A 
HETATM   14  C   UNL     1      -9.288 -12.415 -39.537  1.00  0.00     0.037 A 
HETATM   15  C   UNL     1      -8.221 -12.430 -38.631  1.00  0.00     0.012 A 
BRANCH  13  16
HETATM   16  O   UNL     1     -10.986 -13.727 -40.748  1.00  0.00    -0.356 OA
HETATM   17  C   UNL     1     -11.132 -14.984 -41.396  1.00  0.00     0.210 C 
ENDBRANCH  13  16
ENDBRANCH   7  10
ENDBRANCH   5   7
ENDBRANCH   1   5
BRANCH   2  18
HETATM   18  C   UNL     1      -4.195 -13.877 -41.182  1.00  0.00     0.079 A 
HETATM   19  C   UNL     1      -2.980 -14.557 -41.347  1.00  0.00     0.165 A 
HETATM   20  N   UNL     1      -2.677 -15.224 -42.515  1.00  0.00    -0.241 NA
HETATM   21  C   UNL     1      -3.566 -15.221 -43.527  1.00  0.00     0.119 A 
HETATM   22  C   UNL     1      -4.777 -14.576 -43.458  1.00  0.00     0.020 A 
HETATM   23  C   UNL     1      -5.084 -13.904 -42.280  1.00  0.00     0.022 A 
BRANCH  19  24
HETATM   24  N   UNL     1      -1.924 -14.612 -40.374  1.00  0.00    -0.226 N 
HETATM   25  N   UNL     1      -2.003 -15.236 -39.165  1.00  0.00    -0.179 NA
HETATM   26  C   UNL     1      -0.827 -15.000 -38.577  1.00  0.00     0.141 A 
HETATM   27  C   UNL     1       0.056 -14.292 -39.398  1.00  0.00     0.040 A 
HETATM   28  C   UNL     1      -0.658 -14.069 -40.547  1.00  0.00     0.122 A 
ENDBRANCH  19  24
ENDBRANCH   2  18
TORSDOF 7
ENDMDL
MODEL 7
REMARK VINA RESULT:      -7.5      2.159      5.069
REMARK  7 active torsions:
REMARK  status: ('A' for Active; 'I' for Inactive)
REMARK    1  A    between atoms: C_2  and  N_3 
REMARK    2  A    between atoms: C_2  and  C_17 
REMARK       I    between atoms: N_3  and  C_4 
REMARK    3  A    between atoms: C_4  and  C_5 
REMARK    4  A    between atoms: C_6  and  N_7 
REMARK    5  A    between atoms: C_17  and  O_18 
REMARK    6  A    between atoms: C_17  and  C_19 
REMARK    7  A    between atoms: C_22  and  O_23 
ROOT
HETATM    1  N   UNL     1      -7.563  -0.534 -32.958  1.00  0.00    -0.350 N 
HETATM    2  C   UNL     1      -7.176  -1.019 -34.180  1.00  0.00     0.255 C 
HETATM    3  O   UNL     1      -7.627  -0.570 -35.231  1.00  0.00    -0.268 OA
HETATM    4  H   UNL     1      -6.907  -0.706 -32.202  1.00  0.00     0.163 HD
ENDROOT
BRANCH   1   5
HETATM    5  C   UNL     1      -8.425   0.651 -32.825  1.00  0.00     0.114 C 
HETATM    6  C   UNL     1      -9.866   0.305 -33.220  1.00  0.00     0.035 C 
BRANCH   5   7
HETATM    7  C   UNL     1      -7.841   1.823 -33.669  1.00  0.00     0.173 C 
BRANCH   7   8
HETATM    8  O   UNL     1      -8.876   2.734 -34.065  1.00  0.00    -0.389 OA
HETATM    9  H   UNL     1      -8.430   3.510 -34.444  1.00  0.00     0.210 HD
ENDBRANCH   7   8
BRANCH   7  10
HETATM   10  C   UNL     1      -6.720   2.563 -32.965  1.00  0.00    -0.028 A 
HETATM   11  C   UNL     1      -5.777   3.273 -33.724  1.00  0.00     0.012 A 
HETATM   12  C   UNL     1      -4.728   3.954 -33.100  1.00  0.00     0.037 A 
HETATM   13  C   UNL     1      -4.597   3.944 -31.711  1.00  0.00     0.068 A 
HETATM   14  C   UNL     1      -5.528   3.243 -30.947  1.00  0.00     0.037 A 
HETATM   15  C   UNL     1      -6.580   2.558 -31.570  1.00  0.00     0.012 A 
BRANCH  13  16
HETATM   16  O   UNL     1      -3.528   4.651 -31.233  1.00  0.00    -0.356 OA
HETATM   17  C   UNL     1      -2.267   4.389 -31.835  1.00  0.00     0.210 C 
ENDBRANCH  13  16
ENDBRANCH   7  10
ENDBRANCH   5   7
ENDBRANCH   1   5
BRANCH   2  18
HETATM   18  C   UNL     1      -6.261  -2.202 -34.232  1.00  0.00     0.079 A 
HETATM   19  C   UNL     1      -4.973  -2.395 -33.714  1.00  0.00     0.165 A 
HETATM   20  N   UNL     1      -4.295  -3.583 -33.882  1.00  0.00    -0.241 NA
HETATM   21  C   UNL     1      -4.881  -4.587 -34.566  1.00  0.00     0.119 A 
HETATM   22  C   UNL     1      -6.136  -4.486 -35.115  1.00  0.00     0.020 A 
HETATM   23  C   UNL     1      -6.820  -3.287 -34.944  1.00  0.00     0.022 A 
BRANCH  19  24
HETATM   24  N   UNL     1      -4.210  -1.406 -33.003  1.00  0.00    -0.226 N 
HETATM   25  N   UNL     1      -4.316  -0.058 -33.180  1.00  0.00    -0.179 NA
HETATM   26  C   UNL     1      -3.403   0.471 -32.360  1.00  0.00     0.141 A 
HETATM   27  C   UNL     1      -2.742  -0.494 -31.592  1.00  0.00     0.040 A 
HETATM   28  C   UNL     1      -3.284  -1.683 -32.007  1.00  0.00     0.122 A 
ENDBRANCH  19  24
ENDBRANCH   2  18
TORSDOF 7
ENDMDL
MODEL 8
REMARK VINA RESULT:      -7.3     13.165     14.682
REMARK  7 active torsions:
REMARK  status: ('A' for Active; 'I' for Inactive)
REMARK    1  A    between atoms: C_2  and  N_3 
REMARK    2  A    between atoms: C_2  and  C_17 
REMARK       I    between atoms: N_3  and  C_4 
REMARK    3  A    between atoms: C_4  and  C_5 
REMARK    4  A    between atoms: C_6  and  N_7 
REMARK    5  A    between atoms: C_17  and  O_18 
REMARK    6  A    between atoms: C_17  and  C_19 
REMARK    7  A    between atoms: C_22  and  O_23 
ROOT
HETATM    1  N   UNL     1      -4.218 -13.942 -37.345  1.00  0.00    -0.350 N 
HETATM    2  C   UNL     1      -3.444 -13.036 -38.022  1.00  0.00     0.255 C 
HETATM    3  O   UNL     1      -3.669 -11.829 -37.983  1.00  0.00    -0.268 OA
HETATM    4  H   UNL     1      -3.766 -14.831 -37.152  1.00  0.00     0.163 HD
ENDROOT
BRANCH   1   5
HETATM    5  C   UNL     1      -5.273 -13.522 -36.409  1.00  0.00     0.114 C 
HETATM    6  C   UNL     1      -4.736 -13.524 -34.972  1.00  0.00     0.035 C 
BRANCH   5   7
HETATM    7  C   UNL     1      -6.521 -14.438 -36.579  1.00  0.00     0.173 C 
BRANCH   7   8
HETATM    8  O   UNL     1      -7.189 -14.633 -35.324  1.00  0.00    -0.389 OA
HETATM    9  H   UNL     1      -6.707 -15.339 -34.861  1.00  0.00     0.210 HD
ENDBRANCH   7   8
BRANCH   7  10
HETATM   10  C   UNL     1      -7.492 -13.932 -37.628  1.00  0.00    -0.028 A 
HETATM   11  C   UNL     1      -8.504 -14.781 -38.101  1.00  0.00     0.012 A 
HETATM   12  C   UNL     1      -9.405 -14.343 -39.075  1.00  0.00     0.037 A 
HETATM   13  C   UNL     1      -9.319 -13.051 -39.596  1.00  0.00     0.068 A 
HETATM   14  C   UNL     1      -8.319 -12.198 -39.132  1.00  0.00     0.037 A 
HETATM   15  C   UNL     1      -7.413 -12.636 -38.157  1.00  0.00     0.012 A 
BRANCH  13  16
HETATM   16  O   UNL     1     -10.262 -12.752 -40.540  1.00  0.00    -0.356 OA
HETATM   17  C   UNL     1     -10.811 -11.441 -40.504  1.00  0.00     0.210 C 
ENDBRANCH  13  16
ENDBRANCH   7  10
ENDBRANCH   5   7
ENDBRANCH   1   5
BRANCH   2  18
HETATM   18  C   UNL     1      -2.360 -13.541 -38.922  1.00  0.00     0.079 A 
HETATM   19  C   UNL     1      -2.384 -13.924 -40.270  1.00  0.00     0.165 A 
HETATM   20  N   UNL     1      -1.251 -14.371 -40.916  1.00  0.00    -0.241 NA
HETATM   21  C   UNL     1      -0.090 -14.447 -40.237  1.00  0.00     0.119 A 
HETATM   22  C   UNL     1       0.027 -14.101 -38.913  1.00  0.00     0.020 A 
HETATM   23  C   UNL     1      -1.115 -13.649 -38.261  1.00  0.00     0.022 A 
BRANCH  19  24
HETATM   24  N   UNL     1      -3.553 -13.935 -41.107  1.00  0.00    -0.226 N 
HETATM   25  N   UNL     1      -3.576 -14.311 -42.417  1.00  0.00    -0.179 NA
HETATM   26  C   UNL     1      -4.840 -14.124 -42.808  1.00  0.00     0.141 A 
HETATM   27  C   UNL     1      -5.671 -13.699 -41.766  1.00  0.00     0.040 A 
HETATM   28  C   UNL     1      -4.832 -13.600 -40.686  1.00  0.00     0.122 A 
ENDBRANCH  19  24
ENDBRANCH   2  18
TORSDOF 7
ENDMDL
MODEL 9
REMARK VINA RESULT:      -7.3      3.400      6.288
REMARK  7 active torsions:
REMARK  status: ('A' for Active; 'I' for Inactive)
REMARK    1  A    between atoms: C_2  and  N_3 
REMARK    2  A    between atoms: C_2  and  C_17 
REMARK       I    between atoms: N_3  and  C_4 
REMARK    3  A    between atoms: C_4  and  C_5 
REMARK    4  A    between atoms: C_6  and  N_7 
REMARK    5  A    between atoms: C_17  and  O_18 
REMARK    6  A    between atoms: C_17  and  C_19 
REMARK    7  A    between atoms: C_22  and  O_23 
ROOT
HETATM    1  N   UNL     1      -6.570   3.530 -32.639  1.00  0.00    -0.350 N 
HETATM    2  C   UNL     1      -5.611   4.136 -33.408  1.00  0.00     0.255 C 
HETATM    3  O   UNL     1      -5.828   4.479 -34.568  1.00  0.00    -0.268 OA
HETATM    4  H   UNL     1      -6.425   3.606 -31.636  1.00  0.00     0.163 HD
ENDROOT
BRANCH   1   5
HETATM    5  C   UNL     1      -7.962   3.386 -33.094  1.00  0.00     0.114 C 
HETATM    6  C   UNL     1      -8.819   4.533 -32.546  1.00  0.00     0.035 C 
BRANCH   5   7
HETATM    7  C   UNL     1      -8.507   1.987 -32.683  1.00  0.00     0.173 C 
BRANCH   7   8
HETATM    8  O   UNL     1      -9.932   1.924 -32.843  1.00  0.00    -0.389 OA
HETATM    9  H   UNL     1     -10.314   2.018 -31.954  1.00  0.00     0.210 HD
ENDBRANCH   7   8
BRANCH   7  10
HETATM   10  C   UNL     1      -7.836   0.845 -33.422  1.00  0.00    -0.028 A 
HETATM   11  C   UNL     1      -7.317  -0.238 -32.696  1.00  0.00     0.012 A 
HETATM   12  C   UNL     1      -6.684  -1.297 -33.353  1.00  0.00     0.037 A 
HETATM   13  C   UNL     1      -6.558  -1.302 -34.743  1.00  0.00     0.068 A 
HETATM   14  C   UNL     1      -7.072  -0.232 -35.473  1.00  0.00     0.037 A 
HETATM   15  C   UNL     1      -7.705   0.832 -34.818  1.00  0.00     0.012 A 
BRANCH  13  16
HETATM   16  O   UNL     1      -5.920  -2.398 -35.255  1.00  0.00    -0.356 OA
HETATM   17  C   UNL     1      -4.735  -2.817 -34.591  1.00  0.00     0.210 C 
ENDBRANCH  13  16
ENDBRANCH   7  10
ENDBRANCH   5   7
ENDBRANCH   1   5
BRANCH   2  18
HETATM   18  C   UNL     1      -4.228   4.285 -32.856  1.00  0.00     0.079 A 
HETATM   19  C   UNL     1      -3.486   3.467 -31.993  1.00  0.00     0.165 A 
HETATM   20  N   UNL     1      -2.208   3.800 -31.601  1.00  0.00    -0.241 NA
HETATM   21  C   UNL     1      -1.655   4.943 -32.053  1.00  0.00     0.119 A 
HETATM   22  C   UNL     1      -2.309   5.810 -32.894  1.00  0.00     0.020 A 
HETATM   23  C   UNL     1      -3.598   5.474 -33.291  1.00  0.00     0.022 A 
BRANCH  19  24
HETATM   24  N   UNL     1      -3.958   2.245 -31.402  1.00  0.00    -0.226 N 
HETATM   25  N   UNL     1      -4.990   2.150 -30.515  1.00  0.00    -0.179 NA
HETATM   26  C   UNL     1      -5.054   0.855 -30.197  1.00  0.00     0.141 A 
HETATM   27  C   UNL     1      -4.131   0.077 -30.904  1.00  0.00     0.040 A 
HETATM   28  C   UNL     1      -3.454   0.983 -31.680  1.00  0.00     0.122 A 
ENDBRANCH  19  24
ENDBRANCH   2  18
TORSDOF 7
ENDMDL
MODEL 10
REMARK VINA RESULT:      -7.3      4.763      7.950
REMARK  7 active torsions:
REMARK  status: ('A' for Active; 'I' for Inactive)
REMARK    1  A    between atoms: C_2  and  N_3 
REMARK    2  A    between atoms: C_2  and  C_17 
REMARK       I    between atoms: N_3  and  C_4 
REMARK    3  A    between atoms: C_4  and  C_5 
REMARK    4  A    between atoms: C_6  and  N_7 
REMARK    5  A    between atoms: C_17  and  O_18 
REMARK    6  A    between atoms: C_17  and  C_19 
REMARK    7  A    between atoms: C_22  and  O_23 
ROOT
HETATM    1  N   UNL     1      -4.709   3.068 -32.126  1.00  0.00    -0.350 N 
HETATM    2  C   UNL     1      -3.393   3.424 -31.986  1.00  0.00     0.255 C 
HETATM    3  O   UNL     1      -2.610   2.767 -31.304  1.00  0.00    -0.268 OA
HETATM    4  H   UNL     1      -5.168   3.441 -32.952  1.00  0.00     0.163 HD
ENDROOT
BRANCH   1   5
HETATM    5  C   UNL     1      -5.236   1.800 -31.597  1.00  0.00     0.114 C 
HETATM    6  C   UNL     1      -5.484   1.918 -30.088  1.00  0.00     0.035 C 
BRANCH   5   7
HETATM    7  C   UNL     1      -4.262   0.637 -31.951  1.00  0.00     0.173 C 
BRANCH   7   8
HETATM    8  O   UNL     1      -3.704   0.057 -30.764  1.00  0.00    -0.389 OA
HETATM    9  H   UNL     1      -2.822  -0.272 -31.006  1.00  0.00     0.210 HD
ENDBRANCH   7   8
BRANCH   7  10
HETATM   10  C   UNL     1      -4.900  -0.431 -32.819  1.00  0.00    -0.028 A 
HETATM   11  C   UNL     1      -6.295  -0.466 -32.958  1.00  0.00     0.012 A 
HETATM   12  C   UNL     1      -6.908  -1.447 -33.744  1.00  0.00     0.037 A 
HETATM   13  C   UNL     1      -6.145  -2.409 -34.406  1.00  0.00     0.068 A 
HETATM   14  C   UNL     1      -4.758  -2.383 -34.276  1.00  0.00     0.037 A 
HETATM   15  C   UNL     1      -4.142  -1.402 -33.488  1.00  0.00     0.012 A 
BRANCH  13  16
HETATM   16  O   UNL     1      -6.871  -3.307 -35.140  1.00  0.00    -0.356 OA
HETATM   17  C   UNL     1      -6.394  -4.646 -35.167  1.00  0.00     0.210 C 
ENDBRANCH  13  16
ENDBRANCH   7  10
ENDBRANCH   5   7
ENDBRANCH   1   5
BRANCH   2  18
HETATM   18  C   UNL     1      -2.924   4.709 -32.592  1.00  0.00     0.079 A 
HETATM   19  C   UNL     1      -3.186   6.042 -32.247  1.00  0.00     0.165 A 
HETATM   20  N   UNL     1      -2.643   7.093 -32.954  1.00  0.00    -0.241 NA
HETATM   21  C   UNL     1      -1.844   6.838 -34.008  1.00  0.00     0.119 A 
HETATM   22  C   UNL     1      -1.538   5.565 -34.424  1.00  0.00     0.020 A 
HETATM   23  C   UNL     1      -2.084   4.504 -33.711  1.00  0.00     0.022 A 
BRANCH  19  24
HETATM   24  N   UNL     1      -4.048   6.466 -31.178  1.00  0.00    -0.226 N 
HETATM   25  N   UNL     1      -5.383   6.201 -31.096  1.00  0.00    -0.179 NA
HETATM   26  C   UNL     1      -5.789   6.813 -29.980  1.00  0.00     0.141 A 
HETATM   27  C   UNL     1      -4.738   7.421 -29.284  1.00  0.00     0.040 A 
HETATM   28  C   UNL     1      -3.634   7.172 -30.058  1.00  0.00     0.122 A 
ENDBRANCH  19  24
ENDBRANCH   2  18
TORSDOF 7
ENDMDL
