MODEL 1
REMARK VINA RESULT:      -9.4      0.000      0.000
REMARK  8 active torsions:
REMARK  status: ('A' for Active; 'I' for Inactive)
REMARK    1  A    between atoms: C_7  and  C_8 
REMARK       I    between atoms: C_8  and  N_9 
REMARK    2  A    between atoms: N_9  and  N_10 
REMARK    3  A    between atoms: N_10  and  C_11 
REMARK    4  A    between atoms: C_11  and  N_12 
REMARK    5  A    between atoms: N_12  and  C_13 
REMARK    6  A    between atoms: N_15  and  C_16 
REMARK    7  A    between atoms: C_16  and  C_17 
REMARK    8  A    between atoms: C_29  and  C_30 
ROOT
HETATM    1  C   UNL     1      -5.859   3.814 -32.979  1.00  0.00     0.290 C 
HETATM    2  N   UNL     1      -6.818   3.667 -31.997  1.00  0.00    -0.262 N 
HETATM    3  O   UNL     1      -6.011   3.516 -34.160  1.00  0.00    -0.264 OA
HETATM    4  H   UNL     1      -6.621   4.048 -31.072  1.00  0.00     0.190 HD
ENDROOT
BRANCH   2   5
HETATM    5  N   UNL     1      -8.131   3.317 -32.308  1.00  0.00    -0.273 N 
HETATM    6  H   UNL     1      -8.409   3.338 -33.296  1.00  0.00     0.189 HD
BRANCH   5   7
HETATM    7  C   UNL     1      -8.913   2.618 -31.429  1.00  0.00     0.192 C 
HETATM    8  S   UNL     1     -10.128   3.295 -30.487  1.00  0.00    -0.039 SA
BRANCH   7   9
HETATM    9  N   UNL     1      -8.681   1.278 -31.304  1.00  0.00    -0.315 N 
HETATM   10  H   UNL     1      -9.412   0.750 -30.847  1.00  0.00     0.170 HD
BRANCH   9  11
HETATM   11  C   UNL     1      -7.535   0.587 -31.636  1.00  0.00     0.151 A 
HETATM   12  N   UNL     1      -7.064   0.458 -32.880  1.00  0.00    -0.154 NA
HETATM   13  N   UNL     1      -5.924  -0.251 -32.732  1.00  0.00    -0.275 N 
HETATM   14  C   UNL     1      -5.667  -0.589 -31.435  1.00  0.00     0.116 A 
HETATM   15  C   UNL     1      -6.702  -0.063 -30.698  1.00  0.00     0.071 A 
BRANCH  13  16
HETATM   16  C   UNL     1      -5.148  -0.640 -33.903  1.00  0.00     0.192 C 
BRANCH  16  17
HETATM   17  C   UNL     1      -5.250  -2.113 -34.174  1.00  0.00     0.000 A 
HETATM   18  C   UNL     1      -6.419  -2.652 -34.717  1.00  0.00     0.124 A 
HETATM   19  F   UNL     1      -7.450  -1.845 -35.006  1.00  0.00    -0.205 F 
HETATM   20  C   UNL     1      -6.539  -4.016 -34.971  1.00  0.00     0.043 A 
HETATM   21  C   UNL     1      -5.476  -4.867 -34.679  1.00  0.00     0.003 A 
HETATM   22  C   UNL     1      -4.303  -4.350 -34.128  1.00  0.00     0.001 A 
HETATM   23  C   UNL     1      -4.190  -2.980 -33.871  1.00  0.00     0.012 A 
ENDBRANCH  16  17
ENDBRANCH  13  16
ENDBRANCH   9  11
ENDBRANCH   7   9
ENDBRANCH   5   7
ENDBRANCH   2   5
BRANCH   1  24
HETATM   24  C   UNL     1      -4.607   4.371 -32.442  1.00  0.00     0.150 A 
HETATM   25  N   UNL     1      -3.455   4.337 -33.152  1.00  0.00    -0.165 NA
HETATM   26  N   UNL     1      -2.581   4.979 -32.362  1.00  0.00    -0.240 N 
HETATM   27  C   UNL     1      -3.080   5.331 -31.142  1.00  0.00     0.123 A 
HETATM   28  C   UNL     1      -1.215   5.220 -32.776  1.00  0.00     0.221 C 
HETATM   29  N   UNL     1      -2.305   5.905 -30.200  1.00  0.00    -0.371 N 
HETATM   30  C   UNL     1      -4.407   4.985 -31.173  1.00  0.00     0.089 A 
HETATM   31  C   UNL     1      -0.859   6.048 -30.338  1.00  0.00     0.081 C 
HETATM   32  H   UNL     1      -2.693   6.161 -29.293  1.00  0.00     0.161 HD
HETATM   33  C   UNL     1      -0.481   7.525 -30.330  1.00  0.00     0.032 C 
HETATM   34  C   UNL     1      -0.303   5.264 -31.540  1.00  0.00     0.061 C 
BRANCH  28  35
HETATM   35  C   UNL     1      -1.154   6.458 -33.640  1.00  0.00     0.409 C 
HETATM   36  F   UNL     1      -2.299   7.177 -33.577  1.00  0.00    -0.169 F 
HETATM   37  F   UNL     1      -0.140   7.290 -33.337  1.00  0.00    -0.169 F 
HETATM   38  F   UNL     1      -0.998   6.106 -34.944  1.00  0.00    -0.169 F 
ENDBRANCH  28  35
ENDBRANCH   1  24
TORSDOF 8
ENDMDL
MODEL 2
REMARK VINA RESULT:      -9.4      1.871      2.072
REMARK  8 active torsions:
REMARK  status: ('A' for Active; 'I' for Inactive)
REMARK    1  A    between atoms: C_7  and  C_8 
REMARK       I    between atoms: C_8  and  N_9 
REMARK    2  A    between atoms: N_9  and  N_10 
REMARK    3  A    between atoms: N_10  and  C_11 
REMARK    4  A    between atoms: C_11  and  N_12 
REMARK    5  A    between atoms: N_12  and  C_13 
REMARK    6  A    between atoms: N_15  and  C_16 
REMARK    7  A    between atoms: C_16  and  C_17 
REMARK    8  A    between atoms: C_29  and  C_30 
ROOT
HETATM    1  C   UNL     1      -4.470   4.682 -34.005  1.00  0.00     0.290 C 
HETATM    2  N   UNL     1      -5.474   3.992 -33.356  1.00  0.00    -0.262 N 
HETATM    3  O   UNL     1      -4.478   4.977 -35.196  1.00  0.00    -0.264 OA
HETATM    4  H   UNL     1      -5.414   3.897 -32.342  1.00  0.00     0.190 HD
ENDROOT
BRANCH   2   5
HETATM    5  N   UNL     1      -6.689   3.715 -33.980  1.00  0.00    -0.273 N 
HETATM    6  H   UNL     1      -6.725   3.779 -35.004  1.00  0.00     0.189 HD
BRANCH   5   7
HETATM    7  C   UNL     1      -7.685   3.030 -33.338  1.00  0.00     0.192 C 
HETATM    8  S   UNL     1      -9.310   3.090 -33.761  1.00  0.00    -0.039 SA
BRANCH   7   9
HETATM    9  N   UNL     1      -7.332   2.253 -32.273  1.00  0.00    -0.315 N 
HETATM   10  H   UNL     1      -7.638   2.586 -31.369  1.00  0.00     0.170 HD
BRANCH   9  11
HETATM   11  C   UNL     1      -6.530   1.131 -32.278  1.00  0.00     0.151 A 
HETATM   12  N   UNL     1      -5.681   0.812 -33.260  1.00  0.00    -0.154 NA
HETATM   13  N   UNL     1      -5.090  -0.325 -32.833  1.00  0.00    -0.275 N 
HETATM   14  C   UNL     1      -5.550  -0.745 -31.618  1.00  0.00     0.116 A 
HETATM   15  C   UNL     1      -6.493   0.179 -31.234  1.00  0.00     0.071 A 
BRANCH  13  16
HETATM   16  C   UNL     1      -4.125  -1.010 -33.682  1.00  0.00     0.192 C 
BRANCH  16  17
HETATM   17  C   UNL     1      -4.587  -2.392 -34.046  1.00  0.00     0.000 A 
HETATM   18  C   UNL     1      -5.726  -2.572 -34.835  1.00  0.00     0.124 A 
HETATM   19  F   UNL     1      -6.403  -1.502 -35.277  1.00  0.00    -0.205 F 
HETATM   20  C   UNL     1      -6.176  -3.844 -35.179  1.00  0.00     0.043 A 
HETATM   21  C   UNL     1      -5.483  -4.965 -34.730  1.00  0.00     0.003 A 
HETATM   22  C   UNL     1      -4.347  -4.807 -33.933  1.00  0.00     0.001 A 
HETATM   23  C   UNL     1      -3.903  -3.528 -33.588  1.00  0.00     0.012 A 
ENDBRANCH  16  17
ENDBRANCH  13  16
ENDBRANCH   9  11
ENDBRANCH   7   9
ENDBRANCH   5   7
ENDBRANCH   2   5
BRANCH   1  24
HETATM   24  C   UNL     1      -3.365   5.024 -33.095  1.00  0.00     0.150 A 
HETATM   25  N   UNL     1      -2.813   6.260 -33.086  1.00  0.00    -0.165 NA
HETATM   26  N   UNL     1      -1.901   6.189 -32.105  1.00  0.00    -0.240 N 
HETATM   27  C   UNL     1      -1.764   4.948 -31.554  1.00  0.00     0.123 A 
HETATM   28  C   UNL     1      -1.108   7.336 -31.716  1.00  0.00     0.221 C 
HETATM   29  N   UNL     1      -0.829   4.689 -30.618  1.00  0.00    -0.371 N 
HETATM   30  C   UNL     1      -2.728   4.173 -32.148  1.00  0.00     0.089 A 
HETATM   31  C   UNL     1       0.201   5.648 -30.236  1.00  0.00     0.081 C 
HETATM   32  H   UNL     1      -0.739   3.755 -30.218  1.00  0.00     0.161 HD
HETATM   33  C   UNL     1       0.054   6.009 -28.762  1.00  0.00     0.032 C 
HETATM   34  C   UNL     1       0.252   6.863 -31.179  1.00  0.00     0.061 C 
BRANCH  28  35
HETATM   35  C   UNL     1      -1.894   8.198 -30.756  1.00  0.00     0.409 C 
HETATM   36  F   UNL     1      -2.820   7.484 -30.075  1.00  0.00    -0.169 F 
HETATM   37  F   UNL     1      -1.134   8.839 -29.847  1.00  0.00    -0.169 F 
HETATM   38  F   UNL     1      -2.577   9.153 -31.440  1.00  0.00    -0.169 F 
ENDBRANCH  28  35
ENDBRANCH   1  24
TORSDOF 8
ENDMDL
MODEL 3
REMARK VINA RESULT:      -9.3      1.916      2.859
REMARK  8 active torsions:
REMARK  status: ('A' for Active; 'I' for Inactive)
REMARK    1  A    between atoms: C_7  and  C_8 
REMARK       I    between atoms: C_8  and  N_9 
REMARK    2  A    between atoms: N_9  and  N_10 
REMARK    3  A    between atoms: N_10  and  C_11 
REMARK    4  A    between atoms: C_11  and  N_12 
REMARK    5  A    between atoms: N_12  and  C_13 
REMARK    6  A    between atoms: N_15  and  C_16 
REMARK    7  A    between atoms: C_16  and  C_17 
REMARK    8  A    between atoms: C_29  and  C_30 
ROOT
HETATM    1  C   UNL     1      -5.804   3.257 -30.443  1.00  0.00     0.290 C 
HETATM    2  N   UNL     1      -7.085   3.770 -30.497  1.00  0.00    -0.262 N 
HETATM    3  O   UNL     1      -5.457   2.307 -29.747  1.00  0.00    -0.264 OA
HETATM    4  H   UNL     1      -7.285   4.490 -31.190  1.00  0.00     0.190 HD
ENDROOT
BRANCH   2   5
HETATM    5  N   UNL     1      -8.154   3.125 -29.878  1.00  0.00    -0.273 N 
HETATM    6  H   UNL     1      -8.100   2.979 -28.863  1.00  0.00     0.189 HD
BRANCH   5   7
HETATM    7  C   UNL     1      -9.377   3.023 -30.484  1.00  0.00     0.192 C 
HETATM    8  S   UNL     1     -10.512   4.259 -30.558  1.00  0.00    -0.039 SA
BRANCH   7   9
HETATM    9  N   UNL     1      -9.698   1.826 -31.059  1.00  0.00    -0.315 N 
HETATM   10  H   UNL     1     -10.515   1.367 -30.681  1.00  0.00     0.170 HD
BRANCH   9  11
HETATM   11  C   UNL     1      -8.989   1.135 -32.018  1.00  0.00     0.151 A 
HETATM   12  N   UNL     1      -7.740   1.429 -32.393  1.00  0.00    -0.154 NA
HETATM   13  N   UNL     1      -7.437   0.485 -33.310  1.00  0.00    -0.275 N 
HETATM   14  C   UNL     1      -8.462  -0.387 -33.540  1.00  0.00     0.116 A 
HETATM   15  C   UNL     1      -9.487   0.013 -32.718  1.00  0.00     0.071 A 
BRANCH  13  16
HETATM   16  C   UNL     1      -6.151   0.516 -33.995  1.00  0.00     0.192 C 
BRANCH  16  17
HETATM   17  C   UNL     1      -5.155  -0.404 -33.351  1.00  0.00     0.000 A 
HETATM   18  C   UNL     1      -4.941  -1.685 -33.865  1.00  0.00     0.124 A 
HETATM   19  F   UNL     1      -5.623  -2.088 -34.948  1.00  0.00    -0.205 F 
HETATM   20  C   UNL     1      -4.027  -2.559 -33.281  1.00  0.00     0.043 A 
HETATM   21  C   UNL     1      -3.309  -2.154 -32.158  1.00  0.00     0.003 A 
HETATM   22  C   UNL     1      -3.515  -0.881 -31.623  1.00  0.00     0.001 A 
HETATM   23  C   UNL     1      -4.437  -0.011 -32.212  1.00  0.00     0.012 A 
ENDBRANCH  16  17
ENDBRANCH  13  16
ENDBRANCH   9  11
ENDBRANCH   7   9
ENDBRANCH   5   7
ENDBRANCH   2   5
BRANCH   1  24
HETATM   24  C   UNL     1      -4.882   3.994 -31.322  1.00  0.00     0.150 A 
HETATM   25  N   UNL     1      -4.144   5.031 -30.862  1.00  0.00    -0.165 NA
HETATM   26  N   UNL     1      -3.408   5.389 -31.926  1.00  0.00    -0.240 N 
HETATM   27  C   UNL     1      -3.708   4.707 -33.070  1.00  0.00     0.123 A 
HETATM   28  C   UNL     1      -2.422   6.445 -31.852  1.00  0.00     0.221 C 
HETATM   29  N   UNL     1      -3.121   5.007 -34.246  1.00  0.00    -0.371 N 
HETATM   30  C   UNL     1      -4.636   3.765 -32.705  1.00  0.00     0.089 A 
HETATM   31  C   UNL     1      -2.254   6.166 -34.430  1.00  0.00     0.081 C 
HETATM   32  H   UNL     1      -3.357   4.489 -35.092  1.00  0.00     0.161 HD
HETATM   33  C   UNL     1      -0.854   5.709 -34.824  1.00  0.00     0.032 C 
HETATM   34  C   UNL     1      -2.287   7.122 -33.225  1.00  0.00     0.061 C 
BRANCH  28  35
HETATM   35  C   UNL     1      -1.128   5.896 -31.296  1.00  0.00     0.409 C 
HETATM   36  F   UNL     1      -0.054   6.596 -31.729  1.00  0.00    -0.169 F 
HETATM   37  F   UNL     1      -1.075   5.871 -29.950  1.00  0.00    -0.169 F 
HETATM   38  F   UNL     1      -0.945   4.618 -31.721  1.00  0.00    -0.169 F 
ENDBRANCH  28  35
ENDBRANCH   1  24
TORSDOF 8
ENDMDL
MODEL 4
REMARK VINA RESULT:      -9.3      2.154      2.836
REMARK  8 active torsions:
REMARK  status: ('A' for Active; 'I' for Inactive)
REMARK    1  A    between atoms: C_7  and  C_8 
REMARK       I    between atoms: C_8  and  N_9 
REMARK    2  A    between atoms: N_9  and  N_10 
REMARK    3  A    between atoms: N_10  and  C_11 
REMARK    4  A    between atoms: C_11  and  N_12 
REMARK    5  A    between atoms: N_12  and  C_13 
REMARK    6  A    between atoms: N_15  and  C_16 
REMARK    7  A    between atoms: C_16  and  C_17 
REMARK    8  A    between atoms: C_29  and  C_30 
ROOT
HETATM    1  C   UNL     1      -6.670   1.725 -31.259  1.00  0.00     0.290 C 
HETATM    2  N   UNL     1      -7.915   2.316 -31.177  1.00  0.00    -0.262 N 
HETATM    3  O   UNL     1      -6.461   0.517 -31.201  1.00  0.00    -0.264 OA
HETATM    4  H   UNL     1      -7.983   3.319 -31.345  1.00  0.00     0.190 HD
ENDROOT
BRANCH   2   5
HETATM    5  N   UNL     1      -9.084   1.557 -31.192  1.00  0.00    -0.273 N 
HETATM    6  H   UNL     1      -9.654   1.541 -30.339  1.00  0.00     0.189 HD
BRANCH   5   7
HETATM    7  C   UNL     1      -9.663   1.158 -32.366  1.00  0.00     0.192 C 
HETATM    8  S   UNL     1     -10.810   2.045 -33.214  1.00  0.00    -0.039 SA
BRANCH   7   9
HETATM    9  N   UNL     1      -9.288  -0.052 -32.876  1.00  0.00    -0.315 N 
HETATM   10  H   UNL     1      -9.791  -0.852 -32.516  1.00  0.00     0.170 HD
BRANCH   9  11
HETATM   11  C   UNL     1      -8.248  -0.316 -33.742  1.00  0.00     0.151 A 
HETATM   12  N   UNL     1      -7.608  -1.487 -33.821  1.00  0.00    -0.154 NA
HETATM   13  N   UNL     1      -6.706  -1.307 -34.810  1.00  0.00    -0.275 N 
HETATM   14  C   UNL     1      -6.743  -0.053 -35.348  1.00  0.00     0.116 A 
HETATM   15  C   UNL     1      -7.733   0.617 -34.670  1.00  0.00     0.071 A 
BRANCH  13  16
HETATM   16  C   UNL     1      -5.772  -2.372 -35.151  1.00  0.00     0.192 C 
BRANCH  16  17
HETATM   17  C   UNL     1      -4.790  -2.627 -34.044  1.00  0.00     0.000 A 
HETATM   18  C   UNL     1      -4.274  -3.909 -33.838  1.00  0.00     0.124 A 
HETATM   19  F   UNL     1      -4.650  -4.913 -34.643  1.00  0.00    -0.205 F 
HETATM   20  C   UNL     1      -3.367  -4.170 -32.814  1.00  0.00     0.043 A 
HETATM   21  C   UNL     1      -2.964  -3.137 -31.971  1.00  0.00     0.003 A 
HETATM   22  C   UNL     1      -3.476  -1.851 -32.154  1.00  0.00     0.001 A 
HETATM   23  C   UNL     1      -4.389  -1.597 -33.181  1.00  0.00     0.012 A 
ENDBRANCH  16  17
ENDBRANCH  13  16
ENDBRANCH   9  11
ENDBRANCH   7   9
ENDBRANCH   5   7
ENDBRANCH   2   5
BRANCH   1  24
HETATM   24  C   UNL     1      -5.600   2.723 -31.419  1.00  0.00     0.150 A 
HETATM   25  N   UNL     1      -4.869   2.800 -32.555  1.00  0.00    -0.165 NA
HETATM   26  N   UNL     1      -4.058   3.846 -32.335  1.00  0.00    -0.240 N 
HETATM   27  C   UNL     1      -4.156   4.379 -31.082  1.00  0.00     0.123 A 
HETATM   28  C   UNL     1      -3.132   4.318 -33.342  1.00  0.00     0.221 C 
HETATM   29  N   UNL     1      -3.347   5.378 -30.674  1.00  0.00    -0.371 N 
HETATM   30  C   UNL     1      -5.177   3.697 -30.470  1.00  0.00     0.089 A 
HETATM   31  C   UNL     1      -2.215   5.857 -31.459  1.00  0.00     0.081 C 
HETATM   32  H   UNL     1      -3.432   5.764 -29.734  1.00  0.00     0.161 HD
HETATM   33  C   UNL     1      -2.421   7.322 -31.826  1.00  0.00     0.032 C 
HETATM   34  C   UNL     1      -1.906   4.947 -32.661  1.00  0.00     0.061 C 
BRANCH  28  35
HETATM   35  C   UNL     1      -3.849   5.234 -34.306  1.00  0.00     0.409 C 
HETATM   36  F   UNL     1      -3.023   6.172 -34.824  1.00  0.00    -0.169 F 
HETATM   37  F   UNL     1      -4.431   4.596 -35.340  1.00  0.00    -0.169 F 
HETATM   38  F   UNL     1      -4.833   5.911 -33.658  1.00  0.00    -0.169 F 
ENDBRANCH  28  35
ENDBRANCH   1  24
TORSDOF 8
ENDMDL
MODEL 5
REMARK VINA RESULT:      -9.2      3.340      4.577
REMARK  8 active torsions:
REMARK  status: ('A' for Active; 'I' for Inactive)
REMARK    1  A    between atoms: C_7  and  C_8 
REMARK       I    between atoms: C_8  and  N_9 
REMARK    2  A    between atoms: N_9  and  N_10 
REMARK    3  A    between atoms: N_10  and  C_11 
REMARK    4  A    between atoms: C_11  and  N_12 
REMARK    5  A    between atoms: N_12  and  C_13 
REMARK    6  A    between atoms: N_15  and  C_16 
REMARK    7  A    between atoms: C_16  and  C_17 
REMARK    8  A    between atoms: C_29  and  C_30 
ROOT
HETATM    1  C   UNL     1      -1.373   5.048 -31.493  1.00  0.00     0.290 C 
HETATM    2  N   UNL     1      -2.438   4.279 -31.071  1.00  0.00    -0.262 N 
HETATM    3  O   UNL     1      -0.847   4.972 -32.600  1.00  0.00    -0.264 OA
HETATM    4  H   UNL     1      -2.865   4.502 -30.172  1.00  0.00     0.190 HD
ENDROOT
BRANCH   2   5
HETATM    5  N   UNL     1      -3.131   3.450 -31.951  1.00  0.00    -0.273 N 
HETATM    6  H   UNL     1      -2.758   2.508 -32.113  1.00  0.00     0.189 HD
BRANCH   5   7
HETATM    7  C   UNL     1      -4.432   3.700 -32.297  1.00  0.00     0.192 C 
HETATM    8  S   UNL     1      -4.926   4.937 -33.320  1.00  0.00    -0.039 SA
BRANCH   7   9
HETATM    9  N   UNL     1      -5.394   2.890 -31.764  1.00  0.00    -0.315 N 
HETATM   10  H   UNL     1      -5.822   3.226 -30.911  1.00  0.00     0.170 HD
BRANCH   9  11
HETATM   11  C   UNL     1      -5.775   1.637 -32.194  1.00  0.00     0.151 A 
HETATM   12  N   UNL     1      -5.853   1.270 -33.477  1.00  0.00    -0.154 NA
HETATM   13  N   UNL     1      -6.222  -0.029 -33.430  1.00  0.00    -0.275 N 
HETATM   14  C   UNL     1      -6.396  -0.490 -32.157  1.00  0.00     0.116 A 
HETATM   15  C   UNL     1      -6.119   0.573 -31.331  1.00  0.00     0.071 A 
BRANCH  13  16
HETATM   16  C   UNL     1      -6.463  -0.766 -34.663  1.00  0.00     0.192 C 
BRANCH  16  17
HETATM   17  C   UNL     1      -5.970  -2.181 -34.572  1.00  0.00     0.000 A 
HETATM   18  C   UNL     1      -4.633  -2.445 -34.266  1.00  0.00     0.124 A 
HETATM   19  F   UNL     1      -3.790  -1.427 -34.041  1.00  0.00    -0.205 F 
HETATM   20  C   UNL     1      -4.152  -3.749 -34.183  1.00  0.00     0.043 A 
HETATM   21  C   UNL     1      -5.016  -4.818 -34.411  1.00  0.00     0.003 A 
HETATM   22  C   UNL     1      -6.353  -4.575 -34.728  1.00  0.00     0.001 A 
HETATM   23  C   UNL     1      -6.829  -3.263 -34.814  1.00  0.00     0.012 A 
ENDBRANCH  16  17
ENDBRANCH  13  16
ENDBRANCH   9  11
ENDBRANCH   7   9
ENDBRANCH   5   7
ENDBRANCH   2   5
BRANCH   1  24
HETATM   24  C   UNL     1      -0.923   5.982 -30.448  1.00  0.00     0.150 A 
HETATM   25  N   UNL     1      -1.791   6.523 -29.562  1.00  0.00    -0.165 NA
HETATM   26  N   UNL     1      -1.004   7.254 -28.758  1.00  0.00    -0.240 N 
HETATM   27  C   UNL     1       0.305   7.296 -29.142  1.00  0.00     0.123 A 
HETATM   28  C   UNL     1      -1.533   7.968 -27.617  1.00  0.00     0.221 C 
HETATM   29  N   UNL     1       1.208   8.057 -28.492  1.00  0.00    -0.371 N 
HETATM   30  C   UNL     1       0.402   6.448 -30.216  1.00  0.00     0.089 A 
HETATM   31  C   UNL     1       0.842   9.007 -27.446  1.00  0.00     0.081 C 
HETATM   32  H   UNL     1       2.182   8.078 -28.792  1.00  0.00     0.161 HD
HETATM   33  C   UNL     1       1.502   8.610 -26.130  1.00  0.00     0.032 C 
HETATM   34  C   UNL     1      -0.679   9.217 -27.348  1.00  0.00     0.061 C 
BRANCH  28  35
HETATM   35  C   UNL     1      -1.654   7.030 -26.439  1.00  0.00     0.409 C 
HETATM   36  F   UNL     1      -2.852   6.400 -26.413  1.00  0.00    -0.169 F 
HETATM   37  F   UNL     1      -0.700   6.080 -26.393  1.00  0.00    -0.169 F 
HETATM   38  F   UNL     1      -1.568   7.729 -25.276  1.00  0.00    -0.169 F 
ENDBRANCH  28  35
ENDBRANCH   1  24
TORSDOF 8
ENDMDL
MODEL 6
REMARK VINA RESULT:      -9.2      1.522      1.847
REMARK  8 active torsions:
REMARK  status: ('A' for Active; 'I' for Inactive)
REMARK    1  A    between atoms: C_7  and  C_8 
REMARK       I    between atoms: C_8  and  N_9 
REMARK    2  A    between atoms: N_9  and  N_10 
REMARK    3  A    between atoms: N_10  and  C_11 
REMARK    4  A    between atoms: C_11  and  N_12 
REMARK    5  A    between atoms: N_12  and  C_13 
REMARK    6  A    between atoms: N_15  and  C_16 
REMARK    7  A    between atoms: C_16  and  C_17 
REMARK    8  A    between atoms: C_29  and  C_30 
ROOT
HETATM    1  C   UNL     1      -7.430   4.575 -33.095  1.00  0.00     0.290 C 
HETATM    2  N   UNL     1      -8.058   4.009 -32.004  1.00  0.00    -0.262 N 
HETATM    3  O   UNL     1      -7.961   4.779 -34.183  1.00  0.00    -0.264 OA
HETATM    4  H   UNL     1      -7.554   3.986 -31.118  1.00  0.00     0.190 HD
ENDROOT
BRANCH   2   5
HETATM    5  N   UNL     1      -9.432   3.773 -31.996  1.00  0.00    -0.273 N 
HETATM    6  H   UNL     1     -10.056   4.587 -32.030  1.00  0.00     0.189 HD
BRANCH   5   7
HETATM    7  C   UNL     1      -9.950   2.545 -32.309  1.00  0.00     0.192 C 
HETATM    8  S   UNL     1     -11.247   2.294 -33.347  1.00  0.00    -0.039 SA
BRANCH   7   9
HETATM    9  N   UNL     1      -9.376   1.451 -31.728  1.00  0.00    -0.315 N 
HETATM   10  H   UNL     1      -9.772   1.172 -30.840  1.00  0.00     0.170 HD
BRANCH   9  11
HETATM   11  C   UNL     1      -8.270   0.751 -32.158  1.00  0.00     0.151 A 
HETATM   12  N   UNL     1      -7.970   0.525 -33.441  1.00  0.00    -0.154 NA
HETATM   13  N   UNL     1      -6.802  -0.152 -33.396  1.00  0.00    -0.275 N 
HETATM   14  C   UNL     1      -6.362  -0.377 -32.123  1.00  0.00     0.116 A 
HETATM   15  C   UNL     1      -7.299   0.194 -31.296  1.00  0.00     0.071 A 
BRANCH  13  16
HETATM   16  C   UNL     1      -6.184  -0.627 -34.627  1.00  0.00     0.192 C 
BRANCH  16  17
HETATM   17  C   UNL     1      -5.858  -2.091 -34.558  1.00  0.00     0.000 A 
HETATM   18  C   UNL     1      -4.565  -2.513 -34.236  1.00  0.00     0.124 A 
HETATM   19  F   UNL     1      -3.615  -1.603 -33.976  1.00  0.00    -0.205 F 
HETATM   20  C   UNL     1      -4.238  -3.865 -34.172  1.00  0.00     0.043 A 
HETATM   21  C   UNL     1      -5.215  -4.823 -34.437  1.00  0.00     0.003 A 
HETATM   22  C   UNL     1      -6.509  -4.422 -34.770  1.00  0.00     0.001 A 
HETATM   23  C   UNL     1      -6.830  -3.063 -34.836  1.00  0.00     0.012 A 
ENDBRANCH  16  17
ENDBRANCH  13  16
ENDBRANCH   9  11
ENDBRANCH   7   9
ENDBRANCH   5   7
ENDBRANCH   2   5
BRANCH   1  24
HETATM   24  C   UNL     1      -6.025   4.905 -32.807  1.00  0.00     0.150 A 
HETATM   25  N   UNL     1      -5.007   4.297 -33.460  1.00  0.00    -0.165 NA
HETATM   26  N   UNL     1      -3.914   4.899 -32.967  1.00  0.00    -0.240 N 
HETATM   27  C   UNL     1      -4.168   5.785 -31.960  1.00  0.00     0.123 A 
HETATM   28  C   UNL     1      -2.587   4.581 -33.447  1.00  0.00     0.221 C 
HETATM   29  N   UNL     1      -3.171   6.408 -31.299  1.00  0.00    -0.371 N 
HETATM   30  C   UNL     1      -5.534   5.843 -31.855  1.00  0.00     0.089 A 
HETATM   31  C   UNL     1      -1.762   6.076 -31.488  1.00  0.00     0.081 C 
HETATM   32  H   UNL     1      -3.377   7.065 -30.549  1.00  0.00     0.161 HD
HETATM   33  C   UNL     1      -1.011   7.288 -32.026  1.00  0.00     0.032 C 
HETATM   34  C   UNL     1      -1.566   4.796 -32.318  1.00  0.00     0.061 C 
BRANCH  28  35
HETATM   35  C   UNL     1      -2.298   5.363 -34.707  1.00  0.00     0.409 C 
HETATM   36  F   UNL     1      -2.361   6.699 -34.500  1.00  0.00    -0.169 F 
HETATM   37  F   UNL     1      -1.096   5.097 -35.255  1.00  0.00    -0.169 F 
HETATM   38  F   UNL     1      -3.232   5.080 -35.653  1.00  0.00    -0.169 F 
ENDBRANCH  28  35
ENDBRANCH   1  24
TORSDOF 8
ENDMDL
MODEL 7
REMARK VINA RESULT:      -9.1      3.736      5.347
REMARK  8 active torsions:
REMARK  status: ('A' for Active; 'I' for Inactive)
REMARK    1  A    between atoms: C_7  and  C_8 
REMARK       I    between atoms: C_8  and  N_9 
REMARK    2  A    between atoms: N_9  and  N_10 
REMARK    3  A    between atoms: N_10  and  C_11 
REMARK    4  A    between atoms: C_11  and  N_12 
REMARK    5  A    between atoms: N_12  and  C_13 
REMARK    6  A    between atoms: N_15  and  C_16 
REMARK    7  A    between atoms: C_16  and  C_17 
REMARK    8  A    between atoms: C_29  and  C_30 
ROOT
HETATM    1  C   UNL     1      -0.876   5.397 -30.753  1.00  0.00     0.290 C 
HETATM    2  N   UNL     1      -2.155   4.998 -31.085  1.00  0.00    -0.262 N 
HETATM    3  O   UNL     1       0.153   4.882 -31.180  1.00  0.00    -0.264 OA
HETATM    4  H   UNL     1      -2.936   5.565 -30.757  1.00  0.00     0.190 HD
ENDROOT
BRANCH   2   5
HETATM    5  N   UNL     1      -2.388   4.062 -32.092  1.00  0.00    -0.273 N 
HETATM    6  H   UNL     1      -2.372   3.069 -31.833  1.00  0.00     0.189 HD
BRANCH   5   7
HETATM    7  C   UNL     1      -2.980   4.415 -33.275  1.00  0.00     0.192 C 
HETATM    8  S   UNL     1      -2.203   5.224 -34.526  1.00  0.00    -0.039 SA
BRANCH   7   9
HETATM    9  N   UNL     1      -4.296   4.093 -33.443  1.00  0.00    -0.315 N 
HETATM   10  H   UNL     1      -4.815   4.695 -34.068  1.00  0.00     0.170 HD
BRANCH   9  11
HETATM   11  C   UNL     1      -5.015   3.115 -32.790  1.00  0.00     0.151 A 
HETATM   12  N   UNL     1      -4.579   1.868 -32.581  1.00  0.00    -0.154 NA
HETATM   13  N   UNL     1      -5.574   1.280 -31.884  1.00  0.00    -0.275 N 
HETATM   14  C   UNL     1      -6.635   2.109 -31.660  1.00  0.00     0.116 A 
HETATM   15  C   UNL     1      -6.303   3.309 -32.243  1.00  0.00     0.071 A 
BRANCH  13  16
HETATM   16  C   UNL     1      -5.477  -0.127 -31.517  1.00  0.00     0.192 C 
BRANCH  16  17
HETATM   17  C   UNL     1      -5.537  -1.022 -32.721  1.00  0.00     0.000 A 
HETATM   18  C   UNL     1      -4.425  -1.780 -33.094  1.00  0.00     0.124 A 
HETATM   19  F   UNL     1      -3.302  -1.715 -32.364  1.00  0.00    -0.205 F 
HETATM   20  C   UNL     1      -4.455  -2.612 -34.210  1.00  0.00     0.043 A 
HETATM   21  C   UNL     1      -5.614  -2.693 -34.978  1.00  0.00     0.003 A 
HETATM   22  C   UNL     1      -6.734  -1.937 -34.627  1.00  0.00     0.001 A 
HETATM   23  C   UNL     1      -6.696  -1.101 -33.508  1.00  0.00     0.012 A 
ENDBRANCH  16  17
ENDBRANCH  13  16
ENDBRANCH   9  11
ENDBRANCH   7   9
ENDBRANCH   5   7
ENDBRANCH   2   5
BRANCH   1  24
HETATM   24  C   UNL     1      -0.883   6.523 -29.807  1.00  0.00     0.150 A 
HETATM   25  N   UNL     1      -0.392   6.397 -28.552  1.00  0.00    -0.165 NA
HETATM   26  N   UNL     1      -0.523   7.629 -28.037  1.00  0.00    -0.240 N 
HETATM   27  C   UNL     1      -1.166   8.513 -28.855  1.00  0.00     0.123 A 
HETATM   28  C   UNL     1      -0.058   7.953 -26.706  1.00  0.00     0.221 C 
HETATM   29  N   UNL     1      -1.455   9.767 -28.452  1.00  0.00    -0.371 N 
HETATM   30  C   UNL     1      -1.381   7.839 -30.031  1.00  0.00     0.089 A 
HETATM   31  C   UNL     1      -1.257  10.228 -27.082  1.00  0.00     0.081 C 
HETATM   32  H   UNL     1      -1.937  10.414 -29.075  1.00  0.00     0.161 HD
HETATM   33  C   UNL     1      -0.247  11.369 -27.060  1.00  0.00     0.032 C 
HETATM   34  C   UNL     1      -0.925   9.077 -26.117  1.00  0.00     0.061 C 
BRANCH  28  35
HETATM   35  C   UNL     1       1.421   8.260 -26.743  1.00  0.00     0.409 C 
HETATM   36  F   UNL     1       2.174   7.154 -26.539  1.00  0.00    -0.169 F 
HETATM   37  F   UNL     1       1.837   8.821 -27.895  1.00  0.00    -0.169 F 
HETATM   38  F   UNL     1       1.741   9.127 -25.746  1.00  0.00    -0.169 F 
ENDBRANCH  28  35
ENDBRANCH   1  24
TORSDOF 8
ENDMDL
MODEL 8
REMARK VINA RESULT:      -9.0      1.893      2.281
REMARK  8 active torsions:
REMARK  status: ('A' for Active; 'I' for Inactive)
REMARK    1  A    between atoms: C_7  and  C_8 
REMARK       I    between atoms: C_8  and  N_9 
REMARK    2  A    between atoms: N_9  and  N_10 
REMARK    3  A    between atoms: N_10  and  C_11 
REMARK    4  A    between atoms: C_11  and  N_12 
REMARK    5  A    between atoms: N_12  and  C_13 
REMARK    6  A    between atoms: N_15  and  C_16 
REMARK    7  A    between atoms: C_16  and  C_17 
REMARK    8  A    between atoms: C_29  and  C_30 
ROOT
HETATM    1  C   UNL     1      -6.029   2.825 -30.195  1.00  0.00     0.290 C 
HETATM    2  N   UNL     1      -7.297   3.371 -30.239  1.00  0.00    -0.262 N 
HETATM    3  O   UNL     1      -5.778   1.653 -29.929  1.00  0.00    -0.264 OA
HETATM    4  H   UNL     1      -7.397   4.327 -30.577  1.00  0.00     0.190 HD
ENDROOT
BRANCH   2   5
HETATM    5  N   UNL     1      -8.436   2.573 -30.148  1.00  0.00    -0.273 N 
HETATM    6  H   UNL     1      -8.689   2.205 -29.224  1.00  0.00     0.189 HD
BRANCH   5   7
HETATM    7  C   UNL     1      -9.391   2.574 -31.129  1.00  0.00     0.192 C 
HETATM    8  S   UNL     1     -10.398   3.872 -31.479  1.00  0.00    -0.039 SA
BRANCH   7   9
HETATM    9  N   UNL     1      -9.539   1.434 -31.867  1.00  0.00    -0.315 N 
HETATM   10  H   UNL     1     -10.313   0.840 -31.600  1.00  0.00     0.170 HD
BRANCH   9  11
HETATM   11  C   UNL     1      -8.707   0.957 -32.857  1.00  0.00     0.151 A 
HETATM   12  N   UNL     1      -7.467   0.504 -32.649  1.00  0.00    -0.154 NA
HETATM   13  N   UNL     1      -7.047   0.111 -33.871  1.00  0.00    -0.275 N 
HETATM   14  C   UNL     1      -7.977   0.316 -34.849  1.00  0.00     0.116 A 
HETATM   15  C   UNL     1      -9.066   0.871 -34.221  1.00  0.00     0.071 A 
BRANCH  13  16
HETATM   16  C   UNL     1      -5.693  -0.398 -34.050  1.00  0.00     0.192 C 
BRANCH  16  17
HETATM   17  C   UNL     1      -5.680  -1.885 -34.257  1.00  0.00     0.000 A 
HETATM   18  C   UNL     1      -4.524  -2.624 -33.994  1.00  0.00     0.124 A 
HETATM   19  F   UNL     1      -3.425  -2.001 -33.543  1.00  0.00    -0.205 F 
HETATM   20  C   UNL     1      -4.486  -4.003 -34.184  1.00  0.00     0.043 A 
HETATM   21  C   UNL     1      -5.620  -4.666 -34.648  1.00  0.00     0.003 A 
HETATM   22  C   UNL     1      -6.782  -3.944 -34.926  1.00  0.00     0.001 A 
HETATM   23  C   UNL     1      -6.812  -2.559 -34.737  1.00  0.00     0.012 A 
ENDBRANCH  16  17
ENDBRANCH  13  16
ENDBRANCH   9  11
ENDBRANCH   7   9
ENDBRANCH   5   7
ENDBRANCH   2   5
BRANCH   1  24
HETATM   24  C   UNL     1      -4.993   3.824 -30.501  1.00  0.00     0.150 A 
HETATM   25  N   UNL     1      -3.829   3.476 -31.098  1.00  0.00    -0.165 NA
HETATM   26  N   UNL     1      -3.194   4.647 -31.253  1.00  0.00    -0.240 N 
HETATM   27  C   UNL     1      -3.838   5.713 -30.695  1.00  0.00     0.123 A 
HETATM   28  C   UNL     1      -1.911   4.737 -31.917  1.00  0.00     0.221 C 
HETATM   29  N   UNL     1      -3.290   6.945 -30.687  1.00  0.00    -0.371 N 
HETATM   30  C   UNL     1      -5.031   5.221 -30.230  1.00  0.00     0.089 A 
HETATM   31  C   UNL     1      -1.922   7.210 -31.119  1.00  0.00     0.081 C 
HETATM   32  H   UNL     1      -3.784   7.731 -30.265  1.00  0.00     0.161 HD
HETATM   33  C   UNL     1      -1.929   8.153 -32.317  1.00  0.00     0.032 C 
HETATM   34  C   UNL     1      -1.115   5.919 -31.342  1.00  0.00     0.061 C 
BRANCH  28  35
HETATM   35  C   UNL     1      -2.113   4.789 -33.413  1.00  0.00     0.409 C 
HETATM   36  F   UNL     1      -3.251   5.439 -33.749  1.00  0.00    -0.169 F 
HETATM   37  F   UNL     1      -1.102   5.376 -34.083  1.00  0.00    -0.169 F 
HETATM   38  F   UNL     1      -2.234   3.530 -33.910  1.00  0.00    -0.169 F 
ENDBRANCH  28  35
ENDBRANCH   1  24
TORSDOF 8
ENDMDL
MODEL 9
REMARK VINA RESULT:      -8.9      3.849      5.405
REMARK  8 active torsions:
REMARK  status: ('A' for Active; 'I' for Inactive)
REMARK    1  A    between atoms: C_7  and  C_8 
REMARK       I    between atoms: C_8  and  N_9 
REMARK    2  A    between atoms: N_9  and  N_10 
REMARK    3  A    between atoms: N_10  and  C_11 
REMARK    4  A    between atoms: C_11  and  N_12 
REMARK    5  A    between atoms: N_12  and  C_13 
REMARK    6  A    between atoms: N_15  and  C_16 
REMARK    7  A    between atoms: C_16  and  C_17 
REMARK    8  A    between atoms: C_29  and  C_30 
ROOT
HETATM    1  C   UNL     1      -0.615   5.284 -30.823  1.00  0.00     0.290 C 
HETATM    2  N   UNL     1      -1.914   4.891 -31.076  1.00  0.00    -0.262 N 
HETATM    3  O   UNL     1       0.377   4.839 -31.393  1.00  0.00    -0.264 OA
HETATM    4  H   UNL     1      -2.669   5.404 -30.621  1.00  0.00     0.190 HD
ENDROOT
BRANCH   2   5
HETATM    5  N   UNL     1      -2.226   4.055 -32.147  1.00  0.00    -0.273 N 
HETATM    6  H   UNL     1      -2.259   3.045 -31.971  1.00  0.00     0.189 HD
BRANCH   5   7
HETATM    7  C   UNL     1      -2.830   4.536 -33.278  1.00  0.00     0.192 C 
HETATM    8  S   UNL     1      -2.008   5.078 -34.640  1.00  0.00    -0.039 SA
BRANCH   7   9
HETATM    9  N   UNL     1      -4.194   4.586 -33.294  1.00  0.00    -0.315 N 
HETATM   10  H   UNL     1      -4.596   5.512 -33.246  1.00  0.00     0.170 HD
BRANCH   9  11
HETATM   11  C   UNL     1      -5.077   3.527 -33.267  1.00  0.00     0.151 A 
HETATM   12  N   UNL     1      -4.956   2.462 -32.468  1.00  0.00    -0.154 NA
HETATM   13  N   UNL     1      -6.044   1.712 -32.748  1.00  0.00    -0.275 N 
HETATM   14  C   UNL     1      -6.840   2.261 -33.711  1.00  0.00     0.116 A 
HETATM   15  C   UNL     1      -6.234   3.440 -34.073  1.00  0.00     0.071 A 
BRANCH  13  16
HETATM   16  C   UNL     1      -6.229   0.422 -32.097  1.00  0.00     0.192 C 
BRANCH  16  17
HETATM   17  C   UNL     1      -5.950  -0.719 -33.032  1.00  0.00     0.000 A 
HETATM   18  C   UNL     1      -6.997  -1.349 -33.710  1.00  0.00     0.124 A 
HETATM   19  F   UNL     1      -8.256  -0.922 -33.532  1.00  0.00    -0.205 F 
HETATM   20  C   UNL     1      -6.763  -2.413 -34.578  1.00  0.00     0.043 A 
HETATM   21  C   UNL     1      -5.461  -2.866 -34.776  1.00  0.00     0.003 A 
HETATM   22  C   UNL     1      -4.402  -2.257 -34.101  1.00  0.00     0.001 A 
HETATM   23  C   UNL     1      -4.644  -1.192 -33.229  1.00  0.00     0.012 A 
ENDBRANCH  16  17
ENDBRANCH  13  16
ENDBRANCH   9  11
ENDBRANCH   7   9
ENDBRANCH   5   7
ENDBRANCH   2   5
BRANCH   1  24
HETATM   24  C   UNL     1      -0.550   6.310 -29.770  1.00  0.00     0.150 A 
HETATM   25  N   UNL     1      -1.651   6.686 -29.078  1.00  0.00    -0.165 NA
HETATM   26  N   UNL     1      -1.177   7.576 -28.194  1.00  0.00    -0.240 N 
HETATM   27  C   UNL     1       0.147   7.870 -28.347  1.00  0.00     0.123 A 
HETATM   28  C   UNL     1      -2.031   8.194 -27.202  1.00  0.00     0.221 C 
HETATM   29  N   UNL     1       0.754   8.809 -27.594  1.00  0.00    -0.371 N 
HETATM   30  C   UNL     1       0.597   7.036 -29.339  1.00  0.00     0.089 A 
HETATM   31  C   UNL     1       0.030   9.689 -26.683  1.00  0.00     0.081 C 
HETATM   32  H   UNL     1       1.744   9.017 -27.722  1.00  0.00     0.161 HD
HETATM   33  C   UNL     1       0.505   9.458 -25.253  1.00  0.00     0.032 C 
HETATM   34  C   UNL     1      -1.495   9.594 -26.861  1.00  0.00     0.061 C 
BRANCH  28  35
HETATM   35  C   UNL     1      -2.180   7.276 -26.012  1.00  0.00     0.409 C 
HETATM   36  F   UNL     1      -1.095   6.485 -25.843  1.00  0.00    -0.169 F 
HETATM   37  F   UNL     1      -2.395   7.917 -24.847  1.00  0.00    -0.169 F 
HETATM   38  F   UNL     1      -3.235   6.439 -26.200  1.00  0.00    -0.169 F 
ENDBRANCH  28  35
ENDBRANCH   1  24
TORSDOF 8
ENDMDL
MODEL 10
REMARK VINA RESULT:      -8.6      2.706      3.636
REMARK  8 active torsions:
REMARK  status: ('A' for Active; 'I' for Inactive)
REMARK    1  A    between atoms: C_7  and  C_8 
REMARK       I    between atoms: C_8  and  N_9 
REMARK    2  A    between atoms: N_9  and  N_10 
REMARK    3  A    between atoms: N_10  and  C_11 
REMARK    4  A    between atoms: C_11  and  N_12 
REMARK    5  A    between atoms: N_12  and  C_13 
REMARK    6  A    between atoms: N_15  and  C_16 
REMARK    7  A    between atoms: C_16  and  C_17 
REMARK    8  A    between atoms: C_29  and  C_30 
ROOT
HETATM    1  C   UNL     1      -9.260   4.290 -31.864  1.00  0.00     0.290 C 
HETATM    2  N   UNL     1      -9.997   4.331 -33.030  1.00  0.00    -0.262 N 
HETATM    3  O   UNL     1      -9.719   4.052 -30.751  1.00  0.00    -0.264 OA
HETATM    4  H   UNL     1      -9.496   4.431 -33.913  1.00  0.00     0.190 HD
ENDROOT
BRANCH   2   5
HETATM    5  N   UNL     1     -11.331   3.927 -33.063  1.00  0.00    -0.273 N 
HETATM    6  H   UNL     1     -12.051   4.651 -32.962  1.00  0.00     0.189 HD
BRANCH   5   7
HETATM    7  C   UNL     1     -11.700   2.713 -33.576  1.00  0.00     0.192 C 
HETATM    8  S   UNL     1     -12.729   2.504 -34.886  1.00  0.00    -0.039 SA
BRANCH   7   9
HETATM    9  N   UNL     1     -11.201   1.594 -32.971  1.00  0.00    -0.315 N 
HETATM   10  H   UNL     1     -11.875   1.037 -32.464  1.00  0.00     0.170 HD
BRANCH   9  11
HETATM   11  C   UNL     1      -9.884   1.196 -32.891  1.00  0.00     0.151 A 
HETATM   12  N   UNL     1      -8.952   1.476 -33.808  1.00  0.00    -0.154 NA
HETATM   13  N   UNL     1      -7.821   0.931 -33.309  1.00  0.00    -0.275 N 
HETATM   14  C   UNL     1      -8.011   0.300 -32.114  1.00  0.00     0.116 A 
HETATM   15  C   UNL     1      -9.345   0.450 -31.819  1.00  0.00     0.071 A 
BRANCH  13  16
HETATM   16  C   UNL     1      -6.582   0.990 -34.075  1.00  0.00     0.192 C 
BRANCH  16  17
HETATM   17  C   UNL     1      -5.873  -0.333 -34.089  1.00  0.00     0.000 A 
HETATM   18  C   UNL     1      -6.425  -1.424 -34.764  1.00  0.00     0.124 A 
HETATM   19  F   UNL     1      -7.590  -1.282 -35.413  1.00  0.00    -0.205 F 
HETATM   20  C   UNL     1      -5.788  -2.662 -34.786  1.00  0.00     0.043 A 
HETATM   21  C   UNL     1      -4.576  -2.824 -34.119  1.00  0.00     0.003 A 
HETATM   22  C   UNL     1      -4.013  -1.749 -33.430  1.00  0.00     0.001 A 
HETATM   23  C   UNL     1      -4.659  -0.510 -33.410  1.00  0.00     0.012 A 
ENDBRANCH  16  17
ENDBRANCH  13  16
ENDBRANCH   9  11
ENDBRANCH   7   9
ENDBRANCH   5   7
ENDBRANCH   2   5
BRANCH   1  24
HETATM   24  C   UNL     1      -7.837   4.576 -32.107  1.00  0.00     0.150 A 
HETATM   25  N   UNL     1      -6.896   4.339 -31.162  1.00  0.00    -0.165 NA
HETATM   26  N   UNL     1      -5.748   4.668 -31.774  1.00  0.00    -0.240 N 
HETATM   27  C   UNL     1      -5.908   5.201 -33.020  1.00  0.00     0.123 A 
HETATM   28  C   UNL     1      -4.465   4.507 -31.124  1.00  0.00     0.221 C 
HETATM   29  N   UNL     1      -4.860   5.664 -33.731  1.00  0.00    -0.371 N 
HETATM   30  C   UNL     1      -7.252   5.121 -33.285  1.00  0.00     0.089 A 
HETATM   31  C   UNL     1      -3.515   5.782 -33.179  1.00  0.00     0.081 C 
HETATM   32  H   UNL     1      -4.997   6.060 -34.660  1.00  0.00     0.161 HD
HETATM   33  C   UNL     1      -2.554   4.891 -33.958  1.00  0.00     0.032 C 
HETATM   34  C   UNL     1      -3.482   5.561 -31.657  1.00  0.00     0.061 C 
BRANCH  28  35
HETATM   35  C   UNL     1      -3.992   3.080 -31.274  1.00  0.00     0.409 C 
HETATM   36  F   UNL     1      -4.326   2.559 -32.477  1.00  0.00    -0.169 F 
HETATM   37  F   UNL     1      -2.663   2.923 -31.123  1.00  0.00    -0.169 F 
HETATM   38  F   UNL     1      -4.589   2.293 -30.340  1.00  0.00    -0.169 F 
ENDBRANCH  28  35
ENDBRANCH   1  24
TORSDOF 8
ENDMDL
