MODEL 1
REMARK VINA RESULT:      -8.5      0.000      0.000
REMARK  5 active torsions:
REMARK  status: ('A' for Active; 'I' for Inactive)
REMARK    1  A    between atoms: C_2  and  O_3 
REMARK    2  A    between atoms: O_3  and  C_4 
REMARK    3  A    between atoms: C_7  and  C_8 
REMARK    4  A    between atoms: C_12  and  C_13 
REMARK       I    between atoms: C_13  and  N_14 
REMARK    5  A    between atoms: N_14  and  C_15 
ROOT
HETATM    1  C   UNL     1      -8.533   0.245 -32.979  1.00  0.00     0.068 A 
HETATM    2  N   UNL     1      -7.890  -0.673 -33.746  1.00  0.00    -0.248 NA
HETATM    3  C   UNL     1      -6.639  -1.054 -33.436  1.00  0.00     0.068 A 
HETATM    4  C   UNL     1      -5.935  -0.551 -32.329  1.00  0.00     0.008 A 
HETATM    5  C   UNL     1      -6.644   0.357 -31.515  1.00  0.00     0.047 A 
HETATM    6  C   UNL     1      -7.936   0.770 -31.846  1.00  0.00     0.050 A 
HETATM    7  C   UNL     1      -6.010  -1.975 -34.264  1.00  0.00     0.032 A 
HETATM    8  C   UNL     1      -4.700  -2.404 -34.037  1.00  0.00     0.002 A 
HETATM    9  C   UNL     1      -3.989  -1.896 -32.961  1.00  0.00     0.001 A 
HETATM   10  C   UNL     1      -4.598  -0.972 -32.113  1.00  0.00     0.015 A 
ENDROOT
BRANCH   5  11
HETATM   11  C   UNL     1      -6.035   1.006 -30.339  1.00  0.00     0.271 C 
HETATM   12  N   UNL     1      -5.467   2.248 -30.411  1.00  0.00    -0.150 N 
HETATM   13  H   UNL     1      -5.137   2.639 -29.541  1.00  0.00     0.188 HD
HETATM   14  O   UNL     1      -6.050   0.390 -29.272  1.00  0.00    -0.267 OA
BRANCH  12  15
HETATM   15  C   UNL     1      -5.211   3.019 -31.503  1.00  0.00     0.747 A 
HETATM   16  N   UNL     1      -4.054   2.919 -32.162  1.00  0.00     0.020 NA
HETATM   17  N   UNL     1      -4.207   3.837 -33.128  1.00  0.00    -0.255 N 
HETATM   18  H   UNL     1      -3.458   3.995 -33.793  1.00  0.00     0.190 HD
HETATM   19  C   UNL     1      -5.421   4.437 -33.041  1.00  0.00     0.246 A 
HETATM   20  N   UNL     1      -6.080   3.930 -32.027  1.00  0.00    -0.055 NA
ENDBRANCH  12  15
ENDBRANCH   5  11
BRANCH   1  21
HETATM   21  C   UNL     1      -9.885   0.635 -33.449  1.00  0.00    -0.007 A 
HETATM   22  C   UNL     1     -11.011  -0.144 -33.130  1.00  0.00     0.016 A 
HETATM   23  C   UNL     1     -12.295   0.204 -33.567  1.00  0.00     0.037 A 
HETATM   24  C   UNL     1     -12.497   1.348 -34.335  1.00  0.00     0.068 A 
HETATM   25  C   UNL     1     -11.398   2.127 -34.684  1.00  0.00     0.037 A 
HETATM   26  C   UNL     1     -10.111   1.772 -34.248  1.00  0.00     0.016 A 
BRANCH  24  27
HETATM   27  O   UNL     1     -13.795   1.582 -34.690  1.00  0.00    -0.352 OA
BRANCH  27  28
HETATM   28  C   UNL     1     -14.798   0.848 -33.989  1.00  0.00     0.171 C 
HETATM   29  C   UNL     1     -15.410   1.768 -32.949  1.00  0.00     0.034 C 
ENDBRANCH  27  28
ENDBRANCH  24  27
ENDBRANCH   1  21
TORSDOF 5
ENDMDL
MODEL 2
REMARK VINA RESULT:      -8.0      3.637      7.713
REMARK  5 active torsions:
REMARK  status: ('A' for Active; 'I' for Inactive)
REMARK    1  A    between atoms: C_2  and  O_3 
REMARK    2  A    between atoms: O_3  and  C_4 
REMARK    3  A    between atoms: C_7  and  C_8 
REMARK    4  A    between atoms: C_12  and  C_13 
REMARK       I    between atoms: C_13  and  N_14 
REMARK    5  A    between atoms: N_14  and  C_15 
ROOT
HETATM    1  C   UNL     1      -8.770   1.772 -33.334  1.00  0.00     0.068 A 
HETATM    2  N   UNL     1      -8.616   2.377 -32.128  1.00  0.00    -0.248 NA
HETATM    3  C   UNL     1      -9.367   3.446 -31.809  1.00  0.00     0.068 A 
HETATM    4  C   UNL     1     -10.336   3.988 -32.670  1.00  0.00     0.008 A 
HETATM    5  C   UNL     1     -10.517   3.307 -33.892  1.00  0.00     0.047 A 
HETATM    6  C   UNL     1      -9.725   2.210 -34.234  1.00  0.00     0.050 A 
HETATM    7  C   UNL     1      -9.157   4.050 -30.576  1.00  0.00     0.032 A 
HETATM    8  C   UNL     1      -9.868   5.183 -30.174  1.00  0.00     0.002 A 
HETATM    9  C   UNL     1     -10.810   5.739 -31.025  1.00  0.00     0.001 A 
HETATM   10  C   UNL     1     -11.042   5.151 -32.268  1.00  0.00     0.015 A 
ENDROOT
BRANCH   5  11
HETATM   11  C   UNL     1     -11.467   3.771 -34.922  1.00  0.00     0.271 C 
HETATM   12  N   UNL     1     -12.755   3.318 -34.975  1.00  0.00    -0.150 N 
HETATM   13  H   UNL     1     -13.349   3.742 -35.671  1.00  0.00     0.188 HD
HETATM   14  O   UNL     1     -11.060   4.591 -35.746  1.00  0.00    -0.267 OA
BRANCH  12  15
HETATM   15  C   UNL     1     -13.349   2.316 -34.269  1.00  0.00     0.747 A 
HETATM   16  N   UNL     1     -13.784   2.515 -33.022  1.00  0.00     0.020 NA
HETATM   17  N   UNL     1     -14.270   1.305 -32.704  1.00  0.00    -0.255 N 
HETATM   18  H   UNL     1     -14.667   1.151 -31.784  1.00  0.00     0.190 HD
HETATM   19  C   UNL     1     -14.135   0.440 -33.740  1.00  0.00     0.246 A 
HETATM   20  N   UNL     1     -13.564   1.057 -34.747  1.00  0.00    -0.055 NA
ENDBRANCH  12  15
ENDBRANCH   5  11
BRANCH   1  21
HETATM   21  C   UNL     1      -7.847   0.642 -33.602  1.00  0.00    -0.007 A 
HETATM   22  C   UNL     1      -7.087   0.071 -32.565  1.00  0.00     0.016 A 
HETATM   23  C   UNL     1      -6.208  -0.994 -32.797  1.00  0.00     0.037 A 
HETATM   24  C   UNL     1      -6.062  -1.528 -34.075  1.00  0.00     0.068 A 
HETATM   25  C   UNL     1      -6.786  -0.970 -35.125  1.00  0.00     0.037 A 
HETATM   26  C   UNL     1      -7.663   0.101 -34.889  1.00  0.00     0.016 A 
BRANCH  24  27
HETATM   27  O   UNL     1      -5.182  -2.569 -34.169  1.00  0.00    -0.352 OA
BRANCH  27  28
HETATM   28  C   UNL     1      -5.371  -3.477 -35.253  1.00  0.00     0.171 C 
HETATM   29  C   UNL     1      -6.395  -4.512 -34.822  1.00  0.00     0.034 C 
ENDBRANCH  27  28
ENDBRANCH  24  27
ENDBRANCH   1  21
TORSDOF 5
ENDMDL
MODEL 3
REMARK VINA RESULT:      -7.9      4.776      7.639
REMARK  5 active torsions:
REMARK  status: ('A' for Active; 'I' for Inactive)
REMARK    1  A    between atoms: C_2  and  O_3 
REMARK    2  A    between atoms: O_3  and  C_4 
REMARK    3  A    between atoms: C_7  and  C_8 
REMARK    4  A    between atoms: C_12  and  C_13 
REMARK       I    between atoms: C_13  and  N_14 
REMARK    5  A    between atoms: N_14  and  C_15 
ROOT
HETATM    1  C   UNL     1      -3.482   3.627 -31.551  1.00  0.00     0.068 A 
HETATM    2  N   UNL     1      -2.133   3.774 -31.552  1.00  0.00    -0.248 NA
HETATM    3  C   UNL     1      -1.584   4.972 -31.289  1.00  0.00     0.068 A 
HETATM    4  C   UNL     1      -2.343   6.117 -30.995  1.00  0.00     0.008 A 
HETATM    5  C   UNL     1      -3.740   5.926 -30.943  1.00  0.00     0.047 A 
HETATM    6  C   UNL     1      -4.314   4.688 -31.236  1.00  0.00     0.050 A 
HETATM    7  C   UNL     1      -0.200   5.082 -31.329  1.00  0.00     0.032 A 
HETATM    8  C   UNL     1       0.455   6.295 -31.099  1.00  0.00     0.002 A 
HETATM    9  C   UNL     1      -0.286   7.434 -30.832  1.00  0.00     0.001 A 
HETATM   10  C   UNL     1      -1.677   7.351 -30.784  1.00  0.00     0.015 A 
ENDROOT
BRANCH   5  11
HETATM   11  C   UNL     1      -4.680   7.035 -30.687  1.00  0.00     0.271 C 
HETATM   12  N   UNL     1      -4.914   7.508 -29.425  1.00  0.00    -0.150 N 
HETATM   13  H   UNL     1      -5.519   8.312 -29.356  1.00  0.00     0.188 HD
HETATM   14  O   UNL     1      -5.258   7.530 -31.655  1.00  0.00    -0.267 OA
BRANCH  12  15
HETATM   15  C   UNL     1      -4.505   7.011 -28.226  1.00  0.00     0.747 A 
HETATM   16  N   UNL     1      -5.160   6.007 -27.637  1.00  0.00     0.020 NA
HETATM   17  N   UNL     1      -4.456   5.845 -26.506  1.00  0.00    -0.255 N 
HETATM   18  H   UNL     1      -4.738   5.137 -25.837  1.00  0.00     0.190 HD
HETATM   19  C   UNL     1      -3.417   6.716 -26.452  1.00  0.00     0.246 A 
HETATM   20  N   UNL     1      -3.420   7.458 -27.533  1.00  0.00    -0.055 NA
ENDBRANCH  12  15
ENDBRANCH   5  11
BRANCH   1  21
HETATM   21  C   UNL     1      -3.978   2.277 -31.915  1.00  0.00    -0.007 A 
HETATM   22  C   UNL     1      -5.111   2.123 -32.734  1.00  0.00     0.016 A 
HETATM   23  C   UNL     1      -5.598   0.858 -33.086  1.00  0.00     0.037 A 
HETATM   24  C   UNL     1      -4.964  -0.297 -32.635  1.00  0.00     0.068 A 
HETATM   25  C   UNL     1      -3.853  -0.176 -31.806  1.00  0.00     0.037 A 
HETATM   26  C   UNL     1      -3.371   1.095 -31.450  1.00  0.00     0.016 A 
BRANCH  24  27
HETATM   27  O   UNL     1      -5.530  -1.468 -33.055  1.00  0.00    -0.352 OA
BRANCH  27  28
HETATM   28  C   UNL     1      -6.056  -1.490 -34.381  1.00  0.00     0.171 C 
HETATM   29  C   UNL     1      -6.734  -2.831 -34.593  1.00  0.00     0.034 C 
ENDBRANCH  27  28
ENDBRANCH  24  27
ENDBRANCH   1  21
TORSDOF 5
ENDMDL
MODEL 4
REMARK VINA RESULT:      -7.9      3.347      7.165
REMARK  5 active torsions:
REMARK  status: ('A' for Active; 'I' for Inactive)
REMARK    1  A    between atoms: C_2  and  O_3 
REMARK    2  A    between atoms: O_3  and  C_4 
REMARK    3  A    between atoms: C_7  and  C_8 
REMARK    4  A    between atoms: C_12  and  C_13 
REMARK       I    between atoms: C_13  and  N_14 
REMARK    5  A    between atoms: N_14  and  C_15 
ROOT
HETATM    1  C   UNL     1      -7.128   1.358 -33.027  1.00  0.00     0.068 A 
HETATM    2  N   UNL     1      -6.877   1.656 -31.727  1.00  0.00    -0.248 NA
HETATM    3  C   UNL     1      -7.364   2.788 -31.188  1.00  0.00     0.068 A 
HETATM    4  C   UNL     1      -8.146   3.706 -31.908  1.00  0.00     0.008 A 
HETATM    5  C   UNL     1      -8.442   3.346 -33.239  1.00  0.00     0.047 A 
HETATM    6  C   UNL     1      -7.921   2.182 -33.807  1.00  0.00     0.050 A 
HETATM    7  C   UNL     1      -7.059   3.066 -29.862  1.00  0.00     0.032 A 
HETATM    8  C   UNL     1      -7.495   4.234 -29.230  1.00  0.00     0.002 A 
HETATM    9  C   UNL     1      -8.248   5.157 -29.938  1.00  0.00     0.001 A 
HETATM   10  C   UNL     1      -8.569   4.900 -31.270  1.00  0.00     0.015 A 
ENDROOT
BRANCH   5  11
HETATM   11  C   UNL     1      -9.218   4.219 -34.141  1.00  0.00     0.271 C 
HETATM   12  N   UNL     1     -10.552   4.021 -34.367  1.00  0.00    -0.150 N 
HETATM   13  H   UNL     1     -11.013   4.709 -34.945  1.00  0.00     0.188 HD
HETATM   14  O   UNL     1      -8.623   5.145 -34.693  1.00  0.00    -0.267 OA
BRANCH  12  15
HETATM   15  C   UNL     1     -11.349   2.986 -33.987  1.00  0.00     0.747 A 
HETATM   16  N   UNL     1     -12.127   3.076 -32.905  1.00  0.00     0.020 NA
HETATM   17  N   UNL     1     -12.712   1.869 -32.886  1.00  0.00    -0.255 N 
HETATM   18  H   UNL     1     -13.366   1.640 -32.145  1.00  0.00     0.190 HD
HETATM   19  C   UNL     1     -12.299   1.112 -33.933  1.00  0.00     0.246 A 
HETATM   20  N   UNL     1     -11.443   1.799 -34.651  1.00  0.00    -0.055 NA
ENDBRANCH  12  15
ENDBRANCH   5  11
BRANCH   1  21
HETATM   21  C   UNL     1      -6.491   0.116 -33.531  1.00  0.00    -0.007 A 
HETATM   22  C   UNL     1      -7.218  -0.800 -34.312  1.00  0.00     0.016 A 
HETATM   23  C   UNL     1      -6.638  -1.979 -34.794  1.00  0.00     0.037 A 
HETATM   24  C   UNL     1      -5.307  -2.280 -34.517  1.00  0.00     0.068 A 
HETATM   25  C   UNL     1      -4.568  -1.402 -33.729  1.00  0.00     0.037 A 
HETATM   26  C   UNL     1      -5.156  -0.222 -33.243  1.00  0.00     0.016 A 
BRANCH  24  27
HETATM   27  O   UNL     1      -4.856  -3.454 -35.052  1.00  0.00    -0.352 OA
BRANCH  27  28
HETATM   28  C   UNL     1      -4.989  -4.622 -34.244  1.00  0.00     0.171 C 
HETATM   29  C   UNL     1      -3.647  -4.893 -33.589  1.00  0.00     0.034 C 
ENDBRANCH  27  28
ENDBRANCH  24  27
ENDBRANCH   1  21
TORSDOF 5
ENDMDL
MODEL 5
REMARK VINA RESULT:      -7.8      5.270      7.862
REMARK  5 active torsions:
REMARK  status: ('A' for Active; 'I' for Inactive)
REMARK    1  A    between atoms: C_2  and  O_3 
REMARK    2  A    between atoms: O_3  and  C_4 
REMARK    3  A    between atoms: C_7  and  C_8 
REMARK    4  A    between atoms: C_12  and  C_13 
REMARK       I    between atoms: C_13  and  N_14 
REMARK    5  A    between atoms: N_14  and  C_15 
ROOT
HETATM    1  C   UNL     1      -3.891   2.627 -31.738  1.00  0.00     0.068 A 
HETATM    2  N   UNL     1      -4.773   3.027 -30.787  1.00  0.00    -0.248 NA
HETATM    3  C   UNL     1      -4.830   4.319 -30.419  1.00  0.00     0.068 A 
HETATM    4  C   UNL     1      -4.013   5.314 -30.981  1.00  0.00     0.008 A 
HETATM    5  C   UNL     1      -3.146   4.885 -32.008  1.00  0.00     0.047 A 
HETATM    6  C   UNL     1      -3.070   3.541 -32.377  1.00  0.00     0.050 A 
HETATM    7  C   UNL     1      -5.729   4.678 -29.422  1.00  0.00     0.032 A 
HETATM    8  C   UNL     1      -5.833   5.991 -28.956  1.00  0.00     0.002 A 
HETATM    9  C   UNL     1      -5.016   6.975 -29.487  1.00  0.00     0.001 A 
HETATM   10  C   UNL     1      -4.107   6.641 -30.490  1.00  0.00     0.015 A 
ENDROOT
BRANCH   5  11
HETATM   11  C   UNL     1      -2.195   5.797 -32.672  1.00  0.00     0.271 C 
HETATM   12  N   UNL     1      -0.972   6.083 -32.135  1.00  0.00    -0.150 N 
HETATM   13  H   UNL     1      -0.363   6.663 -32.693  1.00  0.00     0.188 HD
HETATM   14  O   UNL     1      -2.540   6.302 -33.742  1.00  0.00    -0.267 OA
BRANCH  12  15
HETATM   15  C   UNL     1      -0.468   5.760 -30.912  1.00  0.00     0.747 A 
HETATM   16  N   UNL     1       0.103   4.573 -30.693  1.00  0.00     0.020 NA
HETATM   17  N   UNL     1       0.435   4.663 -29.396  1.00  0.00    -0.255 N 
HETATM   18  H   UNL     1       0.888   3.878 -28.939  1.00  0.00     0.190 HD
HETATM   19  C   UNL     1       0.084   5.870 -28.887  1.00  0.00     0.246 A 
HETATM   20  N   UNL     1      -0.481   6.587 -29.828  1.00  0.00    -0.055 NA
ENDBRANCH  12  15
ENDBRANCH   5  11
BRANCH   1  21
HETATM   21  C   UNL     1      -3.873   1.171 -32.020  1.00  0.00    -0.007 A 
HETATM   22  C   UNL     1      -2.961   0.323 -31.367  1.00  0.00     0.016 A 
HETATM   23  C   UNL     1      -2.924  -1.054 -31.621  1.00  0.00     0.037 A 
HETATM   24  C   UNL     1      -3.803  -1.630 -32.535  1.00  0.00     0.068 A 
HETATM   25  C   UNL     1      -4.703  -0.812 -33.212  1.00  0.00     0.037 A 
HETATM   26  C   UNL     1      -4.733   0.569 -32.958  1.00  0.00     0.016 A 
BRANCH  24  27
HETATM   27  O   UNL     1      -3.674  -2.982 -32.687  1.00  0.00    -0.352 OA
BRANCH  27  28
HETATM   28  C   UNL     1      -4.110  -3.535 -33.927  1.00  0.00     0.171 C 
HETATM   29  C   UNL     1      -3.957  -5.043 -33.846  1.00  0.00     0.034 C 
ENDBRANCH  27  28
ENDBRANCH  24  27
ENDBRANCH   1  21
TORSDOF 5
ENDMDL
MODEL 6
REMARK VINA RESULT:      -7.8      2.837      7.032
REMARK  5 active torsions:
REMARK  status: ('A' for Active; 'I' for Inactive)
REMARK    1  A    between atoms: C_2  and  O_3 
REMARK    2  A    between atoms: O_3  and  C_4 
REMARK    3  A    between atoms: C_7  and  C_8 
REMARK    4  A    between atoms: C_12  and  C_13 
REMARK       I    between atoms: C_13  and  N_14 
REMARK    5  A    between atoms: N_14  and  C_15 
ROOT
HETATM    1  C   UNL     1      -8.634   1.289 -34.014  1.00  0.00     0.068 A 
HETATM    2  N   UNL     1      -9.836   0.678 -33.861  1.00  0.00    -0.248 NA
HETATM    3  C   UNL     1     -10.967   1.406 -33.842  1.00  0.00     0.068 A 
HETATM    4  C   UNL     1     -10.982   2.803 -33.983  1.00  0.00     0.008 A 
HETATM    5  C   UNL     1      -9.726   3.409 -34.198  1.00  0.00     0.047 A 
HETATM    6  C   UNL     1      -8.550   2.658 -34.198  1.00  0.00     0.050 A 
HETATM    7  C   UNL     1     -12.172   0.741 -33.655  1.00  0.00     0.032 A 
HETATM    8  C   UNL     1     -13.391   1.420 -33.591  1.00  0.00     0.002 A 
HETATM    9  C   UNL     1     -13.414   2.800 -33.705  1.00  0.00     0.001 A 
HETATM   10  C   UNL     1     -12.219   3.491 -33.895  1.00  0.00     0.015 A 
ENDROOT
BRANCH   5  11
HETATM   11  C   UNL     1      -9.566   4.871 -34.326  1.00  0.00     0.271 C 
HETATM   12  N   UNL     1      -9.341   5.671 -33.240  1.00  0.00    -0.150 N 
HETATM   13  H   UNL     1      -9.176   6.647 -33.432  1.00  0.00     0.188 HD
HETATM   14  O   UNL     1      -9.641   5.359 -35.454  1.00  0.00    -0.267 OA
BRANCH  12  15
HETATM   15  C   UNL     1      -9.376   5.360 -31.915  1.00  0.00     0.747 A 
HETATM   16  N   UNL     1     -10.518   5.417 -31.224  1.00  0.00     0.020 NA
HETATM   17  N   UNL     1     -10.114   5.060 -29.996  1.00  0.00    -0.255 N 
HETATM   18  H   UNL     1     -10.785   5.026 -29.237  1.00  0.00     0.190 HD
HETATM   19  C   UNL     1      -8.785   4.789 -29.981  1.00  0.00     0.246 A 
HETATM   20  N   UNL     1      -8.296   4.961 -31.186  1.00  0.00    -0.055 NA
ENDBRANCH  12  15
ENDBRANCH   5  11
BRANCH   1  21
HETATM   21  C   UNL     1      -7.452   0.395 -33.958  1.00  0.00    -0.007 A 
HETATM   22  C   UNL     1      -7.388  -0.765 -34.752  1.00  0.00     0.016 A 
HETATM   23  C   UNL     1      -6.284  -1.624 -34.712  1.00  0.00     0.037 A 
HETATM   24  C   UNL     1      -5.201  -1.350 -33.879  1.00  0.00     0.068 A 
HETATM   25  C   UNL     1      -5.245  -0.221 -33.067  1.00  0.00     0.037 A 
HETATM   26  C   UNL     1      -6.357   0.636 -33.106  1.00  0.00     0.016 A 
BRANCH  24  27
HETATM   27  O   UNL     1      -4.183  -2.259 -33.938  1.00  0.00    -0.352 OA
BRANCH  27  28
HETATM   28  C   UNL     1      -4.518  -3.574 -34.379  1.00  0.00     0.171 C 
HETATM   29  C   UNL     1      -3.617  -4.555 -33.651  1.00  0.00     0.034 C 
ENDBRANCH  27  28
ENDBRANCH  24  27
ENDBRANCH   1  21
TORSDOF 5
ENDMDL
MODEL 7
REMARK VINA RESULT:      -7.7     14.743     17.675
REMARK  5 active torsions:
REMARK  status: ('A' for Active; 'I' for Inactive)
REMARK    1  A    between atoms: C_2  and  O_3 
REMARK    2  A    between atoms: O_3  and  C_4 
REMARK    3  A    between atoms: C_7  and  C_8 
REMARK    4  A    between atoms: C_12  and  C_13 
REMARK       I    between atoms: C_13  and  N_14 
REMARK    5  A    between atoms: N_14  and  C_15 
ROOT
HETATM    1  C   UNL     1      -4.841 -14.150 -38.910  1.00  0.00     0.068 A 
HETATM    2  N   UNL     1      -5.609 -13.317 -39.658  1.00  0.00    -0.248 NA
HETATM    3  C   UNL     1      -6.936 -13.251 -39.448  1.00  0.00     0.068 A 
HETATM    4  C   UNL     1      -7.596 -14.008 -38.465  1.00  0.00     0.008 A 
HETATM    5  C   UNL     1      -6.769 -14.821 -37.663  1.00  0.00     0.047 A 
HETATM    6  C   UNL     1      -5.395 -14.908 -37.892  1.00  0.00     0.050 A 
HETATM    7  C   UNL     1      -7.686 -12.406 -40.255  1.00  0.00     0.032 A 
HETATM    8  C   UNL     1      -9.073 -12.298 -40.129  1.00  0.00     0.002 A 
HETATM    9  C   UNL     1      -9.737 -13.058 -39.179  1.00  0.00     0.001 A 
HETATM   10  C   UNL     1      -9.007 -13.912 -38.354  1.00  0.00     0.015 A 
ENDROOT
BRANCH   5  11
HETATM   11  C   UNL     1      -7.311 -15.707 -36.614  1.00  0.00     0.271 C 
HETATM   12  N   UNL     1      -7.353 -15.331 -35.300  1.00  0.00    -0.150 N 
HETATM   13  H   UNL     1      -7.802 -15.975 -34.666  1.00  0.00     0.188 HD
HETATM   14  O   UNL     1      -7.730 -16.813 -36.959  1.00  0.00    -0.267 OA
BRANCH  12  15
HETATM   15  C   UNL     1      -6.811 -14.238 -34.696  1.00  0.00     0.747 A 
HETATM   16  N   UNL     1      -7.530 -13.130 -34.502  1.00  0.00     0.020 NA
HETATM   17  N   UNL     1      -6.636 -12.322 -33.911  1.00  0.00    -0.255 N 
HETATM   18  H   UNL     1      -6.907 -11.380 -33.651  1.00  0.00     0.190 HD
HETATM   19  C   UNL     1      -5.444 -12.950 -33.753  1.00  0.00     0.246 A 
HETATM   20  N   UNL     1      -5.530 -14.167 -34.233  1.00  0.00    -0.055 NA
ENDBRANCH  12  15
ENDBRANCH   5  11
BRANCH   1  21
HETATM   21  C   UNL     1      -3.403 -14.186 -39.269  1.00  0.00    -0.007 A 
HETATM   22  C   UNL     1      -2.875 -15.255 -40.017  1.00  0.00     0.016 A 
HETATM   23  C   UNL     1      -1.519 -15.311 -40.364  1.00  0.00     0.037 A 
HETATM   24  C   UNL     1      -0.646 -14.297 -39.979  1.00  0.00     0.068 A 
HETATM   25  C   UNL     1      -1.136 -13.237 -39.221  1.00  0.00     0.037 A 
HETATM   26  C   UNL     1      -2.495 -13.187 -38.871  1.00  0.00     0.016 A 
BRANCH  24  27
HETATM   27  O   UNL     1       0.648 -14.463 -40.387  1.00  0.00    -0.352 OA
BRANCH  27  28
HETATM   28  C   UNL     1       1.428 -15.424 -39.678  1.00  0.00     0.171 C 
HETATM   29  C   UNL     1       2.011 -14.742 -38.454  1.00  0.00     0.034 C 
ENDBRANCH  27  28
ENDBRANCH  24  27
ENDBRANCH   1  21
TORSDOF 5
ENDMDL
MODEL 8
REMARK VINA RESULT:      -7.6     14.984     16.883
REMARK  5 active torsions:
REMARK  status: ('A' for Active; 'I' for Inactive)
REMARK    1  A    between atoms: C_2  and  O_3 
REMARK    2  A    between atoms: O_3  and  C_4 
REMARK    3  A    between atoms: C_7  and  C_8 
REMARK    4  A    between atoms: C_12  and  C_13 
REMARK       I    between atoms: C_13  and  N_14 
REMARK    5  A    between atoms: N_14  and  C_15 
ROOT
HETATM    1  C   UNL     1      -5.006 -13.487 -36.128  1.00  0.00     0.068 A 
HETATM    2  N   UNL     1      -6.190 -13.451 -36.790  1.00  0.00    -0.248 NA
HETATM    3  C   UNL     1      -6.243 -13.002 -38.057  1.00  0.00     0.068 A 
HETATM    4  C   UNL     1      -5.110 -12.563 -38.763  1.00  0.00     0.008 A 
HETATM    5  C   UNL     1      -3.883 -12.665 -38.074  1.00  0.00     0.047 A 
HETATM    6  C   UNL     1      -3.829 -13.111 -36.752  1.00  0.00     0.050 A 
HETATM    7  C   UNL     1      -7.480 -12.957 -38.685  1.00  0.00     0.032 A 
HETATM    8  C   UNL     1      -7.633 -12.476 -39.988  1.00  0.00     0.002 A 
HETATM    9  C   UNL     1      -6.526 -12.018 -40.684  1.00  0.00     0.001 A 
HETATM   10  C   UNL     1      -5.272 -12.056 -40.077  1.00  0.00     0.015 A 
ENDROOT
BRANCH   5  11
HETATM   11  C   UNL     1      -2.608 -12.209 -38.660  1.00  0.00     0.271 C 
HETATM   12  N   UNL     1      -1.848 -13.019 -39.457  1.00  0.00    -0.150 N 
HETATM   13  H   UNL     1      -1.027 -12.598 -39.867  1.00  0.00     0.188 HD
HETATM   14  O   UNL     1      -2.241 -11.060 -38.408  1.00  0.00    -0.267 OA
BRANCH  12  15
HETATM   15  C   UNL     1      -1.991 -14.345 -39.728  1.00  0.00     0.747 A 
HETATM   16  N   UNL     1      -1.477 -15.274 -38.918  1.00  0.00     0.020 NA
HETATM   17  N   UNL     1      -1.823 -16.408 -39.545  1.00  0.00    -0.255 N 
HETATM   18  H   UNL     1      -1.548 -17.303 -39.153  1.00  0.00     0.190 HD
HETATM   19  C   UNL     1      -2.529 -16.144 -40.673  1.00  0.00     0.246 A 
HETATM   20  N   UNL     1      -2.658 -14.846 -40.807  1.00  0.00    -0.055 NA
ENDBRANCH  12  15
ENDBRANCH   5  11
BRANCH   1  21
HETATM   21  C   UNL     1      -5.076 -13.942 -34.718  1.00  0.00    -0.007 A 
HETATM   22  C   UNL     1      -5.551 -13.085 -33.708  1.00  0.00     0.016 A 
HETATM   23  C   UNL     1      -5.622 -13.492 -32.371  1.00  0.00     0.037 A 
HETATM   24  C   UNL     1      -5.226 -14.773 -31.997  1.00  0.00     0.068 A 
HETATM   25  C   UNL     1      -4.732 -15.636 -32.971  1.00  0.00     0.037 A 
HETATM   26  C   UNL     1      -4.657 -15.223 -34.311  1.00  0.00     0.016 A 
BRANCH  24  27
HETATM   27  O   UNL     1      -5.352 -15.052 -30.665  1.00  0.00    -0.352 OA
BRANCH  27  28
HETATM   28  C   UNL     1      -4.734 -16.248 -30.196  1.00  0.00     0.171 C 
HETATM   29  C   UNL     1      -5.725 -16.964 -29.295  1.00  0.00     0.034 C 
ENDBRANCH  27  28
ENDBRANCH  24  27
ENDBRANCH   1  21
TORSDOF 5
ENDMDL
MODEL 9
REMARK VINA RESULT:      -7.5      4.158      6.635
REMARK  5 active torsions:
REMARK  status: ('A' for Active; 'I' for Inactive)
REMARK    1  A    between atoms: C_2  and  O_3 
REMARK    2  A    between atoms: O_3  and  C_4 
REMARK    3  A    between atoms: C_7  and  C_8 
REMARK    4  A    between atoms: C_12  and  C_13 
REMARK       I    between atoms: C_13  and  N_14 
REMARK    5  A    between atoms: N_14  and  C_15 
ROOT
HETATM    1  C   UNL     1      -4.250   2.174 -32.055  1.00  0.00     0.068 A 
HETATM    2  N   UNL     1      -3.128   2.811 -32.478  1.00  0.00    -0.248 NA
HETATM    3  C   UNL     1      -2.887   4.078 -32.098  1.00  0.00     0.068 A 
HETATM    4  C   UNL     1      -3.748   4.805 -31.259  1.00  0.00     0.008 A 
HETATM    5  C   UNL     1      -4.877   4.103 -30.786  1.00  0.00     0.047 A 
HETATM    6  C   UNL     1      -5.140   2.794 -31.195  1.00  0.00     0.050 A 
HETATM    7  C   UNL     1      -1.741   4.699 -32.577  1.00  0.00     0.032 A 
HETATM    8  C   UNL     1      -1.428   6.024 -32.261  1.00  0.00     0.002 A 
HETATM    9  C   UNL     1      -2.282   6.756 -31.452  1.00  0.00     0.001 A 
HETATM   10  C   UNL     1      -3.438   6.155 -30.956  1.00  0.00     0.015 A 
ENDROOT
BRANCH   5  11
HETATM   11  C   UNL     1      -5.898   4.734 -29.929  1.00  0.00     0.271 C 
HETATM   12  N   UNL     1      -7.094   5.169 -30.429  1.00  0.00    -0.150 N 
HETATM   13  H   UNL     1      -7.756   5.525 -29.756  1.00  0.00     0.188 HD
HETATM   14  O   UNL     1      -5.641   4.861 -28.731  1.00  0.00    -0.267 OA
BRANCH  12  15
HETATM   15  C   UNL     1      -7.507   5.263 -31.723  1.00  0.00     0.747 A 
HETATM   16  N   UNL     1      -7.149   6.298 -32.487  1.00  0.00     0.020 NA
HETATM   17  N   UNL     1      -7.765   6.011 -33.644  1.00  0.00    -0.255 N 
HETATM   18  H   UNL     1      -7.679   6.647 -34.429  1.00  0.00     0.190 HD
HETATM   19  C   UNL     1      -8.443   4.840 -33.556  1.00  0.00     0.246 A 
HETATM   20  N   UNL     1      -8.288   4.341 -32.353  1.00  0.00    -0.055 NA
ENDBRANCH  12  15
ENDBRANCH   5  11
BRANCH   1  21
HETATM   21  C   UNL     1      -4.443   0.802 -32.585  1.00  0.00    -0.007 A 
HETATM   22  C   UNL     1      -3.473  -0.195 -32.373  1.00  0.00     0.016 A 
HETATM   23  C   UNL     1      -3.633  -1.495 -32.867  1.00  0.00     0.037 A 
HETATM   24  C   UNL     1      -4.773  -1.845 -33.587  1.00  0.00     0.068 A 
HETATM   25  C   UNL     1      -5.740  -0.873 -33.831  1.00  0.00     0.037 A 
HETATM   26  C   UNL     1      -5.573   0.431 -33.337  1.00  0.00     0.016 A 
BRANCH  24  27
HETATM   27  O   UNL     1      -4.815  -3.144 -34.007  1.00  0.00    -0.352 OA
BRANCH  27  28
HETATM   28  C   UNL     1      -5.520  -3.408 -35.218  1.00  0.00     0.171 C 
HETATM   29  C   UNL     1      -6.649  -4.372 -34.903  1.00  0.00     0.034 C 
ENDBRANCH  27  28
ENDBRANCH  24  27
ENDBRANCH   1  21
TORSDOF 5
ENDMDL
MODEL 10
REMARK VINA RESULT:      -7.4      3.329      7.380
REMARK  5 active torsions:
REMARK  status: ('A' for Active; 'I' for Inactive)
REMARK    1  A    between atoms: C_2  and  O_3 
REMARK    2  A    between atoms: O_3  and  C_4 
REMARK    3  A    between atoms: C_7  and  C_8 
REMARK    4  A    between atoms: C_12  and  C_13 
REMARK       I    between atoms: C_13  and  N_14 
REMARK    5  A    between atoms: N_14  and  C_15 
ROOT
HETATM    1  C   UNL     1      -4.436   2.380 -32.565  1.00  0.00     0.068 A 
HETATM    2  N   UNL     1      -3.718   1.270 -32.257  1.00  0.00    -0.248 NA
HETATM    3  C   UNL     1      -4.111   0.065 -32.707  1.00  0.00     0.068 A 
HETATM    4  C   UNL     1      -5.249  -0.121 -33.509  1.00  0.00     0.008 A 
HETATM    5  C   UNL     1      -5.945   1.054 -33.864  1.00  0.00     0.047 A 
HETATM    6  C   UNL     1      -5.551   2.303 -33.381  1.00  0.00     0.050 A 
HETATM    7  C   UNL     1      -3.361  -1.046 -32.344  1.00  0.00     0.032 A 
HETATM    8  C   UNL     1      -3.713  -2.339 -32.740  1.00  0.00     0.002 A 
HETATM    9  C   UNL     1      -4.847  -2.536 -33.511  1.00  0.00     0.001 A 
HETATM   10  C   UNL     1      -5.615  -1.436 -33.892  1.00  0.00     0.015 A 
ENDROOT
BRANCH   5  11
HETATM   11  C   UNL     1      -7.182   1.027 -34.668  1.00  0.00     0.271 C 
HETATM   12  N   UNL     1      -8.400   1.340 -34.131  1.00  0.00    -0.150 N 
HETATM   13  H   UNL     1      -9.178   1.360 -34.772  1.00  0.00     0.188 HD
HETATM   14  O   UNL     1      -7.087   0.710 -35.854  1.00  0.00    -0.267 OA
BRANCH  12  15
HETATM   15  C   UNL     1      -8.741   1.561 -32.832  1.00  0.00     0.747 A 
HETATM   16  N   UNL     1      -9.059   0.549 -32.021  1.00  0.00     0.020 NA
HETATM   17  N   UNL     1      -9.335   1.191 -30.875  1.00  0.00    -0.255 N 
HETATM   18  H   UNL     1      -9.626   0.661 -30.061  1.00  0.00     0.190 HD
HETATM   19  C   UNL     1      -9.164   2.529 -31.015  1.00  0.00     0.246 A 
HETATM   20  N   UNL     1      -8.779   2.789 -32.241  1.00  0.00    -0.055 NA
ENDBRANCH  12  15
ENDBRANCH   5  11
BRANCH   1  21
HETATM   21  C   UNL     1      -3.946   3.645 -31.964  1.00  0.00    -0.007 A 
HETATM   22  C   UNL     1      -4.802   4.458 -31.201  1.00  0.00     0.016 A 
HETATM   23  C   UNL     1      -4.361   5.657 -30.628  1.00  0.00     0.037 A 
HETATM   24  C   UNL     1      -3.045   6.082 -30.795  1.00  0.00     0.068 A 
HETATM   25  C   UNL     1      -2.180   5.307 -31.562  1.00  0.00     0.037 A 
HETATM   26  C   UNL     1      -2.628   4.107 -32.140  1.00  0.00     0.016 A 
BRANCH  24  27
HETATM   27  O   UNL     1      -2.736   7.262 -30.179  1.00  0.00    -0.352 OA
BRANCH  27  28
HETATM   28  C   UNL     1      -2.119   7.177 -28.896  1.00  0.00     0.171 C 
HETATM   29  C   UNL     1      -0.696   7.689 -29.027  1.00  0.00     0.034 C 
ENDBRANCH  27  28
ENDBRANCH  24  27
ENDBRANCH   1  21
TORSDOF 5
ENDMDL
