MODEL 1
REMARK VINA RESULT:      -9.5      0.000      0.000
REMARK  4 active torsions:
REMARK  status: ('A' for Active; 'I' for Inactive)
REMARK    1  A    between atoms: C_5  and  C_6 
REMARK    2  A    between atoms: C_6  and  N_7 
REMARK    3  A    between atoms: N_13  and  C_15 
REMARK    4  A    between atoms: C_19  and  C_20 
ROOT
HETATM    1  N   UNL     1      -4.236   3.938 -32.263  1.00  0.00    -0.064 N 
HETATM    2  H   UNL     1      -4.298   4.946 -32.024  1.00  0.00     0.280 HD
HETATM    3  C   UNL     1      -5.232   3.729 -33.363  1.00  0.00     0.236 C 
HETATM    4  C   UNL     1      -5.392   2.239 -33.687  1.00  0.00     0.039 C 
HETATM    5  C   UNL     1      -5.636   1.309 -32.461  1.00  0.00    -0.013 C 
HETATM    6  C   UNL     1      -7.097   1.389 -31.932  1.00  0.00     0.245 C 
HETATM    7  N   UNL     1      -8.090   0.752 -32.879  1.00  0.00    -0.065 N 
HETATM    8  H   UNL     1      -8.107   1.252 -33.779  1.00  0.00     0.280 HD
HETATM    9  C   UNL     1      -7.764  -0.706 -33.194  1.00  0.00     0.244 C 
HETATM   10  C   UNL     1      -6.361  -0.786 -33.801  1.00  0.00     0.045 C 
HETATM   11  C   UNL     1      -5.328  -0.166 -32.846  1.00  0.00     0.022 C 
HETATM   12  C   UNL     1      -4.640   1.694 -31.325  1.00  0.00     0.039 C 
HETATM   13  C   UNL     1      -4.566   3.184 -31.018  1.00  0.00     0.236 C 
ENDROOT
BRANCH   7  14
HETATM   14  C   UNL     1      -9.489   0.840 -32.327  1.00  0.00     0.188 A 
HETATM   15  C   UNL     1     -10.488   1.629 -33.125  1.00  0.00     0.035 A 
HETATM   16  C   UNL     1     -10.568   0.129 -33.092  1.00  0.00     0.035 A 
ENDBRANCH   7  14
BRANCH  10  17
HETATM   17  C   UNL     1      -5.996  -2.210 -34.167  1.00  0.00    -0.052 A 
HETATM   18  C   UNL     1      -4.682  -2.662 -33.963  1.00  0.00     0.007 A 
HETATM   19  C   UNL     1      -4.321  -3.971 -34.284  1.00  0.00     0.001 A 
HETATM   20  C   UNL     1      -5.266  -4.847 -34.812  1.00  0.00     0.000 A 
HETATM   21  C   UNL     1      -6.572  -4.414 -35.021  1.00  0.00     0.001 A 
HETATM   22  C   UNL     1      -6.937  -3.104 -34.702  1.00  0.00     0.007 A 
ENDBRANCH  10  17
BRANCH   1  23
HETATM   23  C   UNL     1      -2.758   3.825 -32.706  1.00  0.00     0.323 C 
BRANCH  23  24
HETATM   24  C   UNL     1      -1.948   4.968 -32.225  1.00  0.00     0.198 A 
HETATM   25  O   UNL     1      -2.474   6.211 -32.359  1.00  0.00    -0.194 OA
HETATM   26  N   UNL     1      -1.515   7.088 -31.864  1.00  0.00    -0.112 NA
HETATM   27  C   UNL     1      -0.510   6.285 -31.491  1.00  0.00     0.152 A 
HETATM   28  C   UNL     1       0.761   6.804 -30.944  1.00  0.00     0.096 C 
HETATM   29  N   UNL     1      -0.751   4.940 -31.679  1.00  0.00    -0.208 NA
ENDBRANCH  23  24
ENDBRANCH   1  23
TORSDOF 4
ENDMDL
MODEL 2
REMARK VINA RESULT:      -9.5      0.863      1.387
REMARK  4 active torsions:
REMARK  status: ('A' for Active; 'I' for Inactive)
REMARK    1  A    between atoms: C_5  and  C_6 
REMARK    2  A    between atoms: C_6  and  N_7 
REMARK    3  A    between atoms: N_13  and  C_15 
REMARK    4  A    between atoms: C_19  and  C_20 
ROOT
HETATM    1  N   UNL     1      -4.636   4.606 -32.963  1.00  0.00    -0.064 N 
HETATM    2  H   UNL     1      -4.753   5.627 -32.816  1.00  0.00     0.280 HD
HETATM    3  C   UNL     1      -5.650   4.237 -34.003  1.00  0.00     0.236 C 
HETATM    4  C   UNL     1      -5.729   2.716 -34.181  1.00  0.00     0.039 C 
HETATM    5  C   UNL     1      -5.879   1.894 -32.867  1.00  0.00    -0.013 C 
HETATM    6  C   UNL     1      -7.325   1.939 -32.296  1.00  0.00     0.245 C 
HETATM    7  N   UNL     1      -8.305   1.159 -33.144  1.00  0.00    -0.065 N 
HETATM    8  H   UNL     1      -8.379   1.569 -34.085  1.00  0.00     0.280 HD
HETATM    9  C   UNL     1      -7.900  -0.302 -33.334  1.00  0.00     0.244 C 
HETATM   10  C   UNL     1      -6.514  -0.357 -33.980  1.00  0.00     0.045 C 
HETATM   11  C   UNL     1      -5.493   0.409 -33.124  1.00  0.00     0.022 C 
HETATM   12  C   UNL     1      -4.874   2.442 -31.807  1.00  0.00     0.039 C 
HETATM   13  C   UNL     1      -4.882   3.956 -31.642  1.00  0.00     0.236 C 
ENDROOT
BRANCH   7  14
HETATM   14  C   UNL     1      -9.690   1.217 -32.553  1.00  0.00     0.188 A 
HETATM   15  C   UNL     1     -10.795   1.693 -33.452  1.00  0.00     0.035 A 
HETATM   16  C   UNL     1     -10.698   0.240 -33.085  1.00  0.00     0.035 A 
ENDBRANCH   7  14
BRANCH  10  17
HETATM   17  C   UNL     1      -6.073  -1.786 -34.225  1.00  0.00    -0.052 A 
HETATM   18  C   UNL     1      -7.026  -2.753 -34.585  1.00  0.00     0.007 A 
HETATM   19  C   UNL     1      -6.644  -4.073 -34.824  1.00  0.00     0.001 A 
HETATM   20  C   UNL     1      -5.309  -4.447 -34.707  1.00  0.00     0.000 A 
HETATM   21  C   UNL     1      -4.352  -3.501 -34.349  1.00  0.00     0.001 A 
HETATM   22  C   UNL     1      -4.729  -2.178 -34.109  1.00  0.00     0.007 A 
ENDBRANCH  10  17
BRANCH   1  23
HETATM   23  C   UNL     1      -3.167   4.538 -33.446  1.00  0.00     0.323 C 
BRANCH  23  24
HETATM   24  C   UNL     1      -2.222   5.005 -32.405  1.00  0.00     0.198 A 
HETATM   25  O   UNL     1      -1.520   4.064 -31.726  1.00  0.00    -0.194 OA
HETATM   26  N   UNL     1      -0.742   4.758 -30.805  1.00  0.00    -0.112 NA
HETATM   27  C   UNL     1      -1.061   6.041 -31.019  1.00  0.00     0.152 A 
HETATM   28  C   UNL     1      -0.497   7.145 -30.216  1.00  0.00     0.096 C 
HETATM   29  N   UNL     1      -1.972   6.243 -32.035  1.00  0.00    -0.208 NA
ENDBRANCH  23  24
ENDBRANCH   1  23
TORSDOF 4
ENDMDL
MODEL 3
REMARK VINA RESULT:      -8.9      3.536      7.595
REMARK  4 active torsions:
REMARK  status: ('A' for Active; 'I' for Inactive)
REMARK    1  A    between atoms: C_5  and  C_6 
REMARK    2  A    between atoms: C_6  and  N_7 
REMARK    3  A    between atoms: N_13  and  C_15 
REMARK    4  A    between atoms: C_19  and  C_20 
ROOT
HETATM    1  N   UNL     1     -10.507   2.282 -33.190  1.00  0.00    -0.064 N 
HETATM    2  H   UNL     1     -10.981   3.144 -32.858  1.00  0.00     0.280 HD
HETATM    3  C   UNL     1      -9.695   1.802 -32.027  1.00  0.00     0.236 C 
HETATM    4  C   UNL     1      -8.781   0.640 -32.433  1.00  0.00     0.039 C 
HETATM    5  C   UNL     1      -7.928   0.874 -33.714  1.00  0.00    -0.013 C 
HETATM    6  C   UNL     1      -6.701   1.796 -33.455  1.00  0.00     0.245 C 
HETATM    7  N   UNL     1      -5.639   1.121 -32.617  1.00  0.00    -0.065 N 
HETATM    8  H   UNL     1      -6.003   0.895 -31.681  1.00  0.00     0.280 HD
HETATM    9  C   UNL     1      -5.144  -0.192 -33.222  1.00  0.00     0.244 C 
HETATM   10  C   UNL     1      -6.332  -1.141 -33.398  1.00  0.00     0.045 C 
HETATM   11  C   UNL     1      -7.417  -0.487 -34.267  1.00  0.00     0.022 C 
HETATM   12  C   UNL     1      -8.833   1.497 -34.821  1.00  0.00     0.039 C 
HETATM   13  C   UNL     1      -9.677   2.681 -34.365  1.00  0.00     0.236 C 
ENDROOT
BRANCH   7  14
HETATM   14  C   UNL     1      -4.465   2.039 -32.398  1.00  0.00     0.188 A 
HETATM   15  C   UNL     1      -4.283   2.594 -31.013  1.00  0.00     0.035 A 
HETATM   16  C   UNL     1      -3.355   1.529 -31.524  1.00  0.00     0.035 A 
ENDBRANCH   7  14
BRANCH  10  17
HETATM   17  C   UNL     1      -5.895  -2.477 -33.964  1.00  0.00    -0.052 A 
HETATM   18  C   UNL     1      -4.567  -2.900 -33.796  1.00  0.00     0.007 A 
HETATM   19  C   UNL     1      -4.141  -4.129 -34.301  1.00  0.00     0.001 A 
HETATM   20  C   UNL     1      -5.035  -4.952 -34.981  1.00  0.00     0.000 A 
HETATM   21  C   UNL     1      -6.354  -4.546 -35.159  1.00  0.00     0.001 A 
HETATM   22  C   UNL     1      -6.784  -3.317 -34.655  1.00  0.00     0.007 A 
ENDBRANCH  10  17
BRANCH   1  23
HETATM   23  C   UNL     1     -11.720   1.387 -33.540  1.00  0.00     0.323 C 
BRANCH  23  24
HETATM   24  C   UNL     1     -12.996   1.981 -33.078  1.00  0.00     0.198 A 
HETATM   25  O   UNL     1     -12.946   3.210 -32.507  1.00  0.00    -0.194 OA
HETATM   26  N   UNL     1     -14.254   3.516 -32.143  1.00  0.00    -0.112 NA
HETATM   27  C   UNL     1     -14.952   2.439 -32.524  1.00  0.00     0.152 A 
HETATM   28  C   UNL     1     -16.403   2.307 -32.284  1.00  0.00     0.096 C 
HETATM   29  N   UNL     1     -14.202   1.458 -33.139  1.00  0.00    -0.208 NA
ENDBRANCH  23  24
ENDBRANCH   1  23
TORSDOF 4
ENDMDL
MODEL 4
REMARK VINA RESULT:      -8.5      4.649      7.951
REMARK  4 active torsions:
REMARK  status: ('A' for Active; 'I' for Inactive)
REMARK    1  A    between atoms: C_5  and  C_6 
REMARK    2  A    between atoms: C_6  and  N_7 
REMARK    3  A    between atoms: N_13  and  C_15 
REMARK    4  A    between atoms: C_19  and  C_20 
ROOT
HETATM    1  N   UNL     1      -6.453  -0.496 -34.391  1.00  0.00    -0.064 N 
HETATM    2  H   UNL     1      -5.420  -0.515 -34.491  1.00  0.00     0.280 HD
HETATM    3  C   UNL     1      -6.888   0.801 -35.000  1.00  0.00     0.236 C 
HETATM    4  C   UNL     1      -8.378   1.057 -34.749  1.00  0.00     0.039 C 
HETATM    5  C   UNL     1      -8.847   0.892 -33.272  1.00  0.00    -0.013 C 
HETATM    6  C   UNL     1      -8.451   2.104 -32.381  1.00  0.00     0.245 C 
HETATM    7  N   UNL     1      -9.242   3.349 -32.714  1.00  0.00    -0.065 N 
HETATM    8  H   UNL     1      -9.050   3.655 -33.677  1.00  0.00     0.280 HD
HETATM    9  C   UNL     1     -10.752   3.142 -32.613  1.00  0.00     0.244 C 
HETATM   10  C   UNL     1     -11.166   2.010 -33.556  1.00  0.00     0.045 C 
HETATM   11  C   UNL     1     -10.393   0.725 -33.222  1.00  0.00     0.022 C 
HETATM   12  C   UNL     1      -8.234  -0.418 -32.688  1.00  0.00     0.039 C 
HETATM   13  C   UNL     1      -6.740  -0.587 -32.928  1.00  0.00     0.236 C 
ENDROOT
BRANCH   7  14
HETATM   14  C   UNL     1      -8.837   4.495 -31.823  1.00  0.00     0.188 A 
HETATM   15  C   UNL     1      -8.008   5.582 -32.446  1.00  0.00     0.035 A 
HETATM   16  C   UNL     1      -9.452   5.834 -32.116  1.00  0.00     0.035 A 
ENDBRANCH   7  14
BRANCH  10  17
HETATM   17  C   UNL     1     -12.664   1.782 -33.524  1.00  0.00    -0.052 A 
HETATM   18  C   UNL     1     -13.468   2.579 -32.693  1.00  0.00     0.007 A 
HETATM   19  C   UNL     1     -14.851   2.395 -32.652  1.00  0.00     0.001 A 
HETATM   20  C   UNL     1     -15.449   1.413 -33.437  1.00  0.00     0.000 A 
HETATM   21  C   UNL     1     -14.665   0.613 -34.264  1.00  0.00     0.001 A 
HETATM   22  C   UNL     1     -13.281   0.794 -34.309  1.00  0.00     0.007 A 
ENDBRANCH  10  17
BRANCH   1  23
HETATM   23  C   UNL     1      -6.856  -1.753 -35.199  1.00  0.00     0.323 C 
BRANCH  23  24
HETATM   24  C   UNL     1      -6.015  -2.924 -34.855  1.00  0.00     0.198 A 
HETATM   25  O   UNL     1      -6.578  -4.154 -34.961  1.00  0.00    -0.194 OA
HETATM   26  N   UNL     1      -5.601  -5.058 -34.559  1.00  0.00    -0.112 NA
HETATM   27  C   UNL     1      -4.556  -4.280 -34.246  1.00  0.00     0.152 A 
HETATM   28  C   UNL     1      -3.290  -4.827 -33.716  1.00  0.00     0.096 C 
HETATM   29  N   UNL     1      -4.767  -2.931 -34.441  1.00  0.00    -0.208 NA
ENDBRANCH  23  24
ENDBRANCH   1  23
TORSDOF 4
ENDMDL
MODEL 5
REMARK VINA RESULT:      -8.1     15.588     17.529
REMARK  4 active torsions:
REMARK  status: ('A' for Active; 'I' for Inactive)
REMARK    1  A    between atoms: C_5  and  C_6 
REMARK    2  A    between atoms: C_6  and  N_7 
REMARK    3  A    between atoms: N_13  and  C_15 
REMARK    4  A    between atoms: C_19  and  C_20 
ROOT
HETATM    1  N   UNL     1      -5.156 -15.221 -32.559  1.00  0.00    -0.064 N 
HETATM    2  H   UNL     1      -4.431 -15.417 -31.842  1.00  0.00     0.280 HD
HETATM    3  C   UNL     1      -4.630 -15.817 -33.829  1.00  0.00     0.236 C 
HETATM    4  C   UNL     1      -5.509 -15.434 -35.024  1.00  0.00     0.039 C 
HETATM    5  C   UNL     1      -5.838 -13.916 -35.156  1.00  0.00    -0.013 C 
HETATM    6  C   UNL     1      -4.645 -13.094 -35.722  1.00  0.00     0.245 C 
HETATM    7  N   UNL     1      -4.389 -13.380 -37.185  1.00  0.00    -0.065 N 
HETATM    8  H   UNL     1      -4.121 -14.364 -37.322  1.00  0.00     0.280 HD
HETATM    9  C   UNL     1      -5.613 -13.134 -38.065  1.00  0.00     0.244 C 
HETATM   10  C   UNL     1      -6.769 -14.008 -37.571  1.00  0.00     0.045 C 
HETATM   11  C   UNL     1      -7.065 -13.719 -36.091  1.00  0.00     0.022 C 
HETATM   12  C   UNL     1      -6.246 -13.362 -33.756  1.00  0.00     0.039 C 
HETATM   13  C   UNL     1      -5.303 -13.737 -32.620  1.00  0.00     0.236 C 
ENDROOT
BRANCH   7  14
HETATM   14  C   UNL     1      -3.235 -12.558 -37.698  1.00  0.00     0.188 A 
HETATM   15  C   UNL     1      -1.858 -13.130 -37.519  1.00  0.00     0.035 A 
HETATM   16  C   UNL     1      -2.488 -13.099 -38.883  1.00  0.00     0.035 A 
ENDBRANCH   7  14
BRANCH  10  17
HETATM   17  C   UNL     1      -8.004 -13.831 -38.430  1.00  0.00    -0.052 A 
HETATM   18  C   UNL     1      -8.350 -12.550 -38.891  1.00  0.00     0.007 A 
HETATM   19  C   UNL     1      -9.478 -12.361 -39.690  1.00  0.00     0.001 A 
HETATM   20  C   UNL     1     -10.276 -13.447 -40.040  1.00  0.00     0.000 A 
HETATM   21  C   UNL     1      -9.947 -14.723 -39.591  1.00  0.00     0.001 A 
HETATM   22  C   UNL     1      -8.819 -14.916 -38.791  1.00  0.00     0.007 A 
ENDBRANCH  10  17
BRANCH   1  23
HETATM   23  C   UNL     1      -6.377 -15.959 -31.960  1.00  0.00     0.323 C 
BRANCH  23  24
HETATM   24  C   UNL     1      -6.140 -16.372 -30.557  1.00  0.00     0.198 A 
HETATM   25  O   UNL     1      -5.343 -15.581 -29.796  1.00  0.00    -0.194 OA
HETATM   26  N   UNL     1      -5.264 -16.200 -28.553  1.00  0.00    -0.112 NA
HETATM   27  C   UNL     1      -6.014 -17.301 -28.697  1.00  0.00     0.152 A 
HETATM   28  C   UNL     1      -6.174 -18.298 -27.619  1.00  0.00     0.096 C 
HETATM   29  N   UNL     1      -6.603 -17.435 -29.936  1.00  0.00    -0.208 NA
ENDBRANCH  23  24
ENDBRANCH   1  23
TORSDOF 4
ENDMDL
MODEL 6
REMARK VINA RESULT:      -8.1      3.500      8.557
REMARK  4 active torsions:
REMARK  status: ('A' for Active; 'I' for Inactive)
REMARK    1  A    between atoms: C_5  and  C_6 
REMARK    2  A    between atoms: C_6  and  N_7 
REMARK    3  A    between atoms: N_13  and  C_15 
REMARK    4  A    between atoms: C_19  and  C_20 
ROOT
HETATM    1  N   UNL     1      -9.243   1.051 -33.234  1.00  0.00    -0.064 N 
HETATM    2  H   UNL     1      -9.963   0.316 -33.373  1.00  0.00     0.280 HD
HETATM    3  C   UNL     1      -8.053   0.596 -34.022  1.00  0.00     0.236 C 
HETATM    4  C   UNL     1      -6.838   1.490 -33.751  1.00  0.00     0.039 C 
HETATM    5  C   UNL     1      -6.512   1.742 -32.249  1.00  0.00    -0.013 C 
HETATM    6  C   UNL     1      -5.813   0.525 -31.577  1.00  0.00     0.245 C 
HETATM    7  N   UNL     1      -4.396   0.329 -32.069  1.00  0.00    -0.065 N 
HETATM    8  H   UNL     1      -4.386   0.117 -33.076  1.00  0.00     0.280 HD
HETATM    9  C   UNL     1      -3.519   1.564 -31.873  1.00  0.00     0.244 C 
HETATM   10  C   UNL     1      -4.152   2.749 -32.607  1.00  0.00     0.045 C 
HETATM   11  C   UNL     1      -5.587   2.985 -32.108  1.00  0.00     0.022 C 
HETATM   12  C   UNL     1      -7.833   2.078 -31.492  1.00  0.00     0.039 C 
HETATM   13  C   UNL     1      -8.987   1.121 -31.765  1.00  0.00     0.236 C 
ENDROOT
BRANCH   7  14
HETATM   14  C   UNL     1      -3.751  -0.850 -31.388  1.00  0.00     0.188 A 
HETATM   15  C   UNL     1      -3.487  -2.064 -32.232  1.00  0.00     0.035 A 
HETATM   16  C   UNL     1      -2.347  -1.188 -31.799  1.00  0.00     0.035 A 
ENDBRANCH   7  14
BRANCH  10  17
HETATM   17  C   UNL     1      -3.306   3.999 -32.477  1.00  0.00    -0.052 A 
HETATM   18  C   UNL     1      -3.529   4.877 -31.404  1.00  0.00     0.007 A 
HETATM   19  C   UNL     1      -2.758   6.031 -31.256  1.00  0.00     0.001 A 
HETATM   20  C   UNL     1      -1.755   6.323 -32.176  1.00  0.00     0.000 A 
HETATM   21  C   UNL     1      -1.522   5.464 -33.246  1.00  0.00     0.001 A 
HETATM   22  C   UNL     1      -2.292   4.308 -33.398  1.00  0.00     0.007 A 
ENDBRANCH  10  17
BRANCH   1  23
HETATM   23  C   UNL     1      -9.964   2.291 -33.816  1.00  0.00     0.323 C 
BRANCH  23  24
HETATM   24  C   UNL     1     -11.345   1.975 -34.249  1.00  0.00     0.198 A 
HETATM   25  O   UNL     1     -11.819   2.611 -35.349  1.00  0.00    -0.194 OA
HETATM   26  N   UNL     1     -13.125   2.163 -35.517  1.00  0.00    -0.112 NA
HETATM   27  C   UNL     1     -13.304   1.311 -34.499  1.00  0.00     0.152 A 
HETATM   28  C   UNL     1     -14.589   0.625 -34.255  1.00  0.00     0.096 C 
HETATM   29  N   UNL     1     -12.199   1.146 -33.690  1.00  0.00    -0.208 NA
ENDBRANCH  23  24
ENDBRANCH   1  23
TORSDOF 4
ENDMDL
MODEL 7
REMARK VINA RESULT:      -7.9      3.272      6.725
REMARK  4 active torsions:
REMARK  status: ('A' for Active; 'I' for Inactive)
REMARK    1  A    between atoms: C_5  and  C_6 
REMARK    2  A    between atoms: C_6  and  N_7 
REMARK    3  A    between atoms: N_13  and  C_15 
REMARK    4  A    between atoms: C_19  and  C_20 
ROOT
HETATM    1  N   UNL     1      -9.469   2.941 -32.587  1.00  0.00    -0.064 N 
HETATM    2  H   UNL     1      -9.779   3.843 -32.177  1.00  0.00     0.280 HD
HETATM    3  C   UNL     1      -8.700   2.255 -31.499  1.00  0.00     0.236 C 
HETATM    4  C   UNL     1      -8.010   0.991 -32.024  1.00  0.00     0.039 C 
HETATM    5  C   UNL     1      -7.184   1.172 -33.332  1.00  0.00    -0.013 C 
HETATM    6  C   UNL     1      -5.811   1.860 -33.081  1.00  0.00     0.245 C 
HETATM    7  N   UNL     1      -4.842   0.964 -32.343  1.00  0.00    -0.065 N 
HETATM    8  H   UNL     1      -5.199   0.735 -31.406  1.00  0.00     0.280 HD
HETATM    9  C   UNL     1      -4.598  -0.366 -33.054  1.00  0.00     0.244 C 
HETATM   10  C   UNL     1      -5.933  -1.094 -33.226  1.00  0.00     0.045 C 
HETATM   11  C   UNL     1      -6.930  -0.212 -33.995  1.00  0.00     0.022 C 
HETATM   12  C   UNL     1      -8.018   2.010 -34.349  1.00  0.00     0.039 C 
HETATM   13  C   UNL     1      -8.634   3.281 -33.776  1.00  0.00     0.236 C 
ENDROOT
BRANCH   7  14
HETATM   14  C   UNL     1      -3.524   1.661 -32.129  1.00  0.00     0.188 A 
HETATM   15  C   UNL     1      -3.393   3.054 -32.678  1.00  0.00     0.035 A 
HETATM   16  C   UNL     1      -3.520   2.838 -31.197  1.00  0.00     0.035 A 
ENDBRANCH   7  14
BRANCH  10  17
HETATM   17  C   UNL     1      -5.749  -2.440 -33.897  1.00  0.00    -0.052 A 
HETATM   18  C   UNL     1      -4.506  -3.088 -33.819  1.00  0.00     0.007 A 
HETATM   19  C   UNL     1      -4.312  -4.332 -34.421  1.00  0.00     0.001 A 
HETATM   20  C   UNL     1      -5.355  -4.945 -35.110  1.00  0.00     0.000 A 
HETATM   21  C   UNL     1      -6.593  -4.314 -35.198  1.00  0.00     0.001 A 
HETATM   22  C   UNL     1      -6.791  -3.070 -34.597  1.00  0.00     0.007 A 
ENDBRANCH  10  17
BRANCH   1  23
HETATM   23  C   UNL     1     -10.827   2.283 -32.927  1.00  0.00     0.323 C 
BRANCH  23  24
HETATM   24  C   UNL     1     -11.547   3.019 -33.992  1.00  0.00     0.198 A 
HETATM   25  O   UNL     1     -11.786   2.365 -35.156  1.00  0.00    -0.194 OA
HETATM   26  N   UNL     1     -12.438   3.276 -35.981  1.00  0.00    -0.112 NA
HETATM   27  C   UNL     1     -12.517   4.384 -35.232  1.00  0.00     0.152 A 
HETATM   28  C   UNL     1     -13.102   5.643 -35.736  1.00  0.00     0.096 C 
HETATM   29  N   UNL     1     -11.989   4.258 -33.964  1.00  0.00    -0.208 NA
ENDBRANCH  23  24
ENDBRANCH   1  23
TORSDOF 4
ENDMDL
MODEL 8
REMARK VINA RESULT:      -7.8     15.894     18.496
REMARK  4 active torsions:
REMARK  status: ('A' for Active; 'I' for Inactive)
REMARK    1  A    between atoms: C_5  and  C_6 
REMARK    2  A    between atoms: C_6  and  N_7 
REMARK    3  A    between atoms: N_13  and  C_15 
REMARK    4  A    between atoms: C_19  and  C_20 
ROOT
HETATM    1  N   UNL     1      -9.739 -14.529 -39.218  1.00  0.00    -0.064 N 
HETATM    2  H   UNL     1     -10.747 -14.765 -39.142  1.00  0.00     0.280 HD
HETATM    3  C   UNL     1      -9.030 -15.539 -38.369  1.00  0.00     0.236 C 
HETATM    4  C   UNL     1      -7.543 -15.194 -38.227  1.00  0.00     0.039 C 
HETATM    5  C   UNL     1      -7.232 -13.725 -37.812  1.00  0.00    -0.013 C 
HETATM    6  C   UNL     1      -7.474 -13.468 -36.297  1.00  0.00     0.245 C 
HETATM    7  N   UNL     1      -6.447 -14.154 -35.424  1.00  0.00    -0.065 N 
HETATM    8  H   UNL     1      -6.502 -15.176 -35.531  1.00  0.00     0.280 HD
HETATM    9  C   UNL     1      -5.012 -13.756 -35.764  1.00  0.00     0.244 C 
HETATM   10  C   UNL     1      -4.734 -14.089 -37.231  1.00  0.00     0.045 C 
HETATM   11  C   UNL     1      -5.751 -13.384 -38.143  1.00  0.00     0.022 C 
HETATM   12  C   UNL     1      -8.116 -12.760 -38.661  1.00  0.00     0.039 C 
HETATM   13  C   UNL     1      -9.592 -13.130 -38.719  1.00  0.00     0.236 C 
ENDROOT
BRANCH   7  14
HETATM   14  C   UNL     1      -6.708 -13.872 -33.967  1.00  0.00     0.188 A 
HETATM   15  C   UNL     1      -7.057 -15.047 -33.098  1.00  0.00     0.035 A 
HETATM   16  C   UNL     1      -5.706 -14.401 -32.981  1.00  0.00     0.035 A 
ENDBRANCH   7  14
BRANCH  10  17
HETATM   17  C   UNL     1      -3.310 -13.746 -37.618  1.00  0.00    -0.052 A 
HETATM   18  C   UNL     1      -2.331 -14.753 -37.617  1.00  0.00     0.007 A 
HETATM   19  C   UNL     1      -1.013 -14.465 -37.977  1.00  0.00     0.001 A 
HETATM   20  C   UNL     1      -0.656 -13.170 -38.341  1.00  0.00     0.000 A 
HETATM   21  C   UNL     1      -1.614 -12.161 -38.346  1.00  0.00     0.001 A 
HETATM   22  C   UNL     1      -2.933 -12.444 -37.986  1.00  0.00     0.007 A 
ENDBRANCH  10  17
BRANCH   1  23
HETATM   23  C   UNL     1      -9.506 -14.692 -40.739  1.00  0.00     0.323 C 
BRANCH  23  24
HETATM   24  C   UNL     1     -10.755 -15.045 -41.455  1.00  0.00     0.198 A 
HETATM   25  O   UNL     1     -11.919 -14.544 -40.971  1.00  0.00    -0.194 OA
HETATM   26  N   UNL     1     -12.922 -15.043 -41.795  1.00  0.00    -0.112 NA
HETATM   27  C   UNL     1     -12.261 -15.797 -42.683  1.00  0.00     0.152 A 
HETATM   28  C   UNL     1     -12.948 -16.571 -43.736  1.00  0.00     0.096 C 
HETATM   29  N   UNL     1     -10.891 -15.807 -42.519  1.00  0.00    -0.208 NA
ENDBRANCH  23  24
ENDBRANCH   1  23
TORSDOF 4
ENDMDL
MODEL 9
REMARK VINA RESULT:      -7.6      2.931      5.412
REMARK  4 active torsions:
REMARK  status: ('A' for Active; 'I' for Inactive)
REMARK    1  A    between atoms: C_5  and  C_6 
REMARK    2  A    between atoms: C_6  and  N_7 
REMARK    3  A    between atoms: N_13  and  C_15 
REMARK    4  A    between atoms: C_19  and  C_20 
ROOT
HETATM    1  N   UNL     1      -5.633   3.890 -30.254  1.00  0.00    -0.064 N 
HETATM    2  H   UNL     1      -4.713   3.992 -29.786  1.00  0.00     0.280 HD
HETATM    3  C   UNL     1      -6.010   2.450 -30.078  1.00  0.00     0.236 C 
HETATM    4  C   UNL     1      -7.262   2.104 -30.892  1.00  0.00     0.039 C 
HETATM    5  C   UNL     1      -7.236   2.548 -32.385  1.00  0.00    -0.013 C 
HETATM    6  C   UNL     1      -6.359   1.615 -33.269  1.00  0.00     0.245 C 
HETATM    7  N   UNL     1      -6.983   0.252 -33.467  1.00  0.00    -0.065 N 
HETATM    8  H   UNL     1      -7.071  -0.242 -32.568  1.00  0.00     0.280 HD
HETATM    9  C   UNL     1      -8.385   0.318 -34.069  1.00  0.00     0.244 C 
HETATM   10  C   UNL     1      -9.282   1.160 -33.157  1.00  0.00     0.045 C 
HETATM   11  C   UNL     1      -8.681   2.561 -32.960  1.00  0.00     0.022 C 
HETATM   12  C   UNL     1      -6.705   4.012 -32.471  1.00  0.00     0.039 C 
HETATM   13  C   UNL     1      -5.430   4.276 -31.681  1.00  0.00     0.236 C 
ENDROOT
BRANCH   7  14
HETATM   14  C   UNL     1      -6.110  -0.616 -34.336  1.00  0.00     0.188 A 
HETATM   15  C   UNL     1      -5.439  -1.786 -33.675  1.00  0.00     0.035 A 
HETATM   16  C   UNL     1      -6.595  -2.011 -34.609  1.00  0.00     0.035 A 
ENDBRANCH   7  14
BRANCH  10  17
HETATM   17  C   UNL     1     -10.699   1.233 -33.688  1.00  0.00    -0.052 A 
HETATM   18  C   UNL     1     -11.065   2.284 -34.544  1.00  0.00     0.007 A 
HETATM   19  C   UNL     1     -12.362   2.369 -35.053  1.00  0.00     0.001 A 
HETATM   20  C   UNL     1     -13.310   1.408 -34.715  1.00  0.00     0.000 A 
HETATM   21  C   UNL     1     -12.964   0.361 -33.866  1.00  0.00     0.001 A 
HETATM   22  C   UNL     1     -11.667   0.271 -33.354  1.00  0.00     0.007 A 
ENDBRANCH  10  17
BRANCH   1  23
HETATM   23  C   UNL     1      -6.497   4.883 -29.440  1.00  0.00     0.323 C 
BRANCH  23  24
HETATM   24  C   UNL     1      -5.671   5.732 -28.549  1.00  0.00     0.198 A 
HETATM   25  O   UNL     1      -5.996   5.763 -27.233  1.00  0.00    -0.194 OA
HETATM   26  N   UNL     1      -5.098   6.642 -26.637  1.00  0.00    -0.112 NA
HETATM   27  C   UNL     1      -4.331   7.053 -27.655  1.00  0.00     0.152 A 
HETATM   28  C   UNL     1      -3.254   8.050 -27.486  1.00  0.00     0.096 C 
HETATM   29  N   UNL     1      -4.643   6.486 -28.873  1.00  0.00    -0.208 NA
ENDBRANCH  23  24
ENDBRANCH   1  23
TORSDOF 4
ENDMDL
MODEL 10
REMARK VINA RESULT:      -7.4      3.845      6.594
REMARK  4 active torsions:
REMARK  status: ('A' for Active; 'I' for Inactive)
REMARK    1  A    between atoms: C_5  and  C_6 
REMARK    2  A    between atoms: C_6  and  N_7 
REMARK    3  A    between atoms: N_13  and  C_15 
REMARK    4  A    between atoms: C_19  and  C_20 
ROOT
HETATM    1  N   UNL     1      -5.456   1.572 -32.874  1.00  0.00    -0.064 N 
HETATM    2  H   UNL     1      -4.477   1.898 -32.764  1.00  0.00     0.280 HD
HETATM    3  C   UNL     1      -6.150   2.651 -33.648  1.00  0.00     0.236 C 
HETATM    4  C   UNL     1      -7.660   2.398 -33.717  1.00  0.00     0.039 C 
HETATM    5  C   UNL     1      -8.351   2.086 -32.355  1.00  0.00    -0.013 C 
HETATM    6  C   UNL     1      -8.567   3.361 -31.490  1.00  0.00     0.245 C 
HETATM    7  N   UNL     1      -9.630   4.273 -32.060  1.00  0.00    -0.065 N 
HETATM    8  H   UNL     1      -9.350   4.625 -32.985  1.00  0.00     0.280 HD
HETATM    9  C   UNL     1     -10.977   3.576 -32.248  1.00  0.00     0.244 C 
HETATM   10  C   UNL     1     -10.792   2.370 -33.173  1.00  0.00     0.045 C 
HETATM   11  C   UNL     1      -9.732   1.415 -32.603  1.00  0.00     0.022 C 
HETATM   12  C   UNL     1      -7.484   1.054 -31.570  1.00  0.00     0.039 C 
HETATM   13  C   UNL     1      -6.000   1.391 -31.496  1.00  0.00     0.236 C 
ENDROOT
BRANCH   7  14
HETATM   14  C   UNL     1      -9.818   5.488 -31.189  1.00  0.00     0.188 A 
HETATM   15  C   UNL     1      -9.998   6.805 -31.888  1.00  0.00     0.035 A 
HETATM   16  C   UNL     1     -11.169   6.143 -31.219  1.00  0.00     0.035 A 
ENDBRANCH   7  14
BRANCH  10  17
HETATM   17  C   UNL     1     -12.105   1.657 -33.424  1.00  0.00    -0.052 A 
HETATM   18  C   UNL     1     -13.293   2.401 -33.501  1.00  0.00     0.007 A 
HETATM   19  C   UNL     1     -14.515   1.770 -33.739  1.00  0.00     0.001 A 
HETATM   20  C   UNL     1     -14.567   0.389 -33.904  1.00  0.00     0.000 A 
HETATM   21  C   UNL     1     -13.398  -0.364 -33.830  1.00  0.00     0.001 A 
HETATM   22  C   UNL     1     -12.174   0.264 -33.591  1.00  0.00     0.007 A 
ENDBRANCH  10  17
BRANCH   1  23
HETATM   23  C   UNL     1      -5.249   0.253 -33.656  1.00  0.00     0.323 C 
BRANCH  23  24
HETATM   24  C   UNL     1      -4.312  -0.660 -32.961  1.00  0.00     0.198 A 
HETATM   25  O   UNL     1      -3.156  -0.132 -32.487  1.00  0.00    -0.194 OA
HETATM   26  N   UNL     1      -2.457  -1.190 -31.915  1.00  0.00    -0.112 NA
HETATM   27  C   UNL     1      -3.260  -2.245 -32.110  1.00  0.00     0.152 A 
HETATM   28  C   UNL     1      -2.887  -3.613 -31.698  1.00  0.00     0.096 C 
HETATM   29  N   UNL     1      -4.449  -1.950 -32.745  1.00  0.00    -0.208 NA
ENDBRANCH  23  24
ENDBRANCH   1  23
TORSDOF 4
ENDMDL
