MODEL 1
REMARK VINA RESULT:      -9.1      0.000      0.000
REMARK  6 active torsions:
REMARK  status: ('A' for Active; 'I' for Inactive)
REMARK    1  A    between atoms: C_2  and  N_3 
REMARK       I    between atoms: N_3  and  C_4 
REMARK       I    between atoms: C_4  and  N_5 
REMARK    2  A    between atoms: N_5  and  C_6 
REMARK    3  A    between atoms: C_8  and  O_9 
REMARK    4  A    between atoms: O_9  and  C_10 
REMARK    5  A    between atoms: C_10  and  C_11 
REMARK    6  A    between atoms: C_11  and  N_12 
ROOT
HETATM    1  N   UNL     1      -5.167   1.895 -31.893  1.00  0.00    -0.333 N 
HETATM    2  C   UNL     1      -5.841   3.063 -31.683  1.00  0.00     0.321 C 
HETATM    3  N   UNL     1      -5.431   4.133 -32.426  1.00  0.00    -0.309 N 
HETATM    4  O   UNL     1      -6.816   3.172 -30.948  1.00  0.00    -0.247 OA
HETATM    5  H   UNL     1      -4.699   1.852 -32.788  1.00  0.00     0.165 HD
HETATM    6  H   UNL     1      -6.140   4.856 -32.474  1.00  0.00     0.170 HD
ENDROOT
BRANCH   3   7
HETATM    7  C   UNL     1      -4.164   4.458 -32.941  1.00  0.00     0.039 A 
HETATM    8  C   UNL     1      -2.995   4.422 -32.176  1.00  0.00     0.066 A 
HETATM    9  C   UNL     1      -1.787   4.843 -32.733  1.00  0.00     0.070 A 
HETATM   10  C   UNL     1      -1.718   5.248 -34.063  1.00  0.00     0.037 A 
HETATM   11  C   UNL     1      -2.881   5.294 -34.827  1.00  0.00     0.005 A 
HETATM   12  C   UNL     1      -4.102   4.919 -34.262  1.00  0.00     0.030 A 
BRANCH   9  13
HETATM   13  O   UNL     1      -0.628   4.805 -32.011  1.00  0.00    -0.349 OA
BRANCH  13  14
HETATM   14  C   UNL     1      -0.564   5.845 -31.019  1.00  0.00     0.197 C 
BRANCH  14  15
HETATM   15  C   UNL     1       0.082   5.277 -29.765  1.00  0.00     0.177 C 
BRANCH  15  16
HETATM   16  N   UNL     1       0.367   6.302 -28.783  1.00  0.00    -0.279 N 
HETATM   17  N   UNL     1       0.168   6.046 -27.476  1.00  0.00    -0.185 NA
HETATM   18  C   UNL     1       0.485   7.197 -26.877  1.00  0.00     0.140 A 
HETATM   19  C   UNL     1       0.894   8.182 -27.793  1.00  0.00     0.040 A 
HETATM   20  C   UNL     1       0.817   7.569 -29.020  1.00  0.00     0.113 A 
ENDBRANCH  15  16
ENDBRANCH  14  15
ENDBRANCH  13  14
ENDBRANCH   9  13
ENDBRANCH   3   7
BRANCH   1  21
HETATM   21  C   UNL     1      -5.510   0.607 -31.249  1.00  0.00     0.039 C 
HETATM   22  C   UNL     1      -5.691   0.782 -29.733  1.00  0.00     0.039 C 
HETATM   23  C   UNL     1      -4.436  -0.480 -31.572  1.00  0.00     0.070 C 
HETATM   24  C   UNL     1      -5.018  -1.181 -32.765  1.00  0.00    -0.049 A 
HETATM   25  C   UNL     1      -6.368  -0.872 -32.929  1.00  0.00    -0.049 A 
HETATM   26  C   UNL     1      -4.392  -2.093 -33.599  1.00  0.00     0.007 A 
HETATM   27  C   UNL     1      -6.842   0.060 -31.858  1.00  0.00     0.070 C 
HETATM   28  C   UNL     1      -7.124  -1.465 -33.926  1.00  0.00     0.007 A 
HETATM   29  C   UNL     1      -6.501  -2.378 -34.777  1.00  0.00     0.001 A 
HETATM   30  C   UNL     1      -5.143  -2.690 -34.615  1.00  0.00     0.001 A 
ENDBRANCH   1  21
TORSDOF 6
ENDMDL
MODEL 2
REMARK VINA RESULT:      -8.6      1.785      2.105
REMARK  6 active torsions:
REMARK  status: ('A' for Active; 'I' for Inactive)
REMARK    1  A    between atoms: C_2  and  N_3 
REMARK       I    between atoms: N_3  and  C_4 
REMARK       I    between atoms: C_4  and  N_5 
REMARK    2  A    between atoms: N_5  and  C_6 
REMARK    3  A    between atoms: C_8  and  O_9 
REMARK    4  A    between atoms: O_9  and  C_10 
REMARK    5  A    between atoms: C_10  and  C_11 
REMARK    6  A    between atoms: C_11  and  N_12 
ROOT
HETATM    1  N   UNL     1      -5.950   2.197 -32.775  1.00  0.00    -0.333 N 
HETATM    2  C   UNL     1      -6.844   2.970 -33.457  1.00  0.00     0.321 C 
HETATM    3  N   UNL     1      -6.315   3.995 -34.186  1.00  0.00    -0.309 N 
HETATM    4  O   UNL     1      -8.048   2.743 -33.511  1.00  0.00    -0.247 OA
HETATM    5  H   UNL     1      -5.011   2.237 -33.148  1.00  0.00     0.165 HD
HETATM    6  H   UNL     1      -6.954   4.321 -34.903  1.00  0.00     0.170 HD
ENDROOT
BRANCH   3   7
HETATM    7  C   UNL     1      -5.158   4.765 -33.978  1.00  0.00     0.039 A 
HETATM    8  C   UNL     1      -4.968   5.571 -32.852  1.00  0.00     0.066 A 
HETATM    9  C   UNL     1      -3.831   6.375 -32.757  1.00  0.00     0.070 A 
HETATM   10  C   UNL     1      -2.852   6.344 -33.744  1.00  0.00     0.037 A 
HETATM   11  C   UNL     1      -3.039   5.549 -34.872  1.00  0.00     0.005 A 
HETATM   12  C   UNL     1      -4.197   4.778 -34.997  1.00  0.00     0.030 A 
BRANCH   9  13
HETATM   13  O   UNL     1      -3.617   7.162 -31.661  1.00  0.00    -0.349 OA
BRANCH  13  14
HETATM   14  C   UNL     1      -2.524   8.080 -31.849  1.00  0.00     0.197 C 
BRANCH  14  15
HETATM   15  C   UNL     1      -1.697   8.112 -30.573  1.00  0.00     0.177 C 
BRANCH  15  16
HETATM   16  N   UNL     1      -0.782   6.994 -30.485  1.00  0.00    -0.279 N 
HETATM   17  N   UNL     1      -0.711   6.280 -29.345  1.00  0.00    -0.185 NA
HETATM   18  C   UNL     1       0.240   5.376 -29.596  1.00  0.00     0.140 A 
HETATM   19  C   UNL     1       0.769   5.503 -30.893  1.00  0.00     0.040 A 
HETATM   20  C   UNL     1       0.079   6.555 -31.448  1.00  0.00     0.113 A 
ENDBRANCH  15  16
ENDBRANCH  14  15
ENDBRANCH  13  14
ENDBRANCH   9  13
ENDBRANCH   3   7
BRANCH   1  21
HETATM   21  C   UNL     1      -6.314   0.993 -31.994  1.00  0.00     0.039 C 
HETATM   22  C   UNL     1      -6.984   1.381 -30.667  1.00  0.00     0.039 C 
HETATM   23  C   UNL     1      -5.065   0.085 -31.756  1.00  0.00     0.070 C 
HETATM   24  C   UNL     1      -5.148  -0.900 -32.886  1.00  0.00    -0.049 A 
HETATM   25  C   UNL     1      -6.405  -0.878 -33.490  1.00  0.00    -0.049 A 
HETATM   26  C   UNL     1      -4.182  -1.806 -33.292  1.00  0.00     0.007 A 
HETATM   27  C   UNL     1      -7.306   0.115 -32.825  1.00  0.00     0.070 C 
HETATM   28  C   UNL     1      -6.727  -1.758 -34.510  1.00  0.00     0.007 A 
HETATM   29  C   UNL     1      -5.758  -2.668 -34.932  1.00  0.00     0.001 A 
HETATM   30  C   UNL     1      -4.492  -2.692 -34.327  1.00  0.00     0.001 A 
ENDBRANCH   1  21
TORSDOF 6
ENDMDL
MODEL 3
REMARK VINA RESULT:      -8.3      2.135      2.816
REMARK  6 active torsions:
REMARK  status: ('A' for Active; 'I' for Inactive)
REMARK    1  A    between atoms: C_2  and  N_3 
REMARK       I    between atoms: N_3  and  C_4 
REMARK       I    between atoms: C_4  and  N_5 
REMARK    2  A    between atoms: N_5  and  C_6 
REMARK    3  A    between atoms: C_8  and  O_9 
REMARK    4  A    between atoms: O_9  and  C_10 
REMARK    5  A    between atoms: C_10  and  C_11 
REMARK    6  A    between atoms: C_11  and  N_12 
ROOT
HETATM    1  N   UNL     1      -7.108   1.911 -32.904  1.00  0.00    -0.333 N 
HETATM    2  C   UNL     1      -7.912   2.639 -33.731  1.00  0.00     0.321 C 
HETATM    3  N   UNL     1      -7.370   3.786 -34.235  1.00  0.00    -0.309 N 
HETATM    4  O   UNL     1      -9.026   2.281 -34.098  1.00  0.00    -0.247 OA
HETATM    5  H   UNL     1      -6.122   2.096 -33.028  1.00  0.00     0.165 HD
HETATM    6  H   UNL     1      -7.860   4.105 -35.064  1.00  0.00     0.170 HD
ENDROOT
BRANCH   3   7
HETATM    7  C   UNL     1      -6.413   4.661 -33.694  1.00  0.00     0.039 A 
HETATM    8  C   UNL     1      -5.133   4.821 -34.231  1.00  0.00     0.066 A 
HETATM    9  C   UNL     1      -4.207   5.643 -33.587  1.00  0.00     0.070 A 
HETATM   10  C   UNL     1      -4.558   6.353 -32.443  1.00  0.00     0.037 A 
HETATM   11  C   UNL     1      -5.830   6.191 -31.899  1.00  0.00     0.005 A 
HETATM   12  C   UNL     1      -6.747   5.333 -32.511  1.00  0.00     0.030 A 
BRANCH   9  13
HETATM   13  O   UNL     1      -2.954   5.826 -34.098  1.00  0.00    -0.349 OA
BRANCH  13  14
HETATM   14  C   UNL     1      -2.365   7.071 -33.680  1.00  0.00     0.197 C 
BRANCH  14  15
HETATM   15  C   UNL     1      -0.905   6.823 -33.336  1.00  0.00     0.177 C 
BRANCH  15  16
HETATM   16  N   UNL     1      -0.638   6.998 -31.924  1.00  0.00    -0.279 N 
HETATM   17  N   UNL     1      -1.556   7.597 -31.142  1.00  0.00    -0.185 NA
HETATM   18  C   UNL     1      -0.977   7.627 -29.939  1.00  0.00     0.140 A 
HETATM   19  C   UNL     1       0.302   7.043 -29.947  1.00  0.00     0.040 A 
HETATM   20  C   UNL     1       0.490   6.634 -31.246  1.00  0.00     0.113 A 
ENDBRANCH  15  16
ENDBRANCH  14  15
ENDBRANCH  13  14
ENDBRANCH   9  13
ENDBRANCH   3   7
BRANCH   1  21
HETATM   21  C   UNL     1      -7.478   0.601 -32.321  1.00  0.00     0.039 C 
HETATM   22  C   UNL     1      -8.649   0.748 -31.337  1.00  0.00     0.039 C 
HETATM   23  C   UNL     1      -6.245  -0.075 -31.642  1.00  0.00     0.070 C 
HETATM   24  C   UNL     1      -5.710  -0.963 -32.727  1.00  0.00    -0.049 A 
HETATM   25  C   UNL     1      -6.638  -1.127 -33.755  1.00  0.00    -0.049 A 
HETATM   26  C   UNL     1      -4.500  -1.637 -32.749  1.00  0.00     0.007 A 
HETATM   27  C   UNL     1      -7.900  -0.376 -33.467  1.00  0.00     0.070 C 
HETATM   28  C   UNL     1      -6.382  -1.966 -34.827  1.00  0.00     0.007 A 
HETATM   29  C   UNL     1      -5.162  -2.642 -34.863  1.00  0.00     0.001 A 
HETATM   30  C   UNL     1      -4.227  -2.479 -33.831  1.00  0.00     0.001 A 
ENDBRANCH   1  21
TORSDOF 6
ENDMDL
MODEL 4
REMARK VINA RESULT:      -8.2      2.034      9.548
REMARK  6 active torsions:
REMARK  status: ('A' for Active; 'I' for Inactive)
REMARK    1  A    between atoms: C_2  and  N_3 
REMARK       I    between atoms: N_3  and  C_4 
REMARK       I    between atoms: C_4  and  N_5 
REMARK    2  A    between atoms: N_5  and  C_6 
REMARK    3  A    between atoms: C_8  and  O_9 
REMARK    4  A    between atoms: O_9  and  C_10 
REMARK    5  A    between atoms: C_10  and  C_11 
REMARK    6  A    between atoms: C_11  and  N_12 
ROOT
HETATM    1  N   UNL     1      -1.089   4.967 -30.727  1.00  0.00    -0.333 N 
HETATM    2  C   UNL     1      -1.536   5.028 -32.015  1.00  0.00     0.321 C 
HETATM    3  N   UNL     1      -2.820   4.611 -32.222  1.00  0.00    -0.309 N 
HETATM    4  O   UNL     1      -0.894   5.502 -32.945  1.00  0.00    -0.247 OA
HETATM    5  H   UNL     1      -1.829   4.962 -30.039  1.00  0.00     0.165 HD
HETATM    6  H   UNL     1      -3.199   4.967 -33.092  1.00  0.00     0.170 HD
ENDROOT
BRANCH   3   7
HETATM    7  C   UNL     1      -3.589   3.647 -31.548  1.00  0.00     0.039 A 
HETATM    8  C   UNL     1      -3.452   2.272 -31.762  1.00  0.00     0.066 A 
HETATM    9  C   UNL     1      -4.312   1.381 -31.119  1.00  0.00     0.070 A 
HETATM   10  C   UNL     1      -5.273   1.837 -30.222  1.00  0.00     0.037 A 
HETATM   11  C   UNL     1      -5.419   3.206 -30.011  1.00  0.00     0.005 A 
HETATM   12  C   UNL     1      -4.593   4.108 -30.687  1.00  0.00     0.030 A 
BRANCH   9  13
HETATM   13  O   UNL     1      -4.192   0.032 -31.301  1.00  0.00    -0.349 OA
BRANCH  13  14
HETATM   14  C   UNL     1      -5.426  -0.579 -31.717  1.00  0.00     0.197 C 
BRANCH  14  15
HETATM   15  C   UNL     1      -5.529  -0.477 -33.231  1.00  0.00     0.177 C 
BRANCH  15  16
HETATM   16  N   UNL     1      -5.650  -1.775 -33.860  1.00  0.00    -0.279 N 
HETATM   17  N   UNL     1      -4.557  -2.548 -34.010  1.00  0.00    -0.185 NA
HETATM   18  C   UNL     1      -5.017  -3.626 -34.649  1.00  0.00     0.140 A 
HETATM   19  C   UNL     1      -6.399  -3.551 -34.901  1.00  0.00     0.040 A 
HETATM   20  C   UNL     1      -6.783  -2.343 -34.368  1.00  0.00     0.113 A 
ENDBRANCH  15  16
ENDBRANCH  14  15
ENDBRANCH  13  14
ENDBRANCH   9  13
ENDBRANCH   3   7
BRANCH   1  21
HETATM   21  C   UNL     1       0.240   5.447 -30.284  1.00  0.00     0.039 C 
HETATM   22  C   UNL     1       1.355   4.881 -31.177  1.00  0.00     0.039 C 
HETATM   23  C   UNL     1       0.484   5.100 -28.781  1.00  0.00     0.070 C 
HETATM   24  C   UNL     1       0.047   6.350 -28.073  1.00  0.00    -0.049 A 
HETATM   25  C   UNL     1      -0.074   7.420 -28.959  1.00  0.00    -0.049 A 
HETATM   26  C   UNL     1      -0.153   6.527 -26.714  1.00  0.00     0.007 A 
HETATM   27  C   UNL     1       0.278   7.009 -30.354  1.00  0.00     0.070 C 
HETATM   28  C   UNL     1      -0.396   8.690 -28.511  1.00  0.00     0.007 A 
HETATM   29  C   UNL     1      -0.609   8.877 -27.144  1.00  0.00     0.001 A 
HETATM   30  C   UNL     1      -0.488   7.802 -26.251  1.00  0.00     0.001 A 
ENDBRANCH   1  21
TORSDOF 6
ENDMDL
MODEL 5
REMARK VINA RESULT:      -8.2      2.345      9.239
REMARK  6 active torsions:
REMARK  status: ('A' for Active; 'I' for Inactive)
REMARK    1  A    between atoms: C_2  and  N_3 
REMARK       I    between atoms: N_3  and  C_4 
REMARK       I    between atoms: C_4  and  N_5 
REMARK    2  A    between atoms: N_5  and  C_6 
REMARK    3  A    between atoms: C_8  and  O_9 
REMARK    4  A    between atoms: O_9  and  C_10 
REMARK    5  A    between atoms: C_10  and  C_11 
REMARK    6  A    between atoms: C_11  and  N_12 
ROOT
HETATM    1  N   UNL     1      -2.969   5.011 -32.602  1.00  0.00    -0.333 N 
HETATM    2  C   UNL     1      -4.069   5.013 -33.409  1.00  0.00     0.321 C 
HETATM    3  N   UNL     1      -5.164   4.352 -32.930  1.00  0.00    -0.309 N 
HETATM    4  O   UNL     1      -4.147   5.630 -34.465  1.00  0.00    -0.247 OA
HETATM    5  H   UNL     1      -3.179   4.839 -31.629  1.00  0.00     0.165 HD
HETATM    6  H   UNL     1      -6.017   4.647 -33.391  1.00  0.00     0.170 HD
ENDROOT
BRANCH   3   7
HETATM    7  C   UNL     1      -5.260   3.236 -32.081  1.00  0.00     0.039 A 
HETATM    8  C   UNL     1      -4.802   1.964 -32.434  1.00  0.00     0.066 A 
HETATM    9  C   UNL     1      -5.011   0.887 -31.572  1.00  0.00     0.070 A 
HETATM   10  C   UNL     1      -5.623   1.070 -30.336  1.00  0.00     0.037 A 
HETATM   11  C   UNL     1      -6.088   2.334 -29.982  1.00  0.00     0.005 A 
HETATM   12  C   UNL     1      -5.925   3.409 -30.860  1.00  0.00     0.030 A 
BRANCH   9  13
HETATM   13  O   UNL     1      -4.563  -0.364 -31.889  1.00  0.00    -0.349 OA
BRANCH  13  14
HETATM   14  C   UNL     1      -5.279  -0.943 -32.994  1.00  0.00     0.197 C 
BRANCH  14  15
HETATM   15  C   UNL     1      -4.285  -1.673 -33.884  1.00  0.00     0.177 C 
BRANCH  15  16
HETATM   16  N   UNL     1      -4.748  -2.994 -34.253  1.00  0.00    -0.279 N 
HETATM   17  N   UNL     1      -5.923  -3.133 -34.898  1.00  0.00    -0.185 NA
HETATM   18  C   UNL     1      -6.053  -4.454 -35.039  1.00  0.00     0.140 A 
HETATM   19  C   UNL     1      -4.964  -5.160 -34.496  1.00  0.00     0.040 A 
HETATM   20  C   UNL     1      -4.130  -4.185 -34.002  1.00  0.00     0.113 A 
ENDBRANCH  15  16
ENDBRANCH  14  15
ENDBRANCH  13  14
ENDBRANCH   9  13
ENDBRANCH   3   7
BRANCH   1  21
HETATM   21  C   UNL     1      -1.713   5.736 -32.903  1.00  0.00     0.039 C 
HETATM   22  C   UNL     1      -1.377   5.655 -34.400  1.00  0.00     0.039 C 
HETATM   23  C   UNL     1      -0.538   5.201 -32.026  1.00  0.00     0.070 C 
HETATM   24  C   UNL     1      -0.536   6.143 -30.857  1.00  0.00    -0.049 A 
HETATM   25  C   UNL     1      -1.292   7.285 -31.122  1.00  0.00    -0.049 A 
HETATM   26  C   UNL     1       0.160   6.013 -29.666  1.00  0.00     0.007 A 
HETATM   27  C   UNL     1      -1.873   7.239 -32.500  1.00  0.00     0.070 C 
HETATM   28  C   UNL     1      -1.370   8.322 -30.208  1.00  0.00     0.007 A 
HETATM   29  C   UNL     1      -0.680   8.197 -29.002  1.00  0.00     0.001 A 
HETATM   30  C   UNL     1       0.081   7.050 -28.732  1.00  0.00     0.001 A 
ENDBRANCH   1  21
TORSDOF 6
ENDMDL
MODEL 6
REMARK VINA RESULT:      -8.2      1.184      1.374
REMARK  6 active torsions:
REMARK  status: ('A' for Active; 'I' for Inactive)
REMARK    1  A    between atoms: C_2  and  N_3 
REMARK       I    between atoms: N_3  and  C_4 
REMARK       I    between atoms: C_4  and  N_5 
REMARK    2  A    between atoms: N_5  and  C_6 
REMARK    3  A    between atoms: C_8  and  O_9 
REMARK    4  A    between atoms: O_9  and  C_10 
REMARK    5  A    between atoms: C_10  and  C_11 
REMARK    6  A    between atoms: C_11  and  N_12 
ROOT
HETATM    1  N   UNL     1      -5.031   2.323 -32.293  1.00  0.00    -0.333 N 
HETATM    2  C   UNL     1      -5.845   3.376 -32.591  1.00  0.00     0.321 C 
HETATM    3  N   UNL     1      -5.300   4.348 -33.381  1.00  0.00    -0.309 N 
HETATM    4  O   UNL     1      -7.025   3.447 -32.267  1.00  0.00    -0.247 OA
HETATM    5  H   UNL     1      -4.270   2.198 -32.947  1.00  0.00     0.165 HD
HETATM    6  H   UNL     1      -6.011   4.918 -33.826  1.00  0.00     0.170 HD
ENDROOT
BRANCH   3   7
HETATM    7  C   UNL     1      -3.971   4.787 -33.507  1.00  0.00     0.039 A 
HETATM    8  C   UNL     1      -3.221   5.273 -32.432  1.00  0.00     0.066 A 
HETATM    9  C   UNL     1      -1.936   5.772 -32.652  1.00  0.00     0.070 A 
HETATM   10  C   UNL     1      -1.367   5.743 -33.921  1.00  0.00     0.037 A 
HETATM   11  C   UNL     1      -2.113   5.267 -34.997  1.00  0.00     0.005 A 
HETATM   12  C   UNL     1      -3.417   4.810 -34.793  1.00  0.00     0.030 A 
BRANCH   9  13
HETATM   13  O   UNL     1      -1.178   6.241 -31.617  1.00  0.00    -0.349 OA
BRANCH  13  14
HETATM   14  C   UNL     1      -1.883   6.219 -30.363  1.00  0.00     0.197 C 
BRANCH  14  15
HETATM   15  C   UNL     1      -1.408   7.394 -29.522  1.00  0.00     0.177 C 
BRANCH  15  16
HETATM   16  N   UNL     1      -1.310   7.058 -28.118  1.00  0.00    -0.279 N 
HETATM   17  N   UNL     1      -0.268   6.326 -27.679  1.00  0.00    -0.185 NA
HETATM   18  C   UNL     1      -0.514   6.172 -26.376  1.00  0.00     0.140 A 
HETATM   19  C   UNL     1      -1.703   6.809 -25.978  1.00  0.00     0.040 A 
HETATM   20  C   UNL     1      -2.192   7.383 -27.127  1.00  0.00     0.113 A 
ENDBRANCH  15  16
ENDBRANCH  14  15
ENDBRANCH  13  14
ENDBRANCH   9  13
ENDBRANCH   3   7
BRANCH   1  21
HETATM   21  C   UNL     1      -5.457   1.133 -31.522  1.00  0.00     0.039 C 
HETATM   22  C   UNL     1      -5.724   1.497 -30.053  1.00  0.00     0.039 C 
HETATM   23  C   UNL     1      -4.403  -0.014 -31.640  1.00  0.00     0.070 C 
HETATM   24  C   UNL     1      -4.934  -0.840 -32.775  1.00  0.00    -0.049 A 
HETATM   25  C   UNL     1      -6.260  -0.518 -33.063  1.00  0.00    -0.049 A 
HETATM   26  C   UNL     1      -4.289  -1.864 -33.451  1.00  0.00     0.007 A 
HETATM   27  C   UNL     1      -6.767   0.550 -32.146  1.00  0.00     0.070 C 
HETATM   28  C   UNL     1      -6.973  -1.209 -34.029  1.00  0.00     0.007 A 
HETATM   29  C   UNL     1      -6.330  -2.235 -34.722  1.00  0.00     0.001 A 
HETATM   30  C   UNL     1      -4.996  -2.561 -34.435  1.00  0.00     0.001 A 
ENDBRANCH   1  21
TORSDOF 6
ENDMDL
MODEL 7
REMARK VINA RESULT:      -7.8     17.951     19.488
REMARK  6 active torsions:
REMARK  status: ('A' for Active; 'I' for Inactive)
REMARK    1  A    between atoms: C_2  and  N_3 
REMARK       I    between atoms: N_3  and  C_4 
REMARK       I    between atoms: C_4  and  N_5 
REMARK    2  A    between atoms: N_5  and  C_6 
REMARK    3  A    between atoms: C_8  and  O_9 
REMARK    4  A    between atoms: O_9  and  C_10 
REMARK    5  A    between atoms: C_10  and  C_11 
REMARK    6  A    between atoms: C_11  and  N_12 
ROOT
HETATM    1  N   UNL     1      -5.572 -13.850 -39.604  1.00  0.00    -0.333 N 
HETATM    2  C   UNL     1      -5.033 -12.802 -40.292  1.00  0.00     0.321 C 
HETATM    3  N   UNL     1      -4.253 -13.129 -41.364  1.00  0.00    -0.309 N 
HETATM    4  O   UNL     1      -5.277 -11.625 -40.055  1.00  0.00    -0.247 OA
HETATM    5  H   UNL     1      -5.631 -14.703 -40.142  1.00  0.00     0.165 HD
HETATM    6  H   UNL     1      -4.150 -12.354 -42.009  1.00  0.00     0.170 HD
ENDROOT
BRANCH   3   7
HETATM    7  C   UNL     1      -3.444 -14.254 -41.598  1.00  0.00     0.039 A 
HETATM    8  C   UNL     1      -2.276 -14.521 -40.878  1.00  0.00     0.066 A 
HETATM    9  C   UNL     1      -1.479 -15.612 -41.227  1.00  0.00     0.070 A 
HETATM   10  C   UNL     1      -1.859 -16.475 -42.250  1.00  0.00     0.037 A 
HETATM   11  C   UNL     1      -3.018 -16.210 -42.975  1.00  0.00     0.005 A 
HETATM   12  C   UNL     1      -3.796 -15.093 -42.663  1.00  0.00     0.030 A 
BRANCH   9  13
HETATM   13  O   UNL     1      -0.339 -15.901 -40.532  1.00  0.00    -0.349 OA
BRANCH  13  14
HETATM   14  C   UNL     1       0.330 -14.719 -40.056  1.00  0.00     0.197 C 
BRANCH  14  15
HETATM   15  C   UNL     1       0.895 -15.008 -38.673  1.00  0.00     0.177 C 
BRANCH  15  16
HETATM   16  N   UNL     1      -0.105 -14.873 -37.635  1.00  0.00    -0.279 N 
HETATM   17  N   UNL     1      -0.145 -15.768 -36.629  1.00  0.00    -0.185 NA
HETATM   18  C   UNL     1      -1.189 -15.374 -35.896  1.00  0.00     0.140 A 
HETATM   19  C   UNL     1      -1.810 -14.227 -36.423  1.00  0.00     0.040 A 
HETATM   20  C   UNL     1      -1.078 -13.920 -37.545  1.00  0.00     0.113 A 
ENDBRANCH  15  16
ENDBRANCH  14  15
ENDBRANCH  13  14
ENDBRANCH   9  13
ENDBRANCH   3   7
BRANCH   1  21
HETATM   21  C   UNL     1      -6.508 -13.706 -38.465  1.00  0.00     0.039 C 
HETATM   22  C   UNL     1      -5.749 -13.683 -37.130  1.00  0.00     0.039 C 
HETATM   23  C   UNL     1      -7.588 -14.835 -38.486  1.00  0.00     0.070 C 
HETATM   24  C   UNL     1      -8.731 -14.190 -39.215  1.00  0.00    -0.049 A 
HETATM   25  C   UNL     1      -8.570 -12.806 -39.293  1.00  0.00    -0.049 A 
HETATM   26  C   UNL     1      -9.873 -14.800 -39.706  1.00  0.00     0.007 A 
HETATM   27  C   UNL     1      -7.308 -12.371 -38.617  1.00  0.00     0.070 C 
HETATM   28  C   UNL     1      -9.544 -12.001 -39.861  1.00  0.00     0.007 A 
HETATM   29  C   UNL     1     -10.694 -12.608 -40.367  1.00  0.00     0.001 A 
HETATM   30  C   UNL     1     -10.858 -13.999 -40.290  1.00  0.00     0.001 A 
ENDBRANCH   1  21
TORSDOF 6
ENDMDL
MODEL 8
REMARK VINA RESULT:      -7.8     17.482     19.235
REMARK  6 active torsions:
REMARK  status: ('A' for Active; 'I' for Inactive)
REMARK    1  A    between atoms: C_2  and  N_3 
REMARK       I    between atoms: N_3  and  C_4 
REMARK       I    between atoms: C_4  and  N_5 
REMARK    2  A    between atoms: N_5  and  C_6 
REMARK    3  A    between atoms: C_8  and  O_9 
REMARK    4  A    between atoms: O_9  and  C_10 
REMARK    5  A    between atoms: C_10  and  C_11 
REMARK    6  A    between atoms: C_11  and  N_12 
ROOT
HETATM    1  N   UNL     1      -7.512 -14.309 -40.273  1.00  0.00    -0.333 N 
HETATM    2  C   UNL     1      -7.239 -13.072 -40.779  1.00  0.00     0.321 C 
HETATM    3  N   UNL     1      -6.243 -13.013 -41.711  1.00  0.00    -0.309 N 
HETATM    4  O   UNL     1      -7.880 -12.062 -40.509  1.00  0.00    -0.247 OA
HETATM    5  H   UNL     1      -7.214 -15.068 -40.871  1.00  0.00     0.165 HD
HETATM    6  H   UNL     1      -6.298 -12.170 -42.272  1.00  0.00     0.170 HD
ENDROOT
BRANCH   3   7
HETATM    7  C   UNL     1      -5.092 -13.802 -41.871  1.00  0.00     0.039 A 
HETATM    8  C   UNL     1      -4.116 -13.943 -40.880  1.00  0.00     0.066 A 
HETATM    9  C   UNL     1      -2.958 -14.674 -41.145  1.00  0.00     0.070 A 
HETATM   10  C   UNL     1      -2.783 -15.315 -42.368  1.00  0.00     0.037 A 
HETATM   11  C   UNL     1      -3.748 -15.173 -43.361  1.00  0.00     0.005 A 
HETATM   12  C   UNL     1      -4.888 -14.402 -43.120  1.00  0.00     0.030 A 
BRANCH   9  13
HETATM   13  O   UNL     1      -1.995 -14.836 -40.190  1.00  0.00    -0.349 OA
BRANCH  13  14
HETATM   14  C   UNL     1      -1.103 -13.710 -40.110  1.00  0.00     0.197 C 
BRANCH  14  15
HETATM   15  C   UNL     1      -0.733 -13.490 -38.651  1.00  0.00     0.177 C 
BRANCH  15  16
HETATM   16  N   UNL     1      -1.897 -13.421 -37.795  1.00  0.00    -0.279 N 
HETATM   17  N   UNL     1      -2.073 -14.347 -36.832  1.00  0.00    -0.185 NA
HETATM   18  C   UNL     1      -3.240 -14.010 -36.278  1.00  0.00     0.140 A 
HETATM   19  C   UNL     1      -3.807 -12.870 -36.875  1.00  0.00     0.040 A 
HETATM   20  C   UNL     1      -2.908 -12.505 -37.849  1.00  0.00     0.113 A 
ENDBRANCH  15  16
ENDBRANCH  14  15
ENDBRANCH  13  14
ENDBRANCH   9  13
ENDBRANCH   3   7
BRANCH   1  21
HETATM   21  C   UNL     1      -8.606 -14.596 -39.317  1.00  0.00     0.039 C 
HETATM   22  C   UNL     1      -9.955 -14.709 -40.042  1.00  0.00     0.039 C 
HETATM   23  C   UNL     1      -8.655 -13.517 -38.189  1.00  0.00     0.070 C 
HETATM   24  C   UNL     1      -7.839 -14.141 -37.093  1.00  0.00    -0.049 A 
HETATM   25  C   UNL     1      -7.641 -15.503 -37.318  1.00  0.00    -0.049 A 
HETATM   26  C   UNL     1      -7.372 -13.537 -35.937  1.00  0.00     0.007 A 
HETATM   27  C   UNL     1      -8.312 -15.944 -38.581  1.00  0.00     0.070 C 
HETATM   28  C   UNL     1      -6.975 -16.293 -36.396  1.00  0.00     0.007 A 
HETATM   29  C   UNL     1      -6.493 -15.693 -35.233  1.00  0.00     0.001 A 
HETATM   30  C   UNL     1      -6.690 -14.323 -35.004  1.00  0.00     0.001 A 
ENDBRANCH   1  21
TORSDOF 6
ENDMDL
MODEL 9
REMARK VINA RESULT:      -7.8      4.188      8.334
REMARK  6 active torsions:
REMARK  status: ('A' for Active; 'I' for Inactive)
REMARK    1  A    between atoms: C_2  and  N_3 
REMARK       I    between atoms: N_3  and  C_4 
REMARK       I    between atoms: C_4  and  N_5 
REMARK    2  A    between atoms: N_5  and  C_6 
REMARK    3  A    between atoms: C_8  and  O_9 
REMARK    4  A    between atoms: O_9  and  C_10 
REMARK    5  A    between atoms: C_10  and  C_11 
REMARK    6  A    between atoms: C_11  and  N_12 
ROOT
HETATM    1  N   UNL     1      -6.503   2.853 -31.652  1.00  0.00    -0.333 N 
HETATM    2  C   UNL     1      -6.359   2.810 -30.296  1.00  0.00     0.321 C 
HETATM    3  N   UNL     1      -7.470   3.122 -29.566  1.00  0.00    -0.309 N 
HETATM    4  O   UNL     1      -5.342   2.436 -29.724  1.00  0.00    -0.247 OA
HETATM    5  H   UNL     1      -7.461   2.764 -31.962  1.00  0.00     0.165 HD
HETATM    6  H   UNL     1      -7.411   2.773 -28.616  1.00  0.00     0.170 HD
ENDROOT
BRANCH   3   7
HETATM    7  C   UNL     1      -8.542   3.985 -29.854  1.00  0.00     0.039 A 
HETATM    8  C   UNL     1      -9.697   3.572 -30.525  1.00  0.00     0.066 A 
HETATM    9  C   UNL     1     -10.680   4.506 -30.851  1.00  0.00     0.070 A 
HETATM   10  C   UNL     1     -10.555   5.838 -30.469  1.00  0.00     0.037 A 
HETATM   11  C   UNL     1      -9.403   6.256 -29.807  1.00  0.00     0.005 A 
HETATM   12  C   UNL     1      -8.392   5.336 -29.519  1.00  0.00     0.030 A 
BRANCH   9  13
HETATM   13  O   UNL     1     -11.824   4.127 -31.496  1.00  0.00    -0.349 OA
BRANCH  13  14
HETATM   14  C   UNL     1     -11.932   4.705 -32.809  1.00  0.00     0.197 C 
BRANCH  14  15
HETATM   15  C   UNL     1     -12.564   3.678 -33.737  1.00  0.00     0.177 C 
BRANCH  15  16
HETATM   16  N   UNL     1     -11.867   2.410 -33.706  1.00  0.00    -0.279 N 
HETATM   17  N   UNL     1     -12.556   1.276 -33.473  1.00  0.00    -0.185 NA
HETATM   18  C   UNL     1     -11.616   0.329 -33.472  1.00  0.00     0.140 A 
HETATM   19  C   UNL     1     -10.331   0.849 -33.712  1.00  0.00     0.040 A 
HETATM   20  C   UNL     1     -10.528   2.200 -33.870  1.00  0.00     0.113 A 
ENDBRANCH  15  16
ENDBRANCH  14  15
ENDBRANCH  13  14
ENDBRANCH   9  13
ENDBRANCH   3   7
BRANCH   1  21
HETATM   21  C   UNL     1      -5.445   2.472 -32.615  1.00  0.00     0.039 C 
HETATM   22  C   UNL     1      -4.252   3.437 -32.531  1.00  0.00     0.039 C 
HETATM   23  C   UNL     1      -6.015   2.397 -34.067  1.00  0.00     0.070 C 
HETATM   24  C   UNL     1      -6.359   0.944 -34.217  1.00  0.00    -0.049 A 
HETATM   25  C   UNL     1      -5.765   0.174 -33.217  1.00  0.00    -0.049 A 
HETATM   26  C   UNL     1      -7.095   0.348 -35.228  1.00  0.00     0.007 A 
HETATM   27  C   UNL     1      -4.949   1.024 -32.295  1.00  0.00     0.070 C 
HETATM   28  C   UNL     1      -5.889  -1.205 -33.204  1.00  0.00     0.007 A 
HETATM   29  C   UNL     1      -6.637  -1.814 -34.213  1.00  0.00     0.001 A 
HETATM   30  C   UNL     1      -7.236  -1.042 -35.219  1.00  0.00     0.001 A 
ENDBRANCH   1  21
TORSDOF 6
ENDMDL
MODEL 10
REMARK VINA RESULT:      -7.7      2.311      8.994
REMARK  6 active torsions:
REMARK  status: ('A' for Active; 'I' for Inactive)
REMARK    1  A    between atoms: C_2  and  N_3 
REMARK       I    between atoms: N_3  and  C_4 
REMARK       I    between atoms: C_4  and  N_5 
REMARK    2  A    between atoms: N_5  and  C_6 
REMARK    3  A    between atoms: C_8  and  O_9 
REMARK    4  A    between atoms: O_9  and  C_10 
REMARK    5  A    between atoms: C_10  and  C_11 
REMARK    6  A    between atoms: C_11  and  N_12 
ROOT
HETATM    1  N   UNL     1      -2.834   5.248 -32.583  1.00  0.00    -0.333 N 
HETATM    2  C   UNL     1      -3.917   5.301 -33.412  1.00  0.00     0.321 C 
HETATM    3  N   UNL     1      -5.038   4.658 -32.973  1.00  0.00    -0.309 N 
HETATM    4  O   UNL     1      -3.955   5.946 -34.454  1.00  0.00    -0.247 OA
HETATM    5  H   UNL     1      -3.069   5.058 -31.619  1.00  0.00     0.165 HD
HETATM    6  H   UNL     1      -5.874   4.988 -33.444  1.00  0.00     0.170 HD
ENDROOT
BRANCH   3   7
HETATM    7  C   UNL     1      -5.183   3.525 -32.155  1.00  0.00     0.039 A 
HETATM    8  C   UNL     1      -5.162   2.217 -32.648  1.00  0.00     0.066 A 
HETATM    9  C   UNL     1      -5.399   1.146 -31.786  1.00  0.00     0.070 A 
HETATM   10  C   UNL     1      -5.601   1.356 -30.426  1.00  0.00     0.037 A 
HETATM   11  C   UNL     1      -5.631   2.657 -29.930  1.00  0.00     0.005 A 
HETATM   12  C   UNL     1      -5.442   3.738 -30.795  1.00  0.00     0.030 A 
BRANCH   9  13
HETATM   13  O   UNL     1      -5.372  -0.142 -32.241  1.00  0.00    -0.349 OA
BRANCH  13  14
HETATM   14  C   UNL     1      -5.670  -0.236 -33.645  1.00  0.00     0.197 C 
BRANCH  14  15
HETATM   15  C   UNL     1      -6.986  -0.983 -33.810  1.00  0.00     0.177 C 
BRANCH  15  16
HETATM   16  N   UNL     1      -8.131  -0.106 -33.692  1.00  0.00    -0.279 N 
HETATM   17  N   UNL     1      -8.423   0.747 -34.692  1.00  0.00    -0.185 NA
HETATM   18  C   UNL     1      -9.488   1.413 -34.240  1.00  0.00     0.140 A 
HETATM   19  C   UNL     1      -9.884   0.984 -32.961  1.00  0.00     0.040 A 
HETATM   20  C   UNL     1      -8.991  -0.009 -32.636  1.00  0.00     0.113 A 
ENDBRANCH  15  16
ENDBRANCH  14  15
ENDBRANCH  13  14
ENDBRANCH   9  13
ENDBRANCH   3   7
BRANCH   1  21
HETATM   21  C   UNL     1      -1.554   5.947 -32.839  1.00  0.00     0.039 C 
HETATM   22  C   UNL     1      -1.255   6.012 -34.345  1.00  0.00     0.039 C 
HETATM   23  C   UNL     1      -0.384   5.270 -32.056  1.00  0.00     0.070 C 
HETATM   24  C   UNL     1      -0.313   6.080 -30.794  1.00  0.00    -0.049 A 
HETATM   25  C   UNL     1      -1.022   7.275 -30.916  1.00  0.00    -0.049 A 
HETATM   26  C   UNL     1       0.403   5.793 -29.644  1.00  0.00     0.007 A 
HETATM   27  C   UNL     1      -1.635   7.403 -32.275  1.00  0.00     0.070 C 
HETATM   28  C   UNL     1      -1.031   8.211 -29.895  1.00  0.00     0.007 A 
HETATM   29  C   UNL     1      -0.320   7.927 -28.728  1.00  0.00     0.001 A 
HETATM   30  C   UNL     1       0.392   6.726 -28.603  1.00  0.00     0.001 A 
ENDBRANCH   1  21
TORSDOF 6
ENDMDL
