MODEL 1
REMARK VINA RESULT:      -8.9      0.000      0.000
REMARK  8 active torsions:
REMARK  status: ('A' for Active; 'I' for Inactive)
REMARK    1  A    between atoms: O_2  and  C_3 
REMARK    2  A    between atoms: C_11  and  C_12 
REMARK       I    between atoms: C_12  and  N_13 
REMARK    3  A    between atoms: N_13  and  C_14 
REMARK    4  A    between atoms: C_14  and  C_15 
REMARK    5  A    between atoms: C_15  and  C_16 
REMARK    6  A    between atoms: C_16  and  C_17 
REMARK    7  A    between atoms: C_17  and  O_18 
REMARK    8  A    between atoms: O_18  and  C_19 
ROOT
HETATM    1  C   UNL     1      -3.875   1.330 -31.760  1.00  0.00     0.268 C 
HETATM    2  N   UNL     1      -5.089   1.944 -31.934  1.00  0.00    -0.345 N 
HETATM    3  O   UNL     1      -2.889   1.927 -31.338  1.00  0.00    -0.266 OA
HETATM    4  H   UNL     1      -5.852   1.443 -32.363  1.00  0.00     0.163 HD
ENDROOT
BRANCH   2   5
HETATM    5  C   UNL     1      -5.232   3.359 -31.728  1.00  0.00     0.217 C 
BRANCH   5   6
HETATM    6  C   UNL     1      -4.644   4.115 -32.908  1.00  0.00    -0.085 C 
BRANCH   6   7
HETATM    7  C   UNL     1      -4.138   4.764 -33.920  1.00  0.00    -0.078 C 
BRANCH   7   8
HETATM    8  C   UNL     1      -3.551   5.521 -35.099  1.00  0.00     0.269 C 
BRANCH   8   9
HETATM    9  O   UNL     1      -2.131   5.514 -34.972  1.00  0.00    -0.339 OA
BRANCH   9  10
HETATM   10  C   UNL     1      -1.614   5.886 -33.761  1.00  0.00     0.072 A 
HETATM   11  C   UNL     1      -1.016   5.040 -32.824  1.00  0.00     0.069 A 
HETATM   12  C   UNL     1      -0.526   5.521 -31.616  1.00  0.00     0.069 A 
HETATM   13  C   UNL     1      -0.639   6.900 -31.340  1.00  0.00    -0.007 A 
HETATM   14  N   UNL     1       0.039   4.661 -30.749  1.00  0.00    -0.260 NA
HETATM   15  C   UNL     1      -1.235   7.758 -32.277  1.00  0.00     0.016 A 
HETATM   16  C   UNL     1      -0.142   7.372 -30.119  1.00  0.00     0.015 A 
HETATM   17  C   UNL     1      -1.719   7.248 -33.480  1.00  0.00     0.038 A 
HETATM   18  C   UNL     1       0.440   6.485 -29.222  1.00  0.00     0.020 A 
HETATM   19  C   UNL     1       0.506   5.153 -29.580  1.00  0.00     0.117 A 
ENDBRANCH   9  10
ENDBRANCH   8   9
ENDBRANCH   7   8
ENDBRANCH   6   7
ENDBRANCH   5   6
ENDBRANCH   2   5
BRANCH   1  20
HETATM   20  C   UNL     1      -3.829  -0.072 -32.105  1.00  0.00     0.102 A 
HETATM   21  N   UNL     1      -4.623  -0.579 -33.112  1.00  0.00    -0.351 N 
HETATM   22  C   UNL     1      -4.412  -1.926 -33.282  1.00  0.00     0.045 A 
HETATM   23  H   UNL     1      -5.265  -0.013 -33.651  1.00  0.00     0.166 HD
HETATM   24  C   UNL     1      -4.988  -2.823 -34.195  1.00  0.00     0.067 A 
HETATM   25  C   UNL     1      -3.467  -2.310 -32.337  1.00  0.00    -0.007 A 
HETATM   26  C   UNL     1      -4.580  -4.160 -34.136  1.00  0.00     0.070 A 
HETATM   27  C   UNL     1      -3.644  -4.569 -33.183  1.00  0.00     0.038 A 
HETATM   28  C   UNL     1      -3.078  -3.659 -32.280  1.00  0.00     0.016 A 
HETATM   29  C   UNL     1      -3.103  -1.141 -31.607  1.00  0.00     0.049 A 
BRANCH  26  30
HETATM   30  O   UNL     1      -5.031  -5.165 -34.952  1.00  0.00    -0.356 OA
HETATM   31  C   UNL     1      -6.293  -4.968 -35.575  1.00  0.00     0.210 C 
ENDBRANCH  26  30
ENDBRANCH   1  20
TORSDOF 8
ENDMDL
MODEL 2
REMARK VINA RESULT:      -8.8      3.094     10.503
REMARK  8 active torsions:
REMARK  status: ('A' for Active; 'I' for Inactive)
REMARK    1  A    between atoms: O_2  and  C_3 
REMARK    2  A    between atoms: C_11  and  C_12 
REMARK       I    between atoms: C_12  and  N_13 
REMARK    3  A    between atoms: N_13  and  C_14 
REMARK    4  A    between atoms: C_14  and  C_15 
REMARK    5  A    between atoms: C_15  and  C_16 
REMARK    6  A    between atoms: C_16  and  C_17 
REMARK    7  A    between atoms: C_17  and  O_18 
REMARK    8  A    between atoms: O_18  and  C_19 
ROOT
HETATM    1  C   UNL     1      -0.402   5.518 -31.140  1.00  0.00     0.268 C 
HETATM    2  N   UNL     1      -1.484   5.759 -31.949  1.00  0.00    -0.345 N 
HETATM    3  O   UNL     1       0.446   4.673 -31.408  1.00  0.00    -0.266 OA
HETATM    4  H   UNL     1      -2.203   6.401 -31.652  1.00  0.00     0.163 HD
ENDROOT
BRANCH   2   5
HETATM    5  C   UNL     1      -1.732   4.943 -33.105  1.00  0.00     0.217 C 
BRANCH   5   6
HETATM    6  C   UNL     1      -2.657   3.794 -32.738  1.00  0.00    -0.085 C 
BRANCH   6   7
HETATM    7  C   UNL     1      -3.451   2.809 -32.424  1.00  0.00    -0.078 C 
BRANCH   7   8
HETATM    8  C   UNL     1      -4.377   1.662 -32.056  1.00  0.00     0.269 C 
BRANCH   8   9
HETATM    9  O   UNL     1      -5.318   1.490 -33.113  1.00  0.00    -0.339 OA
BRANCH   9  10
HETATM   10  C   UNL     1      -5.547   0.209 -33.537  1.00  0.00     0.072 A 
HETATM   11  C   UNL     1      -4.673  -0.872 -33.406  1.00  0.00     0.069 A 
HETATM   12  C   UNL     1      -5.001  -2.137 -33.878  1.00  0.00     0.069 A 
HETATM   13  C   UNL     1      -6.253  -2.322 -34.501  1.00  0.00    -0.007 A 
HETATM   14  N   UNL     1      -4.120  -3.143 -33.729  1.00  0.00    -0.260 NA
HETATM   15  C   UNL     1      -7.140  -1.243 -34.634  1.00  0.00     0.016 A 
HETATM   16  C   UNL     1      -6.573  -3.602 -34.974  1.00  0.00     0.015 A 
HETATM   17  C   UNL     1      -6.783   0.015 -34.152  1.00  0.00     0.038 A 
HETATM   18  C   UNL     1      -5.664  -4.641 -34.821  1.00  0.00     0.020 A 
HETATM   19  C   UNL     1      -4.463  -4.363 -34.198  1.00  0.00     0.117 A 
ENDBRANCH   9  10
ENDBRANCH   8   9
ENDBRANCH   7   8
ENDBRANCH   6   7
ENDBRANCH   5   6
ENDBRANCH   2   5
BRANCH   1  20
HETATM   20  C   UNL     1      -0.320   6.330 -29.947  1.00  0.00     0.102 A 
HETATM   21  N   UNL     1      -1.339   6.326 -29.019  1.00  0.00    -0.351 N 
HETATM   22  C   UNL     1      -1.052   7.154 -27.961  1.00  0.00     0.045 A 
HETATM   23  H   UNL     1      -2.179   5.770 -29.119  1.00  0.00     0.166 HD
HETATM   24  C   UNL     1      -1.794   7.430 -26.801  1.00  0.00     0.067 A 
HETATM   25  C   UNL     1       0.185   7.733 -28.225  1.00  0.00    -0.007 A 
HETATM   26  C   UNL     1      -1.248   8.333 -25.882  1.00  0.00     0.070 A 
HETATM   27  C   UNL     1      -0.015   8.936 -26.136  1.00  0.00     0.038 A 
HETATM   28  C   UNL     1       0.714   8.647 -27.298  1.00  0.00     0.016 A 
HETATM   29  C   UNL     1       0.638   7.206 -29.469  1.00  0.00     0.049 A 
BRANCH  26  30
HETATM   30  O   UNL     1      -1.829   8.711 -24.699  1.00  0.00    -0.356 OA
HETATM   31  C   UNL     1      -3.193   8.354 -24.512  1.00  0.00     0.210 C 
ENDBRANCH  26  30
ENDBRANCH   1  20
TORSDOF 8
ENDMDL
MODEL 3
REMARK VINA RESULT:      -8.7      1.707      2.456
REMARK  8 active torsions:
REMARK  status: ('A' for Active; 'I' for Inactive)
REMARK    1  A    between atoms: O_2  and  C_3 
REMARK    2  A    between atoms: C_11  and  C_12 
REMARK       I    between atoms: C_12  and  N_13 
REMARK    3  A    between atoms: N_13  and  C_14 
REMARK    4  A    between atoms: C_14  and  C_15 
REMARK    5  A    between atoms: C_15  and  C_16 
REMARK    6  A    between atoms: C_16  and  C_17 
REMARK    7  A    between atoms: C_17  and  O_18 
REMARK    8  A    between atoms: O_18  and  C_19 
ROOT
HETATM    1  C   UNL     1      -5.952   2.541 -33.128  1.00  0.00     0.268 C 
HETATM    2  N   UNL     1      -5.978   3.450 -34.155  1.00  0.00    -0.345 N 
HETATM    3  O   UNL     1      -5.874   2.879 -31.951  1.00  0.00    -0.266 OA
HETATM    4  H   UNL     1      -5.956   3.131 -35.112  1.00  0.00     0.163 HD
ENDROOT
BRANCH   2   5
HETATM    5  C   UNL     1      -5.803   4.853 -33.898  1.00  0.00     0.217 C 
BRANCH   5   6
HETATM    6  C   UNL     1      -4.358   5.248 -34.153  1.00  0.00    -0.085 C 
BRANCH   6   7
HETATM    7  C   UNL     1      -3.118   5.586 -34.371  1.00  0.00    -0.078 C 
BRANCH   7   8
HETATM    8  C   UNL     1      -1.673   5.979 -34.626  1.00  0.00     0.269 C 
BRANCH   8   9
HETATM    9  O   UNL     1      -1.445   7.256 -34.035  1.00  0.00    -0.339 OA
BRANCH   9  10
HETATM   10  C   UNL     1      -1.249   7.287 -32.681  1.00  0.00     0.072 A 
HETATM   11  C   UNL     1      -0.432   6.424 -31.946  1.00  0.00     0.069 A 
HETATM   12  C   UNL     1      -0.306   6.538 -30.566  1.00  0.00     0.069 A 
HETATM   13  C   UNL     1      -1.025   7.555 -29.903  1.00  0.00    -0.007 A 
HETATM   14  N   UNL     1       0.493   5.678 -29.907  1.00  0.00    -0.260 NA
HETATM   15  C   UNL     1      -1.845   8.427 -30.634  1.00  0.00     0.016 A 
HETATM   16  C   UNL     1      -0.890   7.659 -28.513  1.00  0.00     0.015 A 
HETATM   17  C   UNL     1      -1.953   8.290 -32.016  1.00  0.00     0.038 A 
HETATM   18  C   UNL     1      -0.067   6.772 -27.831  1.00  0.00     0.020 A 
HETATM   19  C   UNL     1       0.597   5.809 -28.567  1.00  0.00     0.117 A 
ENDBRANCH   9  10
ENDBRANCH   8   9
ENDBRANCH   7   8
ENDBRANCH   6   7
ENDBRANCH   5   6
ENDBRANCH   2   5
BRANCH   1  20
HETATM   20  C   UNL     1      -6.025   1.152 -33.519  1.00  0.00     0.102 A 
HETATM   21  N   UNL     1      -4.931   0.323 -33.390  1.00  0.00    -0.351 N 
HETATM   22  C   UNL     1      -5.221  -0.953 -33.807  1.00  0.00     0.045 A 
HETATM   23  H   UNL     1      -4.039   0.633 -33.025  1.00  0.00     0.166 HD
HETATM   24  C   UNL     1      -4.415  -2.102 -33.830  1.00  0.00     0.067 A 
HETATM   25  C   UNL     1      -6.541  -0.946 -34.243  1.00  0.00    -0.007 A 
HETATM   26  C   UNL     1      -4.983  -3.284 -34.319  1.00  0.00     0.070 A 
HETATM   27  C   UNL     1      -6.302  -3.293 -34.777  1.00  0.00     0.038 A 
HETATM   28  C   UNL     1      -7.094  -2.137 -34.745  1.00  0.00     0.016 A 
HETATM   29  C   UNL     1      -7.039   0.376 -34.054  1.00  0.00     0.049 A 
BRANCH  26  30
HETATM   30  O   UNL     1      -4.346  -4.495 -34.406  1.00  0.00    -0.356 OA
HETATM   31  C   UNL     1      -3.463  -4.833 -33.345  1.00  0.00     0.210 C 
ENDBRANCH  26  30
ENDBRANCH   1  20
TORSDOF 8
ENDMDL
MODEL 4
REMARK VINA RESULT:      -8.5      3.013     10.884
REMARK  8 active torsions:
REMARK  status: ('A' for Active; 'I' for Inactive)
REMARK    1  A    between atoms: O_2  and  C_3 
REMARK    2  A    between atoms: C_11  and  C_12 
REMARK       I    between atoms: C_12  and  N_13 
REMARK    3  A    between atoms: N_13  and  C_14 
REMARK    4  A    between atoms: C_14  and  C_15 
REMARK    5  A    between atoms: C_15  and  C_16 
REMARK    6  A    between atoms: C_16  and  C_17 
REMARK    7  A    between atoms: C_17  and  O_18 
REMARK    8  A    between atoms: O_18  and  C_19 
ROOT
HETATM    1  C   UNL     1      -0.690   5.826 -31.624  1.00  0.00     0.268 C 
HETATM    2  N   UNL     1      -1.640   6.053 -32.587  1.00  0.00    -0.345 N 
HETATM    3  O   UNL     1       0.059   4.854 -31.654  1.00  0.00    -0.266 OA
HETATM    4  H   UNL     1      -2.293   6.815 -32.482  1.00  0.00     0.163 HD
ENDROOT
BRANCH   2   5
HETATM    5  C   UNL     1      -1.875   5.091 -33.628  1.00  0.00     0.217 C 
BRANCH   5   6
HETATM    6  C   UNL     1      -2.761   3.972 -33.107  1.00  0.00    -0.085 C 
BRANCH   6   7
HETATM    7  C   UNL     1      -3.521   3.012 -32.658  1.00  0.00    -0.078 C 
BRANCH   7   8
HETATM    8  C   UNL     1      -4.405   1.893 -32.136  1.00  0.00     0.269 C 
BRANCH   8   9
HETATM    9  O   UNL     1      -3.712   0.659 -32.304  1.00  0.00    -0.339 OA
BRANCH   9  10
HETATM   10  C   UNL     1      -4.389  -0.354 -32.928  1.00  0.00     0.072 A 
HETATM   11  C   UNL     1      -3.923  -1.656 -33.130  1.00  0.00     0.069 A 
HETATM   12  C   UNL     1      -4.692  -2.612 -33.783  1.00  0.00     0.069 A 
HETATM   13  C   UNL     1      -5.973  -2.248 -34.248  1.00  0.00    -0.007 A 
HETATM   14  N   UNL     1      -4.193  -3.850 -33.953  1.00  0.00    -0.260 NA
HETATM   15  C   UNL     1      -6.450  -0.944 -34.047  1.00  0.00     0.016 A 
HETATM   16  C   UNL     1      -6.738  -3.220 -34.905  1.00  0.00     0.015 A 
HETATM   17  C   UNL     1      -5.657  -0.005 -33.389  1.00  0.00     0.038 A 
HETATM   18  C   UNL     1      -6.223  -4.498 -35.082  1.00  0.00     0.020 A 
HETATM   19  C   UNL     1      -4.959  -4.761 -34.592  1.00  0.00     0.117 A 
ENDBRANCH   9  10
ENDBRANCH   8   9
ENDBRANCH   7   8
ENDBRANCH   6   7
ENDBRANCH   5   6
ENDBRANCH   2   5
BRANCH   1  20
HETATM   20  C   UNL     1      -0.623   6.809 -30.567  1.00  0.00     0.102 A 
HETATM   21  N   UNL     1       0.489   6.900 -29.756  1.00  0.00    -0.351 N 
HETATM   22  C   UNL     1       0.350   7.904 -28.830  1.00  0.00     0.045 A 
HETATM   23  H   UNL     1       1.298   6.299 -29.854  1.00  0.00     0.166 HD
HETATM   24  C   UNL     1       1.237   8.349 -27.837  1.00  0.00     0.067 A 
HETATM   25  C   UNL     1      -0.905   8.469 -29.032  1.00  0.00    -0.007 A 
HETATM   26  C   UNL     1       0.820   9.407 -27.022  1.00  0.00     0.070 A 
HETATM   27  C   UNL     1      -0.443   9.976 -27.198  1.00  0.00     0.038 A 
HETATM   28  C   UNL     1      -1.315   9.522 -28.196  1.00  0.00     0.016 A 
HETATM   29  C   UNL     1      -1.505   7.780 -30.126  1.00  0.00     0.049 A 
BRANCH  26  30
HETATM   30  O   UNL     1       1.557   9.969 -26.011  1.00  0.00    -0.356 OA
HETATM   31  C   UNL     1       2.198   9.074 -25.111  1.00  0.00     0.210 C 
ENDBRANCH  26  30
ENDBRANCH   1  20
TORSDOF 8
ENDMDL
MODEL 5
REMARK VINA RESULT:      -8.4      2.809     10.215
REMARK  8 active torsions:
REMARK  status: ('A' for Active; 'I' for Inactive)
REMARK    1  A    between atoms: O_2  and  C_3 
REMARK    2  A    between atoms: C_11  and  C_12 
REMARK       I    between atoms: C_12  and  N_13 
REMARK    3  A    between atoms: N_13  and  C_14 
REMARK    4  A    between atoms: C_14  and  C_15 
REMARK    5  A    between atoms: C_15  and  C_16 
REMARK    6  A    between atoms: C_16  and  C_17 
REMARK    7  A    between atoms: C_17  and  O_18 
REMARK    8  A    between atoms: O_18  and  C_19 
ROOT
HETATM    1  C   UNL     1      -1.993   6.971 -33.251  1.00  0.00     0.268 C 
HETATM    2  N   UNL     1      -3.026   6.069 -33.264  1.00  0.00    -0.345 N 
HETATM    3  O   UNL     1      -1.609   7.548 -34.264  1.00  0.00    -0.266 OA
HETATM    4  H   UNL     1      -3.256   5.552 -32.429  1.00  0.00     0.163 HD
ENDROOT
BRANCH   2   5
HETATM    5  C   UNL     1      -3.641   5.675 -34.502  1.00  0.00     0.217 C 
BRANCH   5   6
HETATM    6  C   UNL     1      -4.733   4.652 -34.233  1.00  0.00    -0.085 C 
BRANCH   6   7
HETATM    7  C   UNL     1      -5.669   3.774 -34.002  1.00  0.00    -0.078 C 
BRANCH   7   8
HETATM    8  C   UNL     1      -6.760   2.752 -33.733  1.00  0.00     0.269 C 
BRANCH   8   9
HETATM    9  O   UNL     1      -6.235   1.756 -32.859  1.00  0.00    -0.339 OA
BRANCH   9  10
HETATM   10  C   UNL     1      -6.206   0.471 -33.328  1.00  0.00     0.072 A 
HETATM   11  C   UNL     1      -5.153  -0.436 -33.184  1.00  0.00     0.069 A 
HETATM   12  C   UNL     1      -5.222  -1.722 -33.705  1.00  0.00     0.069 A 
HETATM   13  C   UNL     1      -6.389  -2.111 -34.395  1.00  0.00    -0.007 A 
HETATM   14  N   UNL     1      -4.177  -2.553 -33.540  1.00  0.00    -0.260 NA
HETATM   15  C   UNL     1      -7.453  -1.208 -34.542  1.00  0.00     0.016 A 
HETATM   16  C   UNL     1      -6.447  -3.409 -34.917  1.00  0.00     0.015 A 
HETATM   17  C   UNL     1      -7.357   0.077 -34.009  1.00  0.00     0.038 A 
HETATM   18  C   UNL     1      -5.368  -4.269 -34.747  1.00  0.00     0.020 A 
HETATM   19  C   UNL     1      -4.268  -3.798 -34.058  1.00  0.00     0.117 A 
ENDBRANCH   9  10
ENDBRANCH   8   9
ENDBRANCH   7   8
ENDBRANCH   6   7
ENDBRANCH   5   6
ENDBRANCH   2   5
BRANCH   1  20
HETATM   20  C   UNL     1      -1.381   7.203 -31.963  1.00  0.00     0.102 A 
HETATM   21  N   UNL     1      -2.064   7.868 -30.966  1.00  0.00    -0.351 N 
HETATM   22  C   UNL     1      -1.306   7.969 -29.825  1.00  0.00     0.045 A 
HETATM   23  H   UNL     1      -3.005   8.221 -31.079  1.00  0.00     0.166 HD
HETATM   24  C   UNL     1      -1.614   8.543 -28.582  1.00  0.00     0.067 A 
HETATM   25  C   UNL     1      -0.081   7.369 -30.100  1.00  0.00    -0.007 A 
HETATM   26  C   UNL     1      -0.631   8.503 -27.587  1.00  0.00     0.070 A 
HETATM   27  C   UNL     1       0.611   7.921 -27.849  1.00  0.00     0.038 A 
HETATM   28  C   UNL     1       0.901   7.349 -29.094  1.00  0.00     0.016 A 
HETATM   29  C   UNL     1      -0.139   6.888 -31.439  1.00  0.00     0.049 A 
BRANCH  26  30
HETATM   30  O   UNL     1      -0.763   9.008 -26.319  1.00  0.00    -0.356 OA
HETATM   31  C   UNL     1      -1.799   8.458 -25.516  1.00  0.00     0.210 C 
ENDBRANCH  26  30
ENDBRANCH   1  20
TORSDOF 8
ENDMDL
MODEL 6
REMARK VINA RESULT:      -8.3      2.162      3.005
REMARK  8 active torsions:
REMARK  status: ('A' for Active; 'I' for Inactive)
REMARK    1  A    between atoms: O_2  and  C_3 
REMARK    2  A    between atoms: C_11  and  C_12 
REMARK       I    between atoms: C_12  and  N_13 
REMARK    3  A    between atoms: N_13  and  C_14 
REMARK    4  A    between atoms: C_14  and  C_15 
REMARK    5  A    between atoms: C_15  and  C_16 
REMARK    6  A    between atoms: C_16  and  C_17 
REMARK    7  A    between atoms: C_17  and  O_18 
REMARK    8  A    between atoms: O_18  and  C_19 
ROOT
HETATM    1  C   UNL     1      -6.546   2.836 -32.746  1.00  0.00     0.268 C 
HETATM    2  N   UNL     1      -5.523   3.699 -33.043  1.00  0.00    -0.345 N 
HETATM    3  O   UNL     1      -7.539   3.184 -32.114  1.00  0.00    -0.266 OA
HETATM    4  H   UNL     1      -4.686   3.356 -33.489  1.00  0.00     0.163 HD
ENDROOT
BRANCH   2   5
HETATM    5  C   UNL     1      -5.520   5.040 -32.526  1.00  0.00     0.217 C 
BRANCH   5   6
HETATM    6  C   UNL     1      -4.290   5.782 -33.022  1.00  0.00    -0.085 C 
BRANCH   6   7
HETATM    7  C   UNL     1      -3.235   6.420 -33.448  1.00  0.00    -0.078 C 
BRANCH   7   8
HETATM    8  C   UNL     1      -2.007   7.164 -33.943  1.00  0.00     0.269 C 
BRANCH   8   9
HETATM    9  O   UNL     1      -1.653   8.143 -32.970  1.00  0.00    -0.339 OA
BRANCH   9  10
HETATM   10  C   UNL     1      -1.199   7.683 -31.764  1.00  0.00     0.072 A 
HETATM   11  C   UNL     1      -1.790   7.912 -30.518  1.00  0.00     0.069 A 
HETATM   12  C   UNL     1      -1.243   7.402 -29.347  1.00  0.00     0.069 A 
HETATM   13  C   UNL     1      -0.063   6.634 -29.430  1.00  0.00    -0.007 A 
HETATM   14  N   UNL     1      -1.852   7.655 -28.174  1.00  0.00    -0.260 NA
HETATM   15  C   UNL     1       0.536   6.396 -30.677  1.00  0.00     0.016 A 
HETATM   16  C   UNL     1       0.479   6.125 -28.243  1.00  0.00     0.015 A 
HETATM   17  C   UNL     1      -0.034   6.921 -31.835  1.00  0.00     0.038 A 
HETATM   18  C   UNL     1      -0.147   6.387 -27.031  1.00  0.00     0.020 A 
HETATM   19  C   UNL     1      -1.299   7.149 -27.050  1.00  0.00     0.117 A 
ENDBRANCH   9  10
ENDBRANCH   8   9
ENDBRANCH   7   8
ENDBRANCH   6   7
ENDBRANCH   5   6
ENDBRANCH   2   5
BRANCH   1  20
HETATM   20  C   UNL     1      -6.384   1.483 -33.227  1.00  0.00     0.102 A 
HETATM   21  N   UNL     1      -5.236   0.769 -32.954  1.00  0.00    -0.351 N 
HETATM   22  C   UNL     1      -5.295  -0.493 -33.493  1.00  0.00     0.045 A 
HETATM   23  H   UNL     1      -4.465   1.143 -32.416  1.00  0.00     0.166 HD
HETATM   24  C   UNL     1      -4.365  -1.543 -33.440  1.00  0.00     0.067 A 
HETATM   25  C   UNL     1      -6.512  -0.592 -34.159  1.00  0.00    -0.007 A 
HETATM   26  C   UNL     1      -4.695  -2.735 -34.094  1.00  0.00     0.070 A 
HETATM   27  C   UNL     1      -5.905  -2.849 -34.782  1.00  0.00     0.038 A 
HETATM   28  C   UNL     1      -6.823  -1.791 -34.822  1.00  0.00     0.016 A 
HETATM   29  C   UNL     1      -7.190   0.649 -33.982  1.00  0.00     0.049 A 
BRANCH  26  30
HETATM   30  O   UNL     1      -3.912  -3.860 -34.139  1.00  0.00    -0.356 OA
HETATM   31  C   UNL     1      -4.586  -5.105 -34.264  1.00  0.00     0.210 C 
ENDBRANCH  26  30
ENDBRANCH   1  20
TORSDOF 8
ENDMDL
MODEL 7
REMARK VINA RESULT:      -8.2      1.679      2.273
REMARK  8 active torsions:
REMARK  status: ('A' for Active; 'I' for Inactive)
REMARK    1  A    between atoms: O_2  and  C_3 
REMARK    2  A    between atoms: C_11  and  C_12 
REMARK       I    between atoms: C_12  and  N_13 
REMARK    3  A    between atoms: N_13  and  C_14 
REMARK    4  A    between atoms: C_14  and  C_15 
REMARK    5  A    between atoms: C_15  and  C_16 
REMARK    6  A    between atoms: C_16  and  C_17 
REMARK    7  A    between atoms: C_17  and  O_18 
REMARK    8  A    between atoms: O_18  and  C_19 
ROOT
HETATM    1  C   UNL     1      -5.518   2.349 -32.081  1.00  0.00     0.268 C 
HETATM    2  N   UNL     1      -5.042   3.313 -32.933  1.00  0.00    -0.345 N 
HETATM    3  O   UNL     1      -6.234   2.614 -31.120  1.00  0.00    -0.266 OA
HETATM    4  H   UNL     1      -4.387   3.066 -33.660  1.00  0.00     0.163 HD
ENDROOT
BRANCH   2   5
HETATM    5  C   UNL     1      -5.277   4.706 -32.669  1.00  0.00     0.217 C 
BRANCH   5   6
HETATM    6  C   UNL     1      -4.092   5.529 -33.148  1.00  0.00    -0.085 C 
BRANCH   6   7
HETATM    7  C   UNL     1      -3.076   6.235 -33.559  1.00  0.00    -0.078 C 
BRANCH   7   8
HETATM    8  C   UNL     1      -1.893   7.059 -34.037  1.00  0.00     0.269 C 
BRANCH   8   9
HETATM    9  O   UNL     1      -1.602   8.042 -33.045  1.00  0.00    -0.339 OA
BRANCH   9  10
HETATM   10  C   UNL     1      -1.160   7.587 -31.833  1.00  0.00     0.072 A 
HETATM   11  C   UNL     1      -1.756   7.834 -30.593  1.00  0.00     0.069 A 
HETATM   12  C   UNL     1      -1.221   7.328 -29.414  1.00  0.00     0.069 A 
HETATM   13  C   UNL     1      -0.049   6.546 -29.483  1.00  0.00    -0.007 A 
HETATM   14  N   UNL     1      -1.834   7.599 -28.247  1.00  0.00    -0.260 NA
HETATM   15  C   UNL     1       0.554   6.290 -30.724  1.00  0.00     0.016 A 
HETATM   16  C   UNL     1       0.480   6.042 -28.288  1.00  0.00     0.015 A 
HETATM   17  C   UNL     1      -0.003   6.811 -31.891  1.00  0.00     0.038 A 
HETATM   18  C   UNL     1      -0.151   6.322 -27.083  1.00  0.00     0.020 A 
HETATM   19  C   UNL     1      -1.294   7.097 -27.115  1.00  0.00     0.117 A 
ENDBRANCH   9  10
ENDBRANCH   8   9
ENDBRANCH   7   8
ENDBRANCH   6   7
ENDBRANCH   5   6
ENDBRANCH   2   5
BRANCH   1  20
HETATM   20  C   UNL     1      -5.124   0.993 -32.387  1.00  0.00     0.102 A 
HETATM   21  N   UNL     1      -5.860   0.224 -33.264  1.00  0.00    -0.351 N 
HETATM   22  C   UNL     1      -5.304  -1.022 -33.421  1.00  0.00     0.045 A 
HETATM   23  H   UNL     1      -6.695   0.558 -33.728  1.00  0.00     0.166 HD
HETATM   24  C   UNL     1      -5.712  -2.100 -34.222  1.00  0.00     0.067 A 
HETATM   25  C   UNL     1      -4.183  -1.071 -32.600  1.00  0.00    -0.007 A 
HETATM   26  C   UNL     1      -4.943  -3.268 -34.179  1.00  0.00     0.070 A 
HETATM   27  C   UNL     1      -3.823  -3.342 -33.348  1.00  0.00     0.038 A 
HETATM   28  C   UNL     1      -3.428  -2.256 -32.556  1.00  0.00     0.016 A 
HETATM   29  C   UNL     1      -4.074   0.198 -31.960  1.00  0.00     0.049 A 
BRANCH  26  30
HETATM   30  O   UNL     1      -5.191  -4.409 -34.898  1.00  0.00    -0.356 OA
HETATM   31  C   UNL     1      -6.501  -4.561 -35.428  1.00  0.00     0.210 C 
ENDBRANCH  26  30
ENDBRANCH   1  20
TORSDOF 8
ENDMDL
MODEL 8
REMARK VINA RESULT:      -8.0      2.899      9.802
REMARK  8 active torsions:
REMARK  status: ('A' for Active; 'I' for Inactive)
REMARK    1  A    between atoms: O_2  and  C_3 
REMARK    2  A    between atoms: C_11  and  C_12 
REMARK       I    between atoms: C_12  and  N_13 
REMARK    3  A    between atoms: N_13  and  C_14 
REMARK    4  A    between atoms: C_14  and  C_15 
REMARK    5  A    between atoms: C_15  and  C_16 
REMARK    6  A    between atoms: C_16  and  C_17 
REMARK    7  A    between atoms: C_17  and  O_18 
REMARK    8  A    between atoms: O_18  and  C_19 
ROOT
HETATM    1  C   UNL     1      -1.067   5.351 -31.813  1.00  0.00     0.268 C 
HETATM    2  N   UNL     1      -1.098   6.020 -33.011  1.00  0.00    -0.345 N 
HETATM    3  O   UNL     1      -1.375   4.168 -31.712  1.00  0.00    -0.266 OA
HETATM    4  H   UNL     1      -0.920   7.013 -33.039  1.00  0.00     0.163 HD
ENDROOT
BRANCH   2   5
HETATM    5  C   UNL     1      -1.602   5.382 -34.195  1.00  0.00     0.217 C 
BRANCH   5   6
HETATM    6  C   UNL     1      -3.113   5.244 -34.104  1.00  0.00    -0.085 C 
BRANCH   6   7
HETATM    7  C   UNL     1      -4.409   5.126 -34.026  1.00  0.00    -0.078 C 
BRANCH   7   8
HETATM    8  C   UNL     1      -5.919   4.989 -33.935  1.00  0.00     0.269 C 
BRANCH   8   9
HETATM    9  O   UNL     1      -6.225   4.116 -32.851  1.00  0.00    -0.339 OA
BRANCH   9  10
HETATM   10  C   UNL     1      -5.964   2.785 -33.033  1.00  0.00     0.072 A 
HETATM   11  C   UNL     1      -6.607   1.933 -33.934  1.00  0.00     0.069 A 
HETATM   12  C   UNL     1      -6.267   0.590 -34.037  1.00  0.00     0.069 A 
HETATM   13  C   UNL     1      -5.245   0.085 -33.207  1.00  0.00    -0.007 A 
HETATM   14  N   UNL     1      -6.922  -0.186 -34.920  1.00  0.00    -0.260 NA
HETATM   15  C   UNL     1      -4.591   0.934 -32.301  1.00  0.00     0.016 A 
HETATM   16  C   UNL     1      -4.912  -1.271 -33.320  1.00  0.00     0.015 A 
HETATM   17  C   UNL     1      -4.952   2.277 -32.218  1.00  0.00     0.038 A 
HETATM   18  C   UNL     1      -5.588  -2.074 -34.230  1.00  0.00     0.020 A 
HETATM   19  C   UNL     1      -6.574  -1.489 -35.000  1.00  0.00     0.117 A 
ENDBRANCH   9  10
ENDBRANCH   8   9
ENDBRANCH   7   8
ENDBRANCH   6   7
ENDBRANCH   5   6
ENDBRANCH   2   5
BRANCH   1  20
HETATM   20  C   UNL     1      -0.646   6.131 -30.672  1.00  0.00     0.102 A 
HETATM   21  N   UNL     1      -1.468   6.280 -29.575  1.00  0.00    -0.351 N 
HETATM   22  C   UNL     1      -0.870   7.044 -28.604  1.00  0.00     0.045 A 
HETATM   23  H   UNL     1      -2.389   5.864 -29.511  1.00  0.00     0.166 HD
HETATM   24  C   UNL     1      -1.337   7.425 -27.336  1.00  0.00     0.067 A 
HETATM   25  C   UNL     1       0.374   7.424 -29.098  1.00  0.00    -0.007 A 
HETATM   26  C   UNL     1      -0.500   8.223 -26.549  1.00  0.00     0.070 A 
HETATM   27  C   UNL     1       0.745   8.628 -27.033  1.00  0.00     0.038 A 
HETATM   28  C   UNL     1       1.198   8.237 -28.300  1.00  0.00     0.016 A 
HETATM   29  C   UNL     1       0.508   6.842 -30.391  1.00  0.00     0.049 A 
BRANCH  26  30
HETATM   30  O   UNL     1      -0.792   8.679 -25.289  1.00  0.00    -0.356 OA
HETATM   31  C   UNL     1      -0.500  10.043 -25.017  1.00  0.00     0.210 C 
ENDBRANCH  26  30
ENDBRANCH   1  20
TORSDOF 8
ENDMDL
MODEL 9
REMARK VINA RESULT:      -7.9      6.024      9.387
REMARK  8 active torsions:
REMARK  status: ('A' for Active; 'I' for Inactive)
REMARK    1  A    between atoms: O_2  and  C_3 
REMARK    2  A    between atoms: C_11  and  C_12 
REMARK       I    between atoms: C_12  and  N_13 
REMARK    3  A    between atoms: N_13  and  C_14 
REMARK    4  A    between atoms: C_14  and  C_15 
REMARK    5  A    between atoms: C_15  and  C_16 
REMARK    6  A    between atoms: C_16  and  C_17 
REMARK    7  A    between atoms: C_17  and  O_18 
REMARK    8  A    between atoms: O_18  and  C_19 
ROOT
HETATM    1  C   UNL     1      -9.292   2.875 -33.263  1.00  0.00     0.268 C 
HETATM    2  N   UNL     1      -9.113   3.696 -32.179  1.00  0.00    -0.345 N 
HETATM    3  O   UNL     1      -8.378   2.588 -34.031  1.00  0.00    -0.266 OA
HETATM    4  H   UNL     1      -9.906   3.977 -31.622  1.00  0.00     0.163 HD
ENDROOT
BRANCH   2   5
HETATM    5  C   UNL     1      -7.854   4.351 -31.954  1.00  0.00     0.217 C 
BRANCH   5   6
HETATM    6  C   UNL     1      -6.789   3.320 -31.618  1.00  0.00    -0.085 C 
BRANCH   6   7
HETATM    7  C   UNL     1      -5.874   2.437 -31.330  1.00  0.00    -0.078 C 
BRANCH   7   8
HETATM    8  C   UNL     1      -4.809   1.406 -30.996  1.00  0.00     0.269 C 
BRANCH   8   9
HETATM    9  O   UNL     1      -4.138   1.049 -32.202  1.00  0.00    -0.339 OA
BRANCH   9  10
HETATM   10  C   UNL     1      -4.066  -0.285 -32.500  1.00  0.00     0.072 A 
HETATM   11  C   UNL     1      -4.811  -0.953 -33.475  1.00  0.00     0.069 A 
HETATM   12  C   UNL     1      -4.666  -2.317 -33.696  1.00  0.00     0.069 A 
HETATM   13  C   UNL     1      -3.739  -3.035 -32.911  1.00  0.00    -0.007 A 
HETATM   14  N   UNL     1      -5.411  -2.911 -34.646  1.00  0.00    -0.260 NA
HETATM   15  C   UNL     1      -2.984  -2.372 -31.931  1.00  0.00     0.016 A 
HETATM   16  C   UNL     1      -3.602  -4.409 -33.142  1.00  0.00     0.015 A 
HETATM   17  C   UNL     1      -3.151  -1.003 -31.731  1.00  0.00     0.038 A 
HETATM   18  C   UNL     1      -4.371  -5.024 -34.122  1.00  0.00     0.020 A 
HETATM   19  C   UNL     1      -5.252  -4.239 -34.840  1.00  0.00     0.117 A 
ENDBRANCH   9  10
ENDBRANCH   8   9
ENDBRANCH   7   8
ENDBRANCH   6   7
ENDBRANCH   5   6
ENDBRANCH   2   5
BRANCH   1  20
HETATM   20  C   UNL     1     -10.631   2.364 -33.447  1.00  0.00     0.102 A 
HETATM   21  N   UNL     1     -11.695   2.907 -32.759  1.00  0.00    -0.351 N 
HETATM   22  C   UNL     1     -12.873   2.283 -33.090  1.00  0.00     0.045 A 
HETATM   23  H   UNL     1     -11.600   3.672 -32.104  1.00  0.00     0.166 HD
HETATM   24  C   UNL     1     -14.182   2.527 -32.646  1.00  0.00     0.067 A 
HETATM   25  C   UNL     1     -12.558   1.286 -34.007  1.00  0.00    -0.007 A 
HETATM   26  C   UNL     1     -15.202   1.720 -33.160  1.00  0.00     0.070 A 
HETATM   27  C   UNL     1     -14.904   0.703 -34.069  1.00  0.00     0.038 A 
HETATM   28  C   UNL     1     -13.592   0.474 -34.504  1.00  0.00     0.016 A 
HETATM   29  C   UNL     1     -11.152   1.347 -34.229  1.00  0.00     0.049 A 
BRANCH  26  30
HETATM   30  O   UNL     1     -16.533   1.823 -32.844  1.00  0.00    -0.356 OA
HETATM   31  C   UNL     1     -16.923   2.954 -32.077  1.00  0.00     0.210 C 
ENDBRANCH  26  30
ENDBRANCH   1  20
TORSDOF 8
ENDMDL
MODEL 10
REMARK VINA RESULT:      -7.8      3.520     10.383
REMARK  8 active torsions:
REMARK  status: ('A' for Active; 'I' for Inactive)
REMARK    1  A    between atoms: O_2  and  C_3 
REMARK    2  A    between atoms: C_11  and  C_12 
REMARK       I    between atoms: C_12  and  N_13 
REMARK    3  A    between atoms: N_13  and  C_14 
REMARK    4  A    between atoms: C_14  and  C_15 
REMARK    5  A    between atoms: C_15  and  C_16 
REMARK    6  A    between atoms: C_16  and  C_17 
REMARK    7  A    between atoms: C_17  and  O_18 
REMARK    8  A    between atoms: O_18  and  C_19 
ROOT
HETATM    1  C   UNL     1      -1.310   5.489 -31.789  1.00  0.00     0.268 C 
HETATM    2  N   UNL     1      -2.508   4.849 -31.601  1.00  0.00    -0.345 N 
HETATM    3  O   UNL     1      -0.697   5.442 -32.851  1.00  0.00    -0.266 OA
HETATM    4  H   UNL     1      -2.939   4.840 -30.689  1.00  0.00     0.163 HD
ENDROOT
BRANCH   2   5
HETATM    5  C   UNL     1      -3.051   3.993 -32.621  1.00  0.00     0.217 C 
BRANCH   5   6
HETATM    6  C   UNL     1      -3.273   2.599 -32.060  1.00  0.00    -0.085 C 
BRANCH   6   7
HETATM    7  C   UNL     1      -3.465   1.402 -31.578  1.00  0.00    -0.078 C 
BRANCH   7   8
HETATM    8  C   UNL     1      -3.688   0.009 -31.015  1.00  0.00     0.269 C 
BRANCH   8   9
HETATM    9  O   UNL     1      -4.982  -0.030 -30.417  1.00  0.00    -0.339 OA
BRANCH   9  10
HETATM   10  C   UNL     1      -6.054   0.154 -31.246  1.00  0.00     0.072 A 
HETATM   11  C   UNL     1      -7.085   1.080 -31.068  1.00  0.00     0.069 A 
HETATM   12  C   UNL     1      -8.137   1.183 -31.971  1.00  0.00     0.069 A 
HETATM   13  C   UNL     1      -8.152   0.328 -33.092  1.00  0.00    -0.007 A 
HETATM   14  N   UNL     1      -9.105   2.091 -31.748  1.00  0.00    -0.260 NA
HETATM   15  C   UNL     1      -7.119  -0.603 -33.281  1.00  0.00     0.016 A 
HETATM   16  C   UNL     1      -9.218   0.441 -33.994  1.00  0.00     0.015 A 
HETATM   17  C   UNL     1      -6.078  -0.686 -32.359  1.00  0.00     0.038 A 
HETATM   18  C   UNL     1     -10.219   1.377 -33.766  1.00  0.00     0.020 A 
HETATM   19  C   UNL     1     -10.117   2.170 -32.640  1.00  0.00     0.117 A 
ENDBRANCH   9  10
ENDBRANCH   8   9
ENDBRANCH   7   8
ENDBRANCH   6   7
ENDBRANCH   5   6
ENDBRANCH   2   5
BRANCH   1  20
HETATM   20  C   UNL     1      -0.812   6.231 -30.653  1.00  0.00     0.102 A 
HETATM   21  N   UNL     1      -1.597   6.424 -29.536  1.00  0.00    -0.351 N 
HETATM   22  C   UNL     1      -0.928   7.140 -28.574  1.00  0.00     0.045 A 
HETATM   23  H   UNL     1      -2.541   6.068 -29.452  1.00  0.00     0.166 HD
HETATM   24  C   UNL     1      -1.340   7.540 -27.293  1.00  0.00     0.067 A 
HETATM   25  C   UNL     1       0.326   7.442 -29.095  1.00  0.00    -0.007 A 
HETATM   26  C   UNL     1      -0.434   8.276 -26.521  1.00  0.00     0.070 A 
HETATM   27  C   UNL     1       0.823   8.604 -27.033  1.00  0.00     0.038 A 
HETATM   28  C   UNL     1       1.219   8.194 -28.313  1.00  0.00     0.016 A 
HETATM   29  C   UNL     1       0.392   6.864 -30.396  1.00  0.00     0.049 A 
BRANCH  26  30
HETATM   30  O   UNL     1      -0.666   8.740 -25.252  1.00  0.00    -0.356 OA
HETATM   31  C   UNL     1       0.237   9.717 -24.751  1.00  0.00     0.210 C 
ENDBRANCH  26  30
ENDBRANCH   1  20
TORSDOF 8
ENDMDL
