MODEL 1
REMARK VINA RESULT:      -8.9      0.000      0.000
REMARK  6 active torsions:
REMARK  status: ('A' for Active; 'I' for Inactive)
REMARK    1  A    between atoms: C_2  and  C_3 
REMARK    2  A    between atoms: C_4  and  O_5 
REMARK    3  A    between atoms: O_5  and  C_6 
REMARK    4  A    between atoms: C_6  and  C_7 
REMARK       I    between atoms: C_7  and  N_8 
REMARK    5  A    between atoms: N_8  and  N_9 
REMARK    6  A    between atoms: C_10  and  C_11 
ROOT
HETATM    1  C   UNL     1      -2.836  -0.401 -31.652  1.00  0.00     0.261 C 
HETATM    2  N   UNL     1      -3.539   0.701 -32.123  1.00  0.00    -0.246 N 
HETATM    3  O   UNL     1      -1.834  -0.386 -30.942  1.00  0.00    -0.269 OA
HETATM    4  H   UNL     1      -4.358   0.522 -32.700  1.00  0.00     0.192 HD
ENDROOT
BRANCH   2   5
HETATM    5  N   UNL     1      -3.262   2.032 -31.957  1.00  0.00    -0.184 NA
HETATM    6  C   UNL     1      -4.163   2.931 -32.190  1.00  0.00     0.152 C 
BRANCH   6   7
HETATM    7  C   UNL     1      -3.821   4.328 -31.990  1.00  0.00     0.011 A 
HETATM    8  C   UNL     1      -2.910   5.117 -32.767  1.00  0.00     0.004 A 
HETATM    9  C   UNL     1      -2.877   6.394 -32.204  1.00  0.00     0.043 A 
HETATM   10  C   UNL     1      -2.099   4.861 -33.894  1.00  0.00     0.014 A 
HETATM   11  C   UNL     1      -2.075   7.426 -32.707  1.00  0.00     0.030 A 
HETATM   12  N   UNL     1      -3.743   6.389 -31.135  1.00  0.00    -0.364 N 
HETATM   13  C   UNL     1      -1.279   7.144 -33.821  1.00  0.00     0.002 A 
HETATM   14  C   UNL     1      -1.291   5.881 -34.410  1.00  0.00     0.001 A 
HETATM   15  H   UNL     1      -3.922   7.184 -30.538  1.00  0.00     0.165 HD
HETATM   16  C   UNL     1      -4.314   5.153 -30.996  1.00  0.00     0.102 A 
ENDBRANCH   6   7
ENDBRANCH   2   5
BRANCH   1  17
HETATM   17  C   UNL     1      -3.404  -1.711 -32.193  1.00  0.00     0.280 C 
BRANCH  17  18
HETATM   18  O   UNL     1      -3.788  -1.592 -33.561  1.00  0.00    -0.341 OA
BRANCH  18  19
HETATM   19  C   UNL     1      -4.662  -2.553 -34.004  1.00  0.00     0.076 A 
HETATM   20  C   UNL     1      -5.982  -2.146 -34.287  1.00  0.00    -0.021 A 
HETATM   21  C   UNL     1      -6.881  -3.109 -34.780  1.00  0.00     0.010 A 
HETATM   22  C   UNL     1      -6.495  -4.442 -34.936  1.00  0.00     0.001 A 
HETATM   23  C   UNL     1      -5.206  -4.838 -34.597  1.00  0.00     0.003 A 
HETATM   24  C   UNL     1      -4.291  -3.897 -34.126  1.00  0.00     0.037 A 
BRANCH  20  25
HETATM   25  C   UNL     1      -6.400  -0.692 -34.106  1.00  0.00     0.013 C 
HETATM   26  C   UNL     1      -6.964  -0.367 -32.717  1.00  0.00     0.015 C 
HETATM   27  C   UNL     1      -7.400  -0.288 -35.192  1.00  0.00     0.015 C 
ENDBRANCH  20  25
ENDBRANCH  18  19
ENDBRANCH  17  18
ENDBRANCH   1  17
TORSDOF 6
ENDMDL
MODEL 2
REMARK VINA RESULT:      -8.8      1.524      1.636
REMARK  6 active torsions:
REMARK  status: ('A' for Active; 'I' for Inactive)
REMARK    1  A    between atoms: C_2  and  C_3 
REMARK    2  A    between atoms: C_4  and  O_5 
REMARK    3  A    between atoms: O_5  and  C_6 
REMARK    4  A    between atoms: C_6  and  C_7 
REMARK       I    between atoms: C_7  and  N_8 
REMARK    5  A    between atoms: N_8  and  N_9 
REMARK    6  A    between atoms: C_10  and  C_11 
ROOT
HETATM    1  C   UNL     1      -3.809  -0.088 -31.348  1.00  0.00     0.261 C 
HETATM    2  N   UNL     1      -3.070   0.985 -31.829  1.00  0.00    -0.246 N 
HETATM    3  O   UNL     1      -4.578  -0.082 -30.390  1.00  0.00    -0.269 OA
HETATM    4  H   UNL     1      -2.479   0.820 -32.641  1.00  0.00     0.192 HD
ENDROOT
BRANCH   2   5
HETATM    5  N   UNL     1      -2.984   2.259 -31.335  1.00  0.00    -0.184 NA
HETATM    6  C   UNL     1      -3.044   3.282 -32.124  1.00  0.00     0.152 C 
BRANCH   6   7
HETATM    7  C   UNL     1      -2.957   4.613 -31.547  1.00  0.00     0.011 A 
HETATM    8  C   UNL     1      -1.764   5.337 -31.217  1.00  0.00     0.004 A 
HETATM    9  C   UNL     1      -2.156   6.561 -30.671  1.00  0.00     0.043 A 
HETATM   10  C   UNL     1      -0.384   5.061 -31.321  1.00  0.00     0.014 A 
HETATM   11  C   UNL     1      -1.239   7.520 -30.223  1.00  0.00     0.030 A 
HETATM   12  N   UNL     1      -3.531   6.589 -30.681  1.00  0.00    -0.364 N 
HETATM   13  C   UNL     1       0.121   7.220 -30.334  1.00  0.00     0.002 A 
HETATM   14  C   UNL     1       0.546   6.009 -30.877  1.00  0.00     0.001 A 
HETATM   15  H   UNL     1      -4.092   7.358 -30.344  1.00  0.00     0.165 HD
HETATM   16  C   UNL     1      -4.023   5.423 -31.202  1.00  0.00     0.102 A 
ENDBRANCH   6   7
ENDBRANCH   2   5
BRANCH   1  17
HETATM   17  C   UNL     1      -3.502  -1.376 -32.110  1.00  0.00     0.280 C 
BRANCH  17  18
HETATM   18  O   UNL     1      -3.859  -1.270 -33.486  1.00  0.00    -0.341 OA
BRANCH  18  19
HETATM   19  C   UNL     1      -4.673  -2.271 -33.953  1.00  0.00     0.076 A 
HETATM   20  C   UNL     1      -6.009  -1.932 -34.253  1.00  0.00    -0.021 A 
HETATM   21  C   UNL     1      -6.847  -2.936 -34.770  1.00  0.00     0.010 A 
HETATM   22  C   UNL     1      -6.388  -4.244 -34.935  1.00  0.00     0.001 A 
HETATM   23  C   UNL     1      -5.085  -4.575 -34.579  1.00  0.00     0.003 A 
HETATM   24  C   UNL     1      -4.229  -3.592 -34.083  1.00  0.00     0.037 A 
BRANCH  20  25
HETATM   25  C   UNL     1      -6.507  -0.505 -34.064  1.00  0.00     0.013 C 
HETATM   26  C   UNL     1      -7.345  -0.293 -32.796  1.00  0.00     0.015 C 
HETATM   27  C   UNL     1      -7.286  -0.045 -35.298  1.00  0.00     0.015 C 
ENDBRANCH  20  25
ENDBRANCH  18  19
ENDBRANCH  17  18
ENDBRANCH   1  17
TORSDOF 6
ENDMDL
MODEL 3
REMARK VINA RESULT:      -8.3      2.058      8.845
REMARK  6 active torsions:
REMARK  status: ('A' for Active; 'I' for Inactive)
REMARK    1  A    between atoms: C_2  and  C_3 
REMARK    2  A    between atoms: C_4  and  O_5 
REMARK    3  A    between atoms: O_5  and  C_6 
REMARK    4  A    between atoms: C_6  and  C_7 
REMARK       I    between atoms: C_7  and  N_8 
REMARK    5  A    between atoms: N_8  and  N_9 
REMARK    6  A    between atoms: C_10  and  C_11 
ROOT
HETATM    1  C   UNL     1      -4.238   2.420 -31.891  1.00  0.00     0.261 C 
HETATM    2  N   UNL     1      -3.267   1.427 -31.884  1.00  0.00    -0.246 N 
HETATM    3  O   UNL     1      -5.376   2.334 -32.344  1.00  0.00    -0.269 OA
HETATM    4  H   UNL     1      -2.368   1.654 -31.463  1.00  0.00     0.192 HD
ENDROOT
BRANCH   2   5
HETATM    5  N   UNL     1      -3.325   0.165 -32.411  1.00  0.00    -0.184 NA
HETATM    6  C   UNL     1      -3.593  -0.855 -31.663  1.00  0.00     0.152 C 
BRANCH   6   7
HETATM    7  C   UNL     1      -3.652  -2.172 -32.274  1.00  0.00     0.011 A 
HETATM    8  C   UNL     1      -4.534  -2.602 -33.319  1.00  0.00     0.004 A 
HETATM    9  C   UNL     1      -4.252  -3.946 -33.578  1.00  0.00     0.043 A 
HETATM   10  C   UNL     1      -5.557  -1.978 -34.065  1.00  0.00     0.014 A 
HETATM   11  C   UNL     1      -4.940  -4.695 -34.539  1.00  0.00     0.030 A 
HETATM   12  N   UNL     1      -3.230  -4.315 -32.734  1.00  0.00    -0.364 N 
HETATM   13  C   UNL     1      -5.950  -4.052 -35.261  1.00  0.00     0.002 A 
HETATM   14  C   UNL     1      -6.255  -2.713 -35.031  1.00  0.00     0.001 A 
HETATM   15  H   UNL     1      -2.818  -5.237 -32.701  1.00  0.00     0.165 HD
HETATM   16  C   UNL     1      -2.863  -3.259 -31.945  1.00  0.00     0.102 A 
ENDBRANCH   6   7
ENDBRANCH   2   5
BRANCH   1  17
HETATM   17  C   UNL     1      -3.709   3.737 -31.324  1.00  0.00     0.280 C 
BRANCH  17  18
HETATM   18  O   UNL     1      -2.294   3.841 -31.472  1.00  0.00    -0.341 OA
BRANCH  18  19
HETATM   19  C   UNL     1      -1.874   4.782 -32.377  1.00  0.00     0.076 A 
HETATM   20  C   UNL     1      -1.313   5.969 -31.864  1.00  0.00    -0.021 A 
HETATM   21  C   UNL     1      -0.840   6.929 -32.778  1.00  0.00     0.010 A 
HETATM   22  C   UNL     1      -0.968   6.736 -34.155  1.00  0.00     0.001 A 
HETATM   23  C   UNL     1      -1.577   5.586 -34.644  1.00  0.00     0.003 A 
HETATM   24  C   UNL     1      -2.036   4.612 -33.757  1.00  0.00     0.037 A 
BRANCH  20  25
HETATM   25  C   UNL     1      -1.183   6.178 -30.360  1.00  0.00     0.013 C 
HETATM   26  C   UNL     1      -1.959   7.387 -29.822  1.00  0.00     0.015 C 
HETATM   27  C   UNL     1       0.292   6.273 -29.962  1.00  0.00     0.015 C 
ENDBRANCH  20  25
ENDBRANCH  18  19
ENDBRANCH  17  18
ENDBRANCH   1  17
TORSDOF 6
ENDMDL
MODEL 4
REMARK VINA RESULT:      -8.2      5.470      8.902
REMARK  6 active torsions:
REMARK  status: ('A' for Active; 'I' for Inactive)
REMARK    1  A    between atoms: C_2  and  C_3 
REMARK    2  A    between atoms: C_4  and  O_5 
REMARK    3  A    between atoms: O_5  and  C_6 
REMARK    4  A    between atoms: C_6  and  C_7 
REMARK       I    between atoms: C_7  and  N_8 
REMARK    5  A    between atoms: N_8  and  N_9 
REMARK    6  A    between atoms: C_10  and  C_11 
ROOT
HETATM    1  C   UNL     1      -9.200   3.018 -34.223  1.00  0.00     0.261 C 
HETATM    2  N   UNL     1      -8.887   1.729 -34.638  1.00  0.00    -0.246 N 
HETATM    3  O   UNL     1      -8.444   3.822 -33.685  1.00  0.00    -0.269 OA
HETATM    4  H   UNL     1      -9.628   1.185 -35.075  1.00  0.00     0.192 HD
ENDROOT
BRANCH   2   5
HETATM    5  N   UNL     1      -7.708   1.047 -34.504  1.00  0.00    -0.184 NA
HETATM    6  C   UNL     1      -7.699  -0.207 -34.188  1.00  0.00     0.152 C 
BRANCH   6   7
HETATM    7  C   UNL     1      -6.420  -0.887 -34.068  1.00  0.00     0.011 A 
HETATM    8  C   UNL     1      -6.150  -2.272 -34.319  1.00  0.00     0.004 A 
HETATM    9  C   UNL     1      -4.795  -2.487 -34.059  1.00  0.00     0.043 A 
HETATM   10  C   UNL     1      -6.934  -3.370 -34.734  1.00  0.00     0.014 A 
HETATM   11  C   UNL     1      -4.186  -3.741 -34.189  1.00  0.00     0.030 A 
HETATM   12  N   UNL     1      -4.258  -1.279 -33.678  1.00  0.00    -0.364 N 
HETATM   13  C   UNL     1      -4.987  -4.812 -34.598  1.00  0.00     0.002 A 
HETATM   14  C   UNL     1      -6.342  -4.631 -34.869  1.00  0.00     0.001 A 
HETATM   15  H   UNL     1      -3.290  -1.135 -33.429  1.00  0.00     0.165 HD
HETATM   16  C   UNL     1      -5.225  -0.311 -33.678  1.00  0.00     0.102 A 
ENDBRANCH   6   7
ENDBRANCH   2   5
BRANCH   1  17
HETATM   17  C   UNL     1     -10.679   3.338 -34.433  1.00  0.00     0.280 C 
BRANCH  17  18
HETATM   18  O   UNL     1     -11.431   3.159 -33.234  1.00  0.00    -0.341 OA
BRANCH  18  19
HETATM   19  C   UNL     1     -12.508   2.317 -33.346  1.00  0.00     0.076 A 
HETATM   20  C   UNL     1     -13.720   2.734 -32.759  1.00  0.00    -0.021 A 
HETATM   21  C   UNL     1     -14.846   1.902 -32.898  1.00  0.00     0.010 A 
HETATM   22  C   UNL     1     -14.756   0.673 -33.554  1.00  0.00     0.001 A 
HETATM   23  C   UNL     1     -13.539   0.250 -34.077  1.00  0.00     0.003 A 
HETATM   24  C   UNL     1     -12.414   1.067 -33.968  1.00  0.00     0.037 A 
BRANCH  20  25
HETATM   25  C   UNL     1     -13.810   4.073 -32.037  1.00  0.00     0.013 C 
HETATM   26  C   UNL     1     -13.305   4.043 -30.589  1.00  0.00     0.015 C 
HETATM   27  C   UNL     1     -15.243   4.609 -32.088  1.00  0.00     0.015 C 
ENDBRANCH  20  25
ENDBRANCH  18  19
ENDBRANCH  17  18
ENDBRANCH   1  17
TORSDOF 6
ENDMDL
MODEL 5
REMARK VINA RESULT:      -8.1      5.159      8.883
REMARK  6 active torsions:
REMARK  status: ('A' for Active; 'I' for Inactive)
REMARK    1  A    between atoms: C_2  and  C_3 
REMARK    2  A    between atoms: C_4  and  O_5 
REMARK    3  A    between atoms: O_5  and  C_6 
REMARK    4  A    between atoms: C_6  and  C_7 
REMARK       I    between atoms: C_7  and  N_8 
REMARK    5  A    between atoms: N_8  and  N_9 
REMARK    6  A    between atoms: C_10  and  C_11 
ROOT
HETATM    1  C   UNL     1      -9.412   1.058 -33.147  1.00  0.00     0.261 C 
HETATM    2  N   UNL     1      -8.034   1.089 -33.316  1.00  0.00    -0.246 N 
HETATM    3  O   UNL     1     -10.080   0.122 -32.716  1.00  0.00    -0.269 OA
HETATM    4  H   UNL     1      -7.626   1.948 -33.681  1.00  0.00     0.192 HD
ENDROOT
BRANCH   2   5
HETATM    5  N   UNL     1      -7.119   0.094 -33.100  1.00  0.00    -0.184 NA
HETATM    6  C   UNL     1      -6.017   0.048 -33.776  1.00  0.00     0.152 C 
BRANCH   6   7
HETATM    7  C   UNL     1      -5.075  -1.024 -33.500  1.00  0.00     0.011 A 
HETATM    8  C   UNL     1      -5.163  -2.387 -33.937  1.00  0.00     0.004 A 
HETATM    9  C   UNL     1      -4.054  -3.062 -33.424  1.00  0.00     0.043 A 
HETATM   10  C   UNL     1      -6.089  -3.115 -34.715  1.00  0.00     0.014 A 
HETATM   11  C   UNL     1      -3.826  -4.426 -33.645  1.00  0.00     0.030 A 
HETATM   12  N   UNL     1      -3.313  -2.146 -32.715  1.00  0.00    -0.364 N 
HETATM   13  C   UNL     1      -4.761  -5.123 -34.415  1.00  0.00     0.002 A 
HETATM   14  C   UNL     1      -5.877  -4.479 -34.945  1.00  0.00     0.001 A 
HETATM   15  H   UNL     1      -2.451  -2.355 -32.232  1.00  0.00     0.165 HD
HETATM   16  C   UNL     1      -3.918  -0.919 -32.752  1.00  0.00     0.102 A 
ENDBRANCH   6   7
ENDBRANCH   2   5
BRANCH   1  17
HETATM   17  C   UNL     1     -10.076   2.340 -33.648  1.00  0.00     0.280 C 
BRANCH  17  18
HETATM   18  O   UNL     1     -11.425   2.110 -34.050  1.00  0.00    -0.341 OA
BRANCH  18  19
HETATM   19  C   UNL     1     -12.377   2.582 -33.182  1.00  0.00     0.076 A 
HETATM   20  C   UNL     1     -13.638   1.953 -33.200  1.00  0.00    -0.021 A 
HETATM   21  C   UNL     1     -14.614   2.398 -32.289  1.00  0.00     0.010 A 
HETATM   22  C   UNL     1     -14.360   3.465 -31.426  1.00  0.00     0.001 A 
HETATM   23  C   UNL     1     -13.129   4.113 -31.461  1.00  0.00     0.003 A 
HETATM   24  C   UNL     1     -12.140   3.677 -32.342  1.00  0.00     0.037 A 
BRANCH  20  25
HETATM   25  C   UNL     1     -13.913   0.794 -34.150  1.00  0.00     0.013 C 
HETATM   26  C   UNL     1     -15.390   0.625 -34.527  1.00  0.00     0.015 C 
HETATM   27  C   UNL     1     -13.360  -0.510 -33.571  1.00  0.00     0.015 C 
ENDBRANCH  20  25
ENDBRANCH  18  19
ENDBRANCH  17  18
ENDBRANCH   1  17
TORSDOF 6
ENDMDL
MODEL 6
REMARK VINA RESULT:      -8.1      2.250      8.772
REMARK  6 active torsions:
REMARK  status: ('A' for Active; 'I' for Inactive)
REMARK    1  A    between atoms: C_2  and  C_3 
REMARK    2  A    between atoms: C_4  and  O_5 
REMARK    3  A    between atoms: O_5  and  C_6 
REMARK    4  A    between atoms: C_6  and  C_7 
REMARK       I    between atoms: C_7  and  N_8 
REMARK    5  A    between atoms: N_8  and  N_9 
REMARK    6  A    between atoms: C_10  and  C_11 
ROOT
HETATM    1  C   UNL     1      -4.450   2.824 -31.175  1.00  0.00     0.261 C 
HETATM    2  N   UNL     1      -4.181   2.207 -32.390  1.00  0.00    -0.246 N 
HETATM    3  O   UNL     1      -5.370   2.563 -30.405  1.00  0.00    -0.269 OA
HETATM    4  H   UNL     1      -3.372   2.536 -32.914  1.00  0.00     0.192 HD
ENDROOT
BRANCH   2   5
HETATM    5  N   UNL     1      -4.886   1.222 -33.028  1.00  0.00    -0.184 NA
HETATM    6  C   UNL     1      -4.560  -0.022 -32.891  1.00  0.00     0.152 C 
BRANCH   6   7
HETATM    7  C   UNL     1      -5.347  -1.030 -33.582  1.00  0.00     0.011 A 
HETATM    8  C   UNL     1      -4.992  -2.400 -33.809  1.00  0.00     0.004 A 
HETATM    9  C   UNL     1      -6.035  -2.988 -34.528  1.00  0.00     0.043 A 
HETATM   10  C   UNL     1      -3.874  -3.196 -33.479  1.00  0.00     0.014 A 
HETATM   11  C   UNL     1      -6.015  -4.328 -34.935  1.00  0.00     0.030 A 
HETATM   12  N   UNL     1      -6.992  -2.020 -34.720  1.00  0.00    -0.364 N 
HETATM   13  C   UNL     1      -4.894  -5.092 -34.598  1.00  0.00     0.002 A 
HETATM   14  C   UNL     1      -3.838  -4.537 -33.879  1.00  0.00     0.001 A 
HETATM   15  H   UNL     1      -7.863  -2.163 -35.211  1.00  0.00     0.165 HD
HETATM   16  C   UNL     1      -6.589  -0.839 -34.158  1.00  0.00     0.102 A 
ENDBRANCH   6   7
ENDBRANCH   2   5
BRANCH   1  17
HETATM   17  C   UNL     1      -3.492   3.982 -30.902  1.00  0.00     0.280 C 
BRANCH  17  18
HETATM   18  O   UNL     1      -2.182   3.707 -31.395  1.00  0.00    -0.341 OA
BRANCH  18  19
HETATM   19  C   UNL     1      -1.319   4.774 -31.373  1.00  0.00     0.076 A 
HETATM   20  C   UNL     1      -1.208   5.542 -32.549  1.00  0.00    -0.021 A 
HETATM   21  C   UNL     1      -0.358   6.663 -32.532  1.00  0.00     0.010 A 
HETATM   22  C   UNL     1       0.395   6.978 -31.400  1.00  0.00     0.001 A 
HETATM   23  C   UNL     1       0.318   6.176 -30.266  1.00  0.00     0.003 A 
HETATM   24  C   UNL     1      -0.533   5.072 -30.253  1.00  0.00     0.037 A 
BRANCH  20  25
HETATM   25  C   UNL     1      -2.026   5.188 -33.785  1.00  0.00     0.013 C 
HETATM   26  C   UNL     1      -1.232   5.221 -35.097  1.00  0.00     0.015 C 
HETATM   27  C   UNL     1      -3.256   6.094 -33.886  1.00  0.00     0.015 C 
ENDBRANCH  20  25
ENDBRANCH  18  19
ENDBRANCH  17  18
ENDBRANCH   1  17
TORSDOF 6
ENDMDL
MODEL 7
REMARK VINA RESULT:      -8.1      1.886      3.252
REMARK  6 active torsions:
REMARK  status: ('A' for Active; 'I' for Inactive)
REMARK    1  A    between atoms: C_2  and  C_3 
REMARK    2  A    between atoms: C_4  and  O_5 
REMARK    3  A    between atoms: O_5  and  C_6 
REMARK    4  A    between atoms: C_6  and  C_7 
REMARK       I    between atoms: C_7  and  N_8 
REMARK    5  A    between atoms: N_8  and  N_9 
REMARK    6  A    between atoms: C_10  and  C_11 
ROOT
HETATM    1  C   UNL     1      -5.314   1.421 -30.796  1.00  0.00     0.261 C 
HETATM    2  N   UNL     1      -5.684   2.646 -31.336  1.00  0.00    -0.246 N 
HETATM    3  O   UNL     1      -4.170   1.024 -30.587  1.00  0.00    -0.269 OA
HETATM    4  H   UNL     1      -6.679   2.830 -31.441  1.00  0.00     0.192 HD
ENDROOT
BRANCH   2   5
HETATM    5  N   UNL     1      -4.885   3.657 -31.798  1.00  0.00    -0.184 NA
HETATM    6  C   UNL     1      -4.256   3.544 -32.923  1.00  0.00     0.152 C 
BRANCH   6   7
HETATM    7  C   UNL     1      -3.429   4.651 -33.373  1.00  0.00     0.011 A 
HETATM    8  C   UNL     1      -2.320   5.239 -32.682  1.00  0.00     0.004 A 
HETATM    9  C   UNL     1      -1.838   6.282 -33.477  1.00  0.00     0.043 A 
HETATM   10  C   UNL     1      -1.684   4.990 -31.447  1.00  0.00     0.014 A 
HETATM   11  C   UNL     1      -0.758   7.088 -33.098  1.00  0.00     0.030 A 
HETATM   12  N   UNL     1      -2.613   6.319 -34.612  1.00  0.00    -0.364 N 
HETATM   13  C   UNL     1      -0.149   6.822 -31.868  1.00  0.00     0.002 A 
HETATM   14  C   UNL     1      -0.602   5.787 -31.053  1.00  0.00     0.001 A 
HETATM   15  H   UNL     1      -2.492   6.977 -35.369  1.00  0.00     0.165 HD
HETATM   16  C   UNL     1      -3.574   5.345 -34.560  1.00  0.00     0.102 A 
ENDBRANCH   6   7
ENDBRANCH   2   5
BRANCH   1  17
HETATM   17  C   UNL     1      -6.523   0.522 -30.545  1.00  0.00     0.280 C 
BRANCH  17  18
HETATM   18  O   UNL     1      -6.508  -0.626 -31.391  1.00  0.00    -0.341 OA
BRANCH  18  19
HETATM   19  C   UNL     1      -6.965  -0.412 -32.667  1.00  0.00     0.076 A 
HETATM   20  C   UNL     1      -6.183  -0.914 -33.728  1.00  0.00    -0.021 A 
HETATM   21  C   UNL     1      -6.656  -0.738 -35.041  1.00  0.00     0.010 A 
HETATM   22  C   UNL     1      -7.839  -0.041 -35.294  1.00  0.00     0.001 A 
HETATM   23  C   UNL     1      -8.568   0.498 -34.239  1.00  0.00     0.003 A 
HETATM   24  C   UNL     1      -8.130   0.319 -32.928  1.00  0.00     0.037 A 
BRANCH  20  25
HETATM   25  C   UNL     1      -4.888  -1.666 -33.447  1.00  0.00     0.013 C 
HETATM   26  C   UNL     1      -3.639  -0.777 -33.406  1.00  0.00     0.015 C 
HETATM   27  C   UNL     1      -4.701  -2.798 -34.460  1.00  0.00     0.015 C 
ENDBRANCH  20  25
ENDBRANCH  18  19
ENDBRANCH  17  18
ENDBRANCH   1  17
TORSDOF 6
ENDMDL
MODEL 8
REMARK VINA RESULT:      -7.9      2.478      9.066
REMARK  6 active torsions:
REMARK  status: ('A' for Active; 'I' for Inactive)
REMARK    1  A    between atoms: C_2  and  C_3 
REMARK    2  A    between atoms: C_4  and  O_5 
REMARK    3  A    between atoms: O_5  and  C_6 
REMARK    4  A    between atoms: C_6  and  C_7 
REMARK       I    between atoms: C_7  and  N_8 
REMARK    5  A    between atoms: N_8  and  N_9 
REMARK    6  A    between atoms: C_10  and  C_11 
ROOT
HETATM    1  C   UNL     1      -4.580   3.159 -32.075  1.00  0.00     0.261 C 
HETATM    2  N   UNL     1      -4.501   1.776 -31.978  1.00  0.00    -0.246 N 
HETATM    3  O   UNL     1      -5.309   3.804 -32.825  1.00  0.00    -0.269 OA
HETATM    4  H   UNL     1      -3.847   1.391 -31.300  1.00  0.00     0.192 HD
ENDROOT
BRANCH   2   5
HETATM    5  N   UNL     1      -5.160   0.824 -32.709  1.00  0.00    -0.184 NA
HETATM    6  C   UNL     1      -4.668  -0.364 -32.848  1.00  0.00     0.152 C 
BRANCH   6   7
HETATM    7  C   UNL     1      -5.412  -1.340 -33.626  1.00  0.00     0.011 A 
HETATM    8  C   UNL     1      -5.043  -2.700 -33.889  1.00  0.00     0.004 A 
HETATM    9  C   UNL     1      -6.042  -3.256 -34.692  1.00  0.00     0.043 A 
HETATM   10  C   UNL     1      -3.946  -3.511 -33.529  1.00  0.00     0.014 A 
HETATM   11  C   UNL     1      -5.997  -4.577 -35.154  1.00  0.00     0.030 A 
HETATM   12  N   UNL     1      -6.987  -2.278 -34.899  1.00  0.00    -0.364 N 
HETATM   13  C   UNL     1      -4.897  -5.356 -34.784  1.00  0.00     0.002 A 
HETATM   14  C   UNL     1      -3.886  -4.834 -33.982  1.00  0.00     0.001 A 
HETATM   15  H   UNL     1      -7.828  -2.399 -35.446  1.00  0.00     0.165 HD
HETATM   16  C   UNL     1      -6.619  -1.123 -34.265  1.00  0.00     0.102 A 
ENDBRANCH   6   7
ENDBRANCH   2   5
BRANCH   1  17
HETATM   17  C   UNL     1      -3.561   3.852 -31.172  1.00  0.00     0.280 C 
BRANCH  17  18
HETATM   18  O   UNL     1      -2.244   3.778 -31.713  1.00  0.00    -0.341 OA
BRANCH  18  19
HETATM   19  C   UNL     1      -1.802   4.927 -32.321  1.00  0.00     0.076 A 
HETATM   20  C   UNL     1      -0.832   5.688 -31.639  1.00  0.00    -0.021 A 
HETATM   21  C   UNL     1      -0.338   6.848 -32.266  1.00  0.00     0.010 A 
HETATM   22  C   UNL     1      -0.831   7.262 -33.505  1.00  0.00     0.001 A 
HETATM   23  C   UNL     1      -1.831   6.531 -34.137  1.00  0.00     0.003 A 
HETATM   24  C   UNL     1      -2.321   5.368 -33.545  1.00  0.00     0.037 A 
BRANCH  20  25
HETATM   25  C   UNL     1      -0.303   5.236 -30.284  1.00  0.00     0.013 C 
HETATM   26  C   UNL     1      -0.379   6.307 -29.189  1.00  0.00     0.015 C 
HETATM   27  C   UNL     1       1.129   4.715 -30.419  1.00  0.00     0.015 C 
ENDBRANCH  20  25
ENDBRANCH  18  19
ENDBRANCH  17  18
ENDBRANCH   1  17
TORSDOF 6
ENDMDL
MODEL 9
REMARK VINA RESULT:      -7.9      3.555     10.074
REMARK  6 active torsions:
REMARK  status: ('A' for Active; 'I' for Inactive)
REMARK    1  A    between atoms: C_2  and  C_3 
REMARK    2  A    between atoms: C_4  and  O_5 
REMARK    3  A    between atoms: O_5  and  C_6 
REMARK    4  A    between atoms: C_6  and  C_7 
REMARK       I    between atoms: C_7  and  N_8 
REMARK    5  A    between atoms: N_8  and  N_9 
REMARK    6  A    between atoms: C_10  and  C_11 
ROOT
HETATM    1  C   UNL     1      -1.990   4.776 -31.378  1.00  0.00     0.261 C 
HETATM    2  N   UNL     1      -2.959   3.795 -31.208  1.00  0.00    -0.246 N 
HETATM    3  O   UNL     1      -0.892   4.641 -31.913  1.00  0.00    -0.269 OA
HETATM    4  H   UNL     1      -3.824   4.067 -30.747  1.00  0.00     0.192 HD
ENDROOT
BRANCH   2   5
HETATM    5  N   UNL     1      -2.905   2.467 -31.539  1.00  0.00    -0.184 NA
HETATM    6  C   UNL     1      -3.981   1.815 -31.838  1.00  0.00     0.152 C 
BRANCH   6   7
HETATM    7  C   UNL     1      -3.868   0.410 -32.191  1.00  0.00     0.011 A 
HETATM    8  C   UNL     1      -4.691  -0.321 -33.110  1.00  0.00     0.004 A 
HETATM    9  C   UNL     1      -4.234  -1.641 -33.123  1.00  0.00     0.043 A 
HETATM   10  C   UNL     1      -5.793   0.014 -33.927  1.00  0.00     0.014 A 
HETATM   11  C   UNL     1      -4.823  -2.640 -33.906  1.00  0.00     0.030 A 
HETATM   12  N   UNL     1      -3.167  -1.709 -32.258  1.00  0.00    -0.364 N 
HETATM   13  C   UNL     1      -5.915  -2.282 -34.702  1.00  0.00     0.002 A 
HETATM   14  C   UNL     1      -6.393  -0.974 -34.716  1.00  0.00     0.001 A 
HETATM   15  H   UNL     1      -2.636  -2.546 -32.066  1.00  0.00     0.165 HD
HETATM   16  C   UNL     1      -2.939  -0.484 -31.691  1.00  0.00     0.102 A 
ENDBRANCH   6   7
ENDBRANCH   2   5
BRANCH   1  17
HETATM   17  C   UNL     1      -2.399   6.097 -30.731  1.00  0.00     0.280 C 
BRANCH  17  18
HETATM   18  O   UNL     1      -1.262   6.870 -30.351  1.00  0.00    -0.341 OA
BRANCH  18  19
HETATM   19  C   UNL     1      -1.551   8.071 -29.754  1.00  0.00     0.076 A 
HETATM   20  C   UNL     1      -0.705   8.495 -28.709  1.00  0.00    -0.021 A 
HETATM   21  C   UNL     1      -0.963   9.743 -28.112  1.00  0.00     0.010 A 
HETATM   22  C   UNL     1      -2.056  10.518 -28.505  1.00  0.00     0.001 A 
HETATM   23  C   UNL     1      -2.915  10.058 -29.497  1.00  0.00     0.003 A 
HETATM   24  C   UNL     1      -2.668   8.833 -30.117  1.00  0.00     0.037 A 
BRANCH  20  25
HETATM   25  C   UNL     1       0.481   7.642 -28.278  1.00  0.00     0.013 C 
HETATM   26  C   UNL     1       0.126   6.520 -27.295  1.00  0.00     0.015 C 
HETATM   27  C   UNL     1       1.589   8.525 -27.698  1.00  0.00     0.015 C 
ENDBRANCH  20  25
ENDBRANCH  18  19
ENDBRANCH  17  18
ENDBRANCH   1  17
TORSDOF 6
ENDMDL
MODEL 10
REMARK VINA RESULT:      -7.8      5.039      8.956
REMARK  6 active torsions:
REMARK  status: ('A' for Active; 'I' for Inactive)
REMARK    1  A    between atoms: C_2  and  C_3 
REMARK    2  A    between atoms: C_4  and  O_5 
REMARK    3  A    between atoms: O_5  and  C_6 
REMARK    4  A    between atoms: C_6  and  C_7 
REMARK       I    between atoms: C_7  and  N_8 
REMARK    5  A    between atoms: N_8  and  N_9 
REMARK    6  A    between atoms: C_10  and  C_11 
ROOT
HETATM    1  C   UNL     1     -10.252   1.022 -33.986  1.00  0.00     0.261 C 
HETATM    2  N   UNL     1      -9.110   1.086 -34.775  1.00  0.00    -0.246 N 
HETATM    3  O   UNL     1     -10.472   0.231 -33.073  1.00  0.00    -0.269 OA
HETATM    4  H   UNL     1      -9.077   1.807 -35.493  1.00  0.00     0.192 HD
ENDROOT
BRANCH   2   5
HETATM    5  N   UNL     1      -8.009   0.273 -34.761  1.00  0.00    -0.184 NA
HETATM    6  C   UNL     1      -7.210   0.257 -33.744  1.00  0.00     0.152 C 
BRANCH   6   7
HETATM    7  C   UNL     1      -6.060  -0.631 -33.774  1.00  0.00     0.011 A 
HETATM    8  C   UNL     1      -6.045  -2.015 -34.147  1.00  0.00     0.004 A 
HETATM    9  C   UNL     1      -4.732  -2.471 -34.010  1.00  0.00     0.043 A 
HETATM   10  C   UNL     1      -7.030  -2.930 -34.578  1.00  0.00     0.014 A 
HETATM   11  C   UNL     1      -4.355  -3.792 -34.279  1.00  0.00     0.030 A 
HETATM   12  N   UNL     1      -3.975  -1.404 -33.584  1.00  0.00    -0.364 N 
HETATM   13  C   UNL     1      -5.351  -4.678 -34.701  1.00  0.00     0.002 A 
HETATM   14  C   UNL     1      -6.669  -4.255 -34.851  1.00  0.00     0.001 A 
HETATM   15  H   UNL     1      -2.982  -1.442 -33.401  1.00  0.00     0.165 HD
HETATM   16  C   UNL     1      -4.762  -0.295 -33.438  1.00  0.00     0.102 A 
ENDBRANCH   6   7
ENDBRANCH   2   5
BRANCH   1  17
HETATM   17  C   UNL     1     -11.308   2.031 -34.433  1.00  0.00     0.280 C 
BRANCH  17  18
HETATM   18  O   UNL     1     -11.118   3.300 -33.811  1.00  0.00    -0.341 OA
BRANCH  18  19
HETATM   19  C   UNL     1     -11.950   3.557 -32.751  1.00  0.00     0.076 A 
HETATM   20  C   UNL     1     -11.349   3.923 -31.530  1.00  0.00    -0.021 A 
HETATM   21  C   UNL     1     -12.188   4.228 -30.443  1.00  0.00     0.010 A 
HETATM   22  C   UNL     1     -13.576   4.123 -30.552  1.00  0.00     0.001 A 
HETATM   23  C   UNL     1     -14.151   3.704 -31.747  1.00  0.00     0.003 A 
HETATM   24  C   UNL     1     -13.340   3.415 -32.844  1.00  0.00     0.037 A 
BRANCH  20  25
HETATM   25  C   UNL     1      -9.834   4.028 -31.413  1.00  0.00     0.013 C 
HETATM   26  C   UNL     1      -9.152   2.757 -30.891  1.00  0.00     0.015 C 
HETATM   27  C   UNL     1      -9.449   5.231 -30.548  1.00  0.00     0.015 C 
ENDBRANCH  20  25
ENDBRANCH  18  19
ENDBRANCH  17  18
ENDBRANCH   1  17
TORSDOF 6
ENDMDL
