MODEL 1
REMARK VINA RESULT:     -10.0      0.000      0.000
REMARK  5 active torsions:
REMARK  status: ('A' for Active; 'I' for Inactive)
REMARK    1  A    between atoms: C_11  and  C_12 
REMARK    2  A    between atoms: C_12  and  S_13 
REMARK    3  A    between atoms: S_13  and  C_14 
REMARK    4  A    between atoms: C_16  and  N_17 
REMARK    5  A    between atoms: N_17  and  C_18 
ROOT
HETATM    1  C   UNL     1      -6.098   0.442 -34.186  1.00  0.00     0.121 C 
ENDROOT
BRANCH   1   2
HETATM    2  C   UNL     1      -4.998   0.066 -33.223  1.00  0.00    -0.029 A 
HETATM    3  C   UNL     1      -4.539  -1.368 -33.128  1.00  0.00     0.016 A 
HETATM    4  C   UNL     1      -5.060  -2.527 -33.844  1.00  0.00    -0.012 A 
HETATM    5  C   UNL     1      -3.470  -1.600 -32.238  1.00  0.00     0.091 A 
HETATM    6  C   UNL     1      -4.445  -3.801 -33.614  1.00  0.00    -0.025 A 
HETATM    7  C   UNL     1      -6.143  -2.574 -34.775  1.00  0.00     0.013 A 
HETATM    8  C   UNL     1      -4.881  -4.966 -34.270  1.00  0.00     0.012 A 
HETATM    9  C   UNL     1      -3.383  -3.941 -32.722  1.00  0.00     0.015 A 
HETATM   10  C   UNL     1      -5.934  -4.942 -35.172  1.00  0.00     0.001 A 
HETATM   11  C   UNL     1      -6.568  -3.743 -35.423  1.00  0.00     0.001 A 
HETATM   12  C   UNL     1      -2.896  -2.850 -32.031  1.00  0.00     0.039 A 
HETATM   13  O   UNL     1      -2.871  -0.590 -31.457  1.00  0.00    -0.275 OA
HETATM   14  C   UNL     1      -3.307   0.708 -31.505  1.00  0.00     0.288 A 
HETATM   15  O   UNL     1      -2.817   1.599 -30.823  1.00  0.00    -0.260 OA
HETATM   16  C   UNL     1      -4.396   0.983 -32.442  1.00  0.00     0.091 A 
ENDBRANCH   1   2
BRANCH   1  17
HETATM   17  S   UNL     1      -6.565   2.194 -34.326  1.00  0.00    -0.096 SA
BRANCH  17  18
HETATM   18  C   UNL     1      -8.137   2.131 -33.556  1.00  0.00     0.160 A 
HETATM   19  S   UNL     1      -9.408   3.213 -33.918  1.00  0.00    -0.022 SA
HETATM   20  C   UNL     1     -10.385   2.346 -32.780  1.00  0.00     0.195 A 
HETATM   21  N   UNL     1      -9.732   1.356 -32.205  1.00  0.00    -0.123 NA
HETATM   22  N   UNL     1      -8.435   1.229 -32.649  1.00  0.00    -0.133 NA
BRANCH  20  23
HETATM   23  N   UNL     1     -11.668   2.726 -32.581  1.00  0.00    -0.331 N 
HETATM   24  H   UNL     1     -11.834   3.586 -32.067  1.00  0.00     0.168 HD
BRANCH  23  25
HETATM   25  C   UNL     1     -12.859   2.127 -33.041  1.00  0.00     0.073 A 
HETATM   26  C   UNL     1     -14.072   2.518 -32.445  1.00  0.00     0.143 A 
HETATM   27  F   UNL     1     -14.050   3.442 -31.471  1.00  0.00    -0.204 F 
HETATM   28  C   UNL     1     -15.300   1.982 -32.830  1.00  0.00     0.044 A 
HETATM   29  C   UNL     1     -15.341   1.026 -33.839  1.00  0.00     0.003 A 
HETATM   30  C   UNL     1     -14.155   0.616 -34.447  1.00  0.00     0.002 A 
HETATM   31  C   UNL     1     -12.926   1.161 -34.050  1.00  0.00     0.033 A 
ENDBRANCH  23  25
ENDBRANCH  20  23
ENDBRANCH  17  18
ENDBRANCH   1  17
TORSDOF 5
ENDMDL
MODEL 2
REMARK VINA RESULT:      -9.8      4.280      6.582
REMARK  5 active torsions:
REMARK  status: ('A' for Active; 'I' for Inactive)
REMARK    1  A    between atoms: C_11  and  C_12 
REMARK    2  A    between atoms: C_12  and  S_13 
REMARK    3  A    between atoms: S_13  and  C_14 
REMARK    4  A    between atoms: C_16  and  N_17 
REMARK    5  A    between atoms: N_17  and  C_18 
ROOT
HETATM    1  C   UNL     1      -6.075   0.329 -34.015  1.00  0.00     0.121 C 
ENDROOT
BRANCH   1   2
HETATM    2  C   UNL     1      -4.948  -0.132 -33.122  1.00  0.00    -0.029 A 
HETATM    3  C   UNL     1      -4.530  -1.582 -33.127  1.00  0.00     0.016 A 
HETATM    4  C   UNL     1      -5.117  -2.683 -33.882  1.00  0.00    -0.012 A 
HETATM    5  C   UNL     1      -3.433  -1.895 -32.297  1.00  0.00     0.091 A 
HETATM    6  C   UNL     1      -4.533  -3.985 -33.751  1.00  0.00    -0.025 A 
HETATM    7  C   UNL     1      -6.238  -2.646 -34.767  1.00  0.00     0.013 A 
HETATM    8  C   UNL     1      -5.032  -5.098 -34.451  1.00  0.00     0.012 A 
HETATM    9  C   UNL     1      -3.440  -4.207 -32.914  1.00  0.00     0.015 A 
HETATM   10  C   UNL     1      -6.119  -4.992 -35.304  1.00  0.00     0.001 A 
HETATM   11  C   UNL     1      -6.726  -3.763 -35.461  1.00  0.00     0.001 A 
HETATM   12  C   UNL     1      -2.891  -3.171 -32.185  1.00  0.00     0.039 A 
HETATM   13  O   UNL     1      -2.772  -0.949 -31.488  1.00  0.00    -0.275 OA
HETATM   14  C   UNL     1      -3.168   0.362 -31.445  1.00  0.00     0.288 A 
HETATM   15  O   UNL     1      -2.623   1.198 -30.736  1.00  0.00    -0.260 OA
HETATM   16  C   UNL     1      -4.285   0.721 -32.318  1.00  0.00     0.091 A 
ENDBRANCH   1   2
BRANCH   1  17
HETATM   17  S   UNL     1      -7.497   1.166 -33.250  1.00  0.00    -0.096 SA
BRANCH  17  18
HETATM   18  C   UNL     1      -6.771   2.728 -32.933  1.00  0.00     0.160 A 
HETATM   19  S   UNL     1      -5.955   3.647 -34.120  1.00  0.00    -0.022 SA
HETATM   20  C   UNL     1      -5.710   4.867 -32.915  1.00  0.00     0.195 A 
HETATM   21  N   UNL     1      -6.210   4.527 -31.744  1.00  0.00    -0.123 NA
HETATM   22  N   UNL     1      -6.821   3.294 -31.749  1.00  0.00    -0.133 NA
BRANCH  20  23
HETATM   23  N   UNL     1      -5.066   6.009 -33.248  1.00  0.00    -0.331 N 
HETATM   24  H   UNL     1      -5.623   6.786 -33.590  1.00  0.00     0.168 HD
BRANCH  23  25
HETATM   25  C   UNL     1      -3.695   6.326 -33.140  1.00  0.00     0.073 A 
HETATM   26  C   UNL     1      -2.860   6.043 -34.236  1.00  0.00     0.143 A 
HETATM   27  F   UNL     1      -3.395   5.490 -35.337  1.00  0.00    -0.204 F 
HETATM   28  C   UNL     1      -1.494   6.320 -34.224  1.00  0.00     0.044 A 
HETATM   29  C   UNL     1      -0.924   6.896 -33.094  1.00  0.00     0.003 A 
HETATM   30  C   UNL     1      -1.726   7.185 -31.991  1.00  0.00     0.002 A 
HETATM   31  C   UNL     1      -3.098   6.901 -32.014  1.00  0.00     0.033 A 
ENDBRANCH  23  25
ENDBRANCH  20  23
ENDBRANCH  17  18
ENDBRANCH   1  17
TORSDOF 5
ENDMDL
MODEL 3
REMARK VINA RESULT:      -9.6      3.720      6.315
REMARK  5 active torsions:
REMARK  status: ('A' for Active; 'I' for Inactive)
REMARK    1  A    between atoms: C_11  and  C_12 
REMARK    2  A    between atoms: C_12  and  S_13 
REMARK    3  A    between atoms: S_13  and  C_14 
REMARK    4  A    between atoms: C_16  and  N_17 
REMARK    5  A    between atoms: N_17  and  C_18 
ROOT
HETATM    1  C   UNL     1      -8.464   0.455 -32.387  1.00  0.00     0.121 C 
ENDROOT
BRANCH   1   2
HETATM    2  C   UNL     1      -7.106   0.732 -31.786  1.00  0.00    -0.029 A 
HETATM    3  C   UNL     1      -5.914  -0.090 -32.213  1.00  0.00     0.016 A 
HETATM    4  C   UNL     1      -5.883  -1.209 -33.147  1.00  0.00    -0.012 A 
HETATM    5  C   UNL     1      -4.685   0.287 -31.632  1.00  0.00     0.091 A 
HETATM    6  C   UNL     1      -4.620  -1.827 -33.425  1.00  0.00    -0.025 A 
HETATM    7  C   UNL     1      -6.976  -1.802 -33.850  1.00  0.00     0.013 A 
HETATM    8  C   UNL     1      -4.500  -2.905 -34.321  1.00  0.00     0.012 A 
HETATM    9  C   UNL     1      -3.447  -1.385 -32.814  1.00  0.00     0.015 A 
HETATM   10  C   UNL     1      -5.603  -3.428 -34.979  1.00  0.00     0.001 A 
HETATM   11  C   UNL     1      -6.845  -2.877 -34.741  1.00  0.00     0.001 A 
HETATM   12  C   UNL     1      -3.475  -0.336 -31.916  1.00  0.00     0.039 A 
HETATM   13  O   UNL     1      -4.553   1.331 -30.694  1.00  0.00    -0.275 OA
HETATM   14  C   UNL     1      -5.635   2.057 -30.270  1.00  0.00     0.288 A 
HETATM   15  O   UNL     1      -5.549   2.956 -29.443  1.00  0.00    -0.260 OA
HETATM   16  C   UNL     1      -6.918   1.707 -30.878  1.00  0.00     0.091 A 
ENDBRANCH   1   2
BRANCH   1  17
HETATM   17  S   UNL     1      -8.874   1.219 -33.985  1.00  0.00    -0.096 SA
BRANCH  17  18
HETATM   18  C   UNL     1      -8.092   2.771 -33.767  1.00  0.00     0.160 A 
HETATM   19  S   UNL     1      -6.485   3.093 -34.249  1.00  0.00    -0.022 SA
HETATM   20  C   UNL     1      -6.710   4.717 -33.689  1.00  0.00     0.195 A 
HETATM   21  N   UNL     1      -7.909   4.913 -33.179  1.00  0.00    -0.123 NA
HETATM   22  N   UNL     1      -8.709   3.794 -33.221  1.00  0.00    -0.133 NA
BRANCH  20  23
HETATM   23  N   UNL     1      -5.699   5.607 -33.813  1.00  0.00    -0.331 N 
HETATM   24  H   UNL     1      -5.936   6.563 -34.061  1.00  0.00     0.168 HD
BRANCH  23  25
HETATM   25  C   UNL     1      -4.318   5.428 -33.590  1.00  0.00     0.073 A 
HETATM   26  C   UNL     1      -3.478   5.281 -34.709  1.00  0.00     0.143 A 
HETATM   27  F   UNL     1      -4.019   5.319 -35.938  1.00  0.00    -0.204 F 
HETATM   28  C   UNL     1      -2.101   5.099 -34.590  1.00  0.00     0.044 A 
HETATM   29  C   UNL     1      -1.525   5.060 -33.325  1.00  0.00     0.003 A 
HETATM   30  C   UNL     1      -2.331   5.201 -32.197  1.00  0.00     0.002 A 
HETATM   31  C   UNL     1      -3.715   5.381 -32.329  1.00  0.00     0.033 A 
ENDBRANCH  23  25
ENDBRANCH  20  23
ENDBRANCH  17  18
ENDBRANCH   1  17
TORSDOF 5
ENDMDL
MODEL 4
REMARK VINA RESULT:      -9.5      4.752      7.996
REMARK  5 active torsions:
REMARK  status: ('A' for Active; 'I' for Inactive)
REMARK    1  A    between atoms: C_11  and  C_12 
REMARK    2  A    between atoms: C_12  and  S_13 
REMARK    3  A    between atoms: S_13  and  C_14 
REMARK    4  A    between atoms: C_16  and  N_17 
REMARK    5  A    between atoms: N_17  and  C_18 
ROOT
HETATM    1  C   UNL     1      -7.196   1.990 -30.416  1.00  0.00     0.121 C 
ENDROOT
BRANCH   1   2
HETATM    2  C   UNL     1      -7.810   1.229 -31.568  1.00  0.00    -0.029 A 
HETATM    3  C   UNL     1      -6.983   0.221 -32.328  1.00  0.00     0.016 A 
HETATM    4  C   UNL     1      -5.579  -0.120 -32.133  1.00  0.00    -0.012 A 
HETATM    5  C   UNL     1      -7.669  -0.471 -33.348  1.00  0.00     0.091 A 
HETATM    6  C   UNL     1      -5.005  -1.137 -32.962  1.00  0.00    -0.025 A 
HETATM    7  C   UNL     1      -4.658   0.442 -31.196  1.00  0.00     0.013 A 
HETATM    8  C   UNL     1      -3.661  -1.533 -32.832  1.00  0.00     0.012 A 
HETATM    9  C   UNL     1      -5.758  -1.782 -33.943  1.00  0.00     0.015 A 
HETATM   10  C   UNL     1      -2.821  -0.953 -31.894  1.00  0.00     0.001 A 
HETATM   11  C   UNL     1      -3.320   0.039 -31.075  1.00  0.00     0.001 A 
HETATM   12  C   UNL     1      -7.083  -1.451 -34.143  1.00  0.00     0.039 A 
HETATM   13  O   UNL     1      -9.020  -0.240 -33.677  1.00  0.00    -0.275 OA
HETATM   14  C   UNL     1      -9.768   0.701 -33.019  1.00  0.00     0.288 A 
HETATM   15  O   UNL     1     -10.937   0.934 -33.298  1.00  0.00    -0.260 OA
HETATM   16  C   UNL     1      -9.091   1.414 -31.937  1.00  0.00     0.091 A 
ENDBRANCH   1   2
BRANCH   1  17
HETATM   17  S   UNL     1      -7.712   3.712 -30.143  1.00  0.00    -0.096 SA
BRANCH  17  18
HETATM   18  C   UNL     1      -6.776   4.492 -31.401  1.00  0.00     0.160 A 
HETATM   19  S   UNL     1      -5.078   4.670 -31.340  1.00  0.00    -0.022 SA
HETATM   20  C   UNL     1      -5.165   5.430 -32.894  1.00  0.00     0.195 A 
HETATM   21  N   UNL     1      -6.401   5.522 -33.342  1.00  0.00    -0.123 NA
HETATM   22  N   UNL     1      -7.333   4.984 -32.484  1.00  0.00    -0.133 NA
BRANCH  20  23
HETATM   23  N   UNL     1      -4.027   5.843 -33.495  1.00  0.00    -0.331 N 
HETATM   24  H   UNL     1      -4.039   5.965 -34.504  1.00  0.00     0.168 HD
BRANCH  23  25
HETATM   25  C   UNL     1      -2.790   6.201 -32.918  1.00  0.00     0.073 A 
HETATM   26  C   UNL     1      -1.806   5.205 -32.786  1.00  0.00     0.143 A 
HETATM   27  F   UNL     1      -2.077   3.961 -33.213  1.00  0.00    -0.204 F 
HETATM   28  C   UNL     1      -0.554   5.462 -32.229  1.00  0.00     0.044 A 
HETATM   29  C   UNL     1      -0.256   6.745 -31.783  1.00  0.00     0.003 A 
HETATM   30  C   UNL     1      -1.212   7.753 -31.899  1.00  0.00     0.002 A 
HETATM   31  C   UNL     1      -2.468   7.483 -32.460  1.00  0.00     0.033 A 
ENDBRANCH  23  25
ENDBRANCH  20  23
ENDBRANCH  17  18
ENDBRANCH   1  17
TORSDOF 5
ENDMDL
MODEL 5
REMARK VINA RESULT:      -9.4      5.471      8.645
REMARK  5 active torsions:
REMARK  status: ('A' for Active; 'I' for Inactive)
REMARK    1  A    between atoms: C_11  and  C_12 
REMARK    2  A    between atoms: C_12  and  S_13 
REMARK    3  A    between atoms: S_13  and  C_14 
REMARK    4  A    between atoms: C_16  and  N_17 
REMARK    5  A    between atoms: N_17  and  C_18 
ROOT
HETATM    1  C   UNL     1      -5.060   0.657 -31.594  1.00  0.00     0.121 C 
ENDROOT
BRANCH   1   2
HETATM    2  C   UNL     1      -5.932   0.350 -32.788  1.00  0.00    -0.029 A 
HETATM    3  C   UNL     1      -5.787  -0.971 -33.505  1.00  0.00     0.016 A 
HETATM    4  C   UNL     1      -4.842  -2.046 -33.224  1.00  0.00    -0.012 A 
HETATM    5  C   UNL     1      -6.687  -1.178 -34.571  1.00  0.00     0.091 A 
HETATM    6  C   UNL     1      -4.906  -3.232 -34.025  1.00  0.00    -0.025 A 
HETATM    7  C   UNL     1      -3.820  -2.083 -32.227  1.00  0.00     0.013 A 
HETATM    8  C   UNL     1      -4.038  -4.319 -33.815  1.00  0.00     0.012 A 
HETATM    9  C   UNL     1      -5.835  -3.360 -35.057  1.00  0.00     0.015 A 
HETATM   10  C   UNL     1      -3.071  -4.295 -32.821  1.00  0.00     0.001 A 
HETATM   11  C   UNL     1      -2.960  -3.173 -32.027  1.00  0.00     0.001 A 
HETATM   12  C   UNL     1      -6.721  -2.339 -35.337  1.00  0.00     0.039 A 
HETATM   13  O   UNL     1      -7.643  -0.227 -34.982  1.00  0.00    -0.275 OA
HETATM   14  C   UNL     1      -7.757   0.990 -34.364  1.00  0.00     0.288 A 
HETATM   15  O   UNL     1      -8.566   1.840 -34.713  1.00  0.00    -0.260 OA
HETATM   16  C   UNL     1      -6.856   1.221 -33.235  1.00  0.00     0.091 A 
ENDBRANCH   1   2
BRANCH   1  17
HETATM   17  S   UNL     1      -5.490   2.084 -30.553  1.00  0.00    -0.096 SA
BRANCH  17  18
HETATM   18  C   UNL     1      -4.163   3.149 -30.969  1.00  0.00     0.160 A 
HETATM   19  S   UNL     1      -4.244   4.851 -30.841  1.00  0.00    -0.022 SA
HETATM   20  C   UNL     1      -2.600   4.906 -31.384  1.00  0.00     0.195 A 
HETATM   21  N   UNL     1      -2.112   3.709 -31.639  1.00  0.00    -0.123 NA
HETATM   22  N   UNL     1      -3.010   2.693 -31.402  1.00  0.00    -0.133 NA
BRANCH  20  23
HETATM   23  N   UNL     1      -1.978   6.102 -31.496  1.00  0.00    -0.331 N 
HETATM   24  H   UNL     1      -1.946   6.536 -32.413  1.00  0.00     0.168 HD
BRANCH  23  25
HETATM   25  C   UNL     1      -1.393   6.903 -30.493  1.00  0.00     0.073 A 
HETATM   26  C   UNL     1      -0.042   6.680 -30.169  1.00  0.00     0.143 A 
HETATM   27  F   UNL     1       0.635   5.723 -30.825  1.00  0.00    -0.204 F 
HETATM   28  C   UNL     1       0.624   7.419 -29.194  1.00  0.00     0.044 A 
HETATM   29  C   UNL     1      -0.061   8.416 -28.507  1.00  0.00     0.003 A 
HETATM   30  C   UNL     1      -1.402   8.659 -28.803  1.00  0.00     0.002 A 
HETATM   31  C   UNL     1      -2.061   7.907 -29.786  1.00  0.00     0.033 A 
ENDBRANCH  23  25
ENDBRANCH  20  23
ENDBRANCH  17  18
ENDBRANCH   1  17
TORSDOF 5
ENDMDL
MODEL 6
REMARK VINA RESULT:      -9.3      2.166      2.978
REMARK  5 active torsions:
REMARK  status: ('A' for Active; 'I' for Inactive)
REMARK    1  A    between atoms: C_11  and  C_12 
REMARK    2  A    between atoms: C_12  and  S_13 
REMARK    3  A    between atoms: S_13  and  C_14 
REMARK    4  A    between atoms: C_16  and  N_17 
REMARK    5  A    between atoms: N_17  and  C_18 
ROOT
HETATM    1  C   UNL     1      -6.198   3.559 -33.998  1.00  0.00     0.121 C 
ENDROOT
BRANCH   1   2
HETATM    2  C   UNL     1      -5.086   3.061 -33.106  1.00  0.00    -0.029 A 
HETATM    3  C   UNL     1      -4.853   1.578 -32.952  1.00  0.00     0.016 A 
HETATM    4  C   UNL     1      -5.616   0.483 -33.541  1.00  0.00    -0.012 A 
HETATM    5  C   UNL     1      -3.756   1.223 -32.139  1.00  0.00     0.091 A 
HETATM    6  C   UNL     1      -5.192  -0.860 -33.277  1.00  0.00    -0.025 A 
HETATM    7  C   UNL     1      -6.773   0.564 -34.374  1.00  0.00     0.013 A 
HETATM    8  C   UNL     1      -5.865  -1.972 -33.813  1.00  0.00     0.012 A 
HETATM    9  C   UNL     1      -4.087  -1.124 -32.468  1.00  0.00     0.015 A 
HETATM   10  C   UNL     1      -6.980  -1.824 -34.625  1.00  0.00     0.001 A 
HETATM   11  C   UNL     1      -7.437  -0.553 -34.904  1.00  0.00     0.001 A 
HETATM   12  C   UNL     1      -3.371  -0.091 -31.895  1.00  0.00     0.039 A 
HETATM   13  O   UNL     1      -2.936   2.161 -31.480  1.00  0.00    -0.275 OA
HETATM   14  C   UNL     1      -3.163   3.509 -31.582  1.00  0.00     0.288 A 
HETATM   15  O   UNL     1      -2.477   4.343 -31.005  1.00  0.00    -0.260 OA
HETATM   16  C   UNL     1      -4.277   3.907 -32.441  1.00  0.00     0.091 A 
ENDBRANCH   1   2
BRANCH   1  17
HETATM   17  S   UNL     1      -7.150   5.014 -33.465  1.00  0.00    -0.096 SA
BRANCH  17  18
HETATM   18  C   UNL     1      -8.727   4.560 -34.075  1.00  0.00     0.160 A 
HETATM   19  S   UNL     1      -9.520   3.107 -33.653  1.00  0.00    -0.022 SA
HETATM   20  C   UNL     1     -10.847   3.618 -34.642  1.00  0.00     0.195 A 
HETATM   21  N   UNL     1     -10.626   4.780 -35.221  1.00  0.00    -0.123 NA
HETATM   22  N   UNL     1      -9.405   5.327 -34.899  1.00  0.00    -0.133 NA
BRANCH  20  23
HETATM   23  N   UNL     1     -11.945   2.833 -34.736  1.00  0.00    -0.331 N 
HETATM   24  H   UNL     1     -12.024   2.222 -35.543  1.00  0.00     0.168 HD
BRANCH  23  25
HETATM   25  C   UNL     1     -13.015   2.679 -33.829  1.00  0.00     0.073 A 
HETATM   26  C   UNL     1     -13.853   1.559 -33.975  1.00  0.00     0.143 A 
HETATM   27  F   UNL     1     -13.603   0.683 -34.963  1.00  0.00    -0.204 F 
HETATM   28  C   UNL     1     -14.934   1.321 -33.129  1.00  0.00     0.044 A 
HETATM   29  C   UNL     1     -15.206   2.216 -32.099  1.00  0.00     0.003 A 
HETATM   30  C   UNL     1     -14.394   3.336 -31.931  1.00  0.00     0.002 A 
HETATM   31  C   UNL     1     -13.310   3.566 -32.789  1.00  0.00     0.033 A 
ENDBRANCH  23  25
ENDBRANCH  20  23
ENDBRANCH  17  18
ENDBRANCH   1  17
TORSDOF 5
ENDMDL
MODEL 7
REMARK VINA RESULT:      -9.2      5.106      8.645
REMARK  5 active torsions:
REMARK  status: ('A' for Active; 'I' for Inactive)
REMARK    1  A    between atoms: C_11  and  C_12 
REMARK    2  A    between atoms: C_12  and  S_13 
REMARK    3  A    between atoms: S_13  and  C_14 
REMARK    4  A    between atoms: C_16  and  N_17 
REMARK    5  A    between atoms: N_17  and  C_18 
ROOT
HETATM    1  C   UNL     1      -5.145   3.875 -31.007  1.00  0.00     0.121 C 
ENDROOT
BRANCH   1   2
HETATM    2  C   UNL     1      -4.868   5.206 -30.349  1.00  0.00    -0.029 A 
HETATM    3  C   UNL     1      -3.861   6.151 -30.959  1.00  0.00     0.016 A 
HETATM    4  C   UNL     1      -3.034   5.941 -32.141  1.00  0.00    -0.012 A 
HETATM    5  C   UNL     1      -3.719   7.387 -30.296  1.00  0.00     0.091 A 
HETATM    6  C   UNL     1      -2.161   6.998 -32.557  1.00  0.00    -0.025 A 
HETATM    7  C   UNL     1      -2.965   4.782 -32.975  1.00  0.00     0.013 A 
HETATM    8  C   UNL     1      -1.336   6.881 -33.690  1.00  0.00     0.012 A 
HETATM    9  C   UNL     1      -2.087   8.197 -31.848  1.00  0.00     0.015 A 
HETATM   10  C   UNL     1      -1.324   5.730 -34.464  1.00  0.00     0.001 A 
HETATM   11  C   UNL     1      -2.139   4.677 -34.103  1.00  0.00     0.001 A 
HETATM   12  C   UNL     1      -2.857   8.394 -30.719  1.00  0.00     0.039 A 
HETATM   13  O   UNL     1      -4.429   7.734 -29.128  1.00  0.00    -0.275 OA
HETATM   14  C   UNL     1      -5.315   6.868 -28.544  1.00  0.00     0.288 A 
HETATM   15  O   UNL     1      -5.929   7.136 -27.519  1.00  0.00    -0.260 OA
HETATM   16  C   UNL     1      -5.505   5.588 -29.227  1.00  0.00     0.091 A 
ENDBRANCH   1   2
BRANCH   1  17
HETATM   17  S   UNL     1      -6.188   2.675 -30.126  1.00  0.00    -0.096 SA
BRANCH  17  18
HETATM   18  C   UNL     1      -6.457   1.527 -31.421  1.00  0.00     0.160 A 
HETATM   19  S   UNL     1      -5.274   1.127 -32.587  1.00  0.00    -0.022 SA
HETATM   20  C   UNL     1      -6.415   0.018 -33.271  1.00  0.00     0.195 A 
HETATM   21  N   UNL     1      -7.568   0.023 -32.634  1.00  0.00    -0.123 NA
HETATM   22  N   UNL     1      -7.597   0.892 -31.567  1.00  0.00    -0.133 NA
BRANCH  20  23
HETATM   23  N   UNL     1      -6.056  -0.726 -34.342  1.00  0.00    -0.331 N 
HETATM   24  H   UNL     1      -5.897  -0.246 -35.223  1.00  0.00     0.168 HD
BRANCH  23  25
HETATM   25  C   UNL     1      -5.802  -2.112 -34.424  1.00  0.00     0.073 A 
HETATM   26  C   UNL     1      -4.519  -2.573 -34.080  1.00  0.00     0.143 A 
HETATM   27  F   UNL     1      -3.591  -1.684 -33.687  1.00  0.00    -0.204 F 
HETATM   28  C   UNL     1      -4.172  -3.922 -34.128  1.00  0.00     0.044 A 
HETATM   29  C   UNL     1      -5.121  -4.856 -34.530  1.00  0.00     0.003 A 
HETATM   30  C   UNL     1      -6.401  -4.430 -34.880  1.00  0.00     0.002 A 
HETATM   31  C   UNL     1      -6.738  -3.070 -34.828  1.00  0.00     0.033 A 
ENDBRANCH  23  25
ENDBRANCH  20  23
ENDBRANCH  17  18
ENDBRANCH   1  17
TORSDOF 5
ENDMDL
MODEL 8
REMARK VINA RESULT:      -9.1      5.139      8.674
REMARK  5 active torsions:
REMARK  status: ('A' for Active; 'I' for Inactive)
REMARK    1  A    between atoms: C_11  and  C_12 
REMARK    2  A    between atoms: C_12  and  S_13 
REMARK    3  A    between atoms: S_13  and  C_14 
REMARK    4  A    between atoms: C_16  and  N_17 
REMARK    5  A    between atoms: N_17  and  C_18 
ROOT
HETATM    1  C   UNL     1      -6.959   2.169 -30.473  1.00  0.00     0.121 C 
ENDROOT
BRANCH   1   2
HETATM    2  C   UNL     1      -7.652   1.413 -31.581  1.00  0.00    -0.029 A 
HETATM    3  C   UNL     1      -6.917   0.322 -32.320  1.00  0.00     0.016 A 
HETATM    4  C   UNL     1      -5.536  -0.111 -32.141  1.00  0.00    -0.012 A 
HETATM    5  C   UNL     1      -7.674  -0.357 -33.298  1.00  0.00     0.091 A 
HETATM    6  C   UNL     1      -5.054  -1.196 -32.943  1.00  0.00    -0.025 A 
HETATM    7  C   UNL     1      -4.556   0.417 -31.246  1.00  0.00     0.013 A 
HETATM    8  C   UNL     1      -3.739  -1.681 -32.827  1.00  0.00     0.012 A 
HETATM    9  C   UNL     1      -5.873  -1.821 -33.883  1.00  0.00     0.015 A 
HETATM   10  C   UNL     1      -2.838  -1.129 -31.930  1.00  0.00     0.001 A 
HETATM   11  C   UNL     1      -3.246  -0.075 -31.139  1.00  0.00     0.001 A 
HETATM   12  C   UNL     1      -7.177  -1.405 -34.067  1.00  0.00     0.039 A 
HETATM   13  O   UNL     1      -9.013  -0.043 -33.607  1.00  0.00    -0.275 OA
HETATM   14  C   UNL     1      -9.677   0.972 -32.969  1.00  0.00     0.288 A 
HETATM   15  O   UNL     1     -10.833   1.277 -33.232  1.00  0.00    -0.260 OA
HETATM   16  C   UNL     1      -8.926   1.674 -31.929  1.00  0.00     0.091 A 
ENDBRANCH   1   2
BRANCH   1  17
HETATM   17  S   UNL     1      -7.113   3.980 -30.433  1.00  0.00    -0.096 SA
BRANCH  17  18
HETATM   18  C   UNL     1      -5.567   4.412 -31.133  1.00  0.00     0.160 A 
HETATM   19  S   UNL     1      -4.553   5.632 -30.499  1.00  0.00    -0.022 SA
HETATM   20  C   UNL     1      -3.418   5.251 -31.752  1.00  0.00     0.195 A 
HETATM   21  N   UNL     1      -3.849   4.293 -32.548  1.00  0.00    -0.123 NA
HETATM   22  N   UNL     1      -5.088   3.808 -32.196  1.00  0.00    -0.133 NA
BRANCH  20  23
HETATM   23  N   UNL     1      -2.246   5.923 -31.812  1.00  0.00    -0.331 N 
HETATM   24  H   UNL     1      -2.017   6.402 -32.678  1.00  0.00     0.168 HD
BRANCH  23  25
HETATM   25  C   UNL     1      -1.276   6.121 -30.806  1.00  0.00     0.073 A 
HETATM   26  C   UNL     1      -1.173   7.398 -30.226  1.00  0.00     0.143 A 
HETATM   27  F   UNL     1      -1.997   8.372 -30.646  1.00  0.00    -0.204 F 
HETATM   28  C   UNL     1      -0.247   7.691 -29.227  1.00  0.00     0.044 A 
HETATM   29  C   UNL     1       0.613   6.693 -28.779  1.00  0.00     0.003 A 
HETATM   30  C   UNL     1       0.535   5.418 -29.336  1.00  0.00     0.002 A 
HETATM   31  C   UNL     1      -0.399   5.135 -30.342  1.00  0.00     0.033 A 
ENDBRANCH  23  25
ENDBRANCH  20  23
ENDBRANCH  17  18
ENDBRANCH   1  17
TORSDOF 5
ENDMDL
MODEL 9
REMARK VINA RESULT:      -9.0      6.219      9.709
REMARK  5 active torsions:
REMARK  status: ('A' for Active; 'I' for Inactive)
REMARK    1  A    between atoms: C_11  and  C_12 
REMARK    2  A    between atoms: C_12  and  S_13 
REMARK    3  A    between atoms: S_13  and  C_14 
REMARK    4  A    between atoms: C_16  and  N_17 
REMARK    5  A    between atoms: N_17  and  C_18 
ROOT
HETATM    1  C   UNL     1      -4.222   2.441 -31.442  1.00  0.00     0.121 C 
ENDROOT
BRANCH   1   2
HETATM    2  C   UNL     1      -5.725   2.571 -31.370  1.00  0.00    -0.029 A 
HETATM    3  C   UNL     1      -6.601   1.528 -32.020  1.00  0.00     0.016 A 
HETATM    4  C   UNL     1      -6.188   0.363 -32.793  1.00  0.00    -0.012 A 
HETATM    5  C   UNL     1      -7.988   1.716 -31.847  1.00  0.00     0.091 A 
HETATM    6  C   UNL     1      -7.203  -0.513 -33.297  1.00  0.00    -0.025 A 
HETATM    7  C   UNL     1      -4.861  -0.043 -33.135  1.00  0.00     0.013 A 
HETATM    8  C   UNL     1      -6.890  -1.664 -34.044  1.00  0.00     0.012 A 
HETATM    9  C   UNL     1      -8.556  -0.260 -33.071  1.00  0.00     0.015 A 
HETATM   10  C   UNL     1      -5.578  -2.007 -34.333  1.00  0.00     0.001 A 
HETATM   11  C   UNL     1      -4.561  -1.193 -33.880  1.00  0.00     0.001 A 
HETATM   12  C   UNL     1      -8.953   0.851 -32.353  1.00  0.00     0.039 A 
HETATM   13  O   UNL     1      -8.548   2.804 -31.146  1.00  0.00    -0.275 OA
HETATM   14  C   UNL     1      -7.762   3.777 -30.586  1.00  0.00     0.288 A 
HETATM   15  O   UNL     1      -8.224   4.741 -29.989  1.00  0.00    -0.260 OA
HETATM   16  C   UNL     1      -6.318   3.593 -30.726  1.00  0.00     0.091 A 
ENDBRANCH   1   2
BRANCH   1  17
HETATM   17  S   UNL     1      -3.329   3.411 -32.694  1.00  0.00    -0.096 SA
BRANCH  17  18
HETATM   18  C   UNL     1      -2.457   4.503 -31.638  1.00  0.00     0.160 A 
HETATM   19  S   UNL     1      -3.200   5.778 -30.777  1.00  0.00    -0.022 SA
HETATM   20  C   UNL     1      -1.648   6.142 -30.101  1.00  0.00     0.195 A 
HETATM   21  N   UNL     1      -0.701   5.342 -30.551  1.00  0.00    -0.123 NA
HETATM   22  N   UNL     1      -1.163   4.397 -31.437  1.00  0.00    -0.133 NA
BRANCH  20  23
HETATM   23  N   UNL     1      -1.532   7.157 -29.215  1.00  0.00    -0.331 N 
HETATM   24  H   UNL     1      -2.324   7.782 -29.102  1.00  0.00     0.168 HD
BRANCH  23  25
HETATM   25  C   UNL     1      -0.465   7.467 -28.346  1.00  0.00     0.073 A 
HETATM   26  C   UNL     1      -0.543   7.024 -27.013  1.00  0.00     0.143 A 
HETATM   27  F   UNL     1      -1.622   6.325 -26.623  1.00  0.00    -0.204 F 
HETATM   28  C   UNL     1       0.459   7.281 -26.080  1.00  0.00     0.044 A 
HETATM   29  C   UNL     1       1.584   8.002 -26.468  1.00  0.00     0.003 A 
HETATM   30  C   UNL     1       1.690   8.456 -27.782  1.00  0.00     0.002 A 
HETATM   31  C   UNL     1       0.674   8.193 -28.711  1.00  0.00     0.033 A 
ENDBRANCH  23  25
ENDBRANCH  20  23
ENDBRANCH  17  18
ENDBRANCH   1  17
TORSDOF 5
ENDMDL
MODEL 10
REMARK VINA RESULT:      -8.8      5.205      8.812
REMARK  5 active torsions:
REMARK  status: ('A' for Active; 'I' for Inactive)
REMARK    1  A    between atoms: C_11  and  C_12 
REMARK    2  A    between atoms: C_12  and  S_13 
REMARK    3  A    between atoms: S_13  and  C_14 
REMARK    4  A    between atoms: C_16  and  N_17 
REMARK    5  A    between atoms: N_17  and  C_18 
ROOT
HETATM    1  C   UNL     1      -4.714   6.014 -31.556  1.00  0.00     0.121 C 
ENDROOT
BRANCH   1   2
HETATM    2  C   UNL     1      -3.333   5.986 -32.168  1.00  0.00    -0.029 A 
HETATM    3  C   UNL     1      -2.141   6.417 -31.350  1.00  0.00     0.016 A 
HETATM    4  C   UNL     1      -2.126   6.930 -29.985  1.00  0.00    -0.012 A 
HETATM    5  C   UNL     1      -0.893   6.300 -31.998  1.00  0.00     0.091 A 
HETATM    6  C   UNL     1      -0.861   7.254 -29.394  1.00  0.00    -0.025 A 
HETATM    7  C   UNL     1      -3.238   7.167 -29.120  1.00  0.00     0.013 A 
HETATM    8  C   UNL     1      -0.757   7.744 -28.080  1.00  0.00     0.012 A 
HETATM    9  C   UNL     1       0.330   7.099 -30.103  1.00  0.00     0.015 A 
HETATM   10  C   UNL     1      -1.878   7.943 -27.288  1.00  0.00     0.001 A 
HETATM   11  C   UNL     1      -3.122   7.657 -27.811  1.00  0.00     0.001 A 
HETATM   12  C   UNL     1       0.320   6.629 -31.401  1.00  0.00     0.039 A 
HETATM   13  O   UNL     1      -0.742   5.845 -33.323  1.00  0.00    -0.275 OA
HETATM   14  C   UNL     1      -1.821   5.488 -34.088  1.00  0.00     0.288 A 
HETATM   15  O   UNL     1      -1.718   5.107 -35.247  1.00  0.00    -0.260 OA
HETATM   16  C   UNL     1      -3.126   5.572 -33.432  1.00  0.00     0.091 A 
ENDBRANCH   1   2
BRANCH   1  17
HETATM   17  S   UNL     1      -6.109   5.387 -32.541  1.00  0.00    -0.096 SA
BRANCH  17  18
HETATM   18  C   UNL     1      -6.187   3.754 -31.914  1.00  0.00     0.160 A 
HETATM   19  S   UNL     1      -6.489   2.383 -32.888  1.00  0.00    -0.022 SA
HETATM   20  C   UNL     1      -6.325   1.413 -31.462  1.00  0.00     0.195 A 
HETATM   21  N   UNL     1      -6.086   2.134 -30.385  1.00  0.00    -0.123 NA
HETATM   22  N   UNL     1      -6.007   3.484 -30.641  1.00  0.00    -0.133 NA
BRANCH  20  23
HETATM   23  N   UNL     1      -6.446   0.069 -31.557  1.00  0.00    -0.331 N 
HETATM   24  H   UNL     1      -6.903  -0.422 -30.794  1.00  0.00     0.168 HD
BRANCH  23  25
HETATM   25  C   UNL     1      -6.075  -0.790 -32.613  1.00  0.00     0.073 A 
HETATM   26  C   UNL     1      -7.073  -1.207 -33.512  1.00  0.00     0.143 A 
HETATM   27  F   UNL     1      -8.331  -0.773 -33.334  1.00  0.00    -0.204 F 
HETATM   28  C   UNL     1      -6.804  -2.054 -34.586  1.00  0.00     0.044 A 
HETATM   29  C   UNL     1      -5.505  -2.511 -34.786  1.00  0.00     0.003 A 
HETATM   30  C   UNL     1      -4.495  -2.117 -33.911  1.00  0.00     0.002 A 
HETATM   31  C   UNL     1      -4.778  -1.265 -32.833  1.00  0.00     0.033 A 
ENDBRANCH  23  25
ENDBRANCH  20  23
ENDBRANCH  17  18
ENDBRANCH   1  17
TORSDOF 5
ENDMDL
