MODEL 1
REMARK VINA RESULT:      -9.0      0.000      0.000
REMARK  4 active torsions:
REMARK  status: ('A' for Active; 'I' for Inactive)
REMARK    1  A    between atoms: O_2  and  C_3 
REMARK    2  A    between atoms: C_8  and  C_9 
REMARK    3  A    between atoms: N_11  and  C_12 
REMARK    4  A    between atoms: C_12  and  C_13 
ROOT
HETATM    1  C   UNL     1      -2.537   6.822 -32.319  1.00  0.00     0.069 A 
HETATM    2  C   UNL     1      -3.544   6.341 -31.485  1.00  0.00     0.056 A 
HETATM    3  C   UNL     1      -3.699   4.965 -31.306  1.00  0.00     0.063 A 
HETATM    4  C   UNL     1      -2.868   4.045 -31.947  1.00  0.00     0.074 A 
HETATM    5  N   UNL     1      -3.017   2.654 -31.798  1.00  0.00    -0.234 NA
HETATM    6  C   UNL     1      -3.957   2.223 -31.018  1.00  0.00     0.113 A 
HETATM    7  N   UNL     1      -4.797   3.064 -30.336  1.00  0.00    -0.310 N 
HETATM    8  C   UNL     1      -4.759   4.429 -30.440  1.00  0.00     0.259 A 
HETATM    9  O   UNL     1      -5.565   5.147 -29.864  1.00  0.00    -0.267 OA
HETATM   10  C   UNL     1      -1.862   4.535 -32.779  1.00  0.00     0.035 A 
HETATM   11  C   UNL     1      -1.694   5.915 -32.966  1.00  0.00     0.039 A 
HETATM   12  H   UNL     1      -5.545   2.705 -29.755  1.00  0.00     0.170 HD
ENDROOT
BRANCH   6  13
HETATM   13  C   UNL     1      -4.170   0.725 -30.842  1.00  0.00     0.082 C 
HETATM   14  C   UNL     1      -4.026  -0.012 -32.162  1.00  0.00     0.139 C 
HETATM   15  N   UNL     1      -5.370   0.004 -32.686  1.00  0.00    -0.347 N 
HETATM   16  C   UNL     1      -6.317   0.098 -31.678  1.00  0.00     0.220 C 
HETATM   17  O   UNL     1      -7.526  -0.006 -31.801  1.00  0.00    -0.273 OA
HETATM   18  C   UNL     1      -5.592   0.393 -30.385  1.00  0.00     0.117 C 
BRANCH  15  19
HETATM   19  C   UNL     1      -5.683  -0.373 -34.052  1.00  0.00     0.164 C 
BRANCH  19  20
HETATM   20  C   UNL     1      -5.668  -1.862 -34.277  1.00  0.00    -0.040 A 
HETATM   21  C   UNL     1      -6.858  -2.540 -34.580  1.00  0.00     0.009 A 
HETATM   22  C   UNL     1      -6.849  -3.915 -34.817  1.00  0.00     0.001 A 
HETATM   23  C   UNL     1      -5.654  -4.627 -34.742  1.00  0.00     0.000 A 
HETATM   24  C   UNL     1      -4.469  -3.968 -34.424  1.00  0.00     0.001 A 
HETATM   25  C   UNL     1      -4.473  -2.591 -34.191  1.00  0.00     0.009 A 
ENDBRANCH  19  20
ENDBRANCH  15  19
ENDBRANCH   6  13
BRANCH   1  26
HETATM   26  O   UNL     1      -2.483   8.184 -32.420  1.00  0.00    -0.356 OA
HETATM   27  C   UNL     1      -2.296   8.917 -31.216  1.00  0.00     0.210 C 
ENDBRANCH   1  26
TORSDOF 4
ENDMDL
MODEL 2
REMARK VINA RESULT:      -8.6      3.089      6.957
REMARK  4 active torsions:
REMARK  status: ('A' for Active; 'I' for Inactive)
REMARK    1  A    between atoms: O_2  and  C_3 
REMARK    2  A    between atoms: C_8  and  C_9 
REMARK    3  A    between atoms: N_11  and  C_12 
REMARK    4  A    between atoms: C_12  and  C_13 
ROOT
HETATM    1  C   UNL     1      -5.129  -2.862 -34.301  1.00  0.00     0.069 A 
HETATM    2  C   UNL     1      -4.171  -2.288 -33.468  1.00  0.00     0.056 A 
HETATM    3  C   UNL     1      -4.301  -0.955 -33.074  1.00  0.00     0.063 A 
HETATM    4  C   UNL     1      -5.374  -0.168 -33.496  1.00  0.00     0.074 A 
HETATM    5  N   UNL     1      -5.517   1.182 -33.128  1.00  0.00    -0.234 NA
HETATM    6  C   UNL     1      -4.619   1.700 -32.352  1.00  0.00     0.113 A 
HETATM    7  N   UNL     1      -3.550   0.986 -31.877  1.00  0.00    -0.310 N 
HETATM    8  C   UNL     1      -3.301  -0.321 -32.204  1.00  0.00     0.259 A 
HETATM    9  O   UNL     1      -2.302  -0.910 -31.811  1.00  0.00    -0.267 OA
HETATM   10  C   UNL     1      -6.330  -0.751 -34.328  1.00  0.00     0.035 A 
HETATM   11  C   UNL     1      -6.212  -2.090 -34.730  1.00  0.00     0.039 A 
HETATM   12  H   UNL     1      -2.843   1.419 -31.296  1.00  0.00     0.170 HD
ENDROOT
BRANCH   6  13
HETATM   13  C   UNL     1      -4.721   3.164 -31.944  1.00  0.00     0.082 C 
HETATM   14  C   UNL     1      -5.960   3.416 -31.102  1.00  0.00     0.139 C 
HETATM   15  N   UNL     1      -6.960   3.738 -32.092  1.00  0.00    -0.347 N 
HETATM   16  C   UNL     1      -6.397   4.262 -33.245  1.00  0.00     0.220 C 
HETATM   17  O   UNL     1      -6.991   4.751 -34.190  1.00  0.00    -0.273 OA
HETATM   18  C   UNL     1      -4.898   4.088 -33.150  1.00  0.00     0.117 C 
BRANCH  15  19
HETATM   19  C   UNL     1      -8.375   3.819 -31.779  1.00  0.00     0.164 C 
BRANCH  19  20
HETATM   20  C   UNL     1      -9.163   2.638 -32.281  1.00  0.00    -0.040 A 
HETATM   21  C   UNL     1     -10.250   2.834 -33.145  1.00  0.00     0.009 A 
HETATM   22  C   UNL     1     -10.969   1.744 -33.638  1.00  0.00     0.001 A 
HETATM   23  C   UNL     1     -10.616   0.450 -33.262  1.00  0.00     0.000 A 
HETATM   24  C   UNL     1      -9.550   0.243 -32.390  1.00  0.00     0.001 A 
HETATM   25  C   UNL     1      -8.825   1.331 -31.900  1.00  0.00     0.009 A 
ENDBRANCH  19  20
ENDBRANCH  15  19
ENDBRANCH   6  13
BRANCH   1  26
HETATM   26  O   UNL     1      -4.894  -4.169 -34.623  1.00  0.00    -0.356 OA
HETATM   27  C   UNL     1      -3.882  -4.846 -33.890  1.00  0.00     0.210 C 
ENDBRANCH   1  26
TORSDOF 4
ENDMDL
MODEL 3
REMARK VINA RESULT:      -8.6      4.050      6.646
REMARK  4 active torsions:
REMARK  status: ('A' for Active; 'I' for Inactive)
REMARK    1  A    between atoms: O_2  and  C_3 
REMARK    2  A    between atoms: C_8  and  C_9 
REMARK    3  A    between atoms: N_11  and  C_12 
REMARK    4  A    between atoms: C_12  and  C_13 
ROOT
HETATM    1  C   UNL     1     -12.211   1.964 -34.819  1.00  0.00     0.069 A 
HETATM    2  C   UNL     1     -11.494   1.181 -33.918  1.00  0.00     0.056 A 
HETATM    3  C   UNL     1     -10.270   1.637 -33.421  1.00  0.00     0.063 A 
HETATM    4  C   UNL     1      -9.737   2.868 -33.806  1.00  0.00     0.074 A 
HETATM    5  N   UNL     1      -8.499   3.340 -33.334  1.00  0.00    -0.234 NA
HETATM    6  C   UNL     1      -7.845   2.601 -32.496  1.00  0.00     0.113 A 
HETATM    7  N   UNL     1      -8.314   1.392 -32.052  1.00  0.00    -0.310 N 
HETATM    8  C   UNL     1      -9.488   0.827 -32.477  1.00  0.00     0.259 A 
HETATM    9  O   UNL     1      -9.846  -0.283 -32.107  1.00  0.00    -0.267 OA
HETATM   10  C   UNL     1     -10.463   3.647 -34.707  1.00  0.00     0.035 A 
HETATM   11  C   UNL     1     -11.693   3.201 -35.213  1.00  0.00     0.039 A 
HETATM   12  H   UNL     1      -7.772   0.816 -31.420  1.00  0.00     0.170 HD
ENDROOT
BRANCH   6  13
HETATM   13  C   UNL     1      -6.490   3.062 -31.974  1.00  0.00     0.082 C 
HETATM   14  C   UNL     1      -5.360   2.565 -32.858  1.00  0.00     0.139 C 
HETATM   15  N   UNL     1      -5.028   1.290 -32.269  1.00  0.00    -0.347 N 
HETATM   16  C   UNL     1      -5.355   1.241 -30.923  1.00  0.00     0.220 C 
HETATM   17  O   UNL     1      -5.069   0.357 -30.134  1.00  0.00    -0.273 OA
HETATM   18  C   UNL     1      -6.171   2.472 -30.598  1.00  0.00     0.117 C 
BRANCH  15  19
HETATM   19  C   UNL     1      -4.161   0.327 -32.922  1.00  0.00     0.164 C 
BRANCH  19  20
HETATM   20  C   UNL     1      -4.912  -0.803 -33.576  1.00  0.00    -0.040 A 
HETATM   21  C   UNL     1      -4.297  -2.052 -33.744  1.00  0.00     0.009 A 
HETATM   22  C   UNL     1      -4.995  -3.113 -34.323  1.00  0.00     0.001 A 
HETATM   23  C   UNL     1      -6.309  -2.932 -34.751  1.00  0.00     0.000 A 
HETATM   24  C   UNL     1      -6.924  -1.690 -34.606  1.00  0.00     0.001 A 
HETATM   25  C   UNL     1      -6.230  -0.628 -34.022  1.00  0.00     0.009 A 
ENDBRANCH  19  20
ENDBRANCH  15  19
ENDBRANCH   6  13
BRANCH   1  26
HETATM   26  O   UNL     1     -13.389   1.414 -35.239  1.00  0.00    -0.356 OA
HETATM   27  C   UNL     1     -14.397   1.212 -34.258  1.00  0.00     0.210 C 
ENDBRANCH   1  26
TORSDOF 4
ENDMDL
MODEL 4
REMARK VINA RESULT:      -8.5      1.258      2.296
REMARK  4 active torsions:
REMARK  status: ('A' for Active; 'I' for Inactive)
REMARK    1  A    between atoms: O_2  and  C_3 
REMARK    2  A    between atoms: C_8  and  C_9 
REMARK    3  A    between atoms: N_11  and  C_12 
REMARK    4  A    between atoms: C_12  and  C_13 
ROOT
HETATM    1  C   UNL     1      -4.428   6.927 -30.420  1.00  0.00     0.069 A 
HETATM    2  C   UNL     1      -3.599   5.981 -31.019  1.00  0.00     0.056 A 
HETATM    3  C   UNL     1      -3.926   4.625 -30.944  1.00  0.00     0.063 A 
HETATM    4  C   UNL     1      -5.070   4.183 -30.276  1.00  0.00     0.074 A 
HETATM    5  N   UNL     1      -5.410   2.822 -30.171  1.00  0.00    -0.234 NA
HETATM    6  C   UNL     1      -4.631   1.955 -30.733  1.00  0.00     0.113 A 
HETATM    7  N   UNL     1      -3.503   2.312 -31.425  1.00  0.00    -0.310 N 
HETATM    8  C   UNL     1      -3.066   3.603 -31.556  1.00  0.00     0.259 A 
HETATM    9  O   UNL     1      -2.020   3.880 -32.129  1.00  0.00    -0.267 OA
HETATM   10  C   UNL     1      -5.895   5.138 -29.682  1.00  0.00     0.035 A 
HETATM   11  C   UNL     1      -5.579   6.503 -29.752  1.00  0.00     0.039 A 
HETATM   12  H   UNL     1      -2.891   1.615 -31.832  1.00  0.00     0.170 HD
ENDROOT
BRANCH   6  13
HETATM   13  C   UNL     1      -4.948   0.469 -30.627  1.00  0.00     0.082 C 
HETATM   14  C   UNL     1      -4.481  -0.283 -31.861  1.00  0.00     0.139 C 
HETATM   15  N   UNL     1      -5.629  -0.215 -32.733  1.00  0.00    -0.347 N 
HETATM   16  C   UNL     1      -6.810  -0.072 -32.021  1.00  0.00     0.220 C 
HETATM   17  O   UNL     1      -7.943  -0.127 -32.470  1.00  0.00    -0.273 OA
HETATM   18  C   UNL     1      -6.453   0.202 -30.578  1.00  0.00     0.117 C 
BRANCH  15  19
HETATM   19  C   UNL     1      -5.573  -0.589 -34.134  1.00  0.00     0.164 C 
BRANCH  19  20
HETATM   20  C   UNL     1      -5.605  -2.078 -34.354  1.00  0.00    -0.040 A 
HETATM   21  C   UNL     1      -4.427  -2.832 -34.239  1.00  0.00     0.009 A 
HETATM   22  C   UNL     1      -4.452  -4.216 -34.414  1.00  0.00     0.001 A 
HETATM   23  C   UNL     1      -5.651  -4.859 -34.717  1.00  0.00     0.000 A 
HETATM   24  C   UNL     1      -6.823  -4.119 -34.851  1.00  0.00     0.001 A 
HETATM   25  C   UNL     1      -6.803  -2.734 -34.672  1.00  0.00     0.009 A 
ENDBRANCH  19  20
ENDBRANCH  15  19
ENDBRANCH   6  13
BRANCH   1  26
HETATM   26  O   UNL     1      -4.005   8.220 -30.556  1.00  0.00    -0.356 OA
HETATM   27  C   UNL     1      -2.780   8.433 -31.245  1.00  0.00     0.210 C 
ENDBRANCH   1  26
TORSDOF 4
ENDMDL
MODEL 5
REMARK VINA RESULT:      -8.5      3.093      8.989
REMARK  4 active torsions:
REMARK  status: ('A' for Active; 'I' for Inactive)
REMARK    1  A    between atoms: O_2  and  C_3 
REMARK    2  A    between atoms: C_8  and  C_9 
REMARK    3  A    between atoms: N_11  and  C_12 
REMARK    4  A    between atoms: C_12  and  C_13 
ROOT
HETATM    1  C   UNL     1      -6.183   1.413 -32.656  1.00  0.00     0.069 A 
HETATM    2  C   UNL     1      -5.915   2.596 -33.343  1.00  0.00     0.056 A 
HETATM    3  C   UNL     1      -4.712   3.270 -33.121  1.00  0.00     0.063 A 
HETATM    4  C   UNL     1      -3.760   2.791 -32.220  1.00  0.00     0.074 A 
HETATM    5  N   UNL     1      -2.550   3.462 -31.966  1.00  0.00    -0.234 NA
HETATM    6  C   UNL     1      -2.315   4.559 -32.612  1.00  0.00     0.113 A 
HETATM    7  N   UNL     1      -3.190   5.080 -33.530  1.00  0.00    -0.310 N 
HETATM    8  C   UNL     1      -4.407   4.524 -33.824  1.00  0.00     0.259 A 
HETATM    9  O   UNL     1      -5.190   5.050 -34.603  1.00  0.00    -0.267 OA
HETATM   10  C   UNL     1      -4.036   1.606 -31.539  1.00  0.00     0.035 A 
HETATM   11  C   UNL     1      -5.239   0.918 -31.753  1.00  0.00     0.039 A 
HETATM   12  H   UNL     1      -2.999   5.955 -34.003  1.00  0.00     0.170 HD
ENDROOT
BRANCH   6  13
HETATM   13  C   UNL     1      -1.027   5.331 -32.355  1.00  0.00     0.082 C 
HETATM   14  C   UNL     1      -0.879   5.681 -30.884  1.00  0.00     0.139 C 
HETATM   15  N   UNL     1      -1.534   6.963 -30.791  1.00  0.00    -0.347 N 
HETATM   16  C   UNL     1      -1.516   7.643 -31.999  1.00  0.00     0.220 C 
HETATM   17  O   UNL     1      -1.863   8.795 -32.194  1.00  0.00    -0.273 OA
HETATM   18  C   UNL     1      -1.017   6.688 -33.061  1.00  0.00     0.117 C 
BRANCH  15  19
HETATM   19  C   UNL     1      -1.860   7.587 -29.522  1.00  0.00     0.164 C 
BRANCH  19  20
HETATM   20  C   UNL     1      -0.726   7.546 -28.531  1.00  0.00    -0.040 A 
HETATM   21  C   UNL     1       0.420   8.327 -28.740  1.00  0.00     0.009 A 
HETATM   22  C   UNL     1       1.463   8.317 -27.813  1.00  0.00     0.001 A 
HETATM   23  C   UNL     1       1.377   7.516 -26.677  1.00  0.00     0.000 A 
HETATM   24  C   UNL     1       0.252   6.722 -26.467  1.00  0.00     0.001 A 
HETATM   25  C   UNL     1      -0.796   6.734 -27.390  1.00  0.00     0.009 A 
ENDBRANCH  19  20
ENDBRANCH  15  19
ENDBRANCH   6  13
BRANCH   1  26
HETATM   26  O   UNL     1      -7.391   0.846 -32.952  1.00  0.00    -0.356 OA
HETATM   27  C   UNL     1      -8.356   0.793 -31.909  1.00  0.00     0.210 C 
ENDBRANCH   1  26
TORSDOF 4
ENDMDL
MODEL 6
REMARK VINA RESULT:      -8.4      4.639      7.848
REMARK  4 active torsions:
REMARK  status: ('A' for Active; 'I' for Inactive)
REMARK    1  A    between atoms: O_2  and  C_3 
REMARK    2  A    between atoms: C_8  and  C_9 
REMARK    3  A    between atoms: N_11  and  C_12 
REMARK    4  A    between atoms: C_12  and  C_13 
ROOT
HETATM    1  C   UNL     1      -4.795  -2.831 -34.189  1.00  0.00     0.069 A 
HETATM    2  C   UNL     1      -4.539  -1.977 -33.118  1.00  0.00     0.056 A 
HETATM    3  C   UNL     1      -5.514  -1.064 -32.710  1.00  0.00     0.063 A 
HETATM    4  C   UNL     1      -6.752  -0.979 -33.351  1.00  0.00     0.074 A 
HETATM    5  N   UNL     1      -7.742  -0.055 -32.970  1.00  0.00    -0.234 NA
HETATM    6  C   UNL     1      -7.489   0.731 -31.973  1.00  0.00     0.113 A 
HETATM    7  N   UNL     1      -6.308   0.692 -31.279  1.00  0.00    -0.310 N 
HETATM    8  C   UNL     1      -5.268  -0.144 -31.591  1.00  0.00     0.259 A 
HETATM    9  O   UNL     1      -4.204  -0.109 -30.989  1.00  0.00    -0.267 OA
HETATM   10  C   UNL     1      -7.000  -1.839 -34.420  1.00  0.00     0.035 A 
HETATM   11  C   UNL     1      -6.030  -2.762 -34.839  1.00  0.00     0.039 A 
HETATM   12  H   UNL     1      -6.120   1.337 -30.521  1.00  0.00     0.170 HD
ENDROOT
BRANCH   6  13
HETATM   13  C   UNL     1      -8.523   1.762 -31.538  1.00  0.00     0.082 C 
HETATM   14  C   UNL     1      -9.884   1.468 -32.146  1.00  0.00     0.139 C 
HETATM   15  N   UNL     1      -9.844   2.198 -33.390  1.00  0.00    -0.347 N 
HETATM   16  C   UNL     1      -8.974   3.276 -33.330  1.00  0.00     0.220 C 
HETATM   17  O   UNL     1      -8.835   4.150 -34.169  1.00  0.00    -0.273 OA
HETATM   18  C   UNL     1      -8.187   3.166 -32.043  1.00  0.00     0.117 C 
BRANCH  15  19
HETATM   19  C   UNL     1     -10.836   2.022 -34.435  1.00  0.00     0.164 C 
BRANCH  19  20
HETATM   20  C   UNL     1     -12.239   1.884 -33.905  1.00  0.00    -0.040 A 
HETATM   21  C   UNL     1     -12.987   0.732 -34.188  1.00  0.00     0.009 A 
HETATM   22  C   UNL     1     -14.278   0.583 -33.679  1.00  0.00     0.001 A 
HETATM   23  C   UNL     1     -14.837   1.589 -32.893  1.00  0.00     0.000 A 
HETATM   24  C   UNL     1     -14.110   2.745 -32.621  1.00  0.00     0.001 A 
HETATM   25  C   UNL     1     -12.817   2.895 -33.125  1.00  0.00     0.009 A 
ENDBRANCH  19  20
ENDBRANCH  15  19
ENDBRANCH   6  13
BRANCH   1  26
HETATM   26  O   UNL     1      -3.767  -3.677 -34.500  1.00  0.00    -0.356 OA
HETATM   27  C   UNL     1      -3.473  -4.711 -33.569  1.00  0.00     0.210 C 
ENDBRANCH   1  26
TORSDOF 4
ENDMDL
MODEL 7
REMARK VINA RESULT:      -8.2      2.252      7.360
REMARK  4 active torsions:
REMARK  status: ('A' for Active; 'I' for Inactive)
REMARK    1  A    between atoms: O_2  and  C_3 
REMARK    2  A    between atoms: C_8  and  C_9 
REMARK    3  A    between atoms: N_11  and  C_12 
REMARK    4  A    between atoms: C_12  and  C_13 
ROOT
HETATM    1  C   UNL     1      -4.852  -2.456 -34.160  1.00  0.00     0.069 A 
HETATM    2  C   UNL     1      -4.437  -1.721 -33.052  1.00  0.00     0.056 A 
HETATM    3  C   UNL     1      -5.247  -0.698 -32.553  1.00  0.00     0.063 A 
HETATM    4  C   UNL     1      -6.475  -0.385 -33.139  1.00  0.00     0.074 A 
HETATM    5  N   UNL     1      -7.300   0.652 -32.666  1.00  0.00    -0.234 NA
HETATM    6  C   UNL     1      -6.900   1.325 -31.635  1.00  0.00     0.113 A 
HETATM    7  N   UNL     1      -5.720   1.062 -30.991  1.00  0.00    -0.310 N 
HETATM    8  C   UNL     1      -4.830   0.100 -31.392  1.00  0.00     0.259 A 
HETATM    9  O   UNL     1      -3.756  -0.067 -30.830  1.00  0.00    -0.267 OA
HETATM   10  C   UNL     1      -6.884  -1.127 -34.247  1.00  0.00     0.035 A 
HETATM   11  C   UNL     1      -6.080  -2.158 -34.757  1.00  0.00     0.039 A 
HETATM   12  H   UNL     1      -5.412   1.620 -30.204  1.00  0.00     0.170 HD
ENDROOT
BRANCH   6  13
HETATM   13  C   UNL     1      -7.750   2.470 -31.100  1.00  0.00     0.082 C 
HETATM   14  C   UNL     1      -7.639   3.699 -31.985  1.00  0.00     0.139 C 
HETATM   15  N   UNL     1      -6.521   4.409 -31.410  1.00  0.00    -0.347 N 
HETATM   16  C   UNL     1      -6.356   4.111 -30.066  1.00  0.00     0.220 C 
HETATM   17  O   UNL     1      -5.593   4.655 -29.286  1.00  0.00    -0.273 OA
HETATM   18  C   UNL     1      -7.271   2.954 -29.730  1.00  0.00     0.117 C 
BRANCH  15  19
HETATM   19  C   UNL     1      -5.882   5.532 -32.070  1.00  0.00     0.164 C 
BRANCH  19  20
HETATM   20  C   UNL     1      -4.589   5.165 -32.750  1.00  0.00    -0.040 A 
HETATM   21  C   UNL     1      -4.387   5.490 -34.099  1.00  0.00     0.009 A 
HETATM   22  C   UNL     1      -3.182   5.179 -34.731  1.00  0.00     0.001 A 
HETATM   23  C   UNL     1      -2.173   4.528 -34.023  1.00  0.00     0.000 A 
HETATM   24  C   UNL     1      -2.369   4.184 -32.688  1.00  0.00     0.001 A 
HETATM   25  C   UNL     1      -3.571   4.499 -32.052  1.00  0.00     0.009 A 
ENDBRANCH  19  20
ENDBRANCH  15  19
ENDBRANCH   6  13
BRANCH   1  26
HETATM   26  O   UNL     1      -3.977  -3.425 -34.560  1.00  0.00    -0.356 OA
HETATM   27  C   UNL     1      -3.698  -4.470 -33.637  1.00  0.00     0.210 C 
ENDBRANCH   1  26
TORSDOF 4
ENDMDL
MODEL 8
REMARK VINA RESULT:      -8.0      2.173      2.969
REMARK  4 active torsions:
REMARK  status: ('A' for Active; 'I' for Inactive)
REMARK    1  A    between atoms: O_2  and  C_3 
REMARK    2  A    between atoms: C_8  and  C_9 
REMARK    3  A    between atoms: N_11  and  C_12 
REMARK    4  A    between atoms: C_12  and  C_13 
ROOT
HETATM    1  C   UNL     1      -2.614   5.440 -33.042  1.00  0.00     0.069 A 
HETATM    2  C   UNL     1      -2.608   4.181 -32.446  1.00  0.00     0.056 A 
HETATM    3  C   UNL     1      -3.814   3.582 -32.075  1.00  0.00     0.063 A 
HETATM    4  C   UNL     1      -5.040   4.216 -32.283  1.00  0.00     0.074 A 
HETATM    5  N   UNL     1      -6.266   3.641 -31.901  1.00  0.00    -0.234 NA
HETATM    6  C   UNL     1      -6.244   2.470 -31.349  1.00  0.00     0.113 A 
HETATM    7  N   UNL     1      -5.083   1.775 -31.133  1.00  0.00    -0.310 N 
HETATM    8  C   UNL     1      -3.837   2.259 -31.435  1.00  0.00     0.259 A 
HETATM    9  O   UNL     1      -2.817   1.637 -31.171  1.00  0.00    -0.267 OA
HETATM   10  C   UNL     1      -5.037   5.475 -32.883  1.00  0.00     0.035 A 
HETATM   11  C   UNL     1      -3.833   6.086 -33.262  1.00  0.00     0.039 A 
HETATM   12  H   UNL     1      -5.086   0.874 -30.672  1.00  0.00     0.170 HD
ENDROOT
BRANCH   6  13
HETATM   13  C   UNL     1      -7.545   1.818 -30.900  1.00  0.00     0.082 C 
HETATM   14  C   UNL     1      -7.635   0.380 -31.378  1.00  0.00     0.139 C 
HETATM   15  N   UNL     1      -8.274   0.508 -32.665  1.00  0.00    -0.347 N 
HETATM   16  C   UNL     1      -9.056   1.650 -32.743  1.00  0.00     0.220 C 
HETATM   17  O   UNL     1      -9.819   1.952 -33.644  1.00  0.00    -0.273 OA
HETATM   18  C   UNL     1      -8.772   2.491 -31.519  1.00  0.00     0.117 C 
BRANCH  15  19
HETATM   19  C   UNL     1      -8.352  -0.587 -33.614  1.00  0.00     0.164 C 
BRANCH  19  20
HETATM   20  C   UNL     1      -7.020  -1.234 -33.888  1.00  0.00    -0.040 A 
HETATM   21  C   UNL     1      -5.832  -0.532 -33.633  1.00  0.00     0.009 A 
HETATM   22  C   UNL     1      -4.593  -1.133 -33.857  1.00  0.00     0.001 A 
HETATM   23  C   UNL     1      -4.528  -2.435 -34.349  1.00  0.00     0.000 A 
HETATM   24  C   UNL     1      -5.701  -3.135 -34.623  1.00  0.00     0.001 A 
HETATM   25  C   UNL     1      -6.943  -2.539 -34.395  1.00  0.00     0.009 A 
ENDBRANCH  19  20
ENDBRANCH  15  19
ENDBRANCH   6  13
BRANCH   1  26
HETATM   26  O   UNL     1      -1.376   5.925 -33.358  1.00  0.00    -0.356 OA
HETATM   27  C   UNL     1      -0.922   5.730 -34.690  1.00  0.00     0.210 C 
ENDBRANCH   1  26
TORSDOF 4
ENDMDL
MODEL 9
REMARK VINA RESULT:      -7.8     16.656     17.889
REMARK  4 active torsions:
REMARK  status: ('A' for Active; 'I' for Inactive)
REMARK    1  A    between atoms: O_2  and  C_3 
REMARK    2  A    between atoms: C_8  and  C_9 
REMARK    3  A    between atoms: N_11  and  C_12 
REMARK    4  A    between atoms: C_12  and  C_13 
ROOT
HETATM    1  C   UNL     1      -0.245 -14.343 -39.445  1.00  0.00     0.069 A 
HETATM    2  C   UNL     1      -1.085 -14.422 -40.554  1.00  0.00     0.056 A 
HETATM    3  C   UNL     1      -2.372 -13.883 -40.491  1.00  0.00     0.063 A 
HETATM    4  C   UNL     1      -2.850 -13.263 -39.336  1.00  0.00     0.074 A 
HETATM    5  N   UNL     1      -4.149 -12.730 -39.242  1.00  0.00    -0.234 NA
HETATM    6  C   UNL     1      -4.916 -12.810 -40.281  1.00  0.00     0.113 A 
HETATM    7  N   UNL     1      -4.511 -13.383 -41.459  1.00  0.00    -0.310 N 
HETATM    8  C   UNL     1      -3.282 -13.961 -41.642  1.00  0.00     0.259 A 
HETATM    9  O   UNL     1      -2.976 -14.519 -42.687  1.00  0.00    -0.267 OA
HETATM   10  C   UNL     1      -2.002 -13.187 -38.231  1.00  0.00     0.035 A 
HETATM   11  C   UNL     1      -0.707 -13.722 -38.282  1.00  0.00     0.039 A 
HETATM   12  H   UNL     1      -5.138 -13.462 -42.250  1.00  0.00     0.170 HD
ENDROOT
BRANCH   6  13
HETATM   13  C   UNL     1      -6.337 -12.266 -40.219  1.00  0.00     0.082 C 
HETATM   14  C   UNL     1      -6.864 -12.260 -38.795  1.00  0.00     0.139 C 
HETATM   15  N   UNL     1      -7.477 -13.562 -38.675  1.00  0.00    -0.347 N 
HETATM   16  C   UNL     1      -7.887 -14.056 -39.903  1.00  0.00     0.220 C 
HETATM   17  O   UNL     1      -8.555 -15.056 -40.101  1.00  0.00    -0.273 OA
HETATM   18  C   UNL     1      -7.328 -13.151 -40.978  1.00  0.00     0.117 C 
BRANCH  15  19
HETATM   19  C   UNL     1      -7.907 -14.111 -37.402  1.00  0.00     0.164 C 
BRANCH  19  20
HETATM   20  C   UNL     1      -6.821 -14.114 -36.359  1.00  0.00    -0.040 A 
HETATM   21  C   UNL     1      -7.045 -13.520 -35.108  1.00  0.00     0.009 A 
HETATM   22  C   UNL     1      -6.055 -13.543 -34.125  1.00  0.00     0.001 A 
HETATM   23  C   UNL     1      -4.827 -14.147 -34.387  1.00  0.00     0.000 A 
HETATM   24  C   UNL     1      -4.586 -14.724 -35.632  1.00  0.00     0.001 A 
HETATM   25  C   UNL     1      -5.576 -14.707 -36.616  1.00  0.00     0.009 A 
ENDBRANCH  19  20
ENDBRANCH  15  19
ENDBRANCH   6  13
BRANCH   1  26
HETATM   26  O   UNL     1       0.987 -14.906 -39.623  1.00  0.00    -0.356 OA
HETATM   27  C   UNL     1       1.951 -14.696 -38.600  1.00  0.00     0.210 C 
ENDBRANCH   1  26
TORSDOF 4
ENDMDL
MODEL 10
REMARK VINA RESULT:      -7.8      3.714      8.885
REMARK  4 active torsions:
REMARK  status: ('A' for Active; 'I' for Inactive)
REMARK    1  A    between atoms: O_2  and  C_3 
REMARK    2  A    between atoms: C_8  and  C_9 
REMARK    3  A    between atoms: N_11  and  C_12 
REMARK    4  A    between atoms: C_12  and  C_13 
ROOT
HETATM    1  C   UNL     1      -7.329   3.169 -33.131  1.00  0.00     0.069 A 
HETATM    2  C   UNL     1      -6.339   2.625 -32.315  1.00  0.00     0.056 A 
HETATM    3  C   UNL     1      -5.093   3.249 -32.224  1.00  0.00     0.063 A 
HETATM    4  C   UNL     1      -4.804   4.415 -32.936  1.00  0.00     0.074 A 
HETATM    5  N   UNL     1      -3.551   5.051 -32.875  1.00  0.00    -0.234 NA
HETATM    6  C   UNL     1      -2.642   4.533 -32.112  1.00  0.00     0.113 A 
HETATM    7  N   UNL     1      -2.857   3.405 -31.365  1.00  0.00    -0.310 N 
HETATM    8  C   UNL     1      -4.027   2.692 -31.380  1.00  0.00     0.259 A 
HETATM    9  O   UNL     1      -4.163   1.654 -30.747  1.00  0.00    -0.267 OA
HETATM   10  C   UNL     1      -5.802   4.953 -33.748  1.00  0.00     0.035 A 
HETATM   11  C   UNL     1      -7.058   4.337 -33.847  1.00  0.00     0.039 A 
HETATM   12  H   UNL     1      -2.122   3.000 -30.797  1.00  0.00     0.170 HD
ENDROOT
BRANCH   6  13
HETATM   13  C   UNL     1      -1.263   5.176 -32.031  1.00  0.00     0.082 C 
HETATM   14  C   UNL     1      -1.010   5.766 -30.655  1.00  0.00     0.139 C 
HETATM   15  N   UNL     1      -1.508   7.115 -30.788  1.00  0.00    -0.347 N 
HETATM   16  C   UNL     1      -1.463   7.555 -32.102  1.00  0.00     0.220 C 
HETATM   17  O   UNL     1      -1.683   8.686 -32.500  1.00  0.00    -0.273 OA
HETATM   18  C   UNL     1      -1.126   6.370 -32.978  1.00  0.00     0.117 C 
BRANCH  15  19
HETATM   19  C   UNL     1      -1.702   7.994 -29.650  1.00  0.00     0.164 C 
BRANCH  19  20
HETATM   20  C   UNL     1      -0.722   7.747 -28.533  1.00  0.00    -0.040 A 
HETATM   21  C   UNL     1       0.585   8.248 -28.620  1.00  0.00     0.009 A 
HETATM   22  C   UNL     1       1.491   8.048 -27.578  1.00  0.00     0.001 A 
HETATM   23  C   UNL     1       1.104   7.335 -26.445  1.00  0.00     0.000 A 
HETATM   24  C   UNL     1      -0.186   6.817 -26.356  1.00  0.00     0.001 A 
HETATM   25  C   UNL     1      -1.097   7.020 -27.394  1.00  0.00     0.009 A 
ENDBRANCH  19  20
ENDBRANCH  15  19
ENDBRANCH   6  13
BRANCH   1  26
HETATM   26  O   UNL     1      -8.503   2.471 -33.143  1.00  0.00    -0.356 OA
HETATM   27  C   UNL     1      -9.586   3.034 -33.872  1.00  0.00     0.210 C 
ENDBRANCH   1  26
TORSDOF 4
ENDMDL
