MODEL 1
REMARK VINA RESULT:      -8.7      0.000      0.000
REMARK  4 active torsions:
REMARK  status: ('A' for Active; 'I' for Inactive)
REMARK    1  A    between atoms: C_2  and  C_3 
REMARK    2  A    between atoms: C_7  and  N_8 
REMARK       I    between atoms: N_8  and  C_9 
REMARK    3  A    between atoms: C_9  and  C_10 
REMARK    4  A    between atoms: C_12  and  C_13 
ROOT
HETATM    1  C   UNL     1      -5.063   1.582 -32.757  1.00  0.00     0.149 A 
HETATM    2  N   UNL     1      -4.768   0.227 -32.810  1.00  0.00    -0.223 NA
HETATM    3  C   UNL     1      -5.611  -0.314 -33.673  1.00  0.00     0.139 A 
HETATM    4  N   UNL     1      -6.451   0.659 -34.167  1.00  0.00    -0.342 N 
HETATM    5  H   UNL     1      -7.193   0.509 -34.836  1.00  0.00     0.167 HD
HETATM    6  C   UNL     1      -6.118   1.864 -33.603  1.00  0.00     0.041 A 
HETATM    7  C   UNL     1      -6.820   3.128 -33.922  1.00  0.00     0.071 C 
ENDROOT
BRANCH   1   8
HETATM    8  C   UNL     1      -4.319   2.517 -31.908  1.00  0.00     0.278 C 
HETATM    9  N   UNL     1      -3.475   3.323 -32.649  1.00  0.00    -0.306 N 
HETATM   10  H   UNL     1      -3.469   3.174 -33.655  1.00  0.00     0.170 HD
HETATM   11  O   UNL     1      -4.445   2.567 -30.685  1.00  0.00    -0.265 OA
BRANCH   9  12
HETATM   12  C   UNL     1      -2.689   4.302 -32.083  1.00  0.00     0.126 A 
HETATM   13  N   UNL     1      -3.006   4.981 -30.937  1.00  0.00    -0.262 N 
HETATM   14  N   UNL     1      -2.091   5.904 -30.586  1.00  0.00    -0.178 NA
HETATM   15  H   UNL     1      -3.836   4.855 -30.363  1.00  0.00     0.191 HD
HETATM   16  C   UNL     1      -1.155   5.802 -31.538  1.00  0.00     0.058 A 
HETATM   17  C   UNL     1      -1.483   4.811 -32.497  1.00  0.00     0.079 A 
BRANCH  16  18
HETATM   18  C   UNL     1       0.050   6.682 -31.508  1.00  0.00     0.056 C 
HETATM   19  C   UNL     1       0.449   7.072 -30.094  1.00  0.00     0.011 C 
ENDBRANCH  16  18
ENDBRANCH   9  12
ENDBRANCH   1   8
BRANCH   3  20
HETATM   20  C   UNL     1      -5.657  -1.732 -34.052  1.00  0.00     0.012 A 
HETATM   21  C   UNL     1      -4.529  -2.536 -33.822  1.00  0.00     0.039 A 
HETATM   22  C   UNL     1      -4.533  -3.886 -34.172  1.00  0.00     0.035 A 
HETATM   23 CL   UNL     1      -3.137  -4.849 -33.878  1.00  0.00    -0.084 Cl
HETATM   24  C   UNL     1      -5.657  -4.461 -34.757  1.00  0.00     0.024 A 
HETATM   25  C   UNL     1      -6.785  -3.678 -34.995  1.00  0.00     0.003 A 
HETATM   26  C   UNL     1      -6.785  -2.322 -34.645  1.00  0.00     0.015 A 
ENDBRANCH   3  20
TORSDOF 4
ENDMDL
MODEL 2
REMARK VINA RESULT:      -8.3      3.247      8.693
REMARK  4 active torsions:
REMARK  status: ('A' for Active; 'I' for Inactive)
REMARK    1  A    between atoms: C_2  and  C_3 
REMARK    2  A    between atoms: C_7  and  N_8 
REMARK       I    between atoms: N_8  and  C_9 
REMARK    3  A    between atoms: C_9  and  C_10 
REMARK    4  A    between atoms: C_12  and  C_13 
ROOT
HETATM    1  C   UNL     1      -3.930   2.071 -31.471  1.00  0.00     0.149 A 
HETATM    2  N   UNL     1      -2.841   2.787 -31.948  1.00  0.00    -0.223 NA
HETATM    3  C   UNL     1      -2.961   4.019 -31.483  1.00  0.00     0.139 A 
HETATM    4  N   UNL     1      -4.108   4.117 -30.730  1.00  0.00    -0.342 N 
HETATM    5  H   UNL     1      -4.438   4.952 -30.269  1.00  0.00     0.167 HD
HETATM    6  C   UNL     1      -4.733   2.896 -30.706  1.00  0.00     0.041 A 
HETATM    7  C   UNL     1      -5.996   2.646 -29.975  1.00  0.00     0.071 C 
ENDROOT
BRANCH   1   8
HETATM    8  C   UNL     1      -4.131   0.651 -31.771  1.00  0.00     0.278 C 
HETATM    9  N   UNL     1      -4.787   0.467 -32.974  1.00  0.00    -0.306 N 
HETATM   10  H   UNL     1      -5.047   1.308 -33.483  1.00  0.00     0.170 HD
HETATM   11  O   UNL     1      -3.750  -0.258 -31.033  1.00  0.00    -0.265 OA
BRANCH   9  12
HETATM   12  C   UNL     1      -5.069  -0.778 -33.489  1.00  0.00     0.126 A 
HETATM   13  N   UNL     1      -4.125  -1.727 -33.777  1.00  0.00    -0.262 N 
HETATM   14  N   UNL     1      -4.638  -2.861 -34.289  1.00  0.00    -0.178 NA
HETATM   15  H   UNL     1      -3.119  -1.645 -33.649  1.00  0.00     0.191 HD
HETATM   16  C   UNL     1      -5.957  -2.629 -34.319  1.00  0.00     0.058 A 
HETATM   17  C   UNL     1      -6.276  -1.339 -33.826  1.00  0.00     0.079 A 
BRANCH  16  18
HETATM   18  C   UNL     1      -6.894  -3.667 -34.838  1.00  0.00     0.056 C 
HETATM   19  C   UNL     1      -6.165  -4.852 -35.453  1.00  0.00     0.011 C 
ENDBRANCH  16  18
ENDBRANCH   9  12
ENDBRANCH   1   8
BRANCH   3  20
HETATM   20  C   UNL     1      -2.023   5.122 -31.730  1.00  0.00     0.012 A 
HETATM   21  C   UNL     1      -1.273   5.632 -30.657  1.00  0.00     0.039 A 
HETATM   22  C   UNL     1      -0.376   6.682 -30.850  1.00  0.00     0.035 A 
HETATM   23 CL   UNL     1       0.531   7.287 -29.519  1.00  0.00    -0.084 Cl
HETATM   24  C   UNL     1      -0.208   7.244 -32.112  1.00  0.00     0.024 A 
HETATM   25  C   UNL     1      -0.945   6.753 -33.188  1.00  0.00     0.003 A 
HETATM   26  C   UNL     1      -1.847   5.699 -32.998  1.00  0.00     0.015 A 
ENDBRANCH   3  20
TORSDOF 4
ENDMDL
MODEL 3
REMARK VINA RESULT:      -8.1      3.127      4.739
REMARK  4 active torsions:
REMARK  status: ('A' for Active; 'I' for Inactive)
REMARK    1  A    between atoms: C_2  and  C_3 
REMARK    2  A    between atoms: C_7  and  N_8 
REMARK       I    between atoms: N_8  and  C_9 
REMARK    3  A    between atoms: C_9  and  C_10 
REMARK    4  A    between atoms: C_12  and  C_13 
ROOT
HETATM    1  C   UNL     1      -2.058   4.384 -31.813  1.00  0.00     0.149 A 
HETATM    2  N   UNL     1      -2.740   3.243 -31.412  1.00  0.00    -0.223 NA
HETATM    3  C   UNL     1      -3.653   2.999 -32.337  1.00  0.00     0.139 A 
HETATM    4  N   UNL     1      -3.584   3.964 -33.317  1.00  0.00    -0.342 N 
HETATM    5  H   UNL     1      -4.177   4.015 -34.133  1.00  0.00     0.167 HD
HETATM    6  C   UNL     1      -2.580   4.845 -33.006  1.00  0.00     0.041 A 
HETATM    7  C   UNL     1      -2.228   6.005 -33.857  1.00  0.00     0.071 C 
ENDROOT
BRANCH   1   8
HETATM    8  C   UNL     1      -0.954   4.954 -31.036  1.00  0.00     0.278 C 
HETATM    9  N   UNL     1      -1.411   5.715 -29.977  1.00  0.00    -0.306 N 
HETATM   10  H   UNL     1      -2.420   5.790 -29.871  1.00  0.00     0.170 HD
HETATM   11  O   UNL     1       0.232   4.764 -31.305  1.00  0.00    -0.265 OA
BRANCH   9  12
HETATM   12  C   UNL     1      -0.567   6.335 -29.082  1.00  0.00     0.126 A 
HETATM   13  N   UNL     1      -0.260   5.843 -27.842  1.00  0.00    -0.262 N 
HETATM   14  N   UNL     1       0.574   6.633 -27.140  1.00  0.00    -0.178 NA
HETATM   15  H   UNL     1      -0.599   4.979 -27.428  1.00  0.00     0.191 HD
HETATM   16  C   UNL     1       0.813   7.659 -27.967  1.00  0.00     0.058 A 
HETATM   17  C   UNL     1       0.123   7.517 -29.196  1.00  0.00     0.079 A 
BRANCH  16  18
HETATM   18  C   UNL     1       1.707   8.775 -27.544  1.00  0.00     0.056 C 
HETATM   19  C   UNL     1       2.154   8.646 -26.096  1.00  0.00     0.011 C 
ENDBRANCH  16  18
ENDBRANCH   9  12
ENDBRANCH   1   8
BRANCH   3  20
HETATM   20  C   UNL     1      -4.602   1.879 -32.330  1.00  0.00     0.012 A 
HETATM   21  C   UNL     1      -5.604   1.828 -33.313  1.00  0.00     0.039 A 
HETATM   22  C   UNL     1      -6.527   0.783 -33.336  1.00  0.00     0.035 A 
HETATM   23 CL   UNL     1      -7.745   0.744 -34.551  1.00  0.00    -0.084 Cl
HETATM   24  C   UNL     1      -6.470  -0.231 -32.384  1.00  0.00     0.024 A 
HETATM   25  C   UNL     1      -5.484  -0.196 -31.401  1.00  0.00     0.003 A 
HETATM   26  C   UNL     1      -4.556   0.852 -31.374  1.00  0.00     0.015 A 
ENDBRANCH   3  20
TORSDOF 4
ENDMDL
MODEL 4
REMARK VINA RESULT:      -8.0      6.253      9.543
REMARK  4 active torsions:
REMARK  status: ('A' for Active; 'I' for Inactive)
REMARK    1  A    between atoms: C_2  and  C_3 
REMARK    2  A    between atoms: C_7  and  N_8 
REMARK       I    between atoms: N_8  and  C_9 
REMARK    3  A    between atoms: C_9  and  C_10 
REMARK    4  A    between atoms: C_12  and  C_13 
ROOT
HETATM    1  C   UNL     1     -10.671   1.769 -34.211  1.00  0.00     0.149 A 
HETATM    2  N   UNL     1      -9.909   0.651 -33.899  1.00  0.00    -0.223 NA
HETATM    3  C   UNL     1      -8.649   1.047 -33.858  1.00  0.00     0.139 A 
HETATM    4  N   UNL     1      -8.579   2.390 -34.150  1.00  0.00    -0.342 N 
HETATM    5  H   UNL     1      -7.732   2.938 -34.194  1.00  0.00     0.167 HD
HETATM    6  C   UNL     1      -9.846   2.865 -34.372  1.00  0.00     0.041 A 
HETATM    7  C   UNL     1     -10.135   4.280 -34.703  1.00  0.00     0.071 C 
ENDROOT
BRANCH   1   8
HETATM    8  C   UNL     1     -12.131   1.718 -34.331  1.00  0.00     0.278 C 
HETATM    9  N   UNL     1     -12.754   1.939 -33.117  1.00  0.00    -0.306 N 
HETATM   10  H   UNL     1     -12.147   2.099 -32.316  1.00  0.00     0.170 HD
HETATM   11  O   UNL     1     -12.716   1.507 -35.393  1.00  0.00    -0.265 OA
BRANCH   9  12
HETATM   12  C   UNL     1     -14.123   1.968 -32.974  1.00  0.00     0.126 A 
HETATM   13  N   UNL     1     -15.002   1.340 -33.816  1.00  0.00    -0.262 N 
HETATM   14  N   UNL     1     -16.292   1.525 -33.483  1.00  0.00    -0.178 NA
HETATM   15  H   UNL     1     -14.769   0.781 -34.633  1.00  0.00     0.191 HD
HETATM   16  C   UNL     1     -16.233   2.290 -32.386  1.00  0.00     0.058 A 
HETATM   17  C   UNL     1     -14.896   2.592 -32.026  1.00  0.00     0.079 A 
BRANCH  16  18
HETATM   18  C   UNL     1     -17.485   2.728 -31.703  1.00  0.00     0.056 C 
HETATM   19  C   UNL     1     -18.464   3.397 -32.656  1.00  0.00     0.011 C 
ENDBRANCH  16  18
ENDBRANCH   9  12
ENDBRANCH   1   8
BRANCH   3  20
HETATM   20  C   UNL     1      -7.492   0.194 -33.554  1.00  0.00     0.012 A 
HETATM   21  C   UNL     1      -7.213  -0.899 -34.391  1.00  0.00     0.039 A 
HETATM   22  C   UNL     1      -6.126  -1.734 -34.132  1.00  0.00     0.035 A 
HETATM   23 CL   UNL     1      -5.806  -3.067 -35.172  1.00  0.00    -0.084 Cl
HETATM   24  C   UNL     1      -5.298  -1.498 -33.039  1.00  0.00     0.024 A 
HETATM   25  C   UNL     1      -5.561  -0.419 -32.198  1.00  0.00     0.003 A 
HETATM   26  C   UNL     1      -6.651   0.421 -32.453  1.00  0.00     0.015 A 
ENDBRANCH   3  20
TORSDOF 4
ENDMDL
MODEL 5
REMARK VINA RESULT:      -7.9      4.514      7.819
REMARK  4 active torsions:
REMARK  status: ('A' for Active; 'I' for Inactive)
REMARK    1  A    between atoms: C_2  and  C_3 
REMARK    2  A    between atoms: C_7  and  N_8 
REMARK       I    between atoms: N_8  and  C_9 
REMARK    3  A    between atoms: C_9  and  C_10 
REMARK    4  A    between atoms: C_12  and  C_13 
ROOT
HETATM    1  C   UNL     1      -8.140   1.287 -33.115  1.00  0.00     0.149 A 
HETATM    2  N   UNL     1      -7.860  -0.068 -33.234  1.00  0.00    -0.223 NA
HETATM    3  C   UNL     1      -6.580  -0.168 -33.548  1.00  0.00     0.139 A 
HETATM    4  N   UNL     1      -6.032   1.091 -33.648  1.00  0.00    -0.342 N 
HETATM    5  H   UNL     1      -5.072   1.295 -33.885  1.00  0.00     0.167 HD
HETATM    6  C   UNL     1      -7.000   2.023 -33.375  1.00  0.00     0.041 A 
HETATM    7  C   UNL     1      -6.746   3.482 -33.385  1.00  0.00     0.071 C 
ENDROOT
BRANCH   1   8
HETATM    8  C   UNL     1      -9.470   1.787 -32.760  1.00  0.00     0.278 C 
HETATM    9  N   UNL     1     -10.422   1.427 -33.696  1.00  0.00    -0.306 N 
HETATM   10  H   UNL     1     -10.096   0.883 -34.491  1.00  0.00     0.170 HD
HETATM   11  O   UNL     1      -9.697   2.444 -31.744  1.00  0.00    -0.265 OA
BRANCH   9  12
HETATM   12  C   UNL     1     -11.753   1.756 -33.573  1.00  0.00     0.126 A 
HETATM   13  N   UNL     1     -12.224   3.033 -33.424  1.00  0.00    -0.262 N 
HETATM   14  N   UNL     1     -13.563   3.104 -33.306  1.00  0.00    -0.178 NA
HETATM   15  H   UNL     1     -11.671   3.886 -33.391  1.00  0.00     0.191 HD
HETATM   16  C   UNL     1     -13.959   1.828 -33.392  1.00  0.00     0.058 A 
HETATM   17  C   UNL     1     -12.863   0.946 -33.562  1.00  0.00     0.079 A 
BRANCH  16  18
HETATM   18  C   UNL     1     -15.406   1.480 -33.298  1.00  0.00     0.056 C 
HETATM   19  C   UNL     1     -16.117   2.243 -32.190  1.00  0.00     0.011 C 
ENDBRANCH  16  18
ENDBRANCH   9  12
ENDBRANCH   1   8
BRANCH   3  20
HETATM   20  C   UNL     1      -5.846  -1.421 -33.763  1.00  0.00     0.012 A 
HETATM   21  C   UNL     1      -6.414  -2.412 -34.581  1.00  0.00     0.039 A 
HETATM   22  C   UNL     1      -5.750  -3.617 -34.806  1.00  0.00     0.035 A 
HETATM   23 CL   UNL     1      -6.468  -4.814 -35.812  1.00  0.00    -0.084 Cl
HETATM   24  C   UNL     1      -4.510  -3.860 -34.224  1.00  0.00     0.024 A 
HETATM   25  C   UNL     1      -3.932  -2.889 -33.408  1.00  0.00     0.003 A 
HETATM   26  C   UNL     1      -4.596  -1.678 -33.179  1.00  0.00     0.015 A 
ENDBRANCH   3  20
TORSDOF 4
ENDMDL
MODEL 6
REMARK VINA RESULT:      -7.6      5.752      8.617
REMARK  4 active torsions:
REMARK  status: ('A' for Active; 'I' for Inactive)
REMARK    1  A    between atoms: C_2  and  C_3 
REMARK    2  A    between atoms: C_7  and  N_8 
REMARK       I    between atoms: N_8  and  C_9 
REMARK    3  A    between atoms: C_9  and  C_10 
REMARK    4  A    between atoms: C_12  and  C_13 
ROOT
HETATM    1  C   UNL     1      -8.958   1.572 -34.146  1.00  0.00     0.149 A 
HETATM    2  N   UNL     1     -10.209   0.973 -34.110  1.00  0.00    -0.223 NA
HETATM    3  C   UNL     1     -11.082   1.926 -33.832  1.00  0.00     0.139 A 
HETATM    4  N   UNL     1     -10.420   3.123 -33.675  1.00  0.00    -0.342 N 
HETATM    5  H   UNL     1     -10.852   4.007 -33.450  1.00  0.00     0.167 HD
HETATM    6  C   UNL     1      -9.078   2.921 -33.873  1.00  0.00     0.041 A 
HETATM    7  C   UNL     1      -8.074   4.006 -33.787  1.00  0.00     0.071 C 
ENDROOT
BRANCH   1   8
HETATM    8  C   UNL     1      -7.734   0.821 -34.441  1.00  0.00     0.278 C 
HETATM    9  N   UNL     1      -7.749  -0.434 -33.862  1.00  0.00    -0.306 N 
HETATM   10  H   UNL     1      -8.574  -0.675 -33.318  1.00  0.00     0.170 HD
HETATM   11  O   UNL     1      -6.815   1.267 -35.127  1.00  0.00    -0.265 OA
BRANCH   9  12
HETATM   12  C   UNL     1      -6.725  -1.341 -34.016  1.00  0.00     0.126 A 
HETATM   13  N   UNL     1      -5.396  -1.032 -33.899  1.00  0.00    -0.262 N 
HETATM   14  N   UNL     1      -4.578  -2.081 -34.109  1.00  0.00    -0.178 NA
HETATM   15  H   UNL     1      -4.998  -0.121 -33.685  1.00  0.00     0.191 HD
HETATM   16  C   UNL     1      -5.417  -3.094 -34.359  1.00  0.00     0.058 A 
HETATM   17  C   UNL     1      -6.772  -2.682 -34.310  1.00  0.00     0.079 A 
BRANCH  16  18
HETATM   18  C   UNL     1      -4.887  -4.457 -34.653  1.00  0.00     0.056 C 
HETATM   19  C   UNL     1      -3.682  -4.810 -33.794  1.00  0.00     0.011 C 
ENDBRANCH  16  18
ENDBRANCH   9  12
ENDBRANCH   1   8
BRANCH   3  20
HETATM   20  C   UNL     1     -12.534   1.749 -33.705  1.00  0.00     0.012 A 
HETATM   21  C   UNL     1     -13.265   2.657 -32.921  1.00  0.00     0.039 A 
HETATM   22  C   UNL     1     -14.645   2.519 -32.772  1.00  0.00     0.035 A 
HETATM   23 CL   UNL     1     -15.517   3.645 -31.807  1.00  0.00    -0.084 Cl
HETATM   24  C   UNL     1     -15.322   1.478 -33.399  1.00  0.00     0.024 A 
HETATM   25  C   UNL     1     -14.613   0.566 -34.179  1.00  0.00     0.003 A 
HETATM   26  C   UNL     1     -13.228   0.701 -34.330  1.00  0.00     0.015 A 
ENDBRANCH   3  20
TORSDOF 4
ENDMDL
MODEL 7
REMARK VINA RESULT:      -7.5      3.518      6.438
REMARK  4 active torsions:
REMARK  status: ('A' for Active; 'I' for Inactive)
REMARK    1  A    between atoms: C_2  and  C_3 
REMARK    2  A    between atoms: C_7  and  N_8 
REMARK       I    between atoms: N_8  and  C_9 
REMARK    3  A    between atoms: C_9  and  C_10 
REMARK    4  A    between atoms: C_12  and  C_13 
ROOT
HETATM    1  C   UNL     1      -7.099   1.042 -33.224  1.00  0.00     0.149 A 
HETATM    2  N   UNL     1      -7.349  -0.262 -33.629  1.00  0.00    -0.223 NA
HETATM    3  C   UNL     1      -6.175  -0.859 -33.741  1.00  0.00     0.139 A 
HETATM    4  N   UNL     1      -5.174   0.033 -33.430  1.00  0.00    -0.342 N 
HETATM    5  H   UNL     1      -4.184  -0.168 -33.445  1.00  0.00     0.167 HD
HETATM    6  C   UNL     1      -5.737   1.238 -33.097  1.00  0.00     0.041 A 
HETATM    7  C   UNL     1      -4.941   2.422 -32.700  1.00  0.00     0.071 C 
ENDROOT
BRANCH   1   8
HETATM    8  C   UNL     1      -8.172   2.010 -32.981  1.00  0.00     0.278 C 
HETATM    9  N   UNL     1      -9.238   1.823 -33.841  1.00  0.00    -0.306 N 
HETATM   10  H   UNL     1      -9.151   1.067 -34.516  1.00  0.00     0.170 HD
HETATM   11  O   UNL     1      -8.116   2.877 -32.109  1.00  0.00    -0.265 OA
BRANCH   9  12
HETATM   12  C   UNL     1     -10.380   2.590 -33.794  1.00  0.00     0.126 A 
HETATM   13  N   UNL     1     -11.252   2.614 -32.738  1.00  0.00    -0.262 N 
HETATM   14  N   UNL     1     -12.307   3.428 -32.928  1.00  0.00    -0.178 NA
HETATM   15  H   UNL     1     -11.174   2.089 -31.871  1.00  0.00     0.191 HD
HETATM   16  C   UNL     1     -12.094   3.947 -34.144  1.00  0.00     0.058 A 
HETATM   17  C   UNL     1     -10.899   3.455 -34.726  1.00  0.00     0.079 A 
BRANCH  16  18
HETATM   18  C   UNL     1     -13.066   4.913 -34.732  1.00  0.00     0.056 C 
HETATM   19  C   UNL     1     -12.392   6.176 -35.246  1.00  0.00     0.011 C 
ENDBRANCH  16  18
ENDBRANCH   9  12
ENDBRANCH   1   8
BRANCH   3  20
HETATM   20  C   UNL     1      -5.959  -2.256 -34.138  1.00  0.00     0.012 A 
HETATM   21  C   UNL     1      -4.729  -2.867 -33.842  1.00  0.00     0.039 A 
HETATM   22  C   UNL     1      -4.485  -4.190 -34.206  1.00  0.00     0.035 A 
HETATM   23 CL   UNL     1      -2.970  -4.915 -33.831  1.00  0.00    -0.084 Cl
HETATM   24  C   UNL     1      -5.457  -4.931 -34.871  1.00  0.00     0.024 A 
HETATM   25  C   UNL     1      -6.683  -4.341 -35.175  1.00  0.00     0.003 A 
HETATM   26  C   UNL     1      -6.932  -3.013 -34.811  1.00  0.00     0.015 A 
ENDBRANCH   3  20
TORSDOF 4
ENDMDL
MODEL 8
REMARK VINA RESULT:      -7.4      3.373      6.686
REMARK  4 active torsions:
REMARK  status: ('A' for Active; 'I' for Inactive)
REMARK    1  A    between atoms: C_2  and  C_3 
REMARK    2  A    between atoms: C_7  and  N_8 
REMARK       I    between atoms: N_8  and  C_9 
REMARK    3  A    between atoms: C_9  and  C_10 
REMARK    4  A    between atoms: C_12  and  C_13 
ROOT
HETATM    1  C   UNL     1      -6.465   1.546 -33.493  1.00  0.00     0.149 A 
HETATM    2  N   UNL     1      -6.501   0.216 -33.890  1.00  0.00    -0.223 NA
HETATM    3  C   UNL     1      -5.378  -0.339 -33.467  1.00  0.00     0.139 A 
HETATM    4  N   UNL     1      -4.613   0.605 -32.820  1.00  0.00    -0.342 N 
HETATM    5  H   UNL     1      -3.705   0.444 -32.410  1.00  0.00     0.167 HD
HETATM    6  C   UNL     1      -5.284   1.801 -32.822  1.00  0.00     0.041 A 
HETATM    7  C   UNL     1      -4.747   3.033 -32.199  1.00  0.00     0.071 C 
ENDROOT
BRANCH   1   8
HETATM    8  C   UNL     1      -7.557   2.481 -33.776  1.00  0.00     0.278 C 
HETATM    9  N   UNL     1      -8.789   1.855 -33.753  1.00  0.00    -0.306 N 
HETATM   10  H   UNL     1      -8.789   0.857 -33.555  1.00  0.00     0.170 HD
HETATM   11  O   UNL     1      -7.382   3.679 -34.000  1.00  0.00    -0.265 OA
BRANCH   9  12
HETATM   12  C   UNL     1      -9.973   2.526 -33.962  1.00  0.00     0.126 A 
HETATM   13  N   UNL     1     -10.258   3.261 -35.082  1.00  0.00    -0.262 N 
HETATM   14  N   UNL     1     -11.472   3.840 -35.052  1.00  0.00    -0.178 NA
HETATM   15  H   UNL     1      -9.655   3.402 -35.888  1.00  0.00     0.191 HD
HETATM   16  C   UNL     1     -11.982   3.453 -33.876  1.00  0.00     0.058 A 
HETATM   17  C   UNL     1     -11.081   2.627 -33.158  1.00  0.00     0.079 A 
BRANCH  16  18
HETATM   18  C   UNL     1     -13.342   3.902 -33.459  1.00  0.00     0.056 C 
HETATM   19  C   UNL     1     -14.079   2.847 -32.648  1.00  0.00     0.011 C 
ENDBRANCH  16  18
ENDBRANCH   9  12
ENDBRANCH   1   8
BRANCH   3  20
HETATM   20  C   UNL     1      -4.992  -1.743 -33.657  1.00  0.00     0.012 A 
HETATM   21  C   UNL     1      -5.766  -2.554 -34.504  1.00  0.00     0.039 A 
HETATM   22  C   UNL     1      -5.434  -3.893 -34.706  1.00  0.00     0.035 A 
HETATM   23 CL   UNL     1      -6.398  -4.865 -35.749  1.00  0.00    -0.084 Cl
HETATM   24  C   UNL     1      -4.329  -4.451 -34.070  1.00  0.00     0.024 A 
HETATM   25  C   UNL     1      -3.551  -3.662 -33.224  1.00  0.00     0.003 A 
HETATM   26  C   UNL     1      -3.881  -2.317 -33.019  1.00  0.00     0.015 A 
ENDBRANCH   3  20
TORSDOF 4
ENDMDL
MODEL 9
REMARK VINA RESULT:      -7.3      4.042      5.183
REMARK  4 active torsions:
REMARK  status: ('A' for Active; 'I' for Inactive)
REMARK    1  A    between atoms: C_2  and  C_3 
REMARK    2  A    between atoms: C_7  and  N_8 
REMARK       I    between atoms: N_8  and  C_9 
REMARK    3  A    between atoms: C_9  and  C_10 
REMARK    4  A    between atoms: C_12  and  C_13 
ROOT
HETATM    1  C   UNL     1      -6.952   1.482 -32.387  1.00  0.00     0.149 A 
HETATM    2  N   UNL     1      -8.173   2.061 -32.706  1.00  0.00    -0.223 NA
HETATM    3  C   UNL     1      -8.938   1.097 -33.189  1.00  0.00     0.139 A 
HETATM    4  N   UNL     1      -8.235  -0.086 -33.202  1.00  0.00    -0.342 N 
HETATM    5  H   UNL     1      -8.586  -0.973 -33.532  1.00  0.00     0.167 HD
HETATM    6  C   UNL     1      -6.979   0.136 -32.696  1.00  0.00     0.041 A 
HETATM    7  C   UNL     1      -5.961  -0.931 -32.559  1.00  0.00     0.071 C 
ENDROOT
BRANCH   1   8
HETATM    8  C   UNL     1      -5.845   2.248 -31.808  1.00  0.00     0.278 C 
HETATM    9  N   UNL     1      -4.863   2.518 -32.742  1.00  0.00    -0.306 N 
HETATM   10  H   UNL     1      -5.018   2.162 -33.682  1.00  0.00     0.170 HD
HETATM   11  O   UNL     1      -5.812   2.604 -30.631  1.00  0.00    -0.265 OA
BRANCH   9  12
HETATM   12  C   UNL     1      -3.733   3.248 -32.449  1.00  0.00     0.126 A 
HETATM   13  N   UNL     1      -3.032   3.150 -31.277  1.00  0.00    -0.262 N 
HETATM   14  N   UNL     1      -1.971   3.975 -31.212  1.00  0.00    -0.178 NA
HETATM   15  H   UNL     1      -3.242   2.540 -30.490  1.00  0.00     0.191 HD
HETATM   16  C   UNL     1      -1.992   4.615 -32.388  1.00  0.00     0.058 A 
HETATM   17  C   UNL     1      -3.075   4.192 -33.199  1.00  0.00     0.079 A 
BRANCH  16  18
HETATM   18  C   UNL     1      -0.959   5.642 -32.707  1.00  0.00     0.056 C 
HETATM   19  C   UNL     1      -0.257   6.166 -31.463  1.00  0.00     0.011 C 
ENDBRANCH  16  18
ENDBRANCH   9  12
ENDBRANCH   1   8
BRANCH   3  20
HETATM   20  C   UNL     1     -10.325   1.253 -33.647  1.00  0.00     0.012 A 
HETATM   21  C   UNL     1     -10.648   2.331 -34.488  1.00  0.00     0.039 A 
HETATM   22  C   UNL     1     -11.953   2.514 -34.941  1.00  0.00     0.035 A 
HETATM   23 CL   UNL     1     -12.322   3.843 -35.971  1.00  0.00    -0.084 Cl
HETATM   24  C   UNL     1     -12.962   1.631 -34.568  1.00  0.00     0.024 A 
HETATM   25  C   UNL     1     -12.660   0.557 -33.732  1.00  0.00     0.003 A 
HETATM   26  C   UNL     1     -11.350   0.369 -33.275  1.00  0.00     0.015 A 
ENDBRANCH   3  20
TORSDOF 4
ENDMDL
MODEL 10
REMARK VINA RESULT:      -7.3      1.975      2.975
REMARK  4 active torsions:
REMARK  status: ('A' for Active; 'I' for Inactive)
REMARK    1  A    between atoms: C_2  and  C_3 
REMARK    2  A    between atoms: C_7  and  N_8 
REMARK       I    between atoms: N_8  and  C_9 
REMARK    3  A    between atoms: C_9  and  C_10 
REMARK    4  A    between atoms: C_12  and  C_13 
ROOT
HETATM    1  C   UNL     1      -3.867   3.873 -32.431  1.00  0.00     0.149 A 
HETATM    2  N   UNL     1      -4.011   2.495 -32.514  1.00  0.00    -0.223 NA
HETATM    3  C   UNL     1      -5.215   2.266 -33.011  1.00  0.00     0.139 A 
HETATM    4  N   UNL     1      -5.854   3.463 -33.238  1.00  0.00    -0.342 N 
HETATM    5  H   UNL     1      -6.788   3.569 -33.606  1.00  0.00     0.167 HD
HETATM    6  C   UNL     1      -5.018   4.491 -32.881  1.00  0.00     0.041 A 
HETATM    7  C   UNL     1      -5.391   5.919 -33.006  1.00  0.00     0.071 C 
ENDROOT
BRANCH   1   8
HETATM    8  C   UNL     1      -2.644   4.508 -31.933  1.00  0.00     0.278 C 
HETATM    9  N   UNL     1      -2.883   5.268 -30.803  1.00  0.00    -0.306 N 
HETATM   10  H   UNL     1      -3.843   5.298 -30.469  1.00  0.00     0.170 HD
HETATM   11  O   UNL     1      -1.544   4.367 -32.466  1.00  0.00    -0.265 OA
BRANCH   9  12
HETATM   12  C   UNL     1      -1.887   5.942 -30.132  1.00  0.00     0.126 A 
HETATM   13  N   UNL     1      -0.652   5.420 -29.854  1.00  0.00    -0.262 N 
HETATM   14  N   UNL     1       0.147   6.261 -29.172  1.00  0.00    -0.178 NA
HETATM   15  H   UNL     1      -0.311   4.495 -30.103  1.00  0.00     0.191 HD
HETATM   16  C   UNL     1      -0.602   7.360 -29.018  1.00  0.00     0.058 A 
HETATM   17  C   UNL     1      -1.884   7.210 -29.604  1.00  0.00     0.079 A 
BRANCH  16  18
HETATM   18  C   UNL     1      -0.063   8.546 -28.291  1.00  0.00     0.056 C 
HETATM   19  C   UNL     1       1.381   8.352 -27.854  1.00  0.00     0.011 C 
ENDBRANCH  16  18
ENDBRANCH   9  12
ENDBRANCH   1   8
BRANCH   3  20
HETATM   20  C   UNL     1      -5.793   0.943 -33.281  1.00  0.00     0.012 A 
HETATM   21  C   UNL     1      -4.935  -0.161 -33.418  1.00  0.00     0.039 A 
HETATM   22  C   UNL     1      -5.445  -1.432 -33.679  1.00  0.00     0.035 A 
HETATM   23 CL   UNL     1      -4.372  -2.767 -33.842  1.00  0.00    -0.084 Cl
HETATM   24  C   UNL     1      -6.817  -1.629 -33.808  1.00  0.00     0.024 A 
HETATM   25  C   UNL     1      -7.683  -0.545 -33.677  1.00  0.00     0.003 A 
HETATM   26  C   UNL     1      -7.174   0.732 -33.416  1.00  0.00     0.015 A 
ENDBRANCH   3  20
TORSDOF 4
ENDMDL
