MODEL 1
REMARK VINA RESULT:      -8.8      0.000      0.000
REMARK  4 active torsions:
REMARK  status: ('A' for Active; 'I' for Inactive)
REMARK    1  A    between atoms: O_2  and  C_3 
REMARK    2  A    between atoms: C_7  and  C_8 
REMARK       I    between atoms: C_8  and  N_9 
REMARK    3  A    between atoms: N_9  and  C_10 
REMARK    4  A    between atoms: C_12  and  C_13 
ROOT
HETATM    1  C   UNL     1      -5.092   2.200 -31.862  1.00  0.00     0.254 C 
HETATM    2  N   UNL     1      -5.203   1.900 -33.204  1.00  0.00    -0.323 N 
HETATM    3  O   UNL     1      -5.561   1.552 -30.933  1.00  0.00    -0.268 OA
HETATM    4  H   UNL     1      -4.710   2.496 -33.854  1.00  0.00     0.169 HD
ENDROOT
BRANCH   1   5
HETATM    5  C   UNL     1      -4.247   3.401 -31.556  1.00  0.00     0.035 C 
HETATM    6  C   UNL     1      -3.071   3.655 -32.149  1.00  0.00     0.029 C 
HETATM    7  C   UNL     1      -2.336   4.838 -31.713  1.00  0.00     0.001 A 
HETATM    8  C   UNL     1      -2.958   5.791 -30.897  1.00  0.00     0.112 A 
HETATM    9  C   UNL     1      -1.014   5.039 -32.124  1.00  0.00     0.014 A 
HETATM   10  C   UNL     1      -2.275   6.959 -30.516  1.00  0.00     0.102 A 
HETATM   11  O   UNL     1      -4.259   5.656 -30.488  1.00  0.00    -0.343 OA
HETATM   12  C   UNL     1      -0.949   7.138 -30.919  1.00  0.00     0.040 A 
HETATM   13  C   UNL     1      -0.321   6.180 -31.719  1.00  0.00     0.004 A 
HETATM   14  C   UNL     1      -4.837   4.343 -30.541  1.00  0.00     0.220 C 
BRANCH  10  15
HETATM   15  O   UNL     1      -2.973   7.844 -29.732  1.00  0.00    -0.353 OA
HETATM   16  C   UNL     1      -2.550   7.984 -28.383  1.00  0.00     0.210 C 
ENDBRANCH  10  15
ENDBRANCH   1   5
BRANCH   2  17
HETATM   17  C   UNL     1      -5.891   0.815 -33.792  1.00  0.00     0.035 A 
HETATM   18  C   UNL     1      -5.427  -0.505 -33.790  1.00  0.00     0.042 A 
HETATM   19  C   UNL     1      -6.147  -1.535 -34.423  1.00  0.00    -0.021 A 
HETATM   20  C   UNL     1      -7.365  -1.219 -35.039  1.00  0.00     0.012 A 
HETATM   21  C   UNL     1      -7.844   0.091 -35.036  1.00  0.00     0.003 A 
HETATM   22  C   UNL     1      -7.106   1.103 -34.422  1.00  0.00     0.029 A 
BRANCH  19  23
HETATM   23  C   UNL     1      -5.644  -2.904 -34.456  1.00  0.00     0.010 A 
HETATM   24  C   UNL     1      -6.251  -4.106 -34.898  1.00  0.00     0.152 A 
HETATM   25  N   UNL     1      -5.449  -5.169 -34.789  1.00  0.00    -0.187 NA
HETATM   26  N   UNL     1      -4.321  -4.655 -34.274  1.00  0.00    -0.289 N 
HETATM   27  H   UNL     1      -3.543  -5.281 -34.095  1.00  0.00     0.188 HD
HETATM   28  C   UNL     1      -4.385  -3.308 -34.062  1.00  0.00     0.123 A 
ENDBRANCH  19  23
ENDBRANCH   2  17
TORSDOF 4
ENDMDL
MODEL 2
REMARK VINA RESULT:      -8.7      3.313      9.487
REMARK  4 active torsions:
REMARK  status: ('A' for Active; 'I' for Inactive)
REMARK    1  A    between atoms: O_2  and  C_3 
REMARK    2  A    between atoms: C_7  and  C_8 
REMARK       I    between atoms: C_8  and  N_9 
REMARK    3  A    between atoms: N_9  and  C_10 
REMARK    4  A    between atoms: C_12  and  C_13 
ROOT
HETATM    1  C   UNL     1      -3.749   2.880 -32.059  1.00  0.00     0.254 C 
HETATM    2  N   UNL     1      -2.626   3.383 -32.683  1.00  0.00    -0.323 N 
HETATM    3  O   UNL     1      -4.404   3.438 -31.187  1.00  0.00    -0.268 OA
HETATM    4  H   UNL     1      -2.225   2.834 -33.430  1.00  0.00     0.169 HD
ENDROOT
BRANCH   1   5
HETATM    5  C   UNL     1      -4.217   1.556 -32.585  1.00  0.00     0.035 C 
HETATM    6  C   UNL     1      -5.355   1.387 -33.274  1.00  0.00     0.029 C 
HETATM    7  C   UNL     1      -5.705   0.030 -33.679  1.00  0.00     0.001 A 
HETATM    8  C   UNL     1      -4.764  -1.001 -33.569  1.00  0.00     0.112 A 
HETATM    9  C   UNL     1      -6.974  -0.246 -34.199  1.00  0.00     0.014 A 
HETATM   10  C   UNL     1      -5.075  -2.301 -34.006  1.00  0.00     0.102 A 
HETATM   11  O   UNL     1      -3.499  -0.780 -33.091  1.00  0.00    -0.343 OA
HETATM   12  C   UNL     1      -6.352  -2.566 -34.507  1.00  0.00     0.040 A 
HETATM   13  C   UNL     1      -7.298  -1.542 -34.601  1.00  0.00     0.004 A 
HETATM   14  C   UNL     1      -3.284   0.406 -32.312  1.00  0.00     0.220 C 
BRANCH  10  15
HETATM   15  O   UNL     1      -4.082  -3.240 -33.877  1.00  0.00    -0.353 OA
HETATM   16  C   UNL     1      -4.406  -4.575 -34.239  1.00  0.00     0.210 C 
ENDBRANCH  10  15
ENDBRANCH   1   5
BRANCH   2  17
HETATM   17  C   UNL     1      -1.982   4.617 -32.438  1.00  0.00     0.035 A 
HETATM   18  C   UNL     1      -1.410   4.977 -31.213  1.00  0.00     0.042 A 
HETATM   19  C   UNL     1      -0.811   6.236 -31.026  1.00  0.00    -0.021 A 
HETATM   20  C   UNL     1      -0.772   7.125 -32.108  1.00  0.00     0.012 A 
HETATM   21  C   UNL     1      -1.327   6.773 -33.338  1.00  0.00     0.003 A 
HETATM   22  C   UNL     1      -1.935   5.529 -33.499  1.00  0.00     0.029 A 
BRANCH  19  23
HETATM   23  C   UNL     1      -0.251   6.627 -29.737  1.00  0.00     0.010 A 
HETATM   24  C   UNL     1       0.519   5.897 -28.799  1.00  0.00     0.152 A 
HETATM   25  N   UNL     1       0.870   6.620 -27.732  1.00  0.00    -0.187 NA
HETATM   26  N   UNL     1       0.325   7.821 -27.978  1.00  0.00    -0.289 N 
HETATM   27  H   UNL     1       0.456   8.560 -27.296  1.00  0.00     0.188 HD
HETATM   28  C   UNL     1      -0.350   7.878 -29.164  1.00  0.00     0.123 A 
ENDBRANCH  19  23
ENDBRANCH   2  17
TORSDOF 4
ENDMDL
MODEL 3
REMARK VINA RESULT:      -8.5      5.090      8.576
REMARK  4 active torsions:
REMARK  status: ('A' for Active; 'I' for Inactive)
REMARK    1  A    between atoms: O_2  and  C_3 
REMARK    2  A    between atoms: C_7  and  C_8 
REMARK       I    between atoms: C_8  and  N_9 
REMARK    3  A    between atoms: N_9  and  C_10 
REMARK    4  A    between atoms: C_12  and  C_13 
ROOT
HETATM    1  C   UNL     1      -9.155   1.245 -33.857  1.00  0.00     0.254 C 
HETATM    2  N   UNL     1      -8.786  -0.008 -33.415  1.00  0.00    -0.323 N 
HETATM    3  O   UNL     1      -8.459   2.019 -34.505  1.00  0.00    -0.268 OA
HETATM    4  H   UNL     1      -9.490  -0.559 -32.944  1.00  0.00     0.169 HD
ENDROOT
BRANCH   1   5
HETATM    5  C   UNL     1     -10.576   1.622 -33.559  1.00  0.00     0.035 C 
HETATM    6  C   UNL     1     -11.624   0.817 -33.783  1.00  0.00     0.029 C 
HETATM    7  C   UNL     1     -12.954   1.339 -33.488  1.00  0.00     0.001 A 
HETATM    8  C   UNL     1     -13.097   2.530 -32.766  1.00  0.00     0.112 A 
HETATM    9  C   UNL     1     -14.094   0.644 -33.905  1.00  0.00     0.014 A 
HETATM   10  C   UNL     1     -14.374   3.013 -32.432  1.00  0.00     0.102 A 
HETATM   11  O   UNL     1     -12.014   3.237 -32.312  1.00  0.00    -0.343 OA
HETATM   12  C   UNL     1     -15.504   2.317 -32.870  1.00  0.00     0.040 A 
HETATM   13  C   UNL     1     -15.364   1.138 -33.605  1.00  0.00     0.004 A 
HETATM   14  C   UNL     1     -10.748   2.984 -32.941  1.00  0.00     0.220 C 
BRANCH  10  15
HETATM   15  O   UNL     1     -14.413   4.177 -31.706  1.00  0.00    -0.353 OA
HETATM   16  C   UNL     1     -15.518   5.041 -31.931  1.00  0.00     0.210 C 
ENDBRANCH  10  15
ENDBRANCH   1   5
BRANCH   2  17
HETATM   17  C   UNL     1      -7.540  -0.651 -33.585  1.00  0.00     0.035 A 
HETATM   18  C   UNL     1      -6.407  -0.389 -32.808  1.00  0.00     0.042 A 
HETATM   19  C   UNL     1      -5.185  -1.043 -33.051  1.00  0.00    -0.021 A 
HETATM   20  C   UNL     1      -5.127  -1.992 -34.080  1.00  0.00     0.012 A 
HETATM   21  C   UNL     1      -6.253  -2.271 -34.854  1.00  0.00     0.003 A 
HETATM   22  C   UNL     1      -7.450  -1.598 -34.612  1.00  0.00     0.029 A 
BRANCH  19  23
HETATM   23  C   UNL     1      -3.992  -0.741 -32.267  1.00  0.00     0.010 A 
HETATM   24  C   UNL     1      -3.617   0.427 -31.558  1.00  0.00     0.152 A 
HETATM   25  N   UNL     1      -2.442   0.307 -30.935  1.00  0.00    -0.187 NA
HETATM   26  N   UNL     1      -2.053  -0.940 -31.242  1.00  0.00    -0.289 N 
HETATM   27  H   UNL     1      -1.168  -1.274 -30.876  1.00  0.00     0.188 HD
HETATM   28  C   UNL     1      -2.945  -1.609 -32.030  1.00  0.00     0.123 A 
ENDBRANCH  19  23
ENDBRANCH   2  17
TORSDOF 4
ENDMDL
MODEL 4
REMARK VINA RESULT:      -8.4      5.519      8.807
REMARK  4 active torsions:
REMARK  status: ('A' for Active; 'I' for Inactive)
REMARK    1  A    between atoms: O_2  and  C_3 
REMARK    2  A    between atoms: C_7  and  C_8 
REMARK       I    between atoms: C_8  and  N_9 
REMARK    3  A    between atoms: N_9  and  C_10 
REMARK    4  A    between atoms: C_12  and  C_13 
ROOT
HETATM    1  C   UNL     1      -8.449   0.993 -32.800  1.00  0.00     0.254 C 
HETATM    2  N   UNL     1      -9.275   1.224 -33.881  1.00  0.00    -0.323 N 
HETATM    3  O   UNL     1      -8.531   1.526 -31.700  1.00  0.00    -0.268 OA
HETATM    4  H   UNL     1      -9.123   0.664 -34.708  1.00  0.00     0.169 HD
ENDROOT
BRANCH   1   5
HETATM    5  C   UNL     1      -7.416  -0.072 -33.017  1.00  0.00     0.035 C 
HETATM    6  C   UNL     1      -7.465  -0.966 -34.016  1.00  0.00     0.029 C 
HETATM    7  C   UNL     1      -6.413  -1.976 -34.071  1.00  0.00     0.001 A 
HETATM    8  C   UNL     1      -5.275  -1.851 -33.266  1.00  0.00     0.112 A 
HETATM    9  C   UNL     1      -6.525  -3.064 -34.944  1.00  0.00     0.014 A 
HETATM   10  C   UNL     1      -4.234  -2.791 -33.350  1.00  0.00     0.102 A 
HETATM   11  O   UNL     1      -5.104  -0.791 -32.413  1.00  0.00    -0.343 OA
HETATM   12  C   UNL     1      -4.366  -3.881 -34.214  1.00  0.00     0.040 A 
HETATM   13  C   UNL     1      -5.509  -4.018 -35.006  1.00  0.00     0.004 A 
HETATM   14  C   UNL     1      -6.274  -0.049 -32.037  1.00  0.00     0.220 C 
BRANCH  10  15
HETATM   15  O   UNL     1      -3.150  -2.574 -32.536  1.00  0.00    -0.353 OA
HETATM   16  C   UNL     1      -2.810  -3.609 -31.625  1.00  0.00     0.210 C 
ENDBRANCH  10  15
ENDBRANCH   1   5
BRANCH   2  17
HETATM   17  C   UNL     1     -10.358   2.128 -33.963  1.00  0.00     0.035 A 
HETATM   18  C   UNL     1     -11.635   1.874 -33.451  1.00  0.00     0.042 A 
HETATM   19  C   UNL     1     -12.679   2.806 -33.595  1.00  0.00    -0.021 A 
HETATM   20  C   UNL     1     -12.410   4.018 -34.242  1.00  0.00     0.012 A 
HETATM   21  C   UNL     1     -11.137   4.288 -34.745  1.00  0.00     0.003 A 
HETATM   22  C   UNL     1     -10.120   3.344 -34.612  1.00  0.00     0.029 A 
BRANCH  19  23
HETATM   23  C   UNL     1     -14.022   2.525 -33.097  1.00  0.00     0.010 A 
HETATM   24  C   UNL     1     -15.006   1.609 -33.544  1.00  0.00     0.152 A 
HETATM   25  N   UNL     1     -16.117   1.629 -32.803  1.00  0.00    -0.187 NA
HETATM   26  N   UNL     1     -15.854   2.563 -31.875  1.00  0.00    -0.289 N 
HETATM   27  H   UNL     1     -16.563   2.766 -31.180  1.00  0.00     0.188 HD
HETATM   28  C   UNL     1     -14.615   3.123 -32.005  1.00  0.00     0.123 A 
ENDBRANCH  19  23
ENDBRANCH   2  17
TORSDOF 4
ENDMDL
MODEL 5
REMARK VINA RESULT:      -8.4      1.822      2.637
REMARK  4 active torsions:
REMARK  status: ('A' for Active; 'I' for Inactive)
REMARK    1  A    between atoms: O_2  and  C_3 
REMARK    2  A    between atoms: C_7  and  C_8 
REMARK       I    between atoms: C_8  and  N_9 
REMARK    3  A    between atoms: N_9  and  C_10 
REMARK    4  A    between atoms: C_12  and  C_13 
ROOT
HETATM    1  C   UNL     1      -4.208   1.744 -32.249  1.00  0.00     0.254 C 
HETATM    2  N   UNL     1      -3.226   0.837 -32.591  1.00  0.00    -0.323 N 
HETATM    3  O   UNL     1      -5.342   1.475 -31.870  1.00  0.00    -0.268 OA
HETATM    4  H   UNL     1      -2.316   1.206 -32.827  1.00  0.00     0.169 HD
ENDROOT
BRANCH   1   5
HETATM    5  C   UNL     1      -3.775   3.179 -32.286  1.00  0.00     0.035 C 
HETATM    6  C   UNL     1      -2.783   3.639 -33.062  1.00  0.00     0.029 C 
HETATM    7  C   UNL     1      -2.440   5.053 -32.955  1.00  0.00     0.001 A 
HETATM    8  C   UNL     1      -3.283   5.930 -32.261  1.00  0.00     0.112 A 
HETATM    9  C   UNL     1      -1.281   5.547 -33.563  1.00  0.00     0.014 A 
HETATM   10  C   UNL     1      -2.989   7.303 -32.197  1.00  0.00     0.102 A 
HETATM   11  O   UNL     1      -4.444   5.503 -31.669  1.00  0.00    -0.343 OA
HETATM   12  C   UNL     1      -1.818   7.779 -32.794  1.00  0.00     0.040 A 
HETATM   13  C   UNL     1      -0.967   6.903 -33.473  1.00  0.00     0.004 A 
HETATM   14  C   UNL     1      -4.571   4.099 -31.399  1.00  0.00     0.220 C 
BRANCH  10  15
HETATM   15  O   UNL     1      -3.883   8.086 -31.511  1.00  0.00    -0.353 OA
HETATM   16  C   UNL     1      -3.534   8.455 -30.185  1.00  0.00     0.210 C 
ENDBRANCH  10  15
ENDBRANCH   1   5
BRANCH   2  17
HETATM   17  C   UNL     1      -3.322  -0.573 -32.607  1.00  0.00     0.035 A 
HETATM   18  C   UNL     1      -4.178  -1.295 -33.445  1.00  0.00     0.042 A 
HETATM   19  C   UNL     1      -4.247  -2.699 -33.388  1.00  0.00    -0.021 A 
HETATM   20  C   UNL     1      -3.414  -3.373 -32.486  1.00  0.00     0.012 A 
HETATM   21  C   UNL     1      -2.546  -2.666 -31.654  1.00  0.00     0.003 A 
HETATM   22  C   UNL     1      -2.507  -1.273 -31.710  1.00  0.00     0.029 A 
BRANCH  19  23
HETATM   23  C   UNL     1      -5.169  -3.450 -34.233  1.00  0.00     0.010 A 
HETATM   24  C   UNL     1      -5.116  -4.782 -34.712  1.00  0.00     0.152 A 
HETATM   25  N   UNL     1      -6.176  -5.117 -35.451  1.00  0.00    -0.187 NA
HETATM   26  N   UNL     1      -6.918  -3.998 -35.454  1.00  0.00    -0.289 N 
HETATM   27  H   UNL     1      -7.796  -4.002 -35.962  1.00  0.00     0.188 HD
HETATM   28  C   UNL     1      -6.363  -2.977 -34.738  1.00  0.00     0.123 A 
ENDBRANCH  19  23
ENDBRANCH   2  17
TORSDOF 4
ENDMDL
MODEL 6
REMARK VINA RESULT:      -8.2      1.332      1.544
REMARK  4 active torsions:
REMARK  status: ('A' for Active; 'I' for Inactive)
REMARK    1  A    between atoms: O_2  and  C_3 
REMARK    2  A    between atoms: C_7  and  C_8 
REMARK       I    between atoms: C_8  and  N_9 
REMARK    3  A    between atoms: N_9  and  C_10 
REMARK    4  A    between atoms: C_12  and  C_13 
ROOT
HETATM    1  C   UNL     1      -4.674   3.461 -32.960  1.00  0.00     0.254 C 
HETATM    2  N   UNL     1      -4.987   2.273 -32.333  1.00  0.00    -0.323 N 
HETATM    3  O   UNL     1      -5.143   3.868 -34.017  1.00  0.00    -0.268 OA
HETATM    4  H   UNL     1      -4.564   2.099 -31.432  1.00  0.00     0.169 HD
ENDROOT
BRANCH   1   5
HETATM    5  C   UNL     1      -3.722   4.338 -32.202  1.00  0.00     0.035 C 
HETATM    6  C   UNL     1      -2.423   4.469 -32.509  1.00  0.00     0.029 C 
HETATM    7  C   UNL     1      -1.607   5.321 -31.650  1.00  0.00     0.001 A 
HETATM    8  C   UNL     1      -2.217   6.157 -30.707  1.00  0.00     0.112 A 
HETATM    9  C   UNL     1      -0.214   5.324 -31.777  1.00  0.00     0.014 A 
HETATM   10  C   UNL     1      -1.443   7.020 -29.912  1.00  0.00     0.102 A 
HETATM   11  O   UNL     1      -3.579   6.212 -30.560  1.00  0.00    -0.343 OA
HETATM   12  C   UNL     1      -0.052   7.000 -30.038  1.00  0.00     0.040 A 
HETATM   13  C   UNL     1       0.560   6.154 -30.966  1.00  0.00     0.004 A 
HETATM   14  C   UNL     1      -4.344   5.109 -31.069  1.00  0.00     0.220 C 
BRANCH  10  15
HETATM   15  O   UNL     1      -2.131   7.816 -29.031  1.00  0.00    -0.353 OA
HETATM   16  C   UNL     1      -1.376   8.771 -28.299  1.00  0.00     0.210 C 
ENDBRANCH  10  15
ENDBRANCH   1   5
BRANCH   2  17
HETATM   17  C   UNL     1      -5.879   1.271 -32.777  1.00  0.00     0.035 A 
HETATM   18  C   UNL     1      -5.484   0.005 -33.219  1.00  0.00     0.042 A 
HETATM   19  C   UNL     1      -6.423  -0.936 -33.679  1.00  0.00    -0.021 A 
HETATM   20  C   UNL     1      -7.780  -0.591 -33.662  1.00  0.00     0.012 A 
HETATM   21  C   UNL     1      -8.188   0.665 -33.211  1.00  0.00     0.003 A 
HETATM   22  C   UNL     1      -7.241   1.593 -32.778  1.00  0.00     0.029 A 
BRANCH  19  23
HETATM   23  C   UNL     1      -6.008  -2.243 -34.178  1.00  0.00     0.010 A 
HETATM   24  C   UNL     1      -4.725  -2.836 -34.276  1.00  0.00     0.152 A 
HETATM   25  N   UNL     1      -4.756  -4.075 -34.773  1.00  0.00    -0.187 NA
HETATM   26  N   UNL     1      -6.062  -4.286 -35.000  1.00  0.00    -0.289 N 
HETATM   27  H   UNL     1      -6.347  -5.179 -35.386  1.00  0.00     0.188 HD
HETATM   28  C   UNL     1      -6.851  -3.225 -34.657  1.00  0.00     0.123 A 
ENDBRANCH  19  23
ENDBRANCH   2  17
TORSDOF 4
ENDMDL
MODEL 7
REMARK VINA RESULT:      -8.1      5.388      9.019
REMARK  4 active torsions:
REMARK  status: ('A' for Active; 'I' for Inactive)
REMARK    1  A    between atoms: O_2  and  C_3 
REMARK    2  A    between atoms: C_7  and  C_8 
REMARK       I    between atoms: C_8  and  N_9 
REMARK    3  A    between atoms: N_9  and  C_10 
REMARK    4  A    between atoms: C_12  and  C_13 
ROOT
HETATM    1  C   UNL     1      -9.538   0.914 -32.702  1.00  0.00     0.254 C 
HETATM    2  N   UNL     1     -10.583   0.542 -33.522  1.00  0.00    -0.323 N 
HETATM    3  O   UNL     1      -9.599   1.695 -31.759  1.00  0.00    -0.268 OA
HETATM    4  H   UNL     1     -10.394  -0.160 -34.223  1.00  0.00     0.169 HD
ENDROOT
BRANCH   1   5
HETATM    5  C   UNL     1      -8.241   0.214 -32.982  1.00  0.00     0.035 C 
HETATM    6  C   UNL     1      -8.125  -0.837 -33.807  1.00  0.00     0.029 C 
HETATM    7  C   UNL     1      -6.806  -1.446 -33.944  1.00  0.00     0.001 A 
HETATM    8  C   UNL     1      -5.676  -0.798 -33.432  1.00  0.00     0.112 A 
HETATM    9  C   UNL     1      -6.659  -2.670 -34.606  1.00  0.00     0.014 A 
HETATM   10  C   UNL     1      -4.396  -1.352 -33.604  1.00  0.00     0.102 A 
HETATM   11  O   UNL     1      -5.761   0.414 -32.798  1.00  0.00    -0.343 OA
HETATM   12  C   UNL     1      -4.266  -2.583 -34.252  1.00  0.00     0.040 A 
HETATM   13  C   UNL     1      -5.394  -3.240 -34.749  1.00  0.00     0.004 A 
HETATM   14  C   UNL     1      -7.044   0.806 -32.288  1.00  0.00     0.220 C 
BRANCH  10  15
HETATM   15  O   UNL     1      -3.347  -0.635 -33.085  1.00  0.00    -0.353 OA
HETATM   16  C   UNL     1      -2.695  -1.178 -31.946  1.00  0.00     0.210 C 
ENDBRANCH  10  15
ENDBRANCH   1   5
BRANCH   2  17
HETATM   17  C   UNL     1     -11.921   0.993 -33.473  1.00  0.00     0.035 A 
HETATM   18  C   UNL     1     -12.298   2.314 -33.209  1.00  0.00     0.042 A 
HETATM   19  C   UNL     1     -13.652   2.690 -33.143  1.00  0.00    -0.021 A 
HETATM   20  C   UNL     1     -14.630   1.713 -33.374  1.00  0.00     0.012 A 
HETATM   21  C   UNL     1     -14.266   0.395 -33.650  1.00  0.00     0.003 A 
HETATM   22  C   UNL     1     -12.919   0.036 -33.691  1.00  0.00     0.029 A 
BRANCH  19  23
HETATM   23  C   UNL     1     -14.046   4.058 -32.828  1.00  0.00     0.010 A 
HETATM   24  C   UNL     1     -14.940   4.568 -31.854  1.00  0.00     0.152 A 
HETATM   25  N   UNL     1     -15.020   5.901 -31.861  1.00  0.00    -0.187 NA
HETATM   26  N   UNL     1     -14.177   6.257 -32.843  1.00  0.00    -0.289 N 
HETATM   27  H   UNL     1     -14.061   7.244 -33.046  1.00  0.00     0.188 HD
HETATM   28  C   UNL     1     -13.568   5.195 -33.448  1.00  0.00     0.123 A 
ENDBRANCH  19  23
ENDBRANCH   2  17
TORSDOF 4
ENDMDL
MODEL 8
REMARK VINA RESULT:      -8.1      3.195      9.303
REMARK  4 active torsions:
REMARK  status: ('A' for Active; 'I' for Inactive)
REMARK    1  A    between atoms: O_2  and  C_3 
REMARK    2  A    between atoms: C_7  and  C_8 
REMARK       I    between atoms: C_8  and  N_9 
REMARK    3  A    between atoms: N_9  and  C_10 
REMARK    4  A    between atoms: C_12  and  C_13 
ROOT
HETATM    1  C   UNL     1      -4.528   1.778 -31.928  1.00  0.00     0.254 C 
HETATM    2  N   UNL     1      -3.638   2.653 -32.517  1.00  0.00    -0.323 N 
HETATM    3  O   UNL     1      -5.375   2.061 -31.089  1.00  0.00    -0.268 OA
HETATM    4  H   UNL     1      -3.037   2.285 -33.240  1.00  0.00     0.169 HD
ENDROOT
BRANCH   1   5
HETATM    5  C   UNL     1      -4.465   0.373 -32.451  1.00  0.00     0.035 C 
HETATM    6  C   UNL     1      -3.882  -0.641 -31.795  1.00  0.00     0.029 C 
HETATM    7  C   UNL     1      -3.855  -1.944 -32.451  1.00  0.00     0.001 A 
HETATM    8  C   UNL     1      -4.627  -2.170 -33.597  1.00  0.00     0.112 A 
HETATM    9  C   UNL     1      -3.075  -2.981 -31.929  1.00  0.00     0.014 A 
HETATM   10  C   UNL     1      -4.647  -3.437 -34.205  1.00  0.00     0.102 A 
HETATM   11  O   UNL     1      -5.428  -1.196 -34.134  1.00  0.00    -0.343 OA
HETATM   12  C   UNL     1      -3.850  -4.458 -33.683  1.00  0.00     0.040 A 
HETATM   13  C   UNL     1      -3.065  -4.230 -32.550  1.00  0.00     0.004 A 
HETATM   14  C   UNL     1      -5.146   0.165 -33.776  1.00  0.00     0.220 C 
BRANCH  10  15
HETATM   15  O   UNL     1      -5.449  -3.567 -35.312  1.00  0.00    -0.353 OA
HETATM   16  C   UNL     1      -6.582  -4.416 -35.191  1.00  0.00     0.210 C 
ENDBRANCH  10  15
ENDBRANCH   1   5
BRANCH   2  17
HETATM   17  C   UNL     1      -3.494   4.036 -32.266  1.00  0.00     0.035 A 
HETATM   18  C   UNL     1      -2.489   4.590 -31.465  1.00  0.00     0.042 A 
HETATM   19  C   UNL     1      -2.421   5.975 -31.230  1.00  0.00    -0.021 A 
HETATM   20  C   UNL     1      -3.371   6.805 -31.839  1.00  0.00     0.012 A 
HETATM   21  C   UNL     1      -4.370   6.266 -32.650  1.00  0.00     0.003 A 
HETATM   22  C   UNL     1      -4.435   4.888 -32.855  1.00  0.00     0.029 A 
BRANCH  19  23
HETATM   23  C   UNL     1      -1.398   6.549 -30.363  1.00  0.00     0.010 A 
HETATM   24  C   UNL     1      -1.476   7.051 -29.040  1.00  0.00     0.152 A 
HETATM   25  N   UNL     1      -0.301   7.477 -28.571  1.00  0.00    -0.187 NA
HETATM   26  N   UNL     1       0.541   7.253 -29.592  1.00  0.00    -0.289 N 
HETATM   27  H   UNL     1       1.518   7.501 -29.476  1.00  0.00     0.188 HD
HETATM   28  C   UNL     1      -0.064   6.697 -30.682  1.00  0.00     0.123 A 
ENDBRANCH  19  23
ENDBRANCH   2  17
TORSDOF 4
ENDMDL
MODEL 9
REMARK VINA RESULT:      -8.0      2.611      3.604
REMARK  4 active torsions:
REMARK  status: ('A' for Active; 'I' for Inactive)
REMARK    1  A    between atoms: O_2  and  C_3 
REMARK    2  A    between atoms: C_7  and  C_8 
REMARK       I    between atoms: C_8  and  N_9 
REMARK    3  A    between atoms: N_9  and  C_10 
REMARK    4  A    between atoms: C_12  and  C_13 
ROOT
HETATM    1  C   UNL     1      -4.555   3.477 -32.922  1.00  0.00     0.254 C 
HETATM    2  N   UNL     1      -4.817   2.252 -32.346  1.00  0.00    -0.323 N 
HETATM    3  O   UNL     1      -5.064   3.921 -33.945  1.00  0.00    -0.268 OA
HETATM    4  H   UNL     1      -4.365   2.047 -31.466  1.00  0.00     0.169 HD
ENDROOT
BRANCH   1   5
HETATM    5  C   UNL     1      -3.608   4.344 -32.147  1.00  0.00     0.035 C 
HETATM    6  C   UNL     1      -2.314   4.503 -32.462  1.00  0.00     0.029 C 
HETATM    7  C   UNL     1      -1.502   5.340 -31.585  1.00  0.00     0.001 A 
HETATM    8  C   UNL     1      -2.115   6.139 -30.611  1.00  0.00     0.112 A 
HETATM    9  C   UNL     1      -0.111   5.367 -31.725  1.00  0.00     0.014 A 
HETATM   10  C   UNL     1      -1.345   6.988 -29.798  1.00  0.00     0.102 A 
HETATM   11  O   UNL     1      -3.476   6.169 -30.450  1.00  0.00    -0.343 OA
HETATM   12  C   UNL     1       0.045   6.992 -29.937  1.00  0.00     0.040 A 
HETATM   13  C   UNL     1       0.660   6.183 -30.896  1.00  0.00     0.004 A 
HETATM   14  C   UNL     1      -4.230   5.071 -30.985  1.00  0.00     0.220 C 
BRANCH  10  15
HETATM   15  O   UNL     1      -2.035   7.747 -28.886  1.00  0.00    -0.353 OA
HETATM   16  C   UNL     1      -1.386   8.910 -28.392  1.00  0.00     0.210 C 
ENDBRANCH  10  15
ENDBRANCH   1   5
BRANCH   2  17
HETATM   17  C   UNL     1      -5.693   1.247 -32.816  1.00  0.00     0.035 A 
HETATM   18  C   UNL     1      -7.080   1.396 -32.919  1.00  0.00     0.042 A 
HETATM   19  C   UNL     1      -7.899   0.343 -33.365  1.00  0.00    -0.021 A 
HETATM   20  C   UNL     1      -7.293  -0.865 -33.735  1.00  0.00     0.012 A 
HETATM   21  C   UNL     1      -5.909  -1.022 -33.649  1.00  0.00     0.003 A 
HETATM   22  C   UNL     1      -5.116   0.026 -33.184  1.00  0.00     0.029 A 
BRANCH  19  23
HETATM   23  C   UNL     1      -9.349   0.484 -33.435  1.00  0.00     0.010 A 
HETATM   24  C   UNL     1     -10.161   1.377 -34.177  1.00  0.00     0.152 A 
HETATM   25  N   UNL     1     -11.468   1.178 -33.989  1.00  0.00    -0.187 NA
HETATM   26  N   UNL     1     -11.503   0.155 -33.121  1.00  0.00    -0.289 N 
HETATM   27  H   UNL     1     -12.408  -0.189 -32.816  1.00  0.00     0.188 HD
HETATM   28  C   UNL     1     -10.266  -0.298 -32.763  1.00  0.00     0.123 A 
ENDBRANCH  19  23
ENDBRANCH   2  17
TORSDOF 4
ENDMDL
MODEL 10
REMARK VINA RESULT:      -8.0     16.379     18.126
REMARK  4 active torsions:
REMARK  status: ('A' for Active; 'I' for Inactive)
REMARK    1  A    between atoms: O_2  and  C_3 
REMARK    2  A    between atoms: C_7  and  C_8 
REMARK       I    between atoms: C_8  and  N_9 
REMARK    3  A    between atoms: N_9  and  C_10 
REMARK    4  A    between atoms: C_12  and  C_13 
ROOT
HETATM    1  C   UNL     1      -6.798 -13.679 -34.456  1.00  0.00     0.254 C 
HETATM    2  N   UNL     1      -6.363 -14.134 -35.684  1.00  0.00    -0.323 N 
HETATM    3  O   UNL     1      -7.519 -12.708 -34.257  1.00  0.00    -0.268 OA
HETATM    4  H   UNL     1      -5.821 -14.986 -35.696  1.00  0.00     0.169 HD
ENDROOT
BRANCH   1   5
HETATM    5  C   UNL     1      -6.385 -14.529 -33.291  1.00  0.00     0.035 C 
HETATM    6  C   UNL     1      -6.737 -15.814 -33.143  1.00  0.00     0.029 C 
HETATM    7  C   UNL     1      -6.301 -16.500 -31.931  1.00  0.00     0.001 A 
HETATM    8  C   UNL     1      -5.347 -15.909 -31.094  1.00  0.00     0.112 A 
HETATM    9  C   UNL     1      -6.816 -17.760 -31.609  1.00  0.00     0.014 A 
HETATM   10  C   UNL     1      -4.882 -16.586 -29.953  1.00  0.00     0.102 A 
HETATM   11  O   UNL     1      -4.791 -14.689 -31.377  1.00  0.00    -0.343 OA
HETATM   12  C   UNL     1      -5.418 -17.836 -29.635  1.00  0.00     0.040 A 
HETATM   13  C   UNL     1      -6.383 -18.420 -30.459  1.00  0.00     0.004 A 
HETATM   14  C   UNL     1      -5.496 -13.836 -32.292  1.00  0.00     0.220 C 
BRANCH  10  15
HETATM   15  O   UNL     1      -3.932 -15.936 -29.205  1.00  0.00    -0.353 OA
HETATM   16  C   UNL     1      -2.573 -16.250 -29.474  1.00  0.00     0.210 C 
ENDBRANCH  10  15
ENDBRANCH   1   5
BRANCH   2  17
HETATM   17  C   UNL     1      -6.626 -13.575 -36.954  1.00  0.00     0.035 A 
HETATM   18  C   UNL     1      -7.875 -13.605 -37.584  1.00  0.00     0.042 A 
HETATM   19  C   UNL     1      -8.062 -13.056 -38.866  1.00  0.00    -0.021 A 
HETATM   20  C   UNL     1      -6.971 -12.447 -39.499  1.00  0.00     0.012 A 
HETATM   21  C   UNL     1      -5.724 -12.400 -38.876  1.00  0.00     0.003 A 
HETATM   22  C   UNL     1      -5.552 -12.967 -37.614  1.00  0.00     0.029 A 
BRANCH  19  23
HETATM   23  C   UNL     1      -9.354 -13.123 -39.540  1.00  0.00     0.010 A 
HETATM   24  C   UNL     1     -10.198 -14.225 -39.825  1.00  0.00     0.152 A 
HETATM   25  N   UNL     1     -11.327 -13.875 -40.446  1.00  0.00    -0.187 NA
HETATM   26  N   UNL     1     -11.214 -12.543 -40.566  1.00  0.00    -0.289 N 
HETATM   27  H   UNL     1     -11.967 -12.033 -41.016  1.00  0.00     0.188 HD
HETATM   28  C   UNL     1     -10.058 -12.045 -40.037  1.00  0.00     0.123 A 
ENDBRANCH  19  23
ENDBRANCH   2  17
TORSDOF 4
ENDMDL
