MODEL 1
REMARK VINA RESULT:      -7.4      0.000      0.000
REMARK  11 active torsions:
REMARK  status: ('A' for Active; 'I' for Inactive)
REMARK    1  A    between atoms: C_2  and  C_3 
REMARK    2  A    between atoms: C_3  and  N_4 
REMARK    3  A    between atoms: N_4  and  C_6 
REMARK    4  A    between atoms: N_4  and  C_30 
REMARK    5  A    between atoms: C_6  and  C_7 
REMARK    6  A    between atoms: N_8  and  C_9 
REMARK    7  A    between atoms: C_13  and  N_14 
REMARK    8  A    between atoms: C_17  and  C_18 
REMARK       I    between atoms: C_18  and  N_19 
REMARK    9  A    between atoms: N_19  and  N_20 
REMARK   10  A    between atoms: C_21  and  C_22 
REMARK   11  A    between atoms: C_30  and  C_31 
ROOT
HETATM    1  C   UNL     1      -4.380   5.861 -31.847  1.00  0.00     0.096 A 
HETATM    2  N   UNL     1      -4.533   7.153 -31.340  1.00  0.00    -0.215 N 
HETATM    3  N   UNL     1      -5.746   7.630 -31.739  1.00  0.00     0.012 NA
HETATM    4  N   UNL     1      -6.323   6.754 -32.542  1.00  0.00    -0.152 NA
HETATM    5  C   UNL     1      -5.504   5.672 -32.640  1.00  0.00     0.170 A 
ENDROOT
BRANCH   5   6
HETATM    6  C   UNL     1      -5.799   4.500 -33.451  1.00  0.00     0.293 C 
HETATM    7  N   UNL     1      -6.273   3.421 -32.733  1.00  0.00    -0.242 N 
HETATM    8  H   UNL     1      -6.401   3.493 -31.726  1.00  0.00     0.192 HD
HETATM    9  O   UNL     1      -5.617   4.544 -34.666  1.00  0.00    -0.264 OA
BRANCH   7  10
HETATM   10  N   UNL     1      -6.439   2.222 -33.358  1.00  0.00    -0.184 NA
HETATM   11  C   UNL     1      -5.832   1.215 -32.814  1.00  0.00     0.150 C 
BRANCH  11  12
HETATM   12  C   UNL     1      -5.881  -0.134 -33.412  1.00  0.00    -0.017 A 
HETATM   13  C   UNL     1      -4.718  -0.902 -33.545  1.00  0.00     0.014 A 
HETATM   14  C   UNL     1      -4.790  -2.186 -34.090  1.00  0.00     0.020 A 
HETATM   15  C   UNL     1      -6.021  -2.694 -34.501  1.00  0.00     0.011 A 
HETATM   16 BR   UNL     1      -6.118  -4.434 -35.233  1.00  0.00    -0.051 Br
HETATM   17  C   UNL     1      -7.183  -1.931 -34.375  1.00  0.00     0.020 A 
HETATM   18  C   UNL     1      -7.114  -0.647 -33.828  1.00  0.00     0.014 A 
ENDBRANCH  11  12
ENDBRANCH   7  10
ENDBRANCH   5   6
BRANCH   1  19
HETATM   19  C   UNL     1      -3.298   4.901 -31.503  1.00  0.00     0.296 C 
BRANCH  19  20
HETATM   20  N   UNL     1      -1.912   5.255 -32.024  1.00  0.00    -0.066 N 
HETATM   21  H   UNL     1      -1.889   6.296 -32.046  1.00  0.00     0.280 HD
BRANCH  20  22
HETATM   22  C   UNL     1      -1.686   4.750 -33.440  1.00  0.00     0.235 C 
BRANCH  22  23
HETATM   23  C   UNL     1      -1.533   5.846 -34.493  1.00  0.00     0.023 C 
HETATM   24  C   UNL     1      -1.738   7.254 -33.961  1.00  0.00     0.007 C 
ENDBRANCH  22  23
ENDBRANCH  20  22
BRANCH  20  25
HETATM   25  C   UNL     1      -0.817   4.777 -31.084  1.00  0.00     0.235 C 
BRANCH  25  26
HETATM   26  C   UNL     1      -0.237   5.877 -30.196  1.00  0.00     0.023 C 
HETATM   27  C   UNL     1       0.465   6.990 -30.957  1.00  0.00     0.007 C 
ENDBRANCH  25  26
ENDBRANCH  20  25
ENDBRANCH  19  20
ENDBRANCH   1  19
BRANCH   2  28
HETATM   28  C   UNL     1      -3.634   7.944 -30.585  1.00  0.00     0.225 A 
HETATM   29  N   UNL     1      -3.096   9.044 -31.116  1.00  0.00    -0.081 NA
HETATM   30  O   UNL     1      -2.305   9.558 -30.086  1.00  0.00    -0.103 OA
HETATM   31  N   UNL     1      -2.394   8.774 -28.945  1.00  0.00    -0.083 NA
HETATM   32  C   UNL     1      -3.219   7.776 -29.252  1.00  0.00     0.201 A 
BRANCH  32  33
HETATM   33  N   UNL     1      -3.568   6.792 -28.409  1.00  0.00    -0.379 N 
HETATM   34  H   UNL     1      -3.920   7.015 -27.481  1.00  0.00     0.158 HD
HETATM   35  H   UNL     1      -3.706   5.824 -28.693  1.00  0.00     0.158 HD
ENDBRANCH  32  33
ENDBRANCH   2  28
TORSDOF 11
ENDMDL
MODEL 2
REMARK VINA RESULT:      -7.2      1.825      2.750
REMARK  11 active torsions:
REMARK  status: ('A' for Active; 'I' for Inactive)
REMARK    1  A    between atoms: C_2  and  C_3 
REMARK    2  A    between atoms: C_3  and  N_4 
REMARK    3  A    between atoms: N_4  and  C_6 
REMARK    4  A    between atoms: N_4  and  C_30 
REMARK    5  A    between atoms: C_6  and  C_7 
REMARK    6  A    between atoms: N_8  and  C_9 
REMARK    7  A    between atoms: C_13  and  N_14 
REMARK    8  A    between atoms: C_17  and  C_18 
REMARK       I    between atoms: C_18  and  N_19 
REMARK    9  A    between atoms: N_19  and  N_20 
REMARK   10  A    between atoms: C_21  and  C_22 
REMARK   11  A    between atoms: C_30  and  C_31 
ROOT
HETATM    1  C   UNL     1      -4.511   5.206 -30.799  1.00  0.00     0.096 A 
HETATM    2  N   UNL     1      -4.322   6.353 -30.025  1.00  0.00    -0.215 N 
HETATM    3  N   UNL     1      -4.962   6.178 -28.835  1.00  0.00     0.012 NA
HETATM    4  N   UNL     1      -5.622   5.032 -28.851  1.00  0.00    -0.152 NA
HETATM    5  C   UNL     1      -5.379   4.426 -30.045  1.00  0.00     0.170 A 
ENDROOT
BRANCH   5   6
HETATM    6  C   UNL     1      -5.945   3.144 -30.436  1.00  0.00     0.293 C 
HETATM    7  N   UNL     1      -5.025   2.253 -30.948  1.00  0.00    -0.242 N 
HETATM    8  H   UNL     1      -4.043   2.511 -31.013  1.00  0.00     0.192 HD
HETATM    9  O   UNL     1      -7.150   2.946 -30.290  1.00  0.00    -0.264 OA
BRANCH   7  10
HETATM   10  N   UNL     1      -5.459   1.079 -31.488  1.00  0.00    -0.184 NA
HETATM   11  C   UNL     1      -4.776   0.638 -32.497  1.00  0.00     0.150 C 
BRANCH  11  12
HETATM   12  C   UNL     1      -5.162  -0.593 -33.214  1.00  0.00    -0.017 A 
HETATM   13  C   UNL     1      -4.197  -1.535 -33.593  1.00  0.00     0.014 A 
HETATM   14  C   UNL     1      -4.586  -2.705 -34.248  1.00  0.00     0.020 A 
HETATM   15  C   UNL     1      -5.935  -2.928 -34.522  1.00  0.00     0.011 A 
HETATM   16 BR   UNL     1      -6.461  -4.515 -35.403  1.00  0.00    -0.051 Br
HETATM   17  C   UNL     1      -6.900  -1.990 -34.151  1.00  0.00     0.020 A 
HETATM   18  C   UNL     1      -6.514  -0.819 -33.494  1.00  0.00     0.014 A 
ENDBRANCH  11  12
ENDBRANCH   7  10
ENDBRANCH   5   6
BRANCH   1  19
HETATM   19  C   UNL     1      -3.835   4.887 -32.084  1.00  0.00     0.296 C 
BRANCH  19  20
HETATM   20  N   UNL     1      -4.243   5.744 -33.275  1.00  0.00    -0.066 N 
HETATM   21  H   UNL     1      -4.325   6.711 -32.897  1.00  0.00     0.280 HD
BRANCH  20  22
HETATM   22  C   UNL     1      -5.599   5.341 -33.832  1.00  0.00     0.235 C 
BRANCH  22  23
HETATM   23  C   UNL     1      -5.734   3.858 -34.175  1.00  0.00     0.023 C 
HETATM   24  C   UNL     1      -7.100   3.268 -33.869  1.00  0.00     0.007 C 
ENDBRANCH  22  23
ENDBRANCH  20  22
BRANCH  20  25
HETATM   25  C   UNL     1      -3.177   5.747 -34.359  1.00  0.00     0.235 C 
BRANCH  25  26
HETATM   26  C   UNL     1      -1.749   5.850 -33.824  1.00  0.00     0.023 C 
HETATM   27  C   UNL     1      -1.323   7.259 -33.445  1.00  0.00     0.007 C 
ENDBRANCH  25  26
ENDBRANCH  20  25
ENDBRANCH  19  20
ENDBRANCH   1  19
BRANCH   2  28
HETATM   28  C   UNL     1      -3.651   7.559 -30.338  1.00  0.00     0.225 A 
HETATM   29  N   UNL     1      -4.073   8.321 -31.347  1.00  0.00    -0.081 NA
HETATM   30  O   UNL     1      -3.199   9.412 -31.331  1.00  0.00    -0.103 OA
HETATM   31  N   UNL     1      -2.277   9.300 -30.300  1.00  0.00    -0.083 NA
HETATM   32  C   UNL     1      -2.558   8.154 -29.683  1.00  0.00     0.201 A 
BRANCH  32  33
HETATM   33  N   UNL     1      -1.886   7.679 -28.622  1.00  0.00    -0.379 N 
HETATM   34  H   UNL     1      -2.310   7.699 -27.698  1.00  0.00     0.158 HD
HETATM   35  H   UNL     1      -1.051   7.101 -28.693  1.00  0.00     0.158 HD
ENDBRANCH  32  33
ENDBRANCH   2  28
TORSDOF 11
ENDMDL
MODEL 3
REMARK VINA RESULT:      -7.2      2.066      3.811
REMARK  11 active torsions:
REMARK  status: ('A' for Active; 'I' for Inactive)
REMARK    1  A    between atoms: C_2  and  C_3 
REMARK    2  A    between atoms: C_3  and  N_4 
REMARK    3  A    between atoms: N_4  and  C_6 
REMARK    4  A    between atoms: N_4  and  C_30 
REMARK    5  A    between atoms: C_6  and  C_7 
REMARK    6  A    between atoms: N_8  and  C_9 
REMARK    7  A    between atoms: C_13  and  N_14 
REMARK    8  A    between atoms: C_17  and  C_18 
REMARK       I    between atoms: C_18  and  N_19 
REMARK    9  A    between atoms: N_19  and  N_20 
REMARK   10  A    between atoms: C_21  and  C_22 
REMARK   11  A    between atoms: C_30  and  C_31 
ROOT
HETATM    1  C   UNL     1      -2.715   5.712 -30.927  1.00  0.00     0.096 A 
HETATM    2  N   UNL     1      -1.482   6.211 -30.503  1.00  0.00    -0.215 N 
HETATM    3  N   UNL     1      -0.503   5.621 -31.245  1.00  0.00     0.012 NA
HETATM    4  N   UNL     1      -1.038   4.713 -32.043  1.00  0.00    -0.152 NA
HETATM    5  C   UNL     1      -2.385   4.735 -31.857  1.00  0.00     0.170 A 
ENDROOT
BRANCH   5   6
HETATM    6  C   UNL     1      -3.316   3.862 -32.557  1.00  0.00     0.293 C 
HETATM    7  N   UNL     1      -3.374   2.579 -32.053  1.00  0.00    -0.242 N 
HETATM    8  H   UNL     1      -2.805   2.317 -31.251  1.00  0.00     0.192 HD
HETATM    9  O   UNL     1      -3.962   4.303 -33.506  1.00  0.00    -0.264 OA
BRANCH   7  10
HETATM   10  N   UNL     1      -4.093   1.631 -32.717  1.00  0.00    -0.184 NA
HETATM   11  C   UNL     1      -3.814   0.401 -32.417  1.00  0.00     0.150 C 
BRANCH  11  12
HETATM   12  C   UNL     1      -4.477  -0.731 -33.096  1.00  0.00    -0.017 A 
HETATM   13  C   UNL     1      -5.749  -0.582 -33.661  1.00  0.00     0.014 A 
HETATM   14  C   UNL     1      -6.348  -1.657 -34.321  1.00  0.00     0.020 A 
HETATM   15  C   UNL     1      -5.674  -2.875 -34.410  1.00  0.00     0.011 A 
HETATM   16 BR   UNL     1      -6.483  -4.328 -35.309  1.00  0.00    -0.051 Br
HETATM   17  C   UNL     1      -4.408  -3.029 -33.845  1.00  0.00     0.020 A 
HETATM   18  C   UNL     1      -3.805  -1.954 -33.186  1.00  0.00     0.014 A 
ENDBRANCH  11  12
ENDBRANCH   7  10
ENDBRANCH   5   6
BRANCH   1  19
HETATM   19  C   UNL     1      -4.056   6.216 -30.527  1.00  0.00     0.296 C 
BRANCH  19  20
HETATM   20  N   UNL     1      -4.870   5.288 -29.635  1.00  0.00    -0.066 N 
HETATM   21  H   UNL     1      -4.189   4.582 -29.287  1.00  0.00     0.280 HD
BRANCH  20  22
HETATM   22  C   UNL     1      -5.953   4.555 -30.409  1.00  0.00     0.235 C 
BRANCH  22  23
HETATM   23  C   UNL     1      -6.136   3.089 -30.020  1.00  0.00     0.023 C 
HETATM   24  C   UNL     1      -7.365   2.431 -30.624  1.00  0.00     0.007 C 
ENDBRANCH  22  23
ENDBRANCH  20  22
BRANCH  20  25
HETATM   25  C   UNL     1      -5.447   6.023 -28.436  1.00  0.00     0.235 C 
BRANCH  25  26
HETATM   26  C   UNL     1      -4.573   7.172 -27.933  1.00  0.00     0.023 C 
HETATM   27  C   UNL     1      -3.819   6.869 -26.649  1.00  0.00     0.007 C 
ENDBRANCH  25  26
ENDBRANCH  20  25
ENDBRANCH  19  20
ENDBRANCH   1  19
BRANCH   2  28
HETATM   28  C   UNL     1      -1.180   7.124 -29.465  1.00  0.00     0.225 A 
HETATM   29  N   UNL     1      -1.542   8.404 -29.569  1.00  0.00    -0.081 NA
HETATM   30  O   UNL     1      -1.106   8.972 -28.369  1.00  0.00    -0.103 OA
HETATM   31  N   UNL     1      -0.507   8.023 -27.553  1.00  0.00    -0.083 NA
HETATM   32  C   UNL     1      -0.556   6.878 -28.230  1.00  0.00     0.201 A 
BRANCH  32  33
HETATM   33  N   UNL     1      -0.075   5.709 -27.779  1.00  0.00    -0.379 N 
HETATM   34  H   UNL     1       0.886   5.441 -27.979  1.00  0.00     0.158 HD
HETATM   35  H   UNL     1      -0.534   5.144 -27.066  1.00  0.00     0.158 HD
ENDBRANCH  32  33
ENDBRANCH   2  28
TORSDOF 11
ENDMDL
MODEL 4
REMARK VINA RESULT:      -7.1      3.788      5.588
REMARK  11 active torsions:
REMARK  status: ('A' for Active; 'I' for Inactive)
REMARK    1  A    between atoms: C_2  and  C_3 
REMARK    2  A    between atoms: C_3  and  N_4 
REMARK    3  A    between atoms: N_4  and  C_6 
REMARK    4  A    between atoms: N_4  and  C_30 
REMARK    5  A    between atoms: C_6  and  C_7 
REMARK    6  A    between atoms: N_8  and  C_9 
REMARK    7  A    between atoms: C_13  and  N_14 
REMARK    8  A    between atoms: C_17  and  C_18 
REMARK       I    between atoms: C_18  and  N_19 
REMARK    9  A    between atoms: N_19  and  N_20 
REMARK   10  A    between atoms: C_21  and  C_22 
REMARK   11  A    between atoms: C_30  and  C_31 
ROOT
HETATM    1  C   UNL     1      -4.247   4.271 -32.692  1.00  0.00     0.096 A 
HETATM    2  N   UNL     1      -3.251   5.151 -33.121  1.00  0.00    -0.215 N 
HETATM    3  N   UNL     1      -3.646   5.703 -34.303  1.00  0.00     0.012 NA
HETATM    4  N   UNL     1      -4.784   5.153 -34.690  1.00  0.00    -0.152 NA
HETATM    5  C   UNL     1      -5.165   4.263 -33.734  1.00  0.00     0.170 A 
ENDROOT
BRANCH   5   6
HETATM    6  C   UNL     1      -6.370   3.450 -33.815  1.00  0.00     0.293 C 
HETATM    7  N   UNL     1      -7.516   4.097 -33.401  1.00  0.00    -0.242 N 
HETATM    8  H   UNL     1      -7.473   5.064 -33.089  1.00  0.00     0.192 HD
HETATM    9  O   UNL     1      -6.293   2.294 -34.227  1.00  0.00    -0.264 OA
BRANCH   7  10
HETATM   10  N   UNL     1      -8.677   3.394 -33.287  1.00  0.00    -0.184 NA
HETATM   11  C   UNL     1      -9.435   3.385 -34.338  1.00  0.00     0.150 C 
BRANCH  11  12
HETATM   12  C   UNL     1     -10.748   2.707 -34.340  1.00  0.00    -0.017 A 
HETATM   13  C   UNL     1     -10.925   1.486 -33.680  1.00  0.00     0.014 A 
HETATM   14  C   UNL     1     -12.180   0.874 -33.673  1.00  0.00     0.020 A 
HETATM   15  C   UNL     1     -13.250   1.485 -34.326  1.00  0.00     0.011 A 
HETATM   16 BR   UNL     1     -14.950   0.659 -34.310  1.00  0.00    -0.051 Br
HETATM   17  C   UNL     1     -13.077   2.700 -34.989  1.00  0.00     0.020 A 
HETATM   18  C   UNL     1     -11.823   3.315 -34.996  1.00  0.00     0.014 A 
ENDBRANCH  11  12
ENDBRANCH   7  10
ENDBRANCH   5   6
BRANCH   1  19
HETATM   19  C   UNL     1      -4.321   3.600 -31.368  1.00  0.00     0.296 C 
BRANCH  19  20
HETATM   20  N   UNL     1      -4.654   2.114 -31.398  1.00  0.00    -0.066 N 
HETATM   21  H   UNL     1      -5.175   1.973 -32.289  1.00  0.00     0.280 HD
BRANCH  20  22
HETATM   22  C   UNL     1      -5.566   1.708 -30.252  1.00  0.00     0.235 C 
BRANCH  22  23
HETATM   23  C   UNL     1      -7.026   1.490 -30.643  1.00  0.00     0.023 C 
HETATM   24  C   UNL     1      -7.255   0.304 -31.565  1.00  0.00     0.007 C 
ENDBRANCH  22  23
ENDBRANCH  20  22
BRANCH  20  25
HETATM   25  C   UNL     1      -3.401   1.255 -31.440  1.00  0.00     0.235 C 
BRANCH  25  26
HETATM   26  C   UNL     1      -3.405   0.205 -32.551  1.00  0.00     0.023 C 
HETATM   27  C   UNL     1      -3.900  -1.165 -32.113  1.00  0.00     0.007 C 
ENDBRANCH  25  26
ENDBRANCH  20  25
ENDBRANCH  19  20
ENDBRANCH   1  19
BRANCH   2  28
HETATM   28  C   UNL     1      -1.995   5.452 -32.542  1.00  0.00     0.225 A 
HETATM   29  N   UNL     1      -1.267   4.489 -31.975  1.00  0.00    -0.081 NA
HETATM   30  O   UNL     1      -0.111   5.150 -31.551  1.00  0.00    -0.103 OA
HETATM   31  N   UNL     1      -0.151   6.496 -31.888  1.00  0.00    -0.083 NA
HETATM   32  C   UNL     1      -1.316   6.683 -32.504  1.00  0.00     0.201 A 
BRANCH  32  33
HETATM   33  N   UNL     1      -1.737   7.861 -32.989  1.00  0.00    -0.379 N 
HETATM   34  H   UNL     1      -1.331   8.239 -33.841  1.00  0.00     0.158 HD
HETATM   35  H   UNL     1      -2.590   8.327 -32.683  1.00  0.00     0.158 HD
ENDBRANCH  32  33
ENDBRANCH   2  28
TORSDOF 11
ENDMDL
MODEL 5
REMARK VINA RESULT:      -7.0      4.602      8.614
REMARK  11 active torsions:
REMARK  status: ('A' for Active; 'I' for Inactive)
REMARK    1  A    between atoms: C_2  and  C_3 
REMARK    2  A    between atoms: C_3  and  N_4 
REMARK    3  A    between atoms: N_4  and  C_6 
REMARK    4  A    between atoms: N_4  and  C_30 
REMARK    5  A    between atoms: C_6  and  C_7 
REMARK    6  A    between atoms: N_8  and  C_9 
REMARK    7  A    between atoms: C_13  and  N_14 
REMARK    8  A    between atoms: C_17  and  C_18 
REMARK       I    between atoms: C_18  and  N_19 
REMARK    9  A    between atoms: N_19  and  N_20 
REMARK   10  A    between atoms: C_21  and  C_22 
REMARK   11  A    between atoms: C_30  and  C_31 
ROOT
HETATM    1  C   UNL     1     -10.044   3.778 -33.733  1.00  0.00     0.096 A 
HETATM    2  N   UNL     1     -11.235   3.813 -34.460  1.00  0.00    -0.215 N 
HETATM    3  N   UNL     1     -11.294   4.998 -35.130  1.00  0.00     0.012 NA
HETATM    4  N   UNL     1     -10.259   5.749 -34.793  1.00  0.00    -0.152 NA
HETATM    5  C   UNL     1      -9.488   5.035 -33.929  1.00  0.00     0.170 A 
ENDROOT
BRANCH   5   6
HETATM    6  C   UNL     1      -8.262   5.539 -33.328  1.00  0.00     0.293 C 
HETATM    7  N   UNL     1      -7.121   5.245 -34.045  1.00  0.00    -0.242 N 
HETATM    8  H   UNL     1      -7.184   4.729 -34.920  1.00  0.00     0.192 HD
HETATM    9  O   UNL     1      -8.319   6.166 -32.272  1.00  0.00    -0.264 OA
BRANCH   7  10
HETATM   10  N   UNL     1      -5.901   5.530 -33.508  1.00  0.00    -0.184 NA
HETATM   11  C   UNL     1      -4.978   4.642 -33.706  1.00  0.00     0.150 C 
BRANCH  11  12
HETATM   12  C   UNL     1      -3.623   4.794 -33.138  1.00  0.00    -0.017 A 
HETATM   13  C   UNL     1      -2.559   5.236 -33.931  1.00  0.00     0.014 A 
HETATM   14  C   UNL     1      -1.291   5.397 -33.368  1.00  0.00     0.020 A 
HETATM   15  C   UNL     1      -1.094   5.114 -32.017  1.00  0.00     0.011 A 
HETATM   16 BR   UNL     1       0.621   5.339 -31.255  1.00  0.00    -0.051 Br
HETATM   17  C   UNL     1      -2.151   4.669 -31.223  1.00  0.00     0.020 A 
HETATM   18  C   UNL     1      -3.421   4.509 -31.783  1.00  0.00     0.014 A 
ENDBRANCH  11  12
ENDBRANCH   7  10
ENDBRANCH   5   6
BRANCH   1  19
HETATM   19  C   UNL     1      -9.482   2.603 -33.014  1.00  0.00     0.296 C 
BRANCH  19  20
HETATM   20  N   UNL     1      -8.238   1.982 -33.635  1.00  0.00    -0.066 N 
HETATM   21  H   UNL     1      -7.870   2.707 -34.285  1.00  0.00     0.280 HD
BRANCH  20  22
HETATM   22  C   UNL     1      -8.565   0.741 -34.452  1.00  0.00     0.235 C 
BRANCH  22  23
HETATM   23  C   UNL     1      -7.377   0.137 -35.199  1.00  0.00     0.023 C 
HETATM   24  C   UNL     1      -7.006  -1.266 -34.750  1.00  0.00     0.007 C 
ENDBRANCH  22  23
ENDBRANCH  20  22
BRANCH  20  25
HETATM   25  C   UNL     1      -7.171   1.693 -32.592  1.00  0.00     0.235 C 
BRANCH  25  26
HETATM   26  C   UNL     1      -7.631   0.753 -31.478  1.00  0.00     0.023 C 
HETATM   27  C   UNL     1      -6.511  -0.050 -30.836  1.00  0.00     0.007 C 
ENDBRANCH  25  26
ENDBRANCH  20  25
ENDBRANCH  19  20
ENDBRANCH   1  19
BRANCH   2  28
HETATM   28  C   UNL     1     -12.289   2.870 -34.522  1.00  0.00     0.225 A 
HETATM   29  N   UNL     1     -12.544   2.220 -35.659  1.00  0.00    -0.081 NA
HETATM   30  O   UNL     1     -13.609   1.377 -35.330  1.00  0.00    -0.103 OA
HETATM   31  N   UNL     1     -13.966   1.517 -33.996  1.00  0.00    -0.083 NA
HETATM   32  C   UNL     1     -13.146   2.439 -33.495  1.00  0.00     0.201 A 
BRANCH  32  33
HETATM   33  N   UNL     1     -13.169   2.862 -32.221  1.00  0.00    -0.379 N 
HETATM   34  H   UNL     1     -12.905   2.232 -31.468  1.00  0.00     0.158 HD
HETATM   35  H   UNL     1     -13.234   3.842 -31.951  1.00  0.00     0.158 HD
ENDBRANCH  32  33
ENDBRANCH   2  28
TORSDOF 11
ENDMDL
MODEL 6
REMARK VINA RESULT:      -7.0      4.525      8.716
REMARK  11 active torsions:
REMARK  status: ('A' for Active; 'I' for Inactive)
REMARK    1  A    between atoms: C_2  and  C_3 
REMARK    2  A    between atoms: C_3  and  N_4 
REMARK    3  A    between atoms: N_4  and  C_6 
REMARK    4  A    between atoms: N_4  and  C_30 
REMARK    5  A    between atoms: C_6  and  C_7 
REMARK    6  A    between atoms: N_8  and  C_9 
REMARK    7  A    between atoms: C_13  and  N_14 
REMARK    8  A    between atoms: C_17  and  C_18 
REMARK       I    between atoms: C_18  and  N_19 
REMARK    9  A    between atoms: N_19  and  N_20 
REMARK   10  A    between atoms: C_21  and  C_22 
REMARK   11  A    between atoms: C_30  and  C_31 
ROOT
HETATM    1  C   UNL     1      -9.907   2.430 -33.207  1.00  0.00     0.096 A 
HETATM    2  N   UNL     1     -11.066   2.145 -33.931  1.00  0.00    -0.215 N 
HETATM    3  N   UNL     1     -11.192   3.073 -34.922  1.00  0.00     0.012 NA
HETATM    4  N   UNL     1     -10.236   3.978 -34.805  1.00  0.00    -0.152 NA
HETATM    5  C   UNL     1      -9.447   3.620 -33.756  1.00  0.00     0.170 A 
ENDROOT
BRANCH   5   6
HETATM    6  C   UNL     1      -8.291   4.384 -33.311  1.00  0.00     0.293 C 
HETATM    7  N   UNL     1      -7.139   4.133 -34.028  1.00  0.00    -0.242 N 
HETATM    8  H   UNL     1      -7.150   3.472 -34.802  1.00  0.00     0.192 HD
HETATM    9  O   UNL     1      -8.409   5.167 -32.371  1.00  0.00    -0.264 OA
BRANCH   7  10
HETATM   10  N   UNL     1      -5.959   4.672 -33.610  1.00  0.00    -0.184 NA
HETATM   11  C   UNL     1      -5.000   3.828 -33.395  1.00  0.00     0.150 C 
BRANCH  11  12
HETATM   12  C   UNL     1      -3.683   4.264 -32.889  1.00  0.00    -0.017 A 
HETATM   13  C   UNL     1      -3.358   4.137 -31.533  1.00  0.00     0.014 A 
HETATM   14  C   UNL     1      -2.098   4.533 -31.079  1.00  0.00     0.020 A 
HETATM   15  C   UNL     1      -1.171   5.054 -31.981  1.00  0.00     0.011 A 
HETATM   16 BR   UNL     1       0.536   5.583 -31.366  1.00  0.00    -0.051 Br
HETATM   17  C   UNL     1      -1.492   5.187 -33.332  1.00  0.00     0.020 A 
HETATM   18  C   UNL     1      -2.751   4.790 -33.790  1.00  0.00     0.014 A 
ENDBRANCH  11  12
ENDBRANCH   7  10
ENDBRANCH   5   6
BRANCH   1  19
HETATM   19  C   UNL     1      -9.284   1.572 -32.165  1.00  0.00     0.296 C 
BRANCH  19  20
HETATM   20  N   UNL     1      -7.900   1.029 -32.497  1.00  0.00    -0.066 N 
HETATM   21  H   UNL     1      -7.550   1.636 -33.268  1.00  0.00     0.280 HD
BRANCH  20  22
HETATM   22  C   UNL     1      -7.954  -0.400 -33.013  1.00  0.00     0.235 C 
BRANCH  22  23
HETATM   23  C   UNL     1      -7.357  -0.600 -34.404  1.00  0.00     0.023 C 
HETATM   24  C   UNL     1      -7.283   0.666 -35.240  1.00  0.00     0.007 C 
ENDBRANCH  22  23
ENDBRANCH  20  22
BRANCH  20  25
HETATM   25  C   UNL     1      -6.947   1.159 -31.321  1.00  0.00     0.235 C 
BRANCH  25  26
HETATM   26  C   UNL     1      -6.035  -0.053 -31.124  1.00  0.00     0.023 C 
HETATM   27  C   UNL     1      -4.570   0.212 -31.431  1.00  0.00     0.007 C 
ENDBRANCH  25  26
ENDBRANCH  20  25
ENDBRANCH  19  20
ENDBRANCH   1  19
BRANCH   2  28
HETATM   28  C   UNL     1     -12.038   1.136 -33.730  1.00  0.00     0.225 A 
HETATM   29  N   UNL     1     -11.664  -0.101 -33.400  1.00  0.00    -0.081 NA
HETATM   30  O   UNL     1     -12.873  -0.790 -33.263  1.00  0.00    -0.103 OA
HETATM   31  N   UNL     1     -13.955   0.047 -33.493  1.00  0.00    -0.083 NA
HETATM   32  C   UNL     1     -13.439   1.241 -33.778  1.00  0.00     0.201 A 
BRANCH  32  33
HETATM   33  N   UNL     1     -14.165   2.333 -34.065  1.00  0.00    -0.379 N 
HETATM   34  H   UNL     1     -14.220   2.674 -35.021  1.00  0.00     0.158 HD
HETATM   35  H   UNL     1     -14.846   2.743 -33.428  1.00  0.00     0.158 HD
ENDBRANCH  32  33
ENDBRANCH   2  28
TORSDOF 11
ENDMDL
MODEL 7
REMARK VINA RESULT:      -7.0      6.370      7.942
REMARK  11 active torsions:
REMARK  status: ('A' for Active; 'I' for Inactive)
REMARK    1  A    between atoms: C_2  and  C_3 
REMARK    2  A    between atoms: C_3  and  N_4 
REMARK    3  A    between atoms: N_4  and  C_6 
REMARK    4  A    between atoms: N_4  and  C_30 
REMARK    5  A    between atoms: C_6  and  C_7 
REMARK    6  A    between atoms: N_8  and  C_9 
REMARK    7  A    between atoms: C_13  and  N_14 
REMARK    8  A    between atoms: C_17  and  C_18 
REMARK       I    between atoms: C_18  and  N_19 
REMARK    9  A    between atoms: N_19  and  N_20 
REMARK   10  A    between atoms: C_21  and  C_22 
REMARK   11  A    between atoms: C_30  and  C_31 
ROOT
HETATM    1  C   UNL     1     -11.128   3.991 -33.993  1.00  0.00     0.096 A 
HETATM    2  N   UNL     1     -11.930   4.765 -34.833  1.00  0.00    -0.215 N 
HETATM    3  N   UNL     1     -12.467   3.951 -35.785  1.00  0.00     0.012 NA
HETATM    4  N   UNL     1     -11.976   2.731 -35.652  1.00  0.00    -0.152 NA
HETATM    5  C   UNL     1     -11.142   2.730 -34.576  1.00  0.00     0.170 A 
ENDROOT
BRANCH   5   6
HETATM    6  C   UNL     1     -10.403   1.562 -34.122  1.00  0.00     0.293 C 
HETATM    7  N   UNL     1      -9.216   1.349 -34.792  1.00  0.00    -0.242 N 
HETATM    8  H   UNL     1      -8.919   1.990 -35.525  1.00  0.00     0.192 HD
HETATM    9  O   UNL     1     -10.860   0.873 -33.212  1.00  0.00    -0.264 OA
BRANCH   7  10
HETATM   10  N   UNL     1      -8.512   0.205 -34.561  1.00  0.00    -0.184 NA
HETATM   11  C   UNL     1      -7.222   0.319 -34.608  1.00  0.00     0.150 C 
BRANCH  11  12
HETATM   12  C   UNL     1      -6.335  -0.848 -34.429  1.00  0.00    -0.017 A 
HETATM   13  C   UNL     1      -5.107  -0.721 -33.770  1.00  0.00     0.014 A 
HETATM   14  C   UNL     1      -4.295  -1.842 -33.589  1.00  0.00     0.020 A 
HETATM   15  C   UNL     1      -4.712  -3.082 -34.069  1.00  0.00     0.011 A 
HETATM   16 BR   UNL     1      -3.614  -4.601 -33.818  1.00  0.00    -0.051 Br
HETATM   17  C   UNL     1      -5.933  -3.214 -34.731  1.00  0.00     0.020 A 
HETATM   18  C   UNL     1      -6.750  -2.094 -34.911  1.00  0.00     0.014 A 
ENDBRANCH  11  12
ENDBRANCH   7  10
ENDBRANCH   5   6
BRANCH   1  19
HETATM   19  C   UNL     1     -10.505   4.429 -32.716  1.00  0.00     0.296 C 
BRANCH  19  20
HETATM   20  N   UNL     1     -11.030   3.750 -31.458  1.00  0.00    -0.066 N 
HETATM   21  H   UNL     1     -11.555   2.918 -31.800  1.00  0.00     0.280 HD
BRANCH  20  22
HETATM   22  C   UNL     1     -12.000   4.635 -30.692  1.00  0.00     0.235 C 
BRANCH  22  23
HETATM   23  C   UNL     1     -13.400   4.048 -30.518  1.00  0.00     0.023 C 
HETATM   24  C   UNL     1     -13.965   3.400 -31.770  1.00  0.00     0.007 C 
ENDBRANCH  22  23
ENDBRANCH  20  22
BRANCH  20  25
HETATM   25  C   UNL     1      -9.899   3.264 -30.566  1.00  0.00     0.235 C 
BRANCH  25  26
HETATM   26  C   UNL     1      -8.547   3.172 -31.273  1.00  0.00     0.023 C 
HETATM   27  C   UNL     1      -7.929   1.784 -31.262  1.00  0.00     0.007 C 
ENDBRANCH  25  26
ENDBRANCH  20  25
ENDBRANCH  19  20
ENDBRANCH   1  19
BRANCH   2  28
HETATM   28  C   UNL     1     -12.172   6.160 -34.825  1.00  0.00     0.225 A 
HETATM   29  N   UNL     1     -13.292   6.645 -34.288  1.00  0.00    -0.081 NA
HETATM   30  O   UNL     1     -13.164   8.028 -34.440  1.00  0.00    -0.103 OA
HETATM   31  N   UNL     1     -11.960   8.356 -35.047  1.00  0.00    -0.083 NA
HETATM   32  C   UNL     1     -11.344   7.200 -35.282  1.00  0.00     0.201 A 
BRANCH  32  33
HETATM   33  N   UNL     1     -10.140   7.086 -35.865  1.00  0.00    -0.379 N 
HETATM   34  H   UNL     1      -9.856   7.747 -36.585  1.00  0.00     0.158 HD
HETATM   35  H   UNL     1      -9.387   6.506 -35.500  1.00  0.00     0.158 HD
ENDBRANCH  32  33
ENDBRANCH   2  28
TORSDOF 11
ENDMDL
MODEL 8
REMARK VINA RESULT:      -7.0      1.846      3.577
REMARK  11 active torsions:
REMARK  status: ('A' for Active; 'I' for Inactive)
REMARK    1  A    between atoms: C_2  and  C_3 
REMARK    2  A    between atoms: C_3  and  N_4 
REMARK    3  A    between atoms: N_4  and  C_6 
REMARK    4  A    between atoms: N_4  and  C_30 
REMARK    5  A    between atoms: C_6  and  C_7 
REMARK    6  A    between atoms: N_8  and  C_9 
REMARK    7  A    between atoms: C_13  and  N_14 
REMARK    8  A    between atoms: C_17  and  C_18 
REMARK       I    between atoms: C_18  and  N_19 
REMARK    9  A    between atoms: N_19  and  N_20 
REMARK   10  A    between atoms: C_21  and  C_22 
REMARK   11  A    between atoms: C_30  and  C_31 
ROOT
HETATM    1  C   UNL     1      -2.746   5.958 -31.148  1.00  0.00     0.096 A 
HETATM    2  N   UNL     1      -1.921   6.514 -30.169  1.00  0.00    -0.215 N 
HETATM    3  N   UNL     1      -0.781   5.772 -30.096  1.00  0.00     0.012 NA
HETATM    4  N   UNL     1      -0.880   4.728 -30.902  1.00  0.00    -0.152 NA
HETATM    5  C   UNL     1      -2.077   4.808 -31.544  1.00  0.00     0.170 A 
ENDROOT
BRANCH   5   6
HETATM    6  C   UNL     1      -2.549   3.825 -32.508  1.00  0.00     0.293 C 
HETATM    7  N   UNL     1      -3.213   2.755 -31.944  1.00  0.00    -0.242 N 
HETATM    8  H   UNL     1      -3.347   2.709 -30.937  1.00  0.00     0.192 HD
HETATM    9  O   UNL     1      -2.338   4.003 -33.706  1.00  0.00    -0.264 OA
BRANCH   7  10
HETATM   10  N   UNL     1      -3.567   1.698 -32.728  1.00  0.00    -0.184 NA
HETATM   11  C   UNL     1      -4.504   0.937 -32.258  1.00  0.00     0.150 C 
BRANCH  11  12
HETATM   12  C   UNL     1      -4.952  -0.273 -32.975  1.00  0.00    -0.017 A 
HETATM   13  C   UNL     1      -4.055  -1.309 -33.263  1.00  0.00     0.014 A 
HETATM   14  C   UNL     1      -4.505  -2.456 -33.920  1.00  0.00     0.020 A 
HETATM   15  C   UNL     1      -5.846  -2.562 -34.286  1.00  0.00     0.011 A 
HETATM   16 BR   UNL     1      -6.455  -4.119 -35.169  1.00  0.00    -0.051 Br
HETATM   17  C   UNL     1      -6.743  -1.531 -34.004  1.00  0.00     0.020 A 
HETATM   18  C   UNL     1      -6.296  -0.383 -33.346  1.00  0.00     0.014 A 
ENDBRANCH  11  12
ENDBRANCH   7  10
ENDBRANCH   5   6
BRANCH   1  19
HETATM   19  C   UNL     1      -3.997   6.553 -31.690  1.00  0.00     0.296 C 
BRANCH  19  20
HETATM   20  N   UNL     1      -5.244   5.685 -31.575  1.00  0.00    -0.066 N 
HETATM   21  H   UNL     1      -4.889   4.708 -31.529  1.00  0.00     0.280 HD
BRANCH  20  22
HETATM   22  C   UNL     1      -6.137   5.803 -32.800  1.00  0.00     0.235 C 
BRANCH  22  23
HETATM   23  C   UNL     1      -5.777   4.861 -33.947  1.00  0.00     0.023 C 
HETATM   24  C   UNL     1      -6.507   3.529 -33.913  1.00  0.00     0.007 C 
ENDBRANCH  22  23
ENDBRANCH  20  22
BRANCH  20  25
HETATM   25  C   UNL     1      -6.014   5.972 -30.297  1.00  0.00     0.235 C 
BRANCH  25  26
HETATM   26  C   UNL     1      -5.990   4.824 -29.287  1.00  0.00     0.023 C 
HETATM   27  C   UNL     1      -5.997   3.439 -29.915  1.00  0.00     0.007 C 
ENDBRANCH  25  26
ENDBRANCH  20  25
ENDBRANCH  19  20
ENDBRANCH   1  19
BRANCH   2  28
HETATM   28  C   UNL     1      -2.147   7.615 -29.308  1.00  0.00     0.225 A 
HETATM   29  N   UNL     1      -2.232   7.432 -27.990  1.00  0.00    -0.081 NA
HETATM   30  O   UNL     1      -2.427   8.720 -27.486  1.00  0.00    -0.103 OA
HETATM   31  N   UNL     1      -2.438   9.662 -28.505  1.00  0.00    -0.083 NA
HETATM   32  C   UNL     1      -2.261   8.978 -29.634  1.00  0.00     0.201 A 
BRANCH  32  33
HETATM   33  N   UNL     1      -2.211   9.531 -30.856  1.00  0.00    -0.379 N 
HETATM   34  H   UNL     1      -1.656  10.368 -31.015  1.00  0.00     0.158 HD
HETATM   35  H   UNL     1      -2.524   9.061 -31.703  1.00  0.00     0.158 HD
ENDBRANCH  32  33
ENDBRANCH   2  28
TORSDOF 11
ENDMDL
MODEL 9
REMARK VINA RESULT:      -6.8      1.092      2.418
REMARK  11 active torsions:
REMARK  status: ('A' for Active; 'I' for Inactive)
REMARK    1  A    between atoms: C_2  and  C_3 
REMARK    2  A    between atoms: C_3  and  N_4 
REMARK    3  A    between atoms: N_4  and  C_6 
REMARK    4  A    between atoms: N_4  and  C_30 
REMARK    5  A    between atoms: C_6  and  C_7 
REMARK    6  A    between atoms: N_8  and  C_9 
REMARK    7  A    between atoms: C_13  and  N_14 
REMARK    8  A    between atoms: C_17  and  C_18 
REMARK       I    between atoms: C_18  and  N_19 
REMARK    9  A    between atoms: N_19  and  N_20 
REMARK   10  A    between atoms: C_21  and  C_22 
REMARK   11  A    between atoms: C_30  and  C_31 
ROOT
HETATM    1  C   UNL     1      -3.620   5.567 -30.976  1.00  0.00     0.096 A 
HETATM    2  N   UNL     1      -4.014   6.702 -30.264  1.00  0.00    -0.215 N 
HETATM    3  N   UNL     1      -5.363   6.842 -30.392  1.00  0.00     0.012 NA
HETATM    4  N   UNL     1      -5.827   5.920 -31.217  1.00  0.00    -0.152 NA
HETATM    5  C   UNL     1      -4.783   5.139 -31.603  1.00  0.00     0.170 A 
ENDROOT
BRANCH   5   6
HETATM    6  C   UNL     1      -4.902   4.019 -32.525  1.00  0.00     0.293 C 
HETATM    7  N   UNL     1      -5.002   2.789 -31.908  1.00  0.00    -0.242 N 
HETATM    8  H   UNL     1      -5.002   2.723 -30.893  1.00  0.00     0.192 HD
HETATM    9  O   UNL     1      -4.907   4.230 -33.736  1.00  0.00    -0.264 OA
BRANCH   7  10
HETATM   10  N   UNL     1      -4.966   1.656 -32.664  1.00  0.00    -0.184 NA
HETATM   11  C   UNL     1      -5.935   0.818 -32.470  1.00  0.00     0.150 C 
BRANCH  11  12
HETATM   12  C   UNL     1      -5.996  -0.474 -33.182  1.00  0.00    -0.017 A 
HETATM   13  C   UNL     1      -7.217  -0.987 -33.634  1.00  0.00     0.014 A 
HETATM   14  C   UNL     1      -7.250  -2.199 -34.327  1.00  0.00     0.020 A 
HETATM   15  C   UNL     1      -6.063  -2.892 -34.562  1.00  0.00     0.011 A 
HETATM   16 BR   UNL     1      -6.107  -4.530 -35.506  1.00  0.00    -0.051 Br
HETATM   17  C   UNL     1      -4.844  -2.388 -34.109  1.00  0.00     0.020 A 
HETATM   18  C   UNL     1      -4.808  -1.174 -33.417  1.00  0.00     0.014 A 
ENDBRANCH  11  12
ENDBRANCH   7  10
ENDBRANCH   5   6
BRANCH   1  19
HETATM   19  C   UNL     1      -2.275   4.934 -30.954  1.00  0.00     0.296 C 
BRANCH  19  20
HETATM   20  N   UNL     1      -1.314   5.389 -32.044  1.00  0.00    -0.066 N 
HETATM   21  H   UNL     1      -1.288   4.603 -32.727  1.00  0.00     0.280 HD
BRANCH  20  22
HETATM   22  C   UNL     1       0.096   5.596 -31.515  1.00  0.00     0.235 C 
BRANCH  22  23
HETATM   23  C   UNL     1       0.392   7.012 -31.024  1.00  0.00     0.023 C 
HETATM   24  C   UNL     1       0.729   7.103 -29.546  1.00  0.00     0.007 C 
ENDBRANCH  22  23
ENDBRANCH  20  22
BRANCH  20  25
HETATM   25  C   UNL     1      -1.823   6.626 -32.765  1.00  0.00     0.235 C 
BRANCH  25  26
HETATM   26  C   UNL     1      -2.123   6.402 -34.247  1.00  0.00     0.023 C 
HETATM   27  C   UNL     1      -1.678   5.049 -34.777  1.00  0.00     0.007 C 
ENDBRANCH  25  26
ENDBRANCH  20  25
ENDBRANCH  19  20
ENDBRANCH   1  19
BRANCH   2  28
HETATM   28  C   UNL     1      -3.233   7.641 -29.548  1.00  0.00     0.225 A 
HETATM   29  N   UNL     1      -2.690   7.310 -28.376  1.00  0.00    -0.081 NA
HETATM   30  O   UNL     1      -1.988   8.458 -27.997  1.00  0.00    -0.103 OA
HETATM   31  N   UNL     1      -2.102   9.455 -28.956  1.00  0.00    -0.083 NA
HETATM   32  C   UNL     1      -2.870   8.948 -29.918  1.00  0.00     0.201 A 
BRANCH  32  33
HETATM   33  N   UNL     1      -3.222   9.607 -31.034  1.00  0.00    -0.379 N 
HETATM   34  H   UNL     1      -2.555  10.218 -31.498  1.00  0.00     0.158 HD
HETATM   35  H   UNL     1      -4.050   9.387 -31.584  1.00  0.00     0.158 HD
ENDBRANCH  32  33
ENDBRANCH   2  28
TORSDOF 11
ENDMDL
MODEL 10
REMARK VINA RESULT:      -6.8      2.414      3.434
REMARK  11 active torsions:
REMARK  status: ('A' for Active; 'I' for Inactive)
REMARK    1  A    between atoms: C_2  and  C_3 
REMARK    2  A    between atoms: C_3  and  N_4 
REMARK    3  A    between atoms: N_4  and  C_6 
REMARK    4  A    between atoms: N_4  and  C_30 
REMARK    5  A    between atoms: C_6  and  C_7 
REMARK    6  A    between atoms: N_8  and  C_9 
REMARK    7  A    between atoms: C_13  and  N_14 
REMARK    8  A    between atoms: C_17  and  C_18 
REMARK       I    between atoms: C_18  and  N_19 
REMARK    9  A    between atoms: N_19  and  N_20 
REMARK   10  A    between atoms: C_21  and  C_22 
REMARK   11  A    between atoms: C_30  and  C_31 
ROOT
HETATM    1  C   UNL     1      -4.412   6.679 -28.862  1.00  0.00     0.096 A 
HETATM    2  N   UNL     1      -4.226   7.505 -27.752  1.00  0.00    -0.215 N 
HETATM    3  N   UNL     1      -4.981   7.021 -26.726  1.00  0.00     0.012 NA
HETATM    4  N   UNL     1      -5.703   5.999 -27.152  1.00  0.00    -0.152 NA
HETATM    5  C   UNL     1      -5.389   5.779 -28.457  1.00  0.00     0.170 A 
ENDROOT
BRANCH   5   6
HETATM    6  C   UNL     1      -5.993   4.737 -29.275  1.00  0.00     0.293 C 
HETATM    7  N   UNL     1      -5.301   3.544 -29.269  1.00  0.00    -0.242 N 
HETATM    8  H   UNL     1      -4.454   3.445 -28.714  1.00  0.00     0.192 HD
HETATM    9  O   UNL     1      -7.032   4.976 -29.887  1.00  0.00    -0.264 OA
BRANCH   7  10
HETATM   10  N   UNL     1      -5.683   2.545 -30.113  1.00  0.00    -0.184 NA
HETATM   11  C   UNL     1      -4.722   1.929 -30.728  1.00  0.00     0.150 C 
BRANCH  11  12
HETATM   12  C   UNL     1      -4.991   0.861 -31.711  1.00  0.00    -0.017 A 
HETATM   13  C   UNL     1      -3.952   0.304 -32.466  1.00  0.00     0.014 A 
HETATM   14  C   UNL     1      -4.224  -0.723 -33.373  1.00  0.00     0.020 A 
HETATM   15  C   UNL     1      -5.531  -1.186 -33.521  1.00  0.00     0.011 A 
HETATM   16 BR   UNL     1      -5.897  -2.580 -34.744  1.00  0.00    -0.051 Br
HETATM   17  C   UNL     1      -6.571  -0.630 -32.775  1.00  0.00     0.020 A 
HETATM   18  C   UNL     1      -6.301   0.396 -31.865  1.00  0.00     0.014 A 
ENDBRANCH  11  12
ENDBRANCH   7  10
ENDBRANCH   5   6
BRANCH   1  19
HETATM   19  C   UNL     1      -3.641   6.723 -30.133  1.00  0.00     0.296 C 
BRANCH  19  20
HETATM   20  N   UNL     1      -2.292   6.017 -30.111  1.00  0.00    -0.066 N 
HETATM   21  H   UNL     1      -2.254   5.536 -29.188  1.00  0.00     0.280 HD
BRANCH  20  22
HETATM   22  C   UNL     1      -1.132   6.998 -30.178  1.00  0.00     0.235 C 
BRANCH  22  23
HETATM   23  C   UNL     1      -0.240   7.018 -28.938  1.00  0.00     0.023 C 
HETATM   24  C   UNL     1       0.550   5.739 -28.717  1.00  0.00     0.007 C 
ENDBRANCH  22  23
ENDBRANCH  20  22
BRANCH  20  25
HETATM   25  C   UNL     1      -2.190   4.962 -31.201  1.00  0.00     0.235 C 
BRANCH  25  26
HETATM   26  C   UNL     1      -1.172   5.295 -32.293  1.00  0.00     0.023 C 
HETATM   27  C   UNL     1      -1.674   5.054 -33.708  1.00  0.00     0.007 C 
ENDBRANCH  25  26
ENDBRANCH  20  25
ENDBRANCH  19  20
ENDBRANCH   1  19
BRANCH   2  28
HETATM   28  C   UNL     1      -3.459   8.686 -27.617  1.00  0.00     0.225 A 
HETATM   29  N   UNL     1      -3.700   9.738 -28.401  1.00  0.00    -0.081 NA
HETATM   30  O   UNL     1      -2.783  10.698 -27.964  1.00  0.00    -0.103 OA
HETATM   31  N   UNL     1      -2.017  10.217 -26.911  1.00  0.00    -0.083 NA
HETATM   32  C   UNL     1      -2.437   8.973 -26.693  1.00  0.00     0.201 A 
BRANCH  32  33
HETATM   33  N   UNL     1      -1.942   8.159 -25.748  1.00  0.00    -0.379 N 
HETATM   34  H   UNL     1      -1.017   7.752 -25.858  1.00  0.00     0.158 HD
HETATM   35  H   UNL     1      -2.336   8.071 -24.813  1.00  0.00     0.158 HD
ENDBRANCH  32  33
ENDBRANCH   2  28
TORSDOF 11
ENDMDL
