MODEL 1
REMARK VINA RESULT:      -8.3      0.000      0.000
REMARK  5 active torsions:
REMARK  status: ('A' for Active; 'I' for Inactive)
REMARK    1  A    between atoms: C_2  and  C_3 
REMARK    2  A    between atoms: C_7  and  N_8 
REMARK    3  A    between atoms: N_8  and  C_9 
REMARK    4  A    between atoms: C_11  and  N_12 
REMARK    5  A    between atoms: C_14  and  N_15 
ROOT
HETATM    1  C   UNL     1      -4.003   1.027 -31.580  1.00  0.00     0.111 A 
HETATM    2  N   UNL     1      -2.797   0.589 -31.188  1.00  0.00    -0.206 NA
HETATM    3  C   UNL     1      -2.399  -0.614 -31.607  1.00  0.00     0.202 A 
HETATM    4  N   UNL     1      -3.115  -1.432 -32.372  1.00  0.00    -0.199 NA
HETATM    5  C   UNL     1      -4.336  -0.984 -32.741  1.00  0.00     0.156 A 
HETATM    6  C   UNL     1      -4.834   0.243 -32.350  1.00  0.00     0.096 A 
ENDROOT
BRANCH   1   7
HETATM    7  N   UNL     1      -4.472   2.272 -31.154  1.00  0.00    -0.265 NA
HETATM    8  H   UNL     1      -5.402   2.224 -30.757  1.00  0.00     0.130 HD
BRANCH   7   9
HETATM    9  C   UNL     1      -4.271   3.427 -32.042  1.00  0.00     0.133 C 
HETATM   10  C   UNL     1      -3.117   4.286 -31.594  1.00  0.00     0.142 A 
HETATM   11  N   UNL     1      -3.308   5.455 -30.917  1.00  0.00    -0.253 N 
HETATM   12  N   UNL     1      -1.821   4.094 -31.743  1.00  0.00    -0.215 NA
HETATM   13  N   UNL     1      -2.148   6.057 -30.618  1.00  0.00    -0.155 NA
HETATM   14  C   UNL     1      -4.576   6.086 -30.630  1.00  0.00     0.153 C 
HETATM   15  C   UNL     1      -1.263   5.192 -31.132  1.00  0.00     0.151 A 
HETATM   16  C   UNL     1      -5.751   5.136 -30.847  1.00  0.00     0.024 C 
HETATM   17  C   UNL     1      -5.554   4.299 -32.116  1.00  0.00     0.029 C 
BRANCH  15  18
HETATM   18  C   UNL     1       0.212   5.417 -31.066  1.00  0.00     0.051 C 
HETATM   19  C   UNL     1       0.802   4.839 -29.779  1.00  0.00     0.018 C 
HETATM   20  C   UNL     1       0.557   6.901 -31.194  1.00  0.00     0.018 C 
ENDBRANCH  15  18
ENDBRANCH   7   9
ENDBRANCH   1   7
BRANCH   3  21
HETATM   21  N   UNL     1      -1.162  -1.056 -31.185  1.00  0.00    -0.271 NA
HETATM   22  H   UNL     1      -0.725  -0.340 -30.622  1.00  0.00     0.127 HD
HETATM   23  H   UNL     1      -1.253  -1.972 -30.767  1.00  0.00     0.127 HD
ENDBRANCH   3  21
BRANCH   5  24
HETATM   24  N   UNL     1      -5.129  -1.813 -33.585  1.00  0.00    -0.227 N 
HETATM   25  N   UNL     1      -4.615  -2.893 -34.239  1.00  0.00    -0.179 NA
HETATM   26  C   UNL     1      -5.656  -3.407 -34.898  1.00  0.00     0.141 A 
HETATM   27  C   UNL     1      -6.842  -2.688 -34.684  1.00  0.00     0.040 A 
HETATM   28  C   UNL     1      -6.478  -1.669 -33.838  1.00  0.00     0.122 A 
ENDBRANCH   5  24
TORSDOF 5
ENDMDL
MODEL 2
REMARK VINA RESULT:      -8.1      2.090      7.671
REMARK  5 active torsions:
REMARK  status: ('A' for Active; 'I' for Inactive)
REMARK    1  A    between atoms: C_2  and  C_3 
REMARK    2  A    between atoms: C_7  and  N_8 
REMARK    3  A    between atoms: N_8  and  C_9 
REMARK    4  A    between atoms: C_11  and  N_12 
REMARK    5  A    between atoms: C_14  and  N_15 
ROOT
HETATM    1  C   UNL     1      -3.357   3.840 -32.671  1.00  0.00     0.111 A 
HETATM    2  N   UNL     1      -2.952   4.207 -33.896  1.00  0.00    -0.206 NA
HETATM    3  C   UNL     1      -1.795   4.864 -34.006  1.00  0.00     0.202 A 
HETATM    4  N   UNL     1      -1.013   5.208 -32.987  1.00  0.00    -0.199 NA
HETATM    5  C   UNL     1      -1.446   4.849 -31.758  1.00  0.00     0.156 A 
HETATM    6  C   UNL     1      -2.632   4.174 -31.548  1.00  0.00     0.096 A 
ENDROOT
BRANCH   1   7
HETATM    7  N   UNL     1      -4.569   3.166 -32.502  1.00  0.00    -0.265 NA
HETATM    8  H   UNL     1      -5.345   3.794 -32.338  1.00  0.00     0.130 HD
BRANCH   7   9
HETATM    9  C   UNL     1      -4.583   1.975 -31.640  1.00  0.00     0.133 C 
HETATM   10  C   UNL     1      -5.184   0.783 -32.338  1.00  0.00     0.142 A 
HETATM   11  N   UNL     1      -6.465   0.376 -32.098  1.00  0.00    -0.253 N 
HETATM   12  N   UNL     1      -4.651  -0.019 -33.239  1.00  0.00    -0.215 NA
HETATM   13  N   UNL     1      -6.792  -0.702 -32.824  1.00  0.00    -0.155 NA
HETATM   14  C   UNL     1      -7.368   0.918 -31.109  1.00  0.00     0.153 C 
HETATM   15  C   UNL     1      -5.662  -0.909 -33.513  1.00  0.00     0.151 A 
HETATM   16  C   UNL     1      -6.887   2.262 -30.568  1.00  0.00     0.024 C 
HETATM   17  C   UNL     1      -5.373   2.248 -30.331  1.00  0.00     0.029 C 
BRANCH  15  18
HETATM   18  C   UNL     1      -5.508  -2.032 -34.486  1.00  0.00     0.051 C 
HETATM   19  C   UNL     1      -6.794  -2.853 -34.589  1.00  0.00     0.018 C 
HETATM   20  C   UNL     1      -4.326  -2.930 -34.120  1.00  0.00     0.018 C 
ENDBRANCH  15  18
ENDBRANCH   7   9
ENDBRANCH   1   7
BRANCH   3  21
HETATM   21  N   UNL     1      -1.399   5.245 -35.270  1.00  0.00    -0.271 NA
HETATM   22  H   UNL     1      -2.092   4.945 -35.943  1.00  0.00     0.127 HD
HETATM   23  H   UNL     1      -1.161   6.228 -35.270  1.00  0.00     0.127 HD
ENDBRANCH   3  21
BRANCH   5  24
HETATM   24  N   UNL     1      -0.626   5.169 -30.638  1.00  0.00    -0.227 N 
HETATM   25  N   UNL     1       0.393   4.363 -30.225  1.00  0.00    -0.179 NA
HETATM   26  C   UNL     1       0.920   5.005 -29.180  1.00  0.00     0.141 A 
HETATM   27  C   UNL     1       0.269   6.217 -28.904  1.00  0.00     0.040 A 
HETATM   28  C   UNL     1      -0.720   6.300 -29.853  1.00  0.00     0.122 A 
ENDBRANCH   5  24
TORSDOF 5
ENDMDL
MODEL 3
REMARK VINA RESULT:      -8.0      4.145      7.696
REMARK  5 active torsions:
REMARK  status: ('A' for Active; 'I' for Inactive)
REMARK    1  A    between atoms: C_2  and  C_3 
REMARK    2  A    between atoms: C_7  and  N_8 
REMARK    3  A    between atoms: N_8  and  C_9 
REMARK    4  A    between atoms: C_11  and  N_12 
REMARK    5  A    between atoms: C_14  and  N_15 
ROOT
HETATM    1  C   UNL     1      -7.734   1.977 -32.997  1.00  0.00     0.111 A 
HETATM    2  N   UNL     1      -7.437   3.235 -33.358  1.00  0.00    -0.206 NA
HETATM    3  C   UNL     1      -8.402   3.975 -33.909  1.00  0.00     0.202 A 
HETATM    4  N   UNL     1      -9.640   3.557 -34.154  1.00  0.00    -0.199 NA
HETATM    5  C   UNL     1      -9.916   2.281 -33.803  1.00  0.00     0.156 A 
HETATM    6  C   UNL     1      -8.980   1.440 -33.234  1.00  0.00     0.096 A 
ENDROOT
BRANCH   1   7
HETATM    7  N   UNL     1      -6.754   1.158 -32.431  1.00  0.00    -0.265 NA
HETATM    8  H   UNL     1      -6.637   1.319 -31.438  1.00  0.00     0.130 HD
BRANCH   7   9
HETATM    9  C   UNL     1      -5.485   0.997 -33.155  1.00  0.00     0.133 C 
HETATM   10  C   UNL     1      -5.151  -0.454 -33.387  1.00  0.00     0.142 A 
HETATM   11  N   UNL     1      -4.236  -1.116 -32.618  1.00  0.00    -0.253 N 
HETATM   12  N   UNL     1      -5.633  -1.295 -34.281  1.00  0.00    -0.215 NA
HETATM   13  N   UNL     1      -4.094  -2.393 -32.997  1.00  0.00    -0.155 NA
HETATM   14  C   UNL     1      -3.403  -0.541 -31.587  1.00  0.00     0.153 C 
HETATM   15  C   UNL     1      -4.968  -2.466 -34.011  1.00  0.00     0.151 A 
HETATM   16  C   UNL     1      -3.885   0.845 -31.166  1.00  0.00     0.024 C 
HETATM   17  C   UNL     1      -4.318   1.669 -32.384  1.00  0.00     0.029 C 
BRANCH  15  18
HETATM   18  C   UNL     1      -5.184  -3.718 -34.796  1.00  0.00     0.051 C 
HETATM   19  C   UNL     1      -6.675  -4.007 -34.976  1.00  0.00     0.018 C 
HETATM   20  C   UNL     1      -4.480  -4.911 -34.150  1.00  0.00     0.018 C 
ENDBRANCH  15  18
ENDBRANCH   7   9
ENDBRANCH   1   7
BRANCH   3  21
HETATM   21  N   UNL     1      -8.078   5.261 -34.286  1.00  0.00    -0.271 NA
HETATM   22  H   UNL     1      -7.234   5.548 -33.809  1.00  0.00     0.127 HD
HETATM   23  H   UNL     1      -8.076   5.330 -35.295  1.00  0.00     0.127 HD
ENDBRANCH   3  21
BRANCH   5  24
HETATM   24  N   UNL     1     -11.238   1.796 -34.017  1.00  0.00    -0.227 N 
HETATM   25  N   UNL     1     -11.694   0.643 -33.453  1.00  0.00    -0.179 NA
HETATM   26  C   UNL     1     -12.958   0.546 -33.871  1.00  0.00     0.141 A 
HETATM   27  C   UNL     1     -13.340   1.616 -34.694  1.00  0.00     0.040 A 
HETATM   28  C   UNL     1     -12.219   2.406 -34.773  1.00  0.00     0.122 A 
ENDBRANCH   5  24
TORSDOF 5
ENDMDL
MODEL 4
REMARK VINA RESULT:      -7.9      1.686      2.590
REMARK  5 active torsions:
REMARK  status: ('A' for Active; 'I' for Inactive)
REMARK    1  A    between atoms: C_2  and  C_3 
REMARK    2  A    between atoms: C_7  and  N_8 
REMARK    3  A    between atoms: N_8  and  C_9 
REMARK    4  A    between atoms: C_11  and  N_12 
REMARK    5  A    between atoms: C_14  and  N_15 
ROOT
HETATM    1  C   UNL     1      -5.711   1.800 -31.725  1.00  0.00     0.111 A 
HETATM    2  N   UNL     1      -6.962   1.942 -31.263  1.00  0.00    -0.206 NA
HETATM    3  C   UNL     1      -7.853   0.992 -31.556  1.00  0.00     0.202 A 
HETATM    4  N   UNL     1      -7.606  -0.084 -32.296  1.00  0.00    -0.199 NA
HETATM    5  C   UNL     1      -6.346  -0.202 -32.771  1.00  0.00     0.156 A 
HETATM    6  C   UNL     1      -5.361   0.734 -32.525  1.00  0.00     0.096 A 
ENDROOT
BRANCH   1   7
HETATM    7  N   UNL     1      -4.747   2.775 -31.459  1.00  0.00    -0.265 NA
HETATM    8  H   UNL     1      -5.009   3.384 -30.694  1.00  0.00     0.130 HD
BRANCH   7   9
HETATM    9  C   UNL     1      -4.151   3.486 -32.600  1.00  0.00     0.133 C 
HETATM   10  C   UNL     1      -3.029   4.395 -32.170  1.00  0.00     0.142 A 
HETATM   11  N   UNL     1      -3.201   5.744 -32.041  1.00  0.00    -0.253 N 
HETATM   12  N   UNL     1      -1.783   4.099 -31.853  1.00  0.00    -0.215 NA
HETATM   13  N   UNL     1      -2.076   6.357 -31.650  1.00  0.00    -0.155 NA
HETATM   14  C   UNL     1      -4.386   6.495 -32.384  1.00  0.00     0.153 C 
HETATM   15  C   UNL     1      -1.235   5.320 -31.539  1.00  0.00     0.151 A 
HETATM   16  C   UNL     1      -5.601   5.593 -32.582  1.00  0.00     0.024 C 
HETATM   17  C   UNL     1      -5.221   4.323 -33.352  1.00  0.00     0.029 C 
BRANCH  15  18
HETATM   18  C   UNL     1       0.192   5.483 -31.127  1.00  0.00     0.051 C 
HETATM   19  C   UNL     1       0.439   4.882 -29.743  1.00  0.00     0.018 C 
HETATM   20  C   UNL     1       0.618   6.950 -31.160  1.00  0.00     0.018 C 
ENDBRANCH  15  18
ENDBRANCH   7   9
ENDBRANCH   1   7
BRANCH   3  21
HETATM   21  N   UNL     1      -9.138   1.159 -31.083  1.00  0.00    -0.271 NA
HETATM   22  H   UNL     1      -9.657   1.744 -31.724  1.00  0.00     0.127 HD
HETATM   23  H   UNL     1      -9.539   0.257 -30.864  1.00  0.00     0.127 HD
ENDBRANCH   3  21
BRANCH   5  24
HETATM   24  N   UNL     1      -6.024  -1.355 -33.544  1.00  0.00    -0.227 N 
HETATM   25  N   UNL     1      -4.747  -1.811 -33.678  1.00  0.00    -0.179 NA
HETATM   26  C   UNL     1      -4.863  -2.897 -34.445  1.00  0.00     0.141 A 
HETATM   27  C   UNL     1      -6.190  -3.163 -34.813  1.00  0.00     0.040 A 
HETATM   28  C   UNL     1      -6.918  -2.159 -34.222  1.00  0.00     0.122 A 
ENDBRANCH   5  24
TORSDOF 5
ENDMDL
MODEL 5
REMARK VINA RESULT:      -7.6      2.123      3.191
REMARK  5 active torsions:
REMARK  status: ('A' for Active; 'I' for Inactive)
REMARK    1  A    between atoms: C_2  and  C_3 
REMARK    2  A    between atoms: C_7  and  N_8 
REMARK    3  A    between atoms: N_8  and  C_9 
REMARK    4  A    between atoms: C_11  and  N_12 
REMARK    5  A    between atoms: C_14  and  N_15 
ROOT
HETATM    1  C   UNL     1      -5.455   0.950 -32.976  1.00  0.00     0.111 A 
HETATM    2  N   UNL     1      -6.394   1.146 -33.914  1.00  0.00    -0.206 NA
HETATM    3  C   UNL     1      -6.700   0.128 -34.721  1.00  0.00     0.202 A 
HETATM    4  N   UNL     1      -6.128  -1.072 -34.687  1.00  0.00    -0.199 NA
HETATM    5  C   UNL     1      -5.169  -1.246 -33.750  1.00  0.00     0.156 A 
HETATM    6  C   UNL     1      -4.783  -0.249 -32.877  1.00  0.00     0.096 A 
ENDROOT
BRANCH   1   7
HETATM    7  N   UNL     1      -5.089   1.989 -32.118  1.00  0.00    -0.265 NA
HETATM    8  H   UNL     1      -5.075   1.706 -31.146  1.00  0.00     0.130 HD
BRANCH   7   9
HETATM    9  C   UNL     1      -5.693   3.312 -32.337  1.00  0.00     0.133 C 
HETATM   10  C   UNL     1      -4.649   4.382 -32.523  1.00  0.00     0.142 A 
HETATM   11  N   UNL     1      -4.309   5.241 -31.518  1.00  0.00    -0.253 N 
HETATM   12  N   UNL     1      -3.921   4.668 -33.585  1.00  0.00    -0.215 NA
HETATM   13  N   UNL     1      -3.363   6.110 -31.901  1.00  0.00    -0.155 NA
HETATM   14  C   UNL     1      -4.934   5.336 -30.219  1.00  0.00     0.153 C 
HETATM   15  C   UNL     1      -3.147   5.724 -33.166  1.00  0.00     0.151 A 
HETATM   16  C   UNL     1      -5.811   4.124 -29.914  1.00  0.00     0.024 C 
HETATM   17  C   UNL     1      -6.615   3.703 -31.150  1.00  0.00     0.029 C 
BRANCH  15  18
HETATM   18  C   UNL     1      -2.159   6.405 -34.055  1.00  0.00     0.051 C 
HETATM   19  C   UNL     1      -1.325   5.387 -34.835  1.00  0.00     0.018 C 
HETATM   20  C   UNL     1      -1.252   7.348 -33.264  1.00  0.00     0.018 C 
ENDBRANCH  15  18
ENDBRANCH   7   9
ENDBRANCH   1   7
BRANCH   3  21
HETATM   21  N   UNL     1      -7.658   0.350 -35.688  1.00  0.00    -0.271 NA
HETATM   22  H   UNL     1      -7.580  -0.359 -36.405  1.00  0.00     0.127 HD
HETATM   23  H   UNL     1      -8.563   0.459 -35.251  1.00  0.00     0.127 HD
ENDBRANCH   3  21
BRANCH   5  24
HETATM   24  N   UNL     1      -4.549  -2.525 -33.654  1.00  0.00    -0.227 N 
HETATM   25  N   UNL     1      -3.627  -2.819 -32.695  1.00  0.00    -0.179 NA
HETATM   26  C   UNL     1      -3.305  -4.094 -32.925  1.00  0.00     0.141 A 
HETATM   27  C   UNL     1      -4.001  -4.641 -34.013  1.00  0.00     0.040 A 
HETATM   28  C   UNL     1      -4.794  -3.615 -34.464  1.00  0.00     0.122 A 
ENDBRANCH   5  24
TORSDOF 5
ENDMDL
MODEL 6
REMARK VINA RESULT:      -7.6      2.182      8.049
REMARK  5 active torsions:
REMARK  status: ('A' for Active; 'I' for Inactive)
REMARK    1  A    between atoms: C_2  and  C_3 
REMARK    2  A    between atoms: C_7  and  N_8 
REMARK    3  A    between atoms: N_8  and  C_9 
REMARK    4  A    between atoms: C_11  and  N_12 
REMARK    5  A    between atoms: C_14  and  N_15 
ROOT
HETATM    1  C   UNL     1      -5.343   3.792 -33.260  1.00  0.00     0.111 A 
HETATM    2  N   UNL     1      -6.223   4.802 -33.186  1.00  0.00    -0.206 NA
HETATM    3  C   UNL     1      -5.783   5.989 -32.762  1.00  0.00     0.202 A 
HETATM    4  N   UNL     1      -4.536   6.250 -32.381  1.00  0.00    -0.199 NA
HETATM    5  C   UNL     1      -3.667   5.216 -32.443  1.00  0.00     0.156 A 
HETATM    6  C   UNL     1      -4.034   3.953 -32.862  1.00  0.00     0.096 A 
ENDROOT
BRANCH   1   7
HETATM    7  N   UNL     1      -5.757   2.526 -33.682  1.00  0.00    -0.265 NA
HETATM    8  H   UNL     1      -6.540   2.566 -34.324  1.00  0.00     0.130 HD
BRANCH   7   9
HETATM    9  C   UNL     1      -5.879   1.466 -32.671  1.00  0.00     0.133 C 
HETATM   10  C   UNL     1      -6.128   0.119 -33.298  1.00  0.00     0.142 A 
HETATM   11  N   UNL     1      -7.373  -0.442 -33.333  1.00  0.00    -0.253 N 
HETATM   12  N   UNL     1      -5.282  -0.702 -33.888  1.00  0.00    -0.215 NA
HETATM   13  N   UNL     1      -7.366  -1.639 -33.934  1.00  0.00    -0.155 NA
HETATM   14  C   UNL     1      -8.569   0.080 -32.713  1.00  0.00     0.153 C 
HETATM   15  C   UNL     1      -6.073  -1.761 -34.265  1.00  0.00     0.151 A 
HETATM   16  C   UNL     1      -8.407   1.539 -32.292  1.00  0.00     0.024 C 
HETATM   17  C   UNL     1      -7.026   1.781 -31.673  1.00  0.00     0.029 C 
BRANCH  15  18
HETATM   18  C   UNL     1      -5.533  -2.963 -34.969  1.00  0.00     0.051 C 
HETATM   19  C   UNL     1      -6.587  -4.067 -35.063  1.00  0.00     0.018 C 
HETATM   20  C   UNL     1      -4.267  -3.485 -34.291  1.00  0.00     0.018 C 
ENDBRANCH  15  18
ENDBRANCH   7   9
ENDBRANCH   1   7
BRANCH   3  21
HETATM   21  N   UNL     1      -6.702   7.013 -32.679  1.00  0.00    -0.271 NA
HETATM   22  H   UNL     1      -7.617   6.628 -32.486  1.00  0.00     0.127 HD
HETATM   23  H   UNL     1      -6.364   7.723 -32.043  1.00  0.00     0.127 HD
ENDBRANCH   3  21
BRANCH   5  24
HETATM   24  N   UNL     1      -2.312   5.455 -32.074  1.00  0.00    -0.227 N 
HETATM   25  N   UNL     1      -1.580   4.554 -31.361  1.00  0.00    -0.179 NA
HETATM   26  C   UNL     1      -0.381   5.126 -31.237  1.00  0.00     0.141 A 
HETATM   27  C   UNL     1      -0.312   6.382 -31.859  1.00  0.00     0.040 A 
HETATM   28  C   UNL     1      -1.564   6.571 -32.390  1.00  0.00     0.122 A 
ENDBRANCH   5  24
TORSDOF 5
ENDMDL
MODEL 7
REMARK VINA RESULT:      -7.5      3.147      5.536
REMARK  5 active torsions:
REMARK  status: ('A' for Active; 'I' for Inactive)
REMARK    1  A    between atoms: C_2  and  C_3 
REMARK    2  A    between atoms: C_7  and  N_8 
REMARK    3  A    between atoms: N_8  and  C_9 
REMARK    4  A    between atoms: C_11  and  N_12 
REMARK    5  A    between atoms: C_14  and  N_15 
ROOT
HETATM    1  C   UNL     1      -4.640   0.800 -32.804  1.00  0.00     0.111 A 
HETATM    2  N   UNL     1      -3.530   0.598 -32.079  1.00  0.00    -0.206 NA
HETATM    3  C   UNL     1      -3.032  -0.639 -32.022  1.00  0.00     0.202 A 
HETATM    4  N   UNL     1      -3.565  -1.704 -32.612  1.00  0.00    -0.199 NA
HETATM    5  C   UNL     1      -4.695  -1.487 -33.321  1.00  0.00     0.156 A 
HETATM    6  C   UNL     1      -5.285  -0.244 -33.431  1.00  0.00     0.096 A 
ENDROOT
BRANCH   1   7
HETATM    7  N   UNL     1      -5.208   2.074 -32.882  1.00  0.00    -0.265 NA
HETATM    8  H   UNL     1      -4.539   2.784 -33.153  1.00  0.00     0.130 HD
BRANCH   7   9
HETATM    9  C   UNL     1      -6.108   2.497 -31.798  1.00  0.00     0.133 C 
HETATM   10  C   UNL     1      -7.540   2.577 -32.257  1.00  0.00     0.142 A 
HETATM   11  N   UNL     1      -8.135   3.768 -32.560  1.00  0.00    -0.253 N 
HETATM   12  N   UNL     1      -8.416   1.610 -32.449  1.00  0.00    -0.215 NA
HETATM   13  N   UNL     1      -9.409   3.608 -32.944  1.00  0.00    -0.155 NA
HETATM   14  C   UNL     1      -7.561   5.083 -32.394  1.00  0.00     0.153 C 
HETATM   15  C   UNL     1      -9.542   2.276 -32.870  1.00  0.00     0.151 A 
HETATM   16  C   UNL     1      -6.052   5.026 -32.171  1.00  0.00     0.024 C 
HETATM   17  C   UNL     1      -5.679   3.876 -31.229  1.00  0.00     0.029 C 
BRANCH  15  18
HETATM   18  C   UNL     1     -10.820   1.577 -33.199  1.00  0.00     0.051 C 
HETATM   19  C   UNL     1     -10.668   0.061 -33.072  1.00  0.00     0.018 C 
HETATM   20  C   UNL     1     -11.318   1.951 -34.595  1.00  0.00     0.018 C 
ENDBRANCH  15  18
ENDBRANCH   7   9
ENDBRANCH   1   7
BRANCH   3  21
HETATM   21  N   UNL     1      -1.898  -0.833 -31.262  1.00  0.00    -0.271 NA
HETATM   22  H   UNL     1      -1.826  -1.809 -31.010  1.00  0.00     0.127 HD
HETATM   23  H   UNL     1      -1.101  -0.423 -31.730  1.00  0.00     0.127 HD
ENDBRANCH   3  21
BRANCH   5  24
HETATM   24  N   UNL     1      -5.287  -2.593 -33.997  1.00  0.00    -0.227 N 
HETATM   25  N   UNL     1      -4.610  -3.752 -34.232  1.00  0.00    -0.179 NA
HETATM   26  C   UNL     1      -5.494  -4.531 -34.858  1.00  0.00     0.141 A 
HETATM   27  C   UNL     1      -6.738  -3.906 -35.034  1.00  0.00     0.040 A 
HETATM   28  C   UNL     1      -6.580  -2.663 -34.473  1.00  0.00     0.122 A 
ENDBRANCH   5  24
TORSDOF 5
ENDMDL
MODEL 8
REMARK VINA RESULT:      -7.4      2.008      3.323
REMARK  5 active torsions:
REMARK  status: ('A' for Active; 'I' for Inactive)
REMARK    1  A    between atoms: C_2  and  C_3 
REMARK    2  A    between atoms: C_7  and  N_8 
REMARK    3  A    between atoms: N_8  and  C_9 
REMARK    4  A    between atoms: C_11  and  N_12 
REMARK    5  A    between atoms: C_14  and  N_15 
ROOT
HETATM    1  C   UNL     1      -4.621   3.606 -31.787  1.00  0.00     0.111 A 
HETATM    2  N   UNL     1      -5.379   3.654 -30.681  1.00  0.00    -0.206 NA
HETATM    3  C   UNL     1      -6.144   2.598 -30.396  1.00  0.00     0.202 A 
HETATM    4  N   UNL     1      -6.236   1.499 -31.138  1.00  0.00    -0.199 NA
HETATM    5  C   UNL     1      -5.481   1.475 -32.260  1.00  0.00     0.156 A 
HETATM    6  C   UNL     1      -4.666   2.523 -32.638  1.00  0.00     0.096 A 
ENDROOT
BRANCH   1   7
HETATM    7  N   UNL     1      -3.815   4.692 -32.137  1.00  0.00    -0.265 NA
HETATM    8  H   UNL     1      -4.266   5.316 -32.795  1.00  0.00     0.130 HD
BRANCH   7   9
HETATM    9  C   UNL     1      -2.401   4.433 -32.445  1.00  0.00     0.133 C 
HETATM   10  C   UNL     1      -1.480   5.294 -31.622  1.00  0.00     0.142 A 
HETATM   11  N   UNL     1      -0.885   6.411 -32.136  1.00  0.00    -0.253 N 
HETATM   12  N   UNL     1      -1.108   5.163 -30.363  1.00  0.00    -0.215 NA
HETATM   13  N   UNL     1      -0.107   7.025 -31.233  1.00  0.00    -0.155 NA
HETATM   14  C   UNL     1      -0.946   6.865 -33.506  1.00  0.00     0.153 C 
HETATM   15  C   UNL     1      -0.275   6.237 -30.161  1.00  0.00     0.151 A 
HETATM   16  C   UNL     1      -2.052   6.167 -34.293  1.00  0.00     0.024 C 
HETATM   17  C   UNL     1      -2.110   4.673 -33.951  1.00  0.00     0.029 C 
BRANCH  15  18
HETATM   18  C   UNL     1       0.408   6.496 -28.859  1.00  0.00     0.051 C 
HETATM   19  C   UNL     1      -0.530   6.234 -27.681  1.00  0.00     0.018 C 
HETATM   20  C   UNL     1       0.967   7.918 -28.794  1.00  0.00     0.018 C 
ENDBRANCH  15  18
ENDBRANCH   7   9
ENDBRANCH   1   7
BRANCH   3  21
HETATM   21  N   UNL     1      -6.927   2.669 -29.263  1.00  0.00    -0.271 NA
HETATM   22  H   UNL     1      -6.339   2.852 -28.461  1.00  0.00     0.127 HD
HETATM   23  H   UNL     1      -7.695   3.307 -29.420  1.00  0.00     0.127 HD
ENDBRANCH   3  21
BRANCH   5  24
HETATM   24  N   UNL     1      -5.523   0.306 -33.072  1.00  0.00    -0.227 N 
HETATM   25  N   UNL     1      -4.720  -0.772 -32.842  1.00  0.00    -0.179 NA
HETATM   26  C   UNL     1      -5.066  -1.649 -33.786  1.00  0.00     0.141 A 
HETATM   27  C   UNL     1      -6.082  -1.170 -34.627  1.00  0.00     0.040 A 
HETATM   28  C   UNL     1      -6.359   0.087 -34.148  1.00  0.00     0.122 A 
ENDBRANCH   5  24
TORSDOF 5
ENDMDL
MODEL 9
REMARK VINA RESULT:      -7.4      2.314      3.622
REMARK  5 active torsions:
REMARK  status: ('A' for Active; 'I' for Inactive)
REMARK    1  A    between atoms: C_2  and  C_3 
REMARK    2  A    between atoms: C_7  and  N_8 
REMARK    3  A    between atoms: N_8  and  C_9 
REMARK    4  A    between atoms: C_11  and  N_12 
REMARK    5  A    between atoms: C_14  and  N_15 
ROOT
HETATM    1  C   UNL     1      -7.307   1.261 -31.651  1.00  0.00     0.111 A 
HETATM    2  N   UNL     1      -8.637   1.226 -31.824  1.00  0.00    -0.206 NA
HETATM    3  C   UNL     1      -9.144   0.273 -32.609  1.00  0.00     0.202 A 
HETATM    4  N   UNL     1      -8.430  -0.640 -33.260  1.00  0.00    -0.199 NA
HETATM    5  C   UNL     1      -7.090  -0.578 -33.091  1.00  0.00     0.156 A 
HETATM    6  C   UNL     1      -6.477   0.376 -32.303  1.00  0.00     0.096 A 
ENDROOT
BRANCH   1   7
HETATM    7  N   UNL     1      -6.727   2.249 -30.852  1.00  0.00    -0.265 NA
HETATM    8  H   UNL     1      -7.011   2.182 -29.882  1.00  0.00     0.130 HD
BRANCH   7   9
HETATM    9  C   UNL     1      -6.704   3.627 -31.364  1.00  0.00     0.133 C 
HETATM   10  C   UNL     1      -5.300   4.101 -31.635  1.00  0.00     0.142 A 
HETATM   11  N   UNL     1      -4.638   4.927 -30.771  1.00  0.00    -0.253 N 
HETATM   12  N   UNL     1      -4.504   3.833 -32.652  1.00  0.00    -0.215 NA
HETATM   13  N   UNL     1      -3.406   5.224 -31.208  1.00  0.00    -0.155 NA
HETATM   14  C   UNL     1      -5.180   5.538 -29.580  1.00  0.00     0.153 C 
HETATM   15  C   UNL     1      -3.359   4.532 -32.355  1.00  0.00     0.151 A 
HETATM   16  C   UNL     1      -6.495   4.892 -29.151  1.00  0.00     0.024 C 
HETATM   17  C   UNL     1      -7.385   4.601 -30.365  1.00  0.00     0.029 C 
BRANCH  15  18
HETATM   18  C   UNL     1      -2.162   4.540 -33.249  1.00  0.00     0.051 C 
HETATM   19  C   UNL     1      -0.993   5.282 -32.601  1.00  0.00     0.018 C 
HETATM   20  C   UNL     1      -2.490   5.143 -34.615  1.00  0.00     0.018 C 
ENDBRANCH  15  18
ENDBRANCH   7   9
ENDBRANCH   1   7
BRANCH   3  21
HETATM   21  N   UNL     1     -10.511   0.258 -32.788  1.00  0.00    -0.271 NA
HETATM   22  H   UNL     1     -10.966   0.435 -31.902  1.00  0.00     0.127 HD
HETATM   23  H   UNL     1     -10.760   0.865 -33.557  1.00  0.00     0.127 HD
ENDBRANCH   3  21
BRANCH   5  24
HETATM   24  N   UNL     1      -6.285  -1.555 -33.743  1.00  0.00    -0.227 N 
HETATM   25  N   UNL     1      -4.932  -1.609 -33.587  1.00  0.00    -0.179 NA
HETATM   26  C   UNL     1      -4.554  -2.652 -34.329  1.00  0.00     0.141 A 
HETATM   27  C   UNL     1      -5.633  -3.284 -34.965  1.00  0.00     0.040 A 
HETATM   28  C   UNL     1      -6.733  -2.563 -34.573  1.00  0.00     0.122 A 
ENDBRANCH   5  24
TORSDOF 5
ENDMDL
MODEL 10
REMARK VINA RESULT:      -7.4      2.517      3.859
REMARK  5 active torsions:
REMARK  status: ('A' for Active; 'I' for Inactive)
REMARK    1  A    between atoms: C_2  and  C_3 
REMARK    2  A    between atoms: C_7  and  N_8 
REMARK    3  A    between atoms: N_8  and  C_9 
REMARK    4  A    between atoms: C_11  and  N_12 
REMARK    5  A    between atoms: C_14  and  N_15 
ROOT
HETATM    1  C   UNL     1      -5.027   3.677 -32.026  1.00  0.00     0.111 A 
HETATM    2  N   UNL     1      -5.713   3.725 -30.874  1.00  0.00    -0.206 NA
HETATM    3  C   UNL     1      -6.312   2.610 -30.452  1.00  0.00     0.202 A 
HETATM    4  N   UNL     1      -6.305   1.448 -31.097  1.00  0.00    -0.199 NA
HETATM    5  C   UNL     1      -5.627   1.422 -32.267  1.00  0.00     0.156 A 
HETATM    6  C   UNL     1      -4.983   2.528 -32.784  1.00  0.00     0.096 A 
ENDROOT
BRANCH   1   7
HETATM    7  N   UNL     1      -4.397   4.822 -32.519  1.00  0.00    -0.265 NA
HETATM    8  H   UNL     1      -4.596   4.987 -33.497  1.00  0.00     0.130 HD
BRANCH   7   9
HETATM    9  C   UNL     1      -2.988   5.044 -32.160  1.00  0.00     0.133 C 
HETATM   10  C   UNL     1      -2.675   6.508 -31.994  1.00  0.00     0.142 A 
HETATM   11  N   UNL     1      -2.035   7.223 -32.965  1.00  0.00    -0.253 N 
HETATM   12  N   UNL     1      -2.938   7.314 -30.984  1.00  0.00    -0.215 NA
HETATM   13  N   UNL     1      -1.858   8.503 -32.610  1.00  0.00    -0.155 NA
HETATM   14  C   UNL     1      -1.485   6.703 -34.195  1.00  0.00     0.153 C 
HETATM   15  C   UNL     1      -2.428   8.521 -31.397  1.00  0.00     0.151 A 
HETATM   16  C   UNL     1      -1.995   5.297 -34.503  1.00  0.00     0.024 C 
HETATM   17  C   UNL     1      -2.042   4.440 -33.233  1.00  0.00     0.029 C 
BRANCH  15  18
HETATM   18  C   UNL     1      -2.483   9.753 -30.553  1.00  0.00     0.051 C 
HETATM   19  C   UNL     1      -1.897   9.498 -29.164  1.00  0.00     0.018 C 
HETATM   20  C   UNL     1      -3.910  10.291 -30.443  1.00  0.00     0.018 C 
ENDBRANCH  15  18
ENDBRANCH   7   9
ENDBRANCH   1   7
BRANCH   3  21
HETATM   21  N   UNL     1      -7.024   2.679 -29.272  1.00  0.00    -0.271 NA
HETATM   22  H   UNL     1      -7.219   3.647 -29.055  1.00  0.00     0.127 HD
HETATM   23  H   UNL     1      -7.816   2.052 -29.316  1.00  0.00     0.127 HD
ENDBRANCH   3  21
BRANCH   5  24
HETATM   24  N   UNL     1      -5.565   0.190 -32.980  1.00  0.00    -0.227 N 
HETATM   25  N   UNL     1      -4.392  -0.466 -33.202  1.00  0.00    -0.179 NA
HETATM   26  C   UNL     1      -4.749  -1.564 -33.873  1.00  0.00     0.141 A 
HETATM   27  C   UNL     1      -6.133  -1.640 -34.090  1.00  0.00     0.040 A 
HETATM   28  C   UNL     1      -6.636  -0.503 -33.508  1.00  0.00     0.122 A 
ENDBRANCH   5  24
TORSDOF 5
ENDMDL
