MODEL 1
REMARK VINA RESULT:      -8.9      0.000      0.000
REMARK  6 active torsions:
REMARK  status: ('A' for Active; 'I' for Inactive)
REMARK    1  A    between atoms: C_5  and  C_6 
REMARK    2  A    between atoms: C_6  and  N_7 
REMARK    3  A    between atoms: C_6  and  C_11 
REMARK       I    between atoms: N_7  and  C_8 
REMARK    4  A    between atoms: C_11  and  C_12 
REMARK       I    between atoms: C_12  and  N_13 
REMARK    5  A    between atoms: N_13  and  C_14 
REMARK    6  A    between atoms: C_16  and  C_17 
ROOT
HETATM    1  C   UNL     1      -3.738   1.628 -31.605  1.00  0.00     0.224 C 
HETATM    2  N   UNL     1      -3.861   2.925 -32.068  1.00  0.00    -0.327 N 
HETATM    3  O   UNL     1      -2.721   1.102 -31.161  1.00  0.00    -0.273 OA
HETATM    4  H   UNL     1      -4.802   3.248 -32.265  1.00  0.00     0.169 HD
ENDROOT
BRANCH   1   5
HETATM    5  C   UNL     1      -5.045   0.861 -31.635  1.00  0.00     0.133 C 
BRANCH   5   6
HETATM    6  C   UNL     1      -5.594   0.816 -33.065  1.00  0.00     0.126 C 
BRANCH   6   7
HETATM    7  C   UNL     1      -5.708  -0.598 -33.619  1.00  0.00    -0.035 A 
HETATM    8  C   UNL     1      -6.956  -1.083 -34.041  1.00  0.00     0.010 A 
HETATM    9  C   UNL     1      -7.080  -2.366 -34.582  1.00  0.00     0.007 A 
HETATM   10  C   UNL     1      -5.960  -3.191 -34.717  1.00  0.00    -0.062 A 
HETATM   11  C   UNL     1      -6.086  -4.575 -35.281  1.00  0.00     0.048 C 
HETATM   12  C   UNL     1      -4.716  -2.717 -34.292  1.00  0.00     0.007 A 
HETATM   13  C   UNL     1      -4.590  -1.435 -33.751  1.00  0.00     0.010 A 
ENDBRANCH   6   7
BRANCH   6  14
HETATM   14  N   UNL     1      -6.843   1.552 -33.260  1.00  0.00    -0.352 N 
HETATM   15  C   UNL     1      -6.943   2.821 -33.779  1.00  0.00     0.214 C 
HETATM   16  C   UNL     1      -8.342   3.376 -33.769  1.00  0.00     0.117 C 
HETATM   17  O   UNL     1      -5.996   3.472 -34.209  1.00  0.00    -0.274 OA
HETATM   18  H   UNL     1      -7.646   1.188 -32.765  1.00  0.00     0.163 HD
ENDBRANCH   6  14
ENDBRANCH   5   6
ENDBRANCH   1   5
BRANCH   2  19
HETATM   19  C   UNL     1      -2.841   3.887 -32.222  1.00  0.00     0.035 A 
HETATM   20  C   UNL     1      -2.165   4.487 -31.155  1.00  0.00     0.042 A 
HETATM   21  C   UNL     1      -1.146   5.430 -31.377  1.00  0.00    -0.021 A 
HETATM   22  C   UNL     1      -0.808   5.758 -32.697  1.00  0.00     0.012 A 
HETATM   23  C   UNL     1      -1.473   5.161 -33.769  1.00  0.00     0.003 A 
HETATM   24  C   UNL     1      -2.484   4.230 -33.531  1.00  0.00     0.029 A 
BRANCH  21  25
HETATM   25  C   UNL     1      -0.438   6.055 -30.267  1.00  0.00     0.010 A 
HETATM   26  C   UNL     1      -0.367   7.408 -29.855  1.00  0.00     0.152 A 
HETATM   27  N   UNL     1       0.387   7.583 -28.767  1.00  0.00    -0.187 NA
HETATM   28  N   UNL     1       0.808   6.342 -28.477  1.00  0.00    -0.289 N 
HETATM   29  H   UNL     1       1.413   6.213 -27.672  1.00  0.00     0.188 HD
HETATM   30  C   UNL     1       0.338   5.394 -29.338  1.00  0.00     0.123 A 
ENDBRANCH  21  25
ENDBRANCH   2  19
TORSDOF 6
ENDMDL
MODEL 2
REMARK VINA RESULT:      -8.7      1.245      1.653
REMARK  6 active torsions:
REMARK  status: ('A' for Active; 'I' for Inactive)
REMARK    1  A    between atoms: C_5  and  C_6 
REMARK    2  A    between atoms: C_6  and  N_7 
REMARK    3  A    between atoms: C_6  and  C_11 
REMARK       I    between atoms: N_7  and  C_8 
REMARK    4  A    between atoms: C_11  and  C_12 
REMARK       I    between atoms: C_12  and  N_13 
REMARK    5  A    between atoms: N_13  and  C_14 
REMARK    6  A    between atoms: C_16  and  C_17 
ROOT
HETATM    1  C   UNL     1      -4.141   2.679 -32.359  1.00  0.00     0.224 C 
HETATM    2  N   UNL     1      -2.847   2.988 -32.738  1.00  0.00    -0.327 N 
HETATM    3  O   UNL     1      -5.036   3.475 -32.092  1.00  0.00    -0.273 OA
HETATM    4  H   UNL     1      -2.274   2.218 -33.063  1.00  0.00     0.169 HD
ENDROOT
BRANCH   1   5
HETATM    5  C   UNL     1      -4.414   1.189 -32.345  1.00  0.00     0.133 C 
BRANCH   5   6
HETATM    6  C   UNL     1      -5.769   0.896 -32.999  1.00  0.00     0.126 C 
BRANCH   6   7
HETATM    7  C   UNL     1      -5.850  -0.494 -33.615  1.00  0.00    -0.035 A 
HETATM    8  C   UNL     1      -4.693  -1.283 -33.709  1.00  0.00     0.010 A 
HETATM    9  C   UNL     1      -4.747  -2.574 -34.242  1.00  0.00     0.007 A 
HETATM   10  C   UNL     1      -5.958  -3.106 -34.689  1.00  0.00    -0.062 A 
HETATM   11  C   UNL     1      -6.025  -4.484 -35.278  1.00  0.00     0.048 C 
HETATM   12  C   UNL     1      -7.114  -2.323 -34.607  1.00  0.00     0.007 A 
HETATM   13  C   UNL     1      -7.060  -1.033 -34.073  1.00  0.00     0.010 A 
ENDBRANCH   6   7
BRANCH   6  14
HETATM   14  N   UNL     1      -6.926   1.154 -32.142  1.00  0.00    -0.352 N 
HETATM   15  C   UNL     1      -8.006   1.934 -32.480  1.00  0.00     0.214 C 
HETATM   16  C   UNL     1      -9.003   2.111 -31.366  1.00  0.00     0.117 C 
HETATM   17  O   UNL     1      -8.166   2.460 -33.577  1.00  0.00    -0.274 OA
HETATM   18  H   UNL     1      -6.802   0.930 -31.163  1.00  0.00     0.163 HD
ENDBRANCH   6  14
ENDBRANCH   5   6
ENDBRANCH   1   5
BRANCH   2  19
HETATM   19  C   UNL     1      -2.250   4.265 -32.807  1.00  0.00     0.035 A 
HETATM   20  C   UNL     1      -1.828   4.992 -31.690  1.00  0.00     0.042 A 
HETATM   21  C   UNL     1      -1.227   6.255 -31.828  1.00  0.00    -0.021 A 
HETATM   22  C   UNL     1      -1.049   6.779 -33.116  1.00  0.00     0.012 A 
HETATM   23  C   UNL     1      -1.464   6.060 -34.237  1.00  0.00     0.003 A 
HETATM   24  C   UNL     1      -2.060   4.809 -34.082  1.00  0.00     0.029 A 
BRANCH  21  25
HETATM   25  C   UNL     1      -0.783   7.013 -30.665  1.00  0.00     0.010 A 
HETATM   26  C   UNL     1      -1.432   8.021 -29.911  1.00  0.00     0.152 A 
HETATM   27  N   UNL     1      -0.690   8.471 -28.895  1.00  0.00    -0.187 NA
HETATM   28  N   UNL     1       0.442   7.758 -28.997  1.00  0.00    -0.289 N 
HETATM   29  H   UNL     1       1.180   7.926 -28.321  1.00  0.00     0.188 HD
HETATM   30  C   UNL     1       0.433   6.870 -30.032  1.00  0.00     0.123 A 
ENDBRANCH  21  25
ENDBRANCH   2  19
TORSDOF 6
ENDMDL
MODEL 3
REMARK VINA RESULT:      -8.5      3.505      8.375
REMARK  6 active torsions:
REMARK  status: ('A' for Active; 'I' for Inactive)
REMARK    1  A    between atoms: C_5  and  C_6 
REMARK    2  A    between atoms: C_6  and  N_7 
REMARK    3  A    between atoms: C_6  and  C_11 
REMARK       I    between atoms: N_7  and  C_8 
REMARK    4  A    between atoms: C_11  and  C_12 
REMARK       I    between atoms: C_12  and  N_13 
REMARK    5  A    between atoms: N_13  and  C_14 
REMARK    6  A    between atoms: C_16  and  C_17 
ROOT
HETATM    1  C   UNL     1      -7.108   1.197 -31.112  1.00  0.00     0.224 C 
HETATM    2  N   UNL     1      -7.906   0.650 -32.100  1.00  0.00    -0.327 N 
HETATM    3  O   UNL     1      -7.176   2.338 -30.663  1.00  0.00    -0.273 OA
HETATM    4  H   UNL     1      -7.815  -0.349 -32.253  1.00  0.00     0.169 HD
ENDROOT
BRANCH   1   5
HETATM    5  C   UNL     1      -6.108   0.211 -30.542  1.00  0.00     0.133 C 
BRANCH   5   6
HETATM    6  C   UNL     1      -4.789   0.292 -31.319  1.00  0.00     0.126 C 
BRANCH   6   7
HETATM    7  C   UNL     1      -4.484  -0.969 -32.116  1.00  0.00    -0.035 A 
HETATM    8  C   UNL     1      -3.546  -1.892 -31.628  1.00  0.00     0.010 A 
HETATM    9  C   UNL     1      -3.271  -3.072 -32.325  1.00  0.00     0.007 A 
HETATM   10  C   UNL     1      -3.930  -3.357 -33.524  1.00  0.00    -0.062 A 
HETATM   11  C   UNL     1      -3.630  -4.612 -34.289  1.00  0.00     0.048 C 
HETATM   12  C   UNL     1      -4.859  -2.438 -34.021  1.00  0.00     0.007 A 
HETATM   13  C   UNL     1      -5.135  -1.259 -33.324  1.00  0.00     0.010 A 
ENDBRANCH   6   7
BRANCH   6  14
HETATM   14  N   UNL     1      -4.649   1.483 -32.156  1.00  0.00    -0.352 N 
HETATM   15  C   UNL     1      -3.691   2.456 -31.998  1.00  0.00     0.214 C 
HETATM   16  C   UNL     1      -3.846   3.624 -32.936  1.00  0.00     0.117 C 
HETATM   17  O   UNL     1      -2.786   2.411 -31.171  1.00  0.00    -0.274 OA
HETATM   18  H   UNL     1      -5.450   1.708 -32.731  1.00  0.00     0.163 HD
ENDBRANCH   6  14
ENDBRANCH   5   6
ENDBRANCH   1   5
BRANCH   2  19
HETATM   19  C   UNL     1      -8.894   1.299 -32.868  1.00  0.00     0.035 A 
HETATM   20  C   UNL     1     -10.196   0.817 -33.037  1.00  0.00     0.042 A 
HETATM   21  C   UNL     1     -11.140   1.521 -33.805  1.00  0.00    -0.021 A 
HETATM   22  C   UNL     1     -10.755   2.730 -34.401  1.00  0.00     0.012 A 
HETATM   23  C   UNL     1      -9.460   3.221 -34.236  1.00  0.00     0.003 A 
HETATM   24  C   UNL     1      -8.536   2.509 -33.473  1.00  0.00     0.029 A 
BRANCH  21  25
HETATM   25  C   UNL     1     -12.497   1.022 -33.979  1.00  0.00     0.010 A 
HETATM   26  C   UNL     1     -13.640   1.622 -34.561  1.00  0.00     0.152 A 
HETATM   27  N   UNL     1     -14.714   0.828 -34.542  1.00  0.00    -0.187 NA
HETATM   28  N   UNL     1     -14.266  -0.286 -33.942  1.00  0.00    -0.289 N 
HETATM   29  H   UNL     1     -14.915  -1.054 -33.805  1.00  0.00     0.188 HD
HETATM   30  C   UNL     1     -12.949  -0.223 -33.593  1.00  0.00     0.123 A 
ENDBRANCH  21  25
ENDBRANCH   2  19
TORSDOF 6
ENDMDL
MODEL 4
REMARK VINA RESULT:      -8.5      3.057      8.189
REMARK  6 active torsions:
REMARK  status: ('A' for Active; 'I' for Inactive)
REMARK    1  A    between atoms: C_5  and  C_6 
REMARK    2  A    between atoms: C_6  and  N_7 
REMARK    3  A    between atoms: C_6  and  C_11 
REMARK       I    between atoms: N_7  and  C_8 
REMARK    4  A    between atoms: C_11  and  C_12 
REMARK       I    between atoms: C_12  and  N_13 
REMARK    5  A    between atoms: N_13  and  C_14 
REMARK    6  A    between atoms: C_16  and  C_17 
ROOT
HETATM    1  C   UNL     1      -6.106   1.915 -31.124  1.00  0.00     0.224 C 
HETATM    2  N   UNL     1      -5.316   1.182 -31.990  1.00  0.00    -0.327 N 
HETATM    3  O   UNL     1      -7.333   1.927 -31.083  1.00  0.00    -0.273 OA
HETATM    4  H   UNL     1      -4.321   1.174 -31.798  1.00  0.00     0.169 HD
ENDROOT
BRANCH   1   5
HETATM    5  C   UNL     1      -5.301   2.720 -30.124  1.00  0.00     0.133 C 
BRANCH   5   6
HETATM    6  C   UNL     1      -5.279   4.197 -30.535  1.00  0.00     0.126 C 
BRANCH   6   7
HETATM    7  C   UNL     1      -4.322   4.486 -31.683  1.00  0.00    -0.035 A 
HETATM    8  C   UNL     1      -2.951   4.228 -31.530  1.00  0.00     0.010 A 
HETATM    9  C   UNL     1      -2.057   4.456 -32.581  1.00  0.00     0.007 A 
HETATM   10  C   UNL     1      -2.514   4.943 -33.808  1.00  0.00    -0.062 A 
HETATM   11  C   UNL     1      -1.562   5.207 -34.936  1.00  0.00     0.048 C 
HETATM   12  C   UNL     1      -3.878   5.211 -33.965  1.00  0.00     0.007 A 
HETATM   13  C   UNL     1      -4.772   4.983 -32.915  1.00  0.00     0.010 A 
ENDBRANCH   6   7
BRANCH   6  14
HETATM   14  N   UNL     1      -6.597   4.775 -30.797  1.00  0.00    -0.352 N 
HETATM   15  C   UNL     1      -7.462   5.246 -29.838  1.00  0.00     0.214 C 
HETATM   16  C   UNL     1      -8.793   5.689 -30.382  1.00  0.00     0.117 C 
HETATM   17  O   UNL     1      -7.205   5.304 -28.640  1.00  0.00    -0.274 OA
HETATM   18  H   UNL     1      -6.976   4.596 -31.717  1.00  0.00     0.163 HD
ENDBRANCH   6  14
ENDBRANCH   5   6
ENDBRANCH   1   5
BRANCH   2  19
HETATM   19  C   UNL     1      -5.737   0.372 -33.066  1.00  0.00     0.035 A 
HETATM   20  C   UNL     1      -5.392  -0.974 -33.213  1.00  0.00     0.042 A 
HETATM   21  C   UNL     1      -5.857  -1.731 -34.303  1.00  0.00    -0.021 A 
HETATM   22  C   UNL     1      -6.688  -1.111 -35.247  1.00  0.00     0.012 A 
HETATM   23  C   UNL     1      -7.042   0.231 -35.107  1.00  0.00     0.003 A 
HETATM   24  C   UNL     1      -6.569   0.968 -34.021  1.00  0.00     0.029 A 
BRANCH  21  25
HETATM   25  C   UNL     1      -5.500  -3.135 -34.457  1.00  0.00     0.010 A 
HETATM   26  C   UNL     1      -6.231  -4.226 -34.986  1.00  0.00     0.152 A 
HETATM   27  N   UNL     1      -5.546  -5.373 -34.964  1.00  0.00    -0.187 NA
HETATM   28  N   UNL     1      -4.372  -5.023 -34.415  1.00  0.00    -0.289 N 
HETATM   29  H   UNL     1      -3.667  -5.741 -34.287  1.00  0.00     0.188 HD
HETATM   30  C   UNL     1      -4.293  -3.699 -34.101  1.00  0.00     0.123 A 
ENDBRANCH  21  25
ENDBRANCH   2  19
TORSDOF 6
ENDMDL
MODEL 5
REMARK VINA RESULT:      -8.0      3.700      8.736
REMARK  6 active torsions:
REMARK  status: ('A' for Active; 'I' for Inactive)
REMARK    1  A    between atoms: C_5  and  C_6 
REMARK    2  A    between atoms: C_6  and  N_7 
REMARK    3  A    between atoms: C_6  and  C_11 
REMARK       I    between atoms: N_7  and  C_8 
REMARK    4  A    between atoms: C_11  and  C_12 
REMARK       I    between atoms: C_12  and  N_13 
REMARK    5  A    between atoms: N_13  and  C_14 
REMARK    6  A    between atoms: C_16  and  C_17 
ROOT
HETATM    1  C   UNL     1      -7.941   2.171 -33.883  1.00  0.00     0.224 C 
HETATM    2  N   UNL     1      -9.060   2.237 -34.694  1.00  0.00    -0.327 N 
HETATM    3  O   UNL     1      -7.820   2.654 -32.762  1.00  0.00    -0.273 OA
HETATM    4  H   UNL     1      -9.048   1.663 -35.530  1.00  0.00     0.169 HD
ENDROOT
BRANCH   1   5
HETATM    5  C   UNL     1      -6.815   1.361 -34.493  1.00  0.00     0.133 C 
BRANCH   5   6
HETATM    6  C   UNL     1      -6.135   0.510 -33.414  1.00  0.00     0.126 C 
BRANCH   6   7
HETATM    7  C   UNL     1      -5.922  -0.937 -33.837  1.00  0.00    -0.035 A 
HETATM    8  C   UNL     1      -4.643  -1.507 -33.749  1.00  0.00     0.010 A 
HETATM    9  C   UNL     1      -4.428  -2.843 -34.102  1.00  0.00     0.007 A 
HETATM   10  C   UNL     1      -5.488  -3.638 -34.546  1.00  0.00    -0.062 A 
HETATM   11  C   UNL     1      -5.265  -5.068 -34.944  1.00  0.00     0.048 C 
HETATM   12  C   UNL     1      -6.763  -3.074 -34.645  1.00  0.00     0.007 A 
HETATM   13  C   UNL     1      -6.978  -1.739 -34.292  1.00  0.00     0.010 A 
ENDBRANCH   6   7
BRANCH   6  14
HETATM   14  N   UNL     1      -4.900   1.082 -32.878  1.00  0.00    -0.352 N 
HETATM   15  C   UNL     1      -4.703   1.459 -31.570  1.00  0.00     0.214 C 
HETATM   16  C   UNL     1      -3.371   2.115 -31.319  1.00  0.00     0.117 C 
HETATM   17  O   UNL     1      -5.520   1.298 -30.670  1.00  0.00    -0.274 OA
HETATM   18  H   UNL     1      -4.246   1.431 -33.566  1.00  0.00     0.163 HD
ENDBRANCH   6  14
ENDBRANCH   5   6
ENDBRANCH   1   5
BRANCH   2  19
HETATM   19  C   UNL     1     -10.256   2.945 -34.456  1.00  0.00     0.035 A 
HETATM   20  C   UNL     1     -11.393   2.385 -33.866  1.00  0.00     0.042 A 
HETATM   21  C   UNL     1     -12.551   3.151 -33.643  1.00  0.00    -0.021 A 
HETATM   22  C   UNL     1     -12.547   4.501 -34.020  1.00  0.00     0.012 A 
HETATM   23  C   UNL     1     -11.417   5.071 -34.606  1.00  0.00     0.003 A 
HETATM   24  C   UNL     1     -10.278   4.296 -34.822  1.00  0.00     0.029 A 
BRANCH  21  25
HETATM   25  C   UNL     1     -13.735   2.569 -33.026  1.00  0.00     0.010 A 
HETATM   26  C   UNL     1     -14.479   2.966 -31.888  1.00  0.00     0.152 A 
HETATM   27  N   UNL     1     -15.523   2.170 -31.643  1.00  0.00    -0.187 NA
HETATM   28  N   UNL     1     -15.452   1.254 -32.622  1.00  0.00    -0.289 N 
HETATM   29  H   UNL     1     -16.153   0.521 -32.649  1.00  0.00     0.188 HD
HETATM   30  C   UNL     1     -14.408   1.452 -33.476  1.00  0.00     0.123 A 
ENDBRANCH  21  25
ENDBRANCH   2  19
TORSDOF 6
ENDMDL
MODEL 6
REMARK VINA RESULT:      -8.0      2.000      2.907
REMARK  6 active torsions:
REMARK  status: ('A' for Active; 'I' for Inactive)
REMARK    1  A    between atoms: C_5  and  C_6 
REMARK    2  A    between atoms: C_6  and  N_7 
REMARK    3  A    between atoms: C_6  and  C_11 
REMARK       I    between atoms: N_7  and  C_8 
REMARK    4  A    between atoms: C_11  and  C_12 
REMARK       I    between atoms: C_12  and  N_13 
REMARK    5  A    between atoms: N_13  and  C_14 
REMARK    6  A    between atoms: C_16  and  C_17 
ROOT
HETATM    1  C   UNL     1      -5.184   4.472 -33.691  1.00  0.00     0.224 C 
HETATM    2  N   UNL     1      -3.818   4.262 -33.665  1.00  0.00    -0.327 N 
HETATM    3  O   UNL     1      -5.772   5.509 -33.398  1.00  0.00    -0.273 OA
HETATM    4  H   UNL     1      -3.485   3.396 -34.074  1.00  0.00     0.169 HD
ENDROOT
BRANCH   1   5
HETATM    5  C   UNL     1      -5.960   3.269 -34.188  1.00  0.00     0.133 C 
BRANCH   5   6
HETATM    6  C   UNL     1      -6.434   2.422 -33.001  1.00  0.00     0.126 C 
BRANCH   6   7
HETATM    7  C   UNL     1      -5.585   1.179 -32.773  1.00  0.00    -0.035 A 
HETATM    8  C   UNL     1      -4.638   1.163 -31.737  1.00  0.00     0.010 A 
HETATM    9  C   UNL     1      -3.868   0.023 -31.487  1.00  0.00     0.007 A 
HETATM   10  C   UNL     1      -4.030  -1.126 -32.265  1.00  0.00    -0.062 A 
HETATM   11  C   UNL     1      -3.197  -2.348 -32.017  1.00  0.00     0.048 C 
HETATM   12  C   UNL     1      -4.965  -1.114 -33.304  1.00  0.00     0.007 A 
HETATM   13  C   UNL     1      -5.736   0.025 -33.554  1.00  0.00     0.010 A 
ENDBRANCH   6   7
BRANCH   6  14
HETATM   14  N   UNL     1      -6.610   3.168 -31.755  1.00  0.00    -0.352 N 
HETATM   15  C   UNL     1      -7.682   3.047 -30.902  1.00  0.00     0.214 C 
HETATM   16  C   UNL     1      -7.655   4.013 -29.747  1.00  0.00     0.117 C 
HETATM   17  O   UNL     1      -8.597   2.244 -31.047  1.00  0.00    -0.274 OA
HETATM   18  H   UNL     1      -6.019   3.982 -31.646  1.00  0.00     0.163 HD
ENDBRANCH   6  14
ENDBRANCH   5   6
ENDBRANCH   1   5
BRANCH   2  19
HETATM   19  C   UNL     1      -2.818   5.148 -33.213  1.00  0.00     0.035 A 
HETATM   20  C   UNL     1      -2.164   5.027 -31.983  1.00  0.00     0.042 A 
HETATM   21  C   UNL     1      -1.164   5.937 -31.596  1.00  0.00    -0.021 A 
HETATM   22  C   UNL     1      -0.824   6.975 -32.475  1.00  0.00     0.012 A 
HETATM   23  C   UNL     1      -1.468   7.103 -33.706  1.00  0.00     0.003 A 
HETATM   24  C   UNL     1      -2.459   6.192 -34.072  1.00  0.00     0.029 A 
BRANCH  21  25
HETATM   25  C   UNL     1      -0.480   5.811 -30.317  1.00  0.00     0.010 A 
HETATM   26  C   UNL     1      -0.618   6.544 -29.114  1.00  0.00     0.152 A 
HETATM   27  N   UNL     1       0.193   6.113 -28.143  1.00  0.00    -0.187 NA
HETATM   28  N   UNL     1       0.859   5.102 -28.722  1.00  0.00    -0.289 N 
HETATM   29  H   UNL     1       1.552   4.604 -28.173  1.00  0.00     0.188 HD
HETATM   30  C   UNL     1       0.490   4.877 -30.015  1.00  0.00     0.123 A 
ENDBRANCH  21  25
ENDBRANCH   2  19
TORSDOF 6
ENDMDL
MODEL 7
REMARK VINA RESULT:      -7.8      2.768      8.986
REMARK  6 active torsions:
REMARK  status: ('A' for Active; 'I' for Inactive)
REMARK    1  A    between atoms: C_5  and  C_6 
REMARK    2  A    between atoms: C_6  and  N_7 
REMARK    3  A    between atoms: C_6  and  C_11 
REMARK       I    between atoms: N_7  and  C_8 
REMARK    4  A    between atoms: C_11  and  C_12 
REMARK       I    between atoms: C_12  and  N_13 
REMARK    5  A    between atoms: N_13  and  C_14 
REMARK    6  A    between atoms: C_16  and  C_17 
ROOT
HETATM    1  C   UNL     1      -1.991   4.561 -32.543  1.00  0.00     0.224 C 
HETATM    2  N   UNL     1      -2.740   3.700 -31.763  1.00  0.00    -0.327 N 
HETATM    3  O   UNL     1      -2.051   4.685 -33.763  1.00  0.00    -0.273 OA
HETATM    4  H   UNL     1      -2.672   3.823 -30.759  1.00  0.00     0.169 HD
ENDROOT
BRANCH   1   5
HETATM    5  C   UNL     1      -1.061   5.439 -31.731  1.00  0.00     0.133 C 
BRANCH   5   6
HETATM    6  C   UNL     1      -1.820   6.060 -30.553  1.00  0.00     0.126 C 
BRANCH   6   7
HETATM    7  C   UNL     1      -0.905   6.721 -29.531  1.00  0.00    -0.035 A 
HETATM    8  C   UNL     1       0.116   5.973 -28.923  1.00  0.00     0.010 A 
HETATM    9  C   UNL     1       0.989   6.565 -28.005  1.00  0.00     0.007 A 
HETATM   10  C   UNL     1       0.863   7.917 -27.677  1.00  0.00    -0.062 A 
HETATM   11  C   UNL     1       1.783   8.557 -26.681  1.00  0.00     0.048 C 
HETATM   12  C   UNL     1      -0.157   8.666 -28.272  1.00  0.00     0.007 A 
HETATM   13  C   UNL     1      -1.029   8.075 -29.190  1.00  0.00     0.010 A 
ENDBRANCH   6   7
BRANCH   6  14
HETATM   14  N   UNL     1      -2.907   6.961 -30.937  1.00  0.00    -0.352 N 
HETATM   15  C   UNL     1      -4.245   6.724 -30.728  1.00  0.00     0.214 C 
HETATM   16  C   UNL     1      -5.149   7.772 -31.319  1.00  0.00     0.117 C 
HETATM   17  O   UNL     1      -4.692   5.752 -30.129  1.00  0.00    -0.274 OA
HETATM   18  H   UNL     1      -2.660   7.684 -31.600  1.00  0.00     0.163 HD
ENDBRANCH   6  14
ENDBRANCH   5   6
ENDBRANCH   1   5
BRANCH   2  19
HETATM   19  C   UNL     1      -3.657   2.720 -32.197  1.00  0.00     0.035 A 
HETATM   20  C   UNL     1      -3.369   1.354 -32.264  1.00  0.00     0.042 A 
HETATM   21  C   UNL     1      -4.333   0.425 -32.694  1.00  0.00    -0.021 A 
HETATM   22  C   UNL     1      -5.605   0.894 -33.051  1.00  0.00     0.012 A 
HETATM   23  C   UNL     1      -5.905   2.255 -32.984  1.00  0.00     0.003 A 
HETATM   24  C   UNL     1      -4.935   3.162 -32.558  1.00  0.00     0.029 A 
BRANCH  21  25
HETATM   25  C   UNL     1      -4.035  -0.999 -32.762  1.00  0.00     0.010 A 
HETATM   26  C   UNL     1      -3.287  -1.833 -31.896  1.00  0.00     0.152 A 
HETATM   27  N   UNL     1      -3.252  -3.106 -32.300  1.00  0.00    -0.187 NA
HETATM   28  N   UNL     1      -3.975  -3.094 -33.431  1.00  0.00    -0.289 N 
HETATM   29  H   UNL     1      -4.094  -3.965 -33.937  1.00  0.00     0.188 HD
HETATM   30  C   UNL     1      -4.470  -1.862 -33.746  1.00  0.00     0.123 A 
ENDBRANCH  21  25
ENDBRANCH   2  19
TORSDOF 6
ENDMDL
MODEL 8
REMARK VINA RESULT:      -7.6      4.580      7.899
REMARK  6 active torsions:
REMARK  status: ('A' for Active; 'I' for Inactive)
REMARK    1  A    between atoms: C_5  and  C_6 
REMARK    2  A    between atoms: C_6  and  N_7 
REMARK    3  A    between atoms: C_6  and  C_11 
REMARK       I    between atoms: N_7  and  C_8 
REMARK    4  A    between atoms: C_11  and  C_12 
REMARK       I    between atoms: C_12  and  N_13 
REMARK    5  A    between atoms: N_13  and  C_14 
REMARK    6  A    between atoms: C_16  and  C_17 
ROOT
HETATM    1  C   UNL     1      -8.926   0.671 -33.817  1.00  0.00     0.224 C 
HETATM    2  N   UNL     1      -9.894   1.526 -33.322  1.00  0.00    -0.327 N 
HETATM    3  O   UNL     1      -8.613   0.521 -34.994  1.00  0.00    -0.273 OA
HETATM    4  H   UNL     1      -9.928   1.636 -32.314  1.00  0.00     0.169 HD
ENDROOT
BRANCH   1   5
HETATM    5  C   UNL     1      -8.189  -0.084 -32.728  1.00  0.00     0.133 C 
BRANCH   5   6
HETATM    6  C   UNL     1      -6.689   0.222 -32.799  1.00  0.00     0.126 C 
BRANCH   6   7
HETATM    7  C   UNL     1      -5.848  -0.985 -33.190  1.00  0.00    -0.035 A 
HETATM    8  C   UNL     1      -4.630  -1.227 -32.535  1.00  0.00     0.010 A 
HETATM    9  C   UNL     1      -3.855  -2.346 -32.855  1.00  0.00     0.007 A 
HETATM   10  C   UNL     1      -4.281  -3.248 -33.833  1.00  0.00    -0.062 A 
HETATM   11  C   UNL     1      -3.448  -4.443 -34.195  1.00  0.00     0.048 C 
HETATM   12  C   UNL     1      -5.488  -3.009 -34.495  1.00  0.00     0.007 A 
HETATM   13  C   UNL     1      -6.264  -1.891 -34.175  1.00  0.00     0.010 A 
ENDBRANCH   6   7
BRANCH   6  14
HETATM   14  N   UNL     1      -6.344   1.384 -33.618  1.00  0.00    -0.352 N 
HETATM   15  C   UNL     1      -5.877   2.584 -33.136  1.00  0.00     0.214 C 
HETATM   16  C   UNL     1      -5.703   3.640 -34.195  1.00  0.00     0.117 C 
HETATM   17  O   UNL     1      -5.625   2.808 -31.957  1.00  0.00    -0.274 OA
HETATM   18  H   UNL     1      -6.695   1.369 -34.566  1.00  0.00     0.163 HD
ENDBRANCH   6  14
ENDBRANCH   5   6
ENDBRANCH   1   5
BRANCH   2  19
HETATM   19  C   UNL     1     -10.789   2.332 -34.056  1.00  0.00     0.035 A 
HETATM   20  C   UNL     1     -10.583   3.689 -34.320  1.00  0.00     0.042 A 
HETATM   21  C   UNL     1     -11.509   4.434 -35.071  1.00  0.00    -0.021 A 
HETATM   22  C   UNL     1     -12.652   3.787 -35.562  1.00  0.00     0.012 A 
HETATM   23  C   UNL     1     -12.865   2.432 -35.308  1.00  0.00     0.003 A 
HETATM   24  C   UNL     1     -11.937   1.709 -34.559  1.00  0.00     0.029 A 
BRANCH  21  25
HETATM   25  C   UNL     1     -11.294   5.847 -35.350  1.00  0.00     0.010 A 
HETATM   26  C   UNL     1     -12.188   6.852 -35.793  1.00  0.00     0.152 A 
HETATM   27  N   UNL     1     -11.606   8.048 -35.923  1.00  0.00    -0.187 NA
HETATM   28  N   UNL     1     -10.333   7.814 -35.568  1.00  0.00    -0.289 N 
HETATM   29  H   UNL     1      -9.677   8.588 -35.589  1.00  0.00     0.188 HD
HETATM   30  C   UNL     1     -10.098   6.519 -35.211  1.00  0.00     0.123 A 
ENDBRANCH  21  25
ENDBRANCH   2  19
TORSDOF 6
ENDMDL
MODEL 9
REMARK VINA RESULT:      -7.6      2.333      2.687
REMARK  6 active torsions:
REMARK  status: ('A' for Active; 'I' for Inactive)
REMARK    1  A    between atoms: C_5  and  C_6 
REMARK    2  A    between atoms: C_6  and  N_7 
REMARK    3  A    between atoms: C_6  and  C_11 
REMARK       I    between atoms: N_7  and  C_8 
REMARK    4  A    between atoms: C_11  and  C_12 
REMARK       I    between atoms: C_12  and  N_13 
REMARK    5  A    between atoms: N_13  and  C_14 
REMARK    6  A    between atoms: C_16  and  C_17 
ROOT
HETATM    1  C   UNL     1      -3.600   2.336 -31.938  1.00  0.00     0.224 C 
HETATM    2  N   UNL     1      -3.015   3.227 -32.820  1.00  0.00    -0.327 N 
HETATM    3  O   UNL     1      -3.993   2.581 -30.802  1.00  0.00    -0.273 OA
HETATM    4  H   UNL     1      -2.879   2.900 -33.770  1.00  0.00     0.169 HD
ENDROOT
BRANCH   1   5
HETATM    5  C   UNL     1      -3.782   0.952 -32.528  1.00  0.00     0.133 C 
BRANCH   5   6
HETATM    6  C   UNL     1      -5.217   0.783 -33.040  1.00  0.00     0.126 C 
BRANCH   6   7
HETATM    7  C   UNL     1      -5.479  -0.587 -33.650  1.00  0.00    -0.035 A 
HETATM    8  C   UNL     1      -4.436  -1.522 -33.736  1.00  0.00     0.010 A 
HETATM    9  C   UNL     1      -4.659  -2.797 -34.264  1.00  0.00     0.007 A 
HETATM   10  C   UNL     1      -5.929  -3.166 -34.715  1.00  0.00    -0.062 A 
HETATM   11  C   UNL     1      -6.175  -4.526 -35.299  1.00  0.00     0.048 C 
HETATM   12  C   UNL     1      -6.971  -2.237 -34.640  1.00  0.00     0.007 A 
HETATM   13  C   UNL     1      -6.749  -0.962 -34.112  1.00  0.00     0.010 A 
ENDBRANCH   6   7
BRANCH   6  14
HETATM   14  N   UNL     1      -6.254   1.126 -32.066  1.00  0.00    -0.352 N 
HETATM   15  C   UNL     1      -7.214   2.095 -32.237  1.00  0.00     0.214 C 
HETATM   16  C   UNL     1      -8.088   2.307 -31.030  1.00  0.00     0.117 C 
HETATM   17  O   UNL     1      -7.363   2.751 -33.262  1.00  0.00    -0.274 OA
HETATM   18  H   UNL     1      -6.099   0.784 -31.126  1.00  0.00     0.163 HD
ENDBRANCH   6  14
ENDBRANCH   5   6
ENDBRANCH   1   5
BRANCH   2  19
HETATM   19  C   UNL     1      -2.658   4.570 -32.578  1.00  0.00     0.035 A 
HETATM   20  C   UNL     1      -3.410   5.450 -31.795  1.00  0.00     0.042 A 
HETATM   21  C   UNL     1      -2.992   6.775 -31.582  1.00  0.00    -0.021 A 
HETATM   22  C   UNL     1      -1.793   7.204 -32.167  1.00  0.00     0.012 A 
HETATM   23  C   UNL     1      -1.033   6.333 -32.948  1.00  0.00     0.003 A 
HETATM   24  C   UNL     1      -1.464   5.022 -33.151  1.00  0.00     0.029 A 
BRANCH  21  25
HETATM   25  C   UNL     1      -3.773   7.693 -30.763  1.00  0.00     0.010 A 
HETATM   26  C   UNL     1      -4.200   9.021 -31.006  1.00  0.00     0.152 A 
HETATM   27  N   UNL     1      -4.918   9.531 -30.002  1.00  0.00    -0.187 NA
HETATM   28  N   UNL     1      -4.951   8.532 -29.105  1.00  0.00    -0.289 N 
HETATM   29  H   UNL     1      -5.449   8.683 -28.234  1.00  0.00     0.188 HD
HETATM   30  C   UNL     1      -4.289   7.412 -29.515  1.00  0.00     0.123 A 
ENDBRANCH  21  25
ENDBRANCH   2  19
TORSDOF 6
ENDMDL
MODEL 10
REMARK VINA RESULT:      -7.6      3.294      5.508
REMARK  6 active torsions:
REMARK  status: ('A' for Active; 'I' for Inactive)
REMARK    1  A    between atoms: C_5  and  C_6 
REMARK    2  A    between atoms: C_6  and  N_7 
REMARK    3  A    between atoms: C_6  and  C_11 
REMARK       I    between atoms: N_7  and  C_8 
REMARK    4  A    between atoms: C_11  and  C_12 
REMARK       I    between atoms: C_12  and  N_13 
REMARK    5  A    between atoms: N_13  and  C_14 
REMARK    6  A    between atoms: C_16  and  C_17 
ROOT
HETATM    1  C   UNL     1      -7.869   3.751 -33.212  1.00  0.00     0.224 C 
HETATM    2  N   UNL     1      -6.682   3.270 -33.735  1.00  0.00    -0.327 N 
HETATM    3  O   UNL     1      -7.999   4.450 -32.212  1.00  0.00    -0.273 OA
HETATM    4  H   UNL     1      -6.735   2.828 -34.646  1.00  0.00     0.169 HD
ENDROOT
BRANCH   1   5
HETATM    5  C   UNL     1      -9.079   3.373 -34.043  1.00  0.00     0.133 C 
BRANCH   5   6
HETATM    6  C   UNL     1      -9.540   1.955 -33.686  1.00  0.00     0.126 C 
BRANCH   6   7
HETATM    7  C   UNL     1     -11.054   1.796 -33.702  1.00  0.00    -0.035 A 
HETATM    8  C   UNL     1     -11.619   0.511 -33.704  1.00  0.00     0.010 A 
HETATM    9  C   UNL     1     -13.006   0.338 -33.688  1.00  0.00     0.007 A 
HETATM   10  C   UNL     1     -13.859   1.444 -33.665  1.00  0.00    -0.062 A 
HETATM   11  C   UNL     1     -15.349   1.270 -33.664  1.00  0.00     0.048 C 
HETATM   12  C   UNL     1     -13.304   2.727 -33.671  1.00  0.00     0.007 A 
HETATM   13  C   UNL     1     -11.917   2.901 -33.687  1.00  0.00     0.010 A 
ENDBRANCH   6   7
BRANCH   6  14
HETATM   14  N   UNL     1      -8.897   0.894 -34.459  1.00  0.00    -0.352 N 
HETATM   15  C   UNL     1      -7.868   0.099 -34.013  1.00  0.00     0.214 C 
HETATM   16  C   UNL     1      -7.327  -0.842 -35.056  1.00  0.00     0.117 C 
HETATM   17  O   UNL     1      -7.403   0.137 -32.878  1.00  0.00    -0.274 OA
HETATM   18  H   UNL     1      -9.071   0.913 -35.455  1.00  0.00     0.163 HD
ENDBRANCH   6  14
ENDBRANCH   5   6
ENDBRANCH   1   5
BRANCH   2  19
HETATM   19  C   UNL     1      -5.387   3.394 -33.189  1.00  0.00     0.035 A 
HETATM   20  C   UNL     1      -4.536   4.476 -33.433  1.00  0.00     0.042 A 
HETATM   21  C   UNL     1      -3.260   4.546 -32.847  1.00  0.00    -0.021 A 
HETATM   22  C   UNL     1      -2.852   3.507 -31.999  1.00  0.00     0.012 A 
HETATM   23  C   UNL     1      -3.695   2.425 -31.746  1.00  0.00     0.003 A 
HETATM   24  C   UNL     1      -4.956   2.370 -32.338  1.00  0.00     0.029 A 
BRANCH  21  25
HETATM   25  C   UNL     1      -2.373   5.674 -33.097  1.00  0.00     0.010 A 
HETATM   26  C   UNL     1      -2.406   6.677 -34.096  1.00  0.00     0.152 A 
HETATM   27  N   UNL     1      -1.408   7.558 -33.984  1.00  0.00    -0.187 NA
HETATM   28  N   UNL     1      -0.726   7.121 -32.914  1.00  0.00    -0.289 N 
HETATM   29  H   UNL     1       0.099   7.636 -32.623  1.00  0.00     0.188 HD
HETATM   30  C   UNL     1      -1.265   6.004 -32.345  1.00  0.00     0.123 A 
ENDBRANCH  21  25
ENDBRANCH   2  19
TORSDOF 6
ENDMDL
