MODEL 1
REMARK VINA RESULT:      -8.1      0.000      0.000
REMARK  6 active torsions:
REMARK  status: ('A' for Active; 'I' for Inactive)
REMARK    1  A    between atoms: C_3  and  C_4 
REMARK    2  A    between atoms: C_9  and  C_10 
REMARK    3  A    between atoms: C_10  and  N_11 
REMARK    4  A    between atoms: C_13  and  C_14 
REMARK    5  A    between atoms: C_15  and  O_16 
REMARK    6  A    between atoms: C_20  and  C_21 
ROOT
HETATM    1  N   UNL     1      -6.204   1.104 -32.836  1.00  0.00    -0.394 N 
HETATM    2  H   UNL     1      -6.571   1.630 -33.639  1.00  0.00     0.159 HD
HETATM    3  C   UNL     1      -6.893   1.077 -31.751  1.00  0.00     0.101 C 
ENDROOT
BRANCH   1   4
HETATM    4  C   UNL     1      -4.936   0.394 -33.099  1.00  0.00     0.157 C 
BRANCH   4   5
HETATM    5  C   UNL     1      -5.215  -0.964 -33.680  1.00  0.00    -0.040 A 
HETATM    6  C   UNL     1      -4.368  -2.050 -33.400  1.00  0.00     0.025 A 
HETATM    7  C   UNL     1      -4.640  -3.333 -33.908  1.00  0.00     0.048 A 
HETATM    8  C   UNL     1      -5.776  -3.520 -34.705  1.00  0.00     0.016 A 
HETATM    9  C   UNL     1      -6.622  -2.449 -34.989  1.00  0.00     0.001 A 
HETATM   10  C   UNL     1      -6.347  -1.179 -34.481  1.00  0.00     0.009 A 
BRANCH   7  11
HETATM   11  C   UNL     1      -3.702  -4.480 -33.598  1.00  0.00     0.417 C 
HETATM   12  F   UNL     1      -4.332  -5.654 -33.338  1.00  0.00    -0.166 F 
HETATM   13  F   UNL     1      -2.838  -4.720 -34.620  1.00  0.00    -0.166 F 
HETATM   14  F   UNL     1      -2.928  -4.210 -32.510  1.00  0.00    -0.166 F 
ENDBRANCH   7  11
ENDBRANCH   4   5
ENDBRANCH   1   4
BRANCH   3  15
HETATM   15  C   UNL     1      -8.144   1.749 -31.472  1.00  0.00     0.066 A 
HETATM   16  C   UNL     1      -8.368   2.794 -30.548  1.00  0.00     0.195 A 
HETATM   17  N   UNL     1      -9.614   3.229 -30.533  1.00  0.00    -0.148 NA
HETATM   18  N   UNL     1     -10.236   2.475 -31.440  1.00  0.00    -0.270 N 
HETATM   19  H   UNL     1     -11.230   2.638 -31.598  1.00  0.00     0.189 HD
HETATM   20  C   UNL     1      -9.403   1.568 -32.041  1.00  0.00     0.150 A 
BRANCH  16  21
HETATM   21  O   UNL     1      -7.546   3.409 -29.697  1.00  0.00    -0.343 OA
HETATM   22  H   UNL     1      -6.849   2.843 -29.343  1.00  0.00     0.219 HD
ENDBRANCH  16  21
BRANCH  20  23
HETATM   23  C   UNL     1      -9.961   0.697 -33.087  1.00  0.00     0.435 C 
HETATM   24  F   UNL     1      -9.887  -0.604 -32.685  1.00  0.00    -0.165 F 
HETATM   25  F   UNL     1     -11.255   0.966 -33.351  1.00  0.00    -0.165 F 
HETATM   26  F   UNL     1      -9.262   0.788 -34.237  1.00  0.00    -0.165 F 
ENDBRANCH  20  23
ENDBRANCH   3  15
TORSDOF 6
ENDMDL
MODEL 2
REMARK VINA RESULT:      -8.0      5.844      7.369
REMARK  6 active torsions:
REMARK  status: ('A' for Active; 'I' for Inactive)
REMARK    1  A    between atoms: C_3  and  C_4 
REMARK    2  A    between atoms: C_9  and  C_10 
REMARK    3  A    between atoms: C_10  and  N_11 
REMARK    4  A    between atoms: C_13  and  C_14 
REMARK    5  A    between atoms: C_15  and  O_16 
REMARK    6  A    between atoms: C_20  and  C_21 
ROOT
HETATM    1  N   UNL     1      -4.102   3.877 -32.587  1.00  0.00    -0.394 N 
HETATM    2  H   UNL     1      -4.429   4.097 -33.536  1.00  0.00     0.159 HD
HETATM    3  C   UNL     1      -3.081   4.508 -32.126  1.00  0.00     0.101 C 
ENDROOT
BRANCH   1   4
HETATM    4  C   UNL     1      -4.928   2.884 -31.870  1.00  0.00     0.157 C 
BRANCH   4   5
HETATM    5  C   UNL     1      -4.669   1.508 -32.416  1.00  0.00    -0.040 A 
HETATM    6  C   UNL     1      -5.629   0.862 -33.214  1.00  0.00     0.025 A 
HETATM    7  C   UNL     1      -5.383  -0.410 -33.761  1.00  0.00     0.048 A 
HETATM    8  C   UNL     1      -4.158  -1.035 -33.497  1.00  0.00     0.016 A 
HETATM    9  C   UNL     1      -3.199  -0.404 -32.706  1.00  0.00     0.001 A 
HETATM   10  C   UNL     1      -3.450   0.859 -32.168  1.00  0.00     0.009 A 
BRANCH   7  11
HETATM   11  C   UNL     1      -6.442  -1.084 -34.607  1.00  0.00     0.417 C 
HETATM   12  F   UNL     1      -7.492  -1.568 -33.895  1.00  0.00    -0.166 F 
HETATM   13  F   UNL     1      -6.959  -0.242 -35.540  1.00  0.00    -0.166 F 
HETATM   14  F   UNL     1      -5.928  -2.139 -35.298  1.00  0.00    -0.166 F 
ENDBRANCH   7  11
ENDBRANCH   4   5
ENDBRANCH   1   4
BRANCH   3  15
HETATM   15  C   UNL     1      -2.264   5.495 -32.799  1.00  0.00     0.066 A 
HETATM   16  C   UNL     1      -2.530   6.130 -34.032  1.00  0.00     0.195 A 
HETATM   17  N   UNL     1      -1.611   7.012 -34.382  1.00  0.00    -0.148 NA
HETATM   18  N   UNL     1      -0.721   6.969 -33.391  1.00  0.00    -0.270 N 
HETATM   19  H   UNL     1       0.094   7.579 -33.452  1.00  0.00     0.189 HD
HETATM   20  C   UNL     1      -1.060   6.077 -32.407  1.00  0.00     0.150 A 
BRANCH  16  21
HETATM   21  O   UNL     1      -3.537   5.994 -34.895  1.00  0.00    -0.343 OA
HETATM   22  H   UNL     1      -4.407   6.175 -34.516  1.00  0.00     0.219 HD
ENDBRANCH  16  21
BRANCH  20  23
HETATM   23  C   UNL     1      -0.173   5.959 -31.239  1.00  0.00     0.435 C 
HETATM   24  F   UNL     1       0.637   7.053 -31.169  1.00  0.00    -0.165 F 
HETATM   25  F   UNL     1      -0.852   5.884 -30.078  1.00  0.00    -0.165 F 
HETATM   26  F   UNL     1       0.634   4.883 -31.333  1.00  0.00    -0.165 F 
ENDBRANCH  20  23
ENDBRANCH   3  15
TORSDOF 6
ENDMDL
MODEL 3
REMARK VINA RESULT:      -8.0      5.590      6.855
REMARK  6 active torsions:
REMARK  status: ('A' for Active; 'I' for Inactive)
REMARK    1  A    between atoms: C_3  and  C_4 
REMARK    2  A    between atoms: C_9  and  C_10 
REMARK    3  A    between atoms: C_10  and  N_11 
REMARK    4  A    between atoms: C_13  and  C_14 
REMARK    5  A    between atoms: C_15  and  O_16 
REMARK    6  A    between atoms: C_20  and  C_21 
ROOT
HETATM    1  N   UNL     1      -4.085   3.215 -32.739  1.00  0.00    -0.394 N 
HETATM    2  H   UNL     1      -4.827   3.750 -33.207  1.00  0.00     0.159 HD
HETATM    3  C   UNL     1      -2.914   3.736 -32.647  1.00  0.00     0.101 C 
ENDROOT
BRANCH   1   4
HETATM    4  C   UNL     1      -4.526   1.920 -32.179  1.00  0.00     0.157 C 
BRANCH   4   5
HETATM    5  C   UNL     1      -5.355   1.177 -33.189  1.00  0.00    -0.040 A 
HETATM    6  C   UNL     1      -5.197  -0.208 -33.363  1.00  0.00     0.025 A 
HETATM    7  C   UNL     1      -5.992  -0.921 -34.278  1.00  0.00     0.048 A 
HETATM    8  C   UNL     1      -6.953  -0.228 -35.024  1.00  0.00     0.016 A 
HETATM    9  C   UNL     1      -7.118   1.147 -34.859  1.00  0.00     0.001 A 
HETATM   10  C   UNL     1      -6.326   1.847 -33.948  1.00  0.00     0.009 A 
BRANCH   7  11
HETATM   11  C   UNL     1      -5.789  -2.411 -34.451  1.00  0.00     0.417 C 
HETATM   12  F   UNL     1      -4.865  -2.945 -33.611  1.00  0.00    -0.166 F 
HETATM   13  F   UNL     1      -6.941  -3.107 -34.255  1.00  0.00    -0.166 F 
HETATM   14  F   UNL     1      -5.379  -2.714 -35.715  1.00  0.00    -0.166 F 
ENDBRANCH   7  11
ENDBRANCH   4   5
ENDBRANCH   1   4
BRANCH   3  15
HETATM   15  C   UNL     1      -2.460   5.006 -33.171  1.00  0.00     0.066 A 
HETATM   16  C   UNL     1      -2.964   5.699 -34.294  1.00  0.00     0.195 A 
HETATM   17  N   UNL     1      -2.365   6.856 -34.516  1.00  0.00    -0.148 NA
HETATM   18  N   UNL     1      -1.451   6.942 -33.548  1.00  0.00    -0.270 N 
HETATM   19  H   UNL     1      -0.857   7.770 -33.524  1.00  0.00     0.189 HD
HETATM   20  C   UNL     1      -1.462   5.860 -32.706  1.00  0.00     0.150 A 
BRANCH  16  21
HETATM   21  O   UNL     1      -3.930   5.391 -35.160  1.00  0.00    -0.343 OA
HETATM   22  H   UNL     1      -4.315   6.154 -35.608  1.00  0.00     0.219 HD
ENDBRANCH  16  21
BRANCH  20  23
HETATM   23  C   UNL     1      -0.521   5.850 -31.575  1.00  0.00     0.435 C 
HETATM   24  F   UNL     1       0.205   7.005 -31.575  1.00  0.00    -0.165 F 
HETATM   25  F   UNL     1      -1.143   5.763 -30.383  1.00  0.00    -0.165 F 
HETATM   26  F   UNL     1       0.363   4.837 -31.672  1.00  0.00    -0.165 F 
ENDBRANCH  20  23
ENDBRANCH   3  15
TORSDOF 6
ENDMDL
MODEL 4
REMARK VINA RESULT:      -7.9      1.986      2.983
REMARK  6 active torsions:
REMARK  status: ('A' for Active; 'I' for Inactive)
REMARK    1  A    between atoms: C_3  and  C_4 
REMARK    2  A    between atoms: C_9  and  C_10 
REMARK    3  A    between atoms: C_10  and  N_11 
REMARK    4  A    between atoms: C_13  and  C_14 
REMARK    5  A    between atoms: C_15  and  O_16 
REMARK    6  A    between atoms: C_20  and  C_21 
ROOT
HETATM    1  N   UNL     1      -7.471   1.081 -30.641  1.00  0.00    -0.394 N 
HETATM    2  H   UNL     1      -8.142   0.306 -30.571  1.00  0.00     0.159 HD
HETATM    3  C   UNL     1      -7.899   2.235 -31.015  1.00  0.00     0.101 C 
ENDROOT
BRANCH   1   4
HETATM    4  C   UNL     1      -6.095   0.738 -30.226  1.00  0.00     0.157 C 
BRANCH   4   5
HETATM    5  C   UNL     1      -5.409  -0.042 -31.312  1.00  0.00    -0.040 A 
HETATM    6  C   UNL     1      -6.150  -0.609 -32.363  1.00  0.00     0.025 A 
HETATM    7  C   UNL     1      -5.515  -1.309 -33.405  1.00  0.00     0.048 A 
HETATM    8  C   UNL     1      -4.121  -1.438 -33.384  1.00  0.00     0.016 A 
HETATM    9  C   UNL     1      -3.376  -0.879 -32.345  1.00  0.00     0.001 A 
HETATM   10  C   UNL     1      -4.013  -0.185 -31.316  1.00  0.00     0.009 A 
BRANCH   7  11
HETATM   11  C   UNL     1      -6.342  -1.918 -34.517  1.00  0.00     0.417 C 
HETATM   12  F   UNL     1      -5.630  -2.694 -35.373  1.00  0.00    -0.166 F 
HETATM   13  F   UNL     1      -7.349  -2.694 -34.035  1.00  0.00    -0.166 F 
HETATM   14  F   UNL     1      -6.940  -0.958 -35.276  1.00  0.00    -0.166 F 
ENDBRANCH   7  11
ENDBRANCH   4   5
ENDBRANCH   1   4
BRANCH   3  15
HETATM   15  C   UNL     1      -9.241   2.602 -31.411  1.00  0.00     0.066 A 
HETATM   16  C   UNL     1     -10.019   3.671 -30.913  1.00  0.00     0.195 A 
HETATM   17  N   UNL     1     -11.203   3.778 -31.489  1.00  0.00    -0.148 NA
HETATM   18  N   UNL     1     -11.230   2.777 -32.371  1.00  0.00    -0.270 N 
HETATM   19  H   UNL     1     -12.068   2.663 -32.939  1.00  0.00     0.189 HD
HETATM   20  C   UNL     1     -10.077   2.036 -32.372  1.00  0.00     0.150 A 
BRANCH  16  21
HETATM   21  O   UNL     1      -9.767   4.582 -29.972  1.00  0.00    -0.343 OA
HETATM   22  H   UNL     1      -9.152   5.272 -30.248  1.00  0.00     0.219 HD
ENDBRANCH  16  21
BRANCH  20  23
HETATM   23  C   UNL     1      -9.968   0.921 -33.326  1.00  0.00     0.435 C 
HETATM   24  F   UNL     1     -11.071   0.896 -34.126  1.00  0.00    -0.165 F 
HETATM   25  F   UNL     1      -8.889   1.026 -34.126  1.00  0.00    -0.165 F 
HETATM   26  F   UNL     1      -9.920  -0.270 -32.696  1.00  0.00    -0.165 F 
ENDBRANCH  20  23
ENDBRANCH   3  15
TORSDOF 6
ENDMDL
MODEL 5
REMARK VINA RESULT:      -7.9      3.774      4.631
REMARK  6 active torsions:
REMARK  status: ('A' for Active; 'I' for Inactive)
REMARK    1  A    between atoms: C_3  and  C_4 
REMARK    2  A    between atoms: C_9  and  C_10 
REMARK    3  A    between atoms: C_10  and  N_11 
REMARK    4  A    between atoms: C_13  and  C_14 
REMARK    5  A    between atoms: C_15  and  O_16 
REMARK    6  A    between atoms: C_20  and  C_21 
ROOT
HETATM    1  N   UNL     1      -6.418   1.796 -34.250  1.00  0.00    -0.394 N 
HETATM    2  H   UNL     1      -5.872   2.018 -35.091  1.00  0.00     0.159 HD
HETATM    3  C   UNL     1      -6.435   2.646 -33.285  1.00  0.00     0.101 C 
ENDROOT
BRANCH   1   4
HETATM    4  C   UNL     1      -7.163   0.522 -34.322  1.00  0.00     0.157 C 
BRANCH   4   5
HETATM    5  C   UNL     1      -6.220  -0.637 -34.160  1.00  0.00    -0.040 A 
HETATM    6  C   UNL     1      -6.598  -1.928 -34.566  1.00  0.00     0.025 A 
HETATM    7  C   UNL     1      -5.712  -3.014 -34.455  1.00  0.00     0.048 A 
HETATM    8  C   UNL     1      -4.433  -2.793 -33.927  1.00  0.00     0.016 A 
HETATM    9  C   UNL     1      -4.048  -1.516 -33.520  1.00  0.00     0.001 A 
HETATM   10  C   UNL     1      -4.933  -0.443 -33.636  1.00  0.00     0.009 A 
BRANCH   7  11
HETATM   11  C   UNL     1      -6.153  -4.395 -34.890  1.00  0.00     0.417 C 
HETATM   12  F   UNL     1      -7.350  -4.779 -34.378  1.00  0.00    -0.166 F 
HETATM   13  F   UNL     1      -6.258  -4.493 -36.241  1.00  0.00    -0.166 F 
HETATM   14  F   UNL     1      -5.252  -5.346 -34.514  1.00  0.00    -0.166 F 
ENDBRANCH   7  11
ENDBRANCH   4   5
ENDBRANCH   1   4
BRANCH   3  15
HETATM   15  C   UNL     1      -5.729   3.905 -33.194  1.00  0.00     0.066 A 
HETATM   16  C   UNL     1      -6.210   5.185 -33.548  1.00  0.00     0.195 A 
HETATM   17  N   UNL     1      -5.343   6.157 -33.326  1.00  0.00    -0.148 NA
HETATM   18  N   UNL     1      -4.274   5.535 -32.829  1.00  0.00    -0.270 N 
HETATM   19  H   UNL     1      -3.462   6.101 -32.582  1.00  0.00     0.189 HD
HETATM   20  C   UNL     1      -4.446   4.179 -32.722  1.00  0.00     0.150 A 
BRANCH  16  21
HETATM   21  O   UNL     1      -7.375   5.577 -34.063  1.00  0.00    -0.343 OA
HETATM   22  H   UNL     1      -7.591   6.502 -33.890  1.00  0.00     0.219 HD
ENDBRANCH  16  21
BRANCH  20  23
HETATM   23  C   UNL     1      -3.348   3.381 -32.155  1.00  0.00     0.435 C 
HETATM   24  F   UNL     1      -3.629   3.075 -30.857  1.00  0.00    -0.165 F 
HETATM   25  F   UNL     1      -3.157   2.221 -32.812  1.00  0.00    -0.165 F 
HETATM   26  F   UNL     1      -2.186   4.066 -32.149  1.00  0.00    -0.165 F 
ENDBRANCH  20  23
ENDBRANCH   3  15
TORSDOF 6
ENDMDL
MODEL 6
REMARK VINA RESULT:      -7.9      2.123      2.984
REMARK  6 active torsions:
REMARK  status: ('A' for Active; 'I' for Inactive)
REMARK    1  A    between atoms: C_3  and  C_4 
REMARK    2  A    between atoms: C_9  and  C_10 
REMARK    3  A    between atoms: C_10  and  N_11 
REMARK    4  A    between atoms: C_13  and  C_14 
REMARK    5  A    between atoms: C_15  and  O_16 
REMARK    6  A    between atoms: C_20  and  C_21 
ROOT
HETATM    1  N   UNL     1      -4.459   0.142 -30.809  1.00  0.00    -0.394 N 
HETATM    2  H   UNL     1      -4.904  -0.352 -30.025  1.00  0.00     0.159 HD
HETATM    3  C   UNL     1      -4.979   1.245 -31.216  1.00  0.00     0.101 C 
ENDROOT
BRANCH   1   4
HETATM    4  C   UNL     1      -3.221  -0.491 -31.308  1.00  0.00     0.157 C 
BRANCH   4   5
HETATM    5  C   UNL     1      -3.557  -1.718 -32.109  1.00  0.00    -0.040 A 
HETATM    6  C   UNL     1      -4.512  -1.661 -33.138  1.00  0.00     0.025 A 
HETATM    7  C   UNL     1      -4.808  -2.793 -33.919  1.00  0.00     0.048 A 
HETATM    8  C   UNL     1      -4.134  -3.992 -33.656  1.00  0.00     0.016 A 
HETATM    9  C   UNL     1      -3.186  -4.060 -32.637  1.00  0.00     0.001 A 
HETATM   10  C   UNL     1      -2.896  -2.932 -31.867  1.00  0.00     0.009 A 
BRANCH   7  11
HETATM   11  C   UNL     1      -5.850  -2.702 -35.013  1.00  0.00     0.417 C 
HETATM   12  F   UNL     1      -6.202  -1.431 -35.337  1.00  0.00    -0.166 F 
HETATM   13  F   UNL     1      -5.433  -3.295 -36.163  1.00  0.00    -0.166 F 
HETATM   14  F   UNL     1      -7.000  -3.341 -34.659  1.00  0.00    -0.166 F 
ENDBRANCH   7  11
ENDBRANCH   4   5
ENDBRANCH   1   4
BRANCH   3  15
HETATM   15  C   UNL     1      -6.180   1.895 -30.735  1.00  0.00     0.066 A 
HETATM   16  C   UNL     1      -6.264   2.979 -29.833  1.00  0.00     0.195 A 
HETATM   17  N   UNL     1      -7.501   3.380 -29.602  1.00  0.00    -0.148 NA
HETATM   18  N   UNL     1      -8.254   2.564 -30.341  1.00  0.00    -0.270 N 
HETATM   19  H   UNL     1      -9.265   2.691 -30.315  1.00  0.00     0.189 HD
HETATM   20  C   UNL     1      -7.516   1.651 -31.048  1.00  0.00     0.150 A 
BRANCH  16  21
HETATM   21  O   UNL     1      -5.321   3.660 -29.181  1.00  0.00    -0.343 OA
HETATM   22  H   UNL     1      -4.513   3.158 -29.022  1.00  0.00     0.219 HD
ENDBRANCH  16  21
BRANCH  20  23
HETATM   23  C   UNL     1      -8.228   0.713 -31.929  1.00  0.00     0.435 C 
HETATM   24  F   UNL     1      -8.651   1.370 -33.047  1.00  0.00    -0.165 F 
HETATM   25  F   UNL     1      -7.453  -0.312 -32.331  1.00  0.00    -0.165 F 
HETATM   26  F   UNL     1      -9.329   0.211 -31.335  1.00  0.00    -0.165 F 
ENDBRANCH  20  23
ENDBRANCH   3  15
TORSDOF 6
ENDMDL
MODEL 7
REMARK VINA RESULT:      -7.7      4.347      5.350
REMARK  6 active torsions:
REMARK  status: ('A' for Active; 'I' for Inactive)
REMARK    1  A    between atoms: C_3  and  C_4 
REMARK    2  A    between atoms: C_9  and  C_10 
REMARK    3  A    between atoms: C_10  and  N_11 
REMARK    4  A    between atoms: C_13  and  C_14 
REMARK    5  A    between atoms: C_15  and  O_16 
REMARK    6  A    between atoms: C_20  and  C_21 
ROOT
HETATM    1  N   UNL     1      -3.995   1.810 -32.143  1.00  0.00    -0.394 N 
HETATM    2  H   UNL     1      -4.726   1.994 -31.445  1.00  0.00     0.159 HD
HETATM    3  C   UNL     1      -3.375   2.809 -32.663  1.00  0.00     0.101 C 
ENDROOT
BRANCH   1   4
HETATM    4  C   UNL     1      -3.732   0.378 -32.392  1.00  0.00     0.157 C 
BRANCH   4   5
HETATM    5  C   UNL     1      -4.944  -0.271 -33.001  1.00  0.00    -0.040 A 
HETATM    6  C   UNL     1      -4.839  -1.510 -33.655  1.00  0.00     0.025 A 
HETATM    7  C   UNL     1      -5.971  -2.145 -34.196  1.00  0.00     0.048 A 
HETATM    8  C   UNL     1      -7.219  -1.521 -34.078  1.00  0.00     0.016 A 
HETATM    9  C   UNL     1      -7.334  -0.290 -33.432  1.00  0.00     0.001 A 
HETATM   10  C   UNL     1      -6.206   0.332 -32.896  1.00  0.00     0.009 A 
BRANCH   7  11
HETATM   11  C   UNL     1      -5.824  -3.474 -34.905  1.00  0.00     0.417 C 
HETATM   12  F   UNL     1      -5.065  -4.378 -34.232  1.00  0.00    -0.166 F 
HETATM   13  F   UNL     1      -7.026  -4.067 -35.130  1.00  0.00    -0.166 F 
HETATM   14  F   UNL     1      -5.245  -3.324 -36.129  1.00  0.00    -0.166 F 
ENDBRANCH   7  11
ENDBRANCH   4   5
ENDBRANCH   1   4
BRANCH   3  15
HETATM   15  C   UNL     1      -3.601   4.219 -32.427  1.00  0.00     0.066 A 
HETATM   16  C   UNL     1      -4.124   4.819 -31.260  1.00  0.00     0.195 A 
HETATM   17  N   UNL     1      -4.188   6.137 -31.325  1.00  0.00    -0.148 NA
HETATM   18  N   UNL     1      -3.716   6.428 -32.538  1.00  0.00    -0.270 N 
HETATM   19  H   UNL     1      -3.675   7.409 -32.813  1.00  0.00     0.189 HD
HETATM   20  C   UNL     1      -3.344   5.316 -33.247  1.00  0.00     0.150 A 
BRANCH  16  21
HETATM   21  O   UNL     1      -4.559   4.291 -30.116  1.00  0.00    -0.343 OA
HETATM   22  H   UNL     1      -4.045   3.533 -29.811  1.00  0.00     0.219 HD
ENDBRANCH  16  21
BRANCH  20  23
HETATM   23  C   UNL     1      -2.775   5.506 -34.591  1.00  0.00     0.435 C 
HETATM   24  F   UNL     1      -2.212   6.744 -34.677  1.00  0.00    -0.165 F 
HETATM   25  F   UNL     1      -1.817   4.605 -34.881  1.00  0.00    -0.165 F 
HETATM   26  F   UNL     1      -3.724   5.445 -35.546  1.00  0.00    -0.165 F 
ENDBRANCH  20  23
ENDBRANCH   3  15
TORSDOF 6
ENDMDL
MODEL 8
REMARK VINA RESULT:      -7.6      5.714      7.694
REMARK  6 active torsions:
REMARK  status: ('A' for Active; 'I' for Inactive)
REMARK    1  A    between atoms: C_3  and  C_4 
REMARK    2  A    between atoms: C_9  and  C_10 
REMARK    3  A    between atoms: C_10  and  N_11 
REMARK    4  A    between atoms: C_13  and  C_14 
REMARK    5  A    between atoms: C_15  and  O_16 
REMARK    6  A    between atoms: C_20  and  C_21 
ROOT
HETATM    1  N   UNL     1      -3.792   1.851 -32.404  1.00  0.00    -0.394 N 
HETATM    2  H   UNL     1      -2.838   1.672 -32.740  1.00  0.00     0.159 HD
HETATM    3  C   UNL     1      -4.605   0.860 -32.302  1.00  0.00     0.101 C 
ENDROOT
BRANCH   1   4
HETATM    4  C   UNL     1      -4.054   3.254 -32.024  1.00  0.00     0.157 C 
BRANCH   4   5
HETATM    5  C   UNL     1      -2.931   4.135 -32.497  1.00  0.00    -0.040 A 
HETATM    6  C   UNL     1      -1.892   4.498 -31.624  1.00  0.00     0.025 A 
HETATM    7  C   UNL     1      -0.817   5.291 -32.065  1.00  0.00     0.048 A 
HETATM    8  C   UNL     1      -0.793   5.720 -33.398  1.00  0.00     0.016 A 
HETATM    9  C   UNL     1      -1.819   5.365 -34.272  1.00  0.00     0.001 A 
HETATM   10  C   UNL     1      -2.882   4.578 -33.828  1.00  0.00     0.009 A 
BRANCH   7  11
HETATM   11  C   UNL     1       0.282   5.676 -31.097  1.00  0.00     0.417 C 
HETATM   12  F   UNL     1       0.890   6.853 -31.392  1.00  0.00    -0.166 F 
HETATM   13  F   UNL     1      -0.178   5.784 -29.822  1.00  0.00    -0.166 F 
HETATM   14  F   UNL     1       1.266   4.734 -31.062  1.00  0.00    -0.166 F 
ENDBRANCH   7  11
ENDBRANCH   4   5
ENDBRANCH   1   4
BRANCH   3  15
HETATM   15  C   UNL     1      -4.370  -0.525 -32.650  1.00  0.00     0.066 A 
HETATM   16  C   UNL     1      -3.315  -1.354 -32.206  1.00  0.00     0.195 A 
HETATM   17  N   UNL     1      -3.379  -2.587 -32.673  1.00  0.00    -0.148 NA
HETATM   18  N   UNL     1      -4.470  -2.592 -33.439  1.00  0.00    -0.270 N 
HETATM   19  H   UNL     1      -4.718  -3.460 -33.914  1.00  0.00     0.189 HD
HETATM   20  C   UNL     1      -5.111  -1.381 -33.463  1.00  0.00     0.150 A 
BRANCH  16  21
HETATM   21  O   UNL     1      -2.278  -1.108 -31.405  1.00  0.00    -0.343 OA
HETATM   22  H   UNL     1      -2.165  -1.754 -30.698  1.00  0.00     0.219 HD
ENDBRANCH  16  21
BRANCH  20  23
HETATM   23  C   UNL     1      -6.351  -1.265 -34.247  1.00  0.00     0.435 C 
HETATM   24  F   UNL     1      -6.305  -0.135 -35.008  1.00  0.00    -0.165 F 
HETATM   25  F   UNL     1      -6.537  -2.306 -35.080  1.00  0.00    -0.165 F 
HETATM   26  F   UNL     1      -7.434  -1.152 -33.452  1.00  0.00    -0.165 F 
ENDBRANCH  20  23
ENDBRANCH   3  15
TORSDOF 6
ENDMDL
MODEL 9
REMARK VINA RESULT:      -7.6      3.111      4.259
REMARK  6 active torsions:
REMARK  status: ('A' for Active; 'I' for Inactive)
REMARK    1  A    between atoms: C_3  and  C_4 
REMARK    2  A    between atoms: C_9  and  C_10 
REMARK    3  A    between atoms: C_10  and  N_11 
REMARK    4  A    between atoms: C_13  and  C_14 
REMARK    5  A    between atoms: C_15  and  O_16 
REMARK    6  A    between atoms: C_20  and  C_21 
ROOT
HETATM    1  N   UNL     1      -9.783   1.098 -32.574  1.00  0.00    -0.394 N 
HETATM    2  H   UNL     1      -9.466   2.067 -32.702  1.00  0.00     0.159 HD
HETATM    3  C   UNL     1     -10.859   0.718 -33.166  1.00  0.00     0.101 C 
ENDROOT
BRANCH   1   4
HETATM    4  C   UNL     1      -8.881   0.263 -31.754  1.00  0.00     0.157 C 
BRANCH   4   5
HETATM    5  C   UNL     1      -7.675  -0.136 -32.556  1.00  0.00    -0.040 A 
HETATM    6  C   UNL     1      -6.426  -0.302 -31.934  1.00  0.00     0.025 A 
HETATM    7  C   UNL     1      -5.297  -0.711 -32.667  1.00  0.00     0.048 A 
HETATM    8  C   UNL     1      -5.432  -0.951 -34.040  1.00  0.00     0.016 A 
HETATM    9  C   UNL     1      -6.666  -0.788 -34.667  1.00  0.00     0.001 A 
HETATM   10  C   UNL     1      -7.782  -0.384 -33.933  1.00  0.00     0.009 A 
BRANCH   7  11
HETATM   11  C   UNL     1      -3.963  -0.870 -31.971  1.00  0.00     0.417 C 
HETATM   12  F   UNL     1      -2.912  -0.364 -32.667  1.00  0.00    -0.166 F 
HETATM   13  F   UNL     1      -3.949  -0.266 -30.753  1.00  0.00    -0.166 F 
HETATM   14  F   UNL     1      -3.675  -2.182 -31.741  1.00  0.00    -0.166 F 
ENDBRANCH   7  11
ENDBRANCH   4   5
ENDBRANCH   1   4
BRANCH   3  15
HETATM   15  C   UNL     1     -11.751   1.509 -33.987  1.00  0.00     0.066 A 
HETATM   16  C   UNL     1     -11.407   2.589 -34.831  1.00  0.00     0.195 A 
HETATM   17  N   UNL     1     -12.436   3.101 -35.481  1.00  0.00    -0.148 NA
HETATM   18  N   UNL     1     -13.477   2.373 -35.073  1.00  0.00    -0.270 N 
HETATM   19  H   UNL     1     -14.396   2.599 -35.452  1.00  0.00     0.189 HD
HETATM   20  C   UNL     1     -13.127   1.398 -34.176  1.00  0.00     0.150 A 
BRANCH  16  21
HETATM   21  O   UNL     1     -10.236   3.174 -35.081  1.00  0.00    -0.343 OA
HETATM   22  H   UNL     1      -9.481   2.574 -35.050  1.00  0.00     0.219 HD
ENDBRANCH  16  21
BRANCH  20  23
HETATM   23  C   UNL     1     -14.182   0.504 -33.673  1.00  0.00     0.435 C 
HETATM   24  F   UNL     1     -14.743   1.044 -32.555  1.00  0.00    -0.165 F 
HETATM   25  F   UNL     1     -15.170   0.312 -34.569  1.00  0.00    -0.165 F 
HETATM   26  F   UNL     1     -13.688  -0.699 -33.316  1.00  0.00    -0.165 F 
ENDBRANCH  20  23
ENDBRANCH   3  15
TORSDOF 6
ENDMDL
MODEL 10
REMARK VINA RESULT:      -7.6      3.710      4.829
REMARK  6 active torsions:
REMARK  status: ('A' for Active; 'I' for Inactive)
REMARK    1  A    between atoms: C_3  and  C_4 
REMARK    2  A    between atoms: C_9  and  C_10 
REMARK    3  A    between atoms: C_10  and  N_11 
REMARK    4  A    between atoms: C_13  and  C_14 
REMARK    5  A    between atoms: C_15  and  O_16 
REMARK    6  A    between atoms: C_20  and  C_21 
ROOT
HETATM    1  N   UNL     1      -4.760   1.836 -31.572  1.00  0.00    -0.394 N 
HETATM    2  H   UNL     1      -5.481   2.502 -31.267  1.00  0.00     0.159 HD
HETATM    3  C   UNL     1      -3.681   2.295 -32.098  1.00  0.00     0.101 C 
ENDROOT
BRANCH   1   4
HETATM    4  C   UNL     1      -5.075   0.421 -31.287  1.00  0.00     0.157 C 
BRANCH   4   5
HETATM    5  C   UNL     1      -5.710  -0.218 -32.490  1.00  0.00    -0.040 A 
HETATM    6  C   UNL     1      -5.139  -1.361 -33.077  1.00  0.00     0.025 A 
HETATM    7  C   UNL     1      -5.743  -1.990 -34.180  1.00  0.00     0.048 A 
HETATM    8  C   UNL     1      -6.933  -1.460 -34.695  1.00  0.00     0.016 A 
HETATM    9  C   UNL     1      -7.507  -0.326 -34.120  1.00  0.00     0.001 A 
HETATM   10  C   UNL     1      -6.902   0.292 -33.025  1.00  0.00     0.009 A 
BRANCH   7  11
HETATM   11  C   UNL     1      -5.098  -3.212 -34.798  1.00  0.00     0.417 C 
HETATM   12  F   UNL     1      -3.850  -2.991 -35.286  1.00  0.00    -0.166 F 
HETATM   13  F   UNL     1      -4.992  -4.235 -33.909  1.00  0.00    -0.166 F 
HETATM   14  F   UNL     1      -5.836  -3.693 -35.836  1.00  0.00    -0.166 F 
ENDBRANCH   7  11
ENDBRANCH   4   5
ENDBRANCH   1   4
BRANCH   3  15
HETATM   15  C   UNL     1      -3.340   3.674 -32.375  1.00  0.00     0.066 A 
HETATM   16  C   UNL     1      -2.290   4.428 -31.803  1.00  0.00     0.195 A 
HETATM   17  N   UNL     1      -2.205   5.659 -32.274  1.00  0.00    -0.148 NA
HETATM   18  N   UNL     1      -3.201   5.741 -33.158  1.00  0.00    -0.270 N 
HETATM   19  H   UNL     1      -3.330   6.623 -33.653  1.00  0.00     0.189 HD
HETATM   20  C   UNL     1      -3.917   4.577 -33.265  1.00  0.00     0.150 A 
BRANCH  16  21
HETATM   21  O   UNL     1      -1.380   4.114 -30.881  1.00  0.00    -0.343 OA
HETATM   22  H   UNL     1      -1.309   3.169 -30.704  1.00  0.00     0.219 HD
ENDBRANCH  16  21
BRANCH  20  23
HETATM   23  C   UNL     1      -5.025   4.528 -34.232  1.00  0.00     0.435 C 
HETATM   24  F   UNL     1      -4.549   4.790 -35.483  1.00  0.00    -0.165 F 
HETATM   25  F   UNL     1      -5.626   3.324 -34.272  1.00  0.00    -0.165 F 
HETATM   26  F   UNL     1      -5.958   5.464 -33.969  1.00  0.00    -0.165 F 
ENDBRANCH  20  23
ENDBRANCH   3  15
TORSDOF 6
ENDMDL
