MODEL 1
REMARK VINA RESULT:     -10.1      0.000      0.000
REMARK  9 active torsions:
REMARK  status: ('A' for Active; 'I' for Inactive)
REMARK    1  A    between atoms: C_4  and  C_5 
REMARK    2  A    between atoms: C_13  and  C_14 
REMARK    3  A    between atoms: C_14  and  N_15 
REMARK    4  A    between atoms: C_19  and  C_20 
REMARK       I    between atoms: C_20  and  N_21 
REMARK    5  A    between atoms: N_21  and  C_22 
REMARK    6  A    between atoms: C_22  and  C_23 
REMARK    7  A    between atoms: C_23  and  C_24 
REMARK    8  A    between atoms: C_24  and  N_25 
REMARK    9  A    between atoms: N_29  and  C_30 
ROOT
HETATM    1  N   UNL     1      -3.545   4.013 -32.644  1.00  0.00    -0.066 N 
HETATM    2  H   UNL     1      -3.300   3.056 -32.941  1.00  0.00     0.280 HD
HETATM    3  C   UNL     1      -3.727   4.823 -33.903  1.00  0.00     0.236 C 
HETATM    4  C   UNL     1      -2.386   5.030 -34.604  1.00  0.00     0.042 C 
HETATM    5  C   UNL     1      -1.358   5.694 -33.688  1.00  0.00     0.081 C 
HETATM    6  C   UNL     1      -1.191   4.861 -32.417  1.00  0.00     0.042 C 
HETATM    7  C   UNL     1      -2.497   4.544 -31.703  1.00  0.00     0.236 C 
ENDROOT
BRANCH   5   8
HETATM    8  C   UNL     1      -1.803   7.128 -33.401  1.00  0.00     0.221 C 
HETATM    9  N   UNL     1      -1.980   7.420 -32.068  1.00  0.00    -0.361 N 
HETATM   10  H   UNL     1      -1.852   6.684 -31.381  1.00  0.00     0.162 HD
HETATM   11  O   UNL     1      -1.873   7.979 -34.284  1.00  0.00    -0.273 OA
BRANCH   9  12
HETATM   12  C   UNL     1      -2.056   8.787 -31.582  1.00  0.00     0.124 C 
BRANCH  12  13
HETATM   13  C   UNL     1      -2.415   8.910 -30.097  1.00  0.00     0.047 C 
BRANCH  13  14
HETATM   14  C   UNL     1      -3.139   7.648 -29.632  1.00  0.00     0.236 C 
BRANCH  14  15
HETATM   15  N   UNL     1      -2.386   6.925 -28.537  1.00  0.00    -0.068 N 
HETATM   16  H   UNL     1      -2.687   5.942 -28.513  1.00  0.00     0.280 HD
HETATM   17  C   UNL     1      -0.873   6.911 -28.852  1.00  0.00     0.254 C 
HETATM   18  C   UNL     1      -0.071   6.214 -27.733  1.00  0.00     0.150 C 
HETATM   19  N   UNL     1      -0.372   6.795 -26.414  1.00  0.00    -0.378 N 
HETATM   20  C   UNL     1      -1.806   6.767 -26.067  1.00  0.00     0.150 C 
HETATM   21  C   UNL     1      -2.632   7.516 -27.136  1.00  0.00     0.254 C 
BRANCH  19  22
HETATM   22  C   UNL     1       0.386   7.852 -25.903  1.00  0.00     0.031 A 
HETATM   23  C   UNL     1      -0.174   8.963 -25.256  1.00  0.00     0.053 A 
HETATM   24  C   UNL     1       0.627   9.996 -24.750  1.00  0.00     0.036 A 
HETATM   25 CL   UNL     1      -0.116  11.312 -23.925  1.00  0.00    -0.084 Cl
HETATM   26  C   UNL     1       2.007   9.963 -24.894  1.00  0.00     0.024 A 
HETATM   27  C   UNL     1       2.589   8.891 -25.561  1.00  0.00     0.004 A 
HETATM   28  C   UNL     1       1.786   7.857 -26.057  1.00  0.00     0.029 A 
ENDBRANCH  19  22
ENDBRANCH  14  15
ENDBRANCH  13  14
ENDBRANCH  12  13
ENDBRANCH   9  12
ENDBRANCH   5   8
BRANCH   1  29
HETATM   29  C   UNL     1      -4.859   3.842 -31.885  1.00  0.00     0.296 C 
BRANCH  29  30
HETATM   30  C   UNL     1      -5.530   2.533 -32.074  1.00  0.00     0.092 A 
HETATM   31  C   UNL     1      -6.707   2.083 -31.518  1.00  0.00     0.078 A 
HETATM   32  C   UNL     1      -7.709   2.642 -30.590  1.00  0.00     0.079 C 
HETATM   33  O   UNL     1      -6.932   0.826 -31.986  1.00  0.00    -0.294 OA
HETATM   34  C   UNL     1      -5.866   0.556 -32.804  1.00  0.00     0.180 A 
HETATM   35  N   UNL     1      -4.997   1.553 -32.891  1.00  0.00    -0.224 NA
BRANCH  34  36
HETATM   36  C   UNL     1      -5.867  -0.750 -33.459  1.00  0.00     0.017 A 
HETATM   37  C   UNL     1      -4.678  -1.475 -33.656  1.00  0.00     0.017 A 
HETATM   38  C   UNL     1      -4.696  -2.727 -34.277  1.00  0.00     0.025 A 
HETATM   39  C   UNL     1      -5.903  -3.267 -34.709  1.00  0.00     0.034 A 
HETATM   40 CL   UNL     1      -5.928  -4.808 -35.469  1.00  0.00    -0.084 Cl
HETATM   41  C   UNL     1      -7.092  -2.565 -34.526  1.00  0.00     0.025 A 
HETATM   42  C   UNL     1      -7.073  -1.311 -33.904  1.00  0.00     0.017 A 
ENDBRANCH  34  36
ENDBRANCH  29  30
ENDBRANCH   1  29
TORSDOF 9
ENDMDL
MODEL 2
REMARK VINA RESULT:     -10.1      3.401      6.007
REMARK  9 active torsions:
REMARK  status: ('A' for Active; 'I' for Inactive)
REMARK    1  A    between atoms: C_4  and  C_5 
REMARK    2  A    between atoms: C_13  and  C_14 
REMARK    3  A    between atoms: C_14  and  N_15 
REMARK    4  A    between atoms: C_19  and  C_20 
REMARK       I    between atoms: C_20  and  N_21 
REMARK    5  A    between atoms: N_21  and  C_22 
REMARK    6  A    between atoms: C_22  and  C_23 
REMARK    7  A    between atoms: C_23  and  C_24 
REMARK    8  A    between atoms: C_24  and  N_25 
REMARK    9  A    between atoms: N_29  and  C_30 
ROOT
HETATM    1  N   UNL     1      -2.875   4.475 -32.555  1.00  0.00    -0.066 N 
HETATM    2  H   UNL     1      -2.573   3.777 -33.253  1.00  0.00     0.280 HD
HETATM    3  C   UNL     1      -3.333   5.686 -33.327  1.00  0.00     0.236 C 
HETATM    4  C   UNL     1      -2.145   6.379 -33.991  1.00  0.00     0.042 C 
HETATM    5  C   UNL     1      -1.069   6.769 -32.976  1.00  0.00     0.081 C 
HETATM    6  C   UNL     1      -0.622   5.529 -32.202  1.00  0.00     0.042 C 
HETATM    7  C   UNL     1      -1.762   4.738 -31.576  1.00  0.00     0.236 C 
ENDROOT
BRANCH   5   8
HETATM    8  C   UNL     1      -1.623   7.866 -32.066  1.00  0.00     0.221 C 
HETATM    9  N   UNL     1      -1.677   7.535 -30.732  1.00  0.00    -0.361 N 
HETATM   10  H   UNL     1      -1.399   6.601 -30.444  1.00  0.00     0.162 HD
HETATM   11  O   UNL     1      -1.876   8.993 -32.483  1.00  0.00    -0.273 OA
BRANCH   9  12
HETATM   12  C   UNL     1      -1.836   8.539 -29.694  1.00  0.00     0.124 C 
BRANCH  12  13
HETATM   13  C   UNL     1      -3.115   8.390 -28.863  1.00  0.00     0.047 C 
BRANCH  13  14
HETATM   14  C   UNL     1      -3.641   6.960 -28.971  1.00  0.00     0.236 C 
BRANCH  14  15
HETATM   15  N   UNL     1      -5.152   6.908 -29.021  1.00  0.00    -0.068 N 
HETATM   16  H   UNL     1      -5.532   7.802 -28.682  1.00  0.00     0.280 HD
HETATM   17  C   UNL     1      -5.631   6.758 -30.483  1.00  0.00     0.254 C 
HETATM   18  C   UNL     1      -7.169   6.663 -30.566  1.00  0.00     0.150 C 
HETATM   19  N   UNL     1      -7.691   5.605 -29.685  1.00  0.00    -0.378 N 
HETATM   20  C   UNL     1      -7.293   5.761 -28.272  1.00  0.00     0.150 C 
HETATM   21  C   UNL     1      -5.754   5.792 -28.148  1.00  0.00     0.254 C 
BRANCH  19  22
HETATM   22  C   UNL     1      -7.874   4.302 -30.155  1.00  0.00     0.031 A 
HETATM   23  C   UNL     1      -7.037   3.230 -29.809  1.00  0.00     0.053 A 
HETATM   24  C   UNL     1      -7.266   1.937 -30.298  1.00  0.00     0.036 A 
HETATM   25 CL   UNL     1      -6.231   0.654 -29.800  1.00  0.00    -0.084 Cl
HETATM   26  C   UNL     1      -8.319   1.678 -31.164  1.00  0.00     0.024 A 
HETATM   27  C   UNL     1      -9.144   2.726 -31.552  1.00  0.00     0.004 A 
HETATM   28  C   UNL     1      -8.918   4.015 -31.055  1.00  0.00     0.029 A 
ENDBRANCH  19  22
ENDBRANCH  14  15
ENDBRANCH  13  14
ENDBRANCH  12  13
ENDBRANCH   9  12
ENDBRANCH   5   8
BRANCH   1  29
HETATM   29  C   UNL     1      -4.032   3.795 -31.826  1.00  0.00     0.296 C 
BRANCH  29  30
HETATM   30  C   UNL     1      -4.801   2.820 -32.636  1.00  0.00     0.092 A 
HETATM   31  C   UNL     1      -5.847   3.057 -33.500  1.00  0.00     0.078 A 
HETATM   32  C   UNL     1      -6.583   4.253 -33.952  1.00  0.00     0.079 C 
HETATM   33  O   UNL     1      -6.230   1.860 -34.023  1.00  0.00    -0.294 OA
HETATM   34  C   UNL     1      -5.404   0.937 -33.440  1.00  0.00     0.180 A 
HETATM   35  N   UNL     1      -4.526   1.465 -32.599  1.00  0.00    -0.224 NA
BRANCH  34  36
HETATM   36  C   UNL     1      -5.597  -0.453 -33.845  1.00  0.00     0.017 A 
HETATM   37  C   UNL     1      -6.855  -0.932 -34.253  1.00  0.00     0.017 A 
HETATM   38  C   UNL     1      -7.024  -2.263 -34.647  1.00  0.00     0.025 A 
HETATM   39  C   UNL     1      -5.935  -3.130 -34.636  1.00  0.00     0.034 A 
HETATM   40 CL   UNL     1      -6.138  -4.765 -35.123  1.00  0.00    -0.084 Cl
HETATM   41  C   UNL     1      -4.681  -2.677 -34.234  1.00  0.00     0.025 A 
HETATM   42  C   UNL     1      -4.514  -1.344 -33.840  1.00  0.00     0.017 A 
ENDBRANCH  34  36
ENDBRANCH  29  30
ENDBRANCH   1  29
TORSDOF 9
ENDMDL
MODEL 3
REMARK VINA RESULT:      -9.8      2.711      4.638
REMARK  9 active torsions:
REMARK  status: ('A' for Active; 'I' for Inactive)
REMARK    1  A    between atoms: C_4  and  C_5 
REMARK    2  A    between atoms: C_13  and  C_14 
REMARK    3  A    between atoms: C_14  and  N_15 
REMARK    4  A    between atoms: C_19  and  C_20 
REMARK       I    between atoms: C_20  and  N_21 
REMARK    5  A    between atoms: N_21  and  C_22 
REMARK    6  A    between atoms: C_22  and  C_23 
REMARK    7  A    between atoms: C_23  and  C_24 
REMARK    8  A    between atoms: C_24  and  N_25 
REMARK    9  A    between atoms: N_29  and  C_30 
ROOT
HETATM    1  N   UNL     1      -3.422   4.777 -31.854  1.00  0.00    -0.066 N 
HETATM    2  H   UNL     1      -4.080   5.233 -32.505  1.00  0.00     0.280 HD
HETATM    3  C   UNL     1      -3.036   5.817 -30.832  1.00  0.00     0.236 C 
HETATM    4  C   UNL     1      -2.168   6.899 -31.472  1.00  0.00     0.042 C 
HETATM    5  C   UNL     1      -0.920   6.314 -32.135  1.00  0.00     0.081 C 
HETATM    6  C   UNL     1      -1.333   5.261 -33.163  1.00  0.00     0.042 C 
HETATM    7  C   UNL     1      -2.266   4.189 -32.617  1.00  0.00     0.236 C 
ENDROOT
BRANCH   5   8
HETATM    8  C   UNL     1      -0.001   5.754 -31.050  1.00  0.00     0.221 C 
HETATM    9  N   UNL     1       0.005   6.469 -29.874  1.00  0.00    -0.361 N 
HETATM   10  H   UNL     1      -0.547   7.319 -29.811  1.00  0.00     0.162 HD
HETATM   11  O   UNL     1       0.585   4.682 -31.180  1.00  0.00    -0.273 OA
BRANCH   9  12
HETATM   12  C   UNL     1       0.528   5.914 -28.637  1.00  0.00     0.124 C 
BRANCH  12  13
HETATM   13  C   UNL     1       0.077   6.655 -27.373  1.00  0.00     0.047 C 
BRANCH  13  14
HETATM   14  C   UNL     1      -0.428   8.049 -27.742  1.00  0.00     0.236 C 
BRANCH  14  15
HETATM   15  N   UNL     1      -1.830   8.303 -27.231  1.00  0.00    -0.068 N 
HETATM   16  H   UNL     1      -1.779   8.895 -26.391  1.00  0.00     0.280 HD
HETATM   17  C   UNL     1      -2.641   9.099 -28.278  1.00  0.00     0.254 C 
HETATM   18  C   UNL     1      -4.089   9.343 -27.802  1.00  0.00     0.150 C 
HETATM   19  N   UNL     1      -4.745   8.084 -27.411  1.00  0.00    -0.378 N 
HETATM   20  C   UNL     1      -4.016   7.335 -26.370  1.00  0.00     0.150 C 
HETATM   21  C   UNL     1      -2.581   7.017 -26.843  1.00  0.00     0.254 C 
BRANCH  19  22
HETATM   22  C   UNL     1      -5.481   7.338 -28.337  1.00  0.00     0.031 A 
HETATM   23  C   UNL     1      -5.827   7.812 -29.611  1.00  0.00     0.053 A 
HETATM   24  C   UNL     1      -6.558   7.023 -30.510  1.00  0.00     0.036 A 
HETATM   25 CL   UNL     1      -6.912   7.642 -32.077  1.00  0.00    -0.084 Cl
HETATM   26  C   UNL     1      -6.985   5.751 -30.158  1.00  0.00     0.024 A 
HETATM   27  C   UNL     1      -6.687   5.268 -28.889  1.00  0.00     0.004 A 
HETATM   28  C   UNL     1      -5.949   6.055 -27.997  1.00  0.00     0.029 A 
ENDBRANCH  19  22
ENDBRANCH  14  15
ENDBRANCH  13  14
ENDBRANCH  12  13
ENDBRANCH   9  12
ENDBRANCH   5   8
BRANCH   1  29
HETATM   29  C   UNL     1      -4.238   3.646 -31.231  1.00  0.00     0.296 C 
BRANCH  29  30
HETATM   30  C   UNL     1      -4.897   2.737 -32.200  1.00  0.00     0.092 A 
HETATM   31  C   UNL     1      -5.803   3.048 -33.190  1.00  0.00     0.078 A 
HETATM   32  C   UNL     1      -6.447   4.285 -33.671  1.00  0.00     0.079 C 
HETATM   33  O   UNL     1      -6.125   1.893 -33.833  1.00  0.00    -0.294 OA
HETATM   34  C   UNL     1      -5.406   0.918 -33.193  1.00  0.00     0.180 A 
HETATM   35  N   UNL     1      -4.651   1.377 -32.205  1.00  0.00    -0.224 NA
BRANCH  34  36
HETATM   36  C   UNL     1      -5.560  -0.442 -33.704  1.00  0.00     0.017 A 
HETATM   37  C   UNL     1      -4.482  -1.345 -33.730  1.00  0.00     0.017 A 
HETATM   38  C   UNL     1      -4.647  -2.646 -34.214  1.00  0.00     0.025 A 
HETATM   39  C   UNL     1      -5.893  -3.057 -34.680  1.00  0.00     0.034 A 
HETATM   40 CL   UNL     1      -6.099  -4.657 -35.272  1.00  0.00    -0.084 Cl
HETATM   41  C   UNL     1      -6.973  -2.179 -34.665  1.00  0.00     0.025 A 
HETATM   42  C   UNL     1      -6.806  -0.876 -34.180  1.00  0.00     0.017 A 
ENDBRANCH  34  36
ENDBRANCH  29  30
ENDBRANCH   1  29
TORSDOF 9
ENDMDL
MODEL 4
REMARK VINA RESULT:      -9.8      2.731      3.961
REMARK  9 active torsions:
REMARK  status: ('A' for Active; 'I' for Inactive)
REMARK    1  A    between atoms: C_4  and  C_5 
REMARK    2  A    between atoms: C_13  and  C_14 
REMARK    3  A    between atoms: C_14  and  N_15 
REMARK    4  A    between atoms: C_19  and  C_20 
REMARK       I    between atoms: C_20  and  N_21 
REMARK    5  A    between atoms: N_21  and  C_22 
REMARK    6  A    between atoms: C_22  and  C_23 
REMARK    7  A    between atoms: C_23  and  C_24 
REMARK    8  A    between atoms: C_24  and  N_25 
REMARK    9  A    between atoms: N_29  and  C_30 
ROOT
HETATM    1  N   UNL     1      -5.543   4.440 -33.092  1.00  0.00    -0.066 N 
HETATM    2  H   UNL     1      -4.883   4.241 -33.860  1.00  0.00     0.280 HD
HETATM    3  C   UNL     1      -5.639   5.941 -32.981  1.00  0.00     0.236 C 
HETATM    4  C   UNL     1      -4.331   6.522 -32.448  1.00  0.00     0.042 C 
HETATM    5  C   UNL     1      -3.941   5.913 -31.101  1.00  0.00     0.081 C 
HETATM    6  C   UNL     1      -3.853   4.392 -31.233  1.00  0.00     0.042 C 
HETATM    7  C   UNL     1      -5.093   3.746 -31.834  1.00  0.00     0.236 C 
ENDROOT
BRANCH   5   8
HETATM    8  C   UNL     1      -4.952   6.357 -30.045  1.00  0.00     0.221 C 
HETATM    9  N   UNL     1      -5.030   5.540 -28.941  1.00  0.00    -0.361 N 
HETATM   10  H   UNL     1      -4.464   4.697 -28.911  1.00  0.00     0.162 HD
HETATM   11  O   UNL     1      -5.552   7.427 -30.124  1.00  0.00    -0.273 OA
BRANCH   9  12
HETATM   12  C   UNL     1      -5.658   5.972 -27.704  1.00  0.00     0.124 C 
BRANCH  12  13
HETATM   13  C   UNL     1      -4.671   6.292 -26.575  1.00  0.00     0.047 C 
BRANCH  13  14
HETATM   14  C   UNL     1      -4.473   7.803 -26.472  1.00  0.00     0.236 C 
BRANCH  14  15
HETATM   15  N   UNL     1      -3.050   8.216 -26.781  1.00  0.00    -0.068 N 
HETATM   16  H   UNL     1      -2.771   8.969 -26.137  1.00  0.00     0.280 HD
HETATM   17  C   UNL     1      -2.086   7.037 -26.518  1.00  0.00     0.254 C 
HETATM   18  C   UNL     1      -0.629   7.414 -26.860  1.00  0.00     0.150 C 
HETATM   19  N   UNL     1      -0.518   7.945 -28.229  1.00  0.00    -0.378 N 
HETATM   20  C   UNL     1      -1.389   9.109 -28.485  1.00  0.00     0.150 C 
HETATM   21  C   UNL     1      -2.865   8.744 -28.215  1.00  0.00     0.254 C 
BRANCH  19  22
HETATM   22  C   UNL     1      -0.249   7.101 -29.309  1.00  0.00     0.031 A 
HETATM   23  C   UNL     1      -0.641   7.381 -30.626  1.00  0.00     0.053 A 
HETATM   24  C   UNL     1      -0.340   6.509 -31.681  1.00  0.00     0.036 A 
HETATM   25 CL   UNL     1      -0.808   6.931 -33.283  1.00  0.00    -0.084 Cl
HETATM   26  C   UNL     1       0.340   5.321 -31.451  1.00  0.00     0.024 A 
HETATM   27  C   UNL     1       0.711   4.999 -30.151  1.00  0.00     0.004 A 
HETATM   28  C   UNL     1       0.416   5.877 -29.101  1.00  0.00     0.029 A 
ENDBRANCH  19  22
ENDBRANCH  14  15
ENDBRANCH  13  14
ENDBRANCH  12  13
ENDBRANCH   9  12
ENDBRANCH   5   8
BRANCH   1  29
HETATM   29  C   UNL     1      -6.857   3.820 -33.562  1.00  0.00     0.296 C 
BRANCH  29  30
HETATM   30  C   UNL     1      -6.993   2.365 -33.313  1.00  0.00     0.092 A 
HETATM   31  C   UNL     1      -7.820   1.720 -32.420  1.00  0.00     0.078 A 
HETATM   32  C   UNL     1      -8.823   2.145 -31.425  1.00  0.00     0.079 C 
HETATM   33  O   UNL     1      -7.606   0.383 -32.550  1.00  0.00    -0.294 OA
HETATM   34  C   UNL     1      -6.642   0.270 -33.516  1.00  0.00     0.180 A 
HETATM   35  N   UNL     1      -6.242   1.435 -34.007  1.00  0.00    -0.224 NA
BRANCH  34  36
HETATM   36  C   UNL     1      -6.231  -1.088 -33.865  1.00  0.00     0.017 A 
HETATM   37  C   UNL     1      -7.148  -2.027 -34.368  1.00  0.00     0.017 A 
HETATM   38  C   UNL     1      -6.739  -3.321 -34.706  1.00  0.00     0.025 A 
HETATM   39  C   UNL     1      -5.407  -3.688 -34.544  1.00  0.00     0.034 A 
HETATM   40 CL   UNL     1      -4.900  -5.276 -34.961  1.00  0.00    -0.084 Cl
HETATM   41  C   UNL     1      -4.482  -2.774 -34.046  1.00  0.00     0.025 A 
HETATM   42  C   UNL     1      -4.893  -1.479 -33.708  1.00  0.00     0.017 A 
ENDBRANCH  34  36
ENDBRANCH  29  30
ENDBRANCH   1  29
TORSDOF 9
ENDMDL
MODEL 5
REMARK VINA RESULT:      -9.8      2.062     11.236
REMARK  9 active torsions:
REMARK  status: ('A' for Active; 'I' for Inactive)
REMARK    1  A    between atoms: C_4  and  C_5 
REMARK    2  A    between atoms: C_13  and  C_14 
REMARK    3  A    between atoms: C_14  and  N_15 
REMARK    4  A    between atoms: C_19  and  C_20 
REMARK       I    between atoms: C_20  and  N_21 
REMARK    5  A    between atoms: N_21  and  C_22 
REMARK    6  A    between atoms: C_22  and  C_23 
REMARK    7  A    between atoms: C_23  and  C_24 
REMARK    8  A    between atoms: C_24  and  N_25 
REMARK    9  A    between atoms: N_29  and  C_30 
ROOT
HETATM    1  N   UNL     1      -3.100   6.813 -32.558  1.00  0.00    -0.066 N 
HETATM    2  H   UNL     1      -2.779   7.207 -33.456  1.00  0.00     0.280 HD
HETATM    3  C   UNL     1      -1.998   5.909 -32.064  1.00  0.00     0.236 C 
HETATM    4  C   UNL     1      -1.888   4.668 -32.947  1.00  0.00     0.042 C 
HETATM    5  C   UNL     1      -3.209   3.902 -33.026  1.00  0.00     0.081 C 
HETATM    6  C   UNL     1      -4.313   4.836 -33.524  1.00  0.00     0.042 C 
HETATM    7  C   UNL     1      -4.432   6.135 -32.741  1.00  0.00     0.236 C 
ENDROOT
BRANCH   5   8
HETATM    8  C   UNL     1      -3.516   3.303 -31.654  1.00  0.00     0.221 C 
HETATM    9  N   UNL     1      -4.740   3.655 -31.132  1.00  0.00    -0.361 N 
HETATM   10  H   UNL     1      -5.328   4.302 -31.648  1.00  0.00     0.162 HD
HETATM   11  O   UNL     1      -2.780   2.475 -31.123  1.00  0.00    -0.273 OA
BRANCH   9  12
HETATM   12  C   UNL     1      -5.347   2.926 -30.031  1.00  0.00     0.124 C 
BRANCH  12  13
HETATM   13  C   UNL     1      -6.780   2.453 -30.302  1.00  0.00     0.047 C 
BRANCH  13  14
HETATM   14  C   UNL     1      -7.344   3.179 -31.522  1.00  0.00     0.236 C 
BRANCH  14  15
HETATM   15  N   UNL     1      -7.870   2.220 -32.567  1.00  0.00    -0.068 N 
HETATM   16  H   UNL     1      -8.779   2.560 -32.910  1.00  0.00     0.280 HD
HETATM   17  C   UNL     1      -6.925   2.194 -33.789  1.00  0.00     0.254 C 
HETATM   18  C   UNL     1      -7.414   1.194 -34.859  1.00  0.00     0.150 C 
HETATM   19  N   UNL     1      -7.637  -0.143 -34.283  1.00  0.00    -0.378 N 
HETATM   20  C   UNL     1      -8.582  -0.149 -33.150  1.00  0.00     0.150 C 
HETATM   21  C   UNL     1      -8.086   0.792 -32.032  1.00  0.00     0.254 C 
BRANCH  19  22
HETATM   22  C   UNL     1      -6.619  -1.100 -34.270  1.00  0.00     0.031 A 
HETATM   23  C   UNL     1      -6.787  -2.414 -34.732  1.00  0.00     0.053 A 
HETATM   24  C   UNL     1      -5.733  -3.337 -34.708  1.00  0.00     0.036 A 
HETATM   25 CL   UNL     1      -5.988  -4.922 -35.332  1.00  0.00    -0.084 Cl
HETATM   26  C   UNL     1      -4.490  -2.987 -34.203  1.00  0.00     0.024 A 
HETATM   27  C   UNL     1      -4.303  -1.702 -33.706  1.00  0.00     0.004 A 
HETATM   28  C   UNL     1      -5.355  -0.780 -33.739  1.00  0.00     0.029 A 
ENDBRANCH  19  22
ENDBRANCH  14  15
ENDBRANCH  13  14
ENDBRANCH  12  13
ENDBRANCH   9  12
ENDBRANCH   5   8
BRANCH   1  29
HETATM   29  C   UNL     1      -3.279   8.034 -31.659  1.00  0.00     0.296 C 
BRANCH  29  30
HETATM   30  C   UNL     1      -2.738   7.890 -30.285  1.00  0.00     0.092 A 
HETATM   31  C   UNL     1      -3.312   7.271 -29.197  1.00  0.00     0.078 A 
HETATM   32  C   UNL     1      -4.578   6.558 -28.943  1.00  0.00     0.079 C 
HETATM   33  O   UNL     1      -2.445   7.382 -28.154  1.00  0.00    -0.294 OA
HETATM   34  C   UNL     1      -1.377   8.080 -28.652  1.00  0.00     0.180 A 
HETATM   35  N   UNL     1      -1.506   8.407 -29.931  1.00  0.00    -0.224 NA
BRANCH  34  36
HETATM   36  C   UNL     1      -0.276   8.329 -27.725  1.00  0.00     0.017 A 
HETATM   37  C   UNL     1       0.677   7.337 -27.433  1.00  0.00     0.017 A 
HETATM   38  C   UNL     1       1.730   7.591 -26.550  1.00  0.00     0.025 A 
HETATM   39  C   UNL     1       1.841   8.842 -25.949  1.00  0.00     0.034 A 
HETATM   40 CL   UNL     1       3.137   9.159 -24.866  1.00  0.00    -0.084 Cl
HETATM   41  C   UNL     1       0.907   9.838 -26.223  1.00  0.00     0.025 A 
HETATM   42  C   UNL     1      -0.147   9.581 -27.108  1.00  0.00     0.017 A 
ENDBRANCH  34  36
ENDBRANCH  29  30
ENDBRANCH   1  29
TORSDOF 9
ENDMDL
MODEL 6
REMARK VINA RESULT:      -9.6      1.880      2.359
REMARK  9 active torsions:
REMARK  status: ('A' for Active; 'I' for Inactive)
REMARK    1  A    between atoms: C_4  and  C_5 
REMARK    2  A    between atoms: C_13  and  C_14 
REMARK    3  A    between atoms: C_14  and  N_15 
REMARK    4  A    between atoms: C_19  and  C_20 
REMARK       I    between atoms: C_20  and  N_21 
REMARK    5  A    between atoms: N_21  and  C_22 
REMARK    6  A    between atoms: C_22  and  C_23 
REMARK    7  A    between atoms: C_23  and  C_24 
REMARK    8  A    between atoms: C_24  and  N_25 
REMARK    9  A    between atoms: N_29  and  C_30 
ROOT
HETATM    1  N   UNL     1      -3.319   4.177 -32.643  1.00  0.00    -0.066 N 
HETATM    2  H   UNL     1      -2.904   3.241 -32.770  1.00  0.00     0.280 HD
HETATM    3  C   UNL     1      -3.040   4.948 -33.908  1.00  0.00     0.236 C 
HETATM    4  C   UNL     1      -1.550   5.262 -34.026  1.00  0.00     0.042 C 
HETATM    5  C   UNL     1      -1.028   6.028 -32.809  1.00  0.00     0.081 C 
HETATM    6  C   UNL     1      -1.324   5.232 -31.538  1.00  0.00     0.042 C 
HETATM    7  C   UNL     1      -2.780   4.812 -31.390  1.00  0.00     0.236 C 
ENDROOT
BRANCH   5   8
HETATM    8  C   UNL     1      -1.657   7.421 -32.795  1.00  0.00     0.221 C 
HETATM    9  N   UNL     1      -2.035   7.870 -31.551  1.00  0.00    -0.361 N 
HETATM   10  H   UNL     1      -1.919   7.257 -30.749  1.00  0.00     0.162 HD
HETATM   11  O   UNL     1      -1.702   8.127 -33.799  1.00  0.00    -0.273 OA
BRANCH   9  12
HETATM   12  C   UNL     1      -2.318   9.271 -31.290  1.00  0.00     0.124 C 
BRANCH  12  13
HETATM   13  C   UNL     1      -3.710   9.535 -30.703  1.00  0.00     0.047 C 
BRANCH  13  14
HETATM   14  C   UNL     1      -3.760  10.936 -30.098  1.00  0.00     0.236 C 
BRANCH  14  15
HETATM   15  N   UNL     1      -3.355  10.945 -28.640  1.00  0.00    -0.068 N 
HETATM   16  H   UNL     1      -3.999  11.552 -28.115  1.00  0.00     0.280 HD
HETATM   17  C   UNL     1      -3.504   9.529 -28.039  1.00  0.00     0.254 C 
HETATM   18  C   UNL     1      -3.062   9.496 -26.560  1.00  0.00     0.150 C 
HETATM   19  N   UNL     1      -1.707  10.046 -26.392  1.00  0.00    -0.378 N 
HETATM   20  C   UNL     1      -1.557  11.421 -26.908  1.00  0.00     0.150 C 
HETATM   21  C   UNL     1      -1.929  11.475 -28.406  1.00  0.00     0.254 C 
BRANCH  19  22
HETATM   22  C   UNL     1      -0.581   9.219 -26.447  1.00  0.00     0.031 A 
HETATM   23  C   UNL     1      -0.507   8.067 -27.244  1.00  0.00     0.053 A 
HETATM   24  C   UNL     1       0.647   7.273 -27.275  1.00  0.00     0.036 A 
HETATM   25 CL   UNL     1       0.694   5.897 -28.309  1.00  0.00    -0.084 Cl
HETATM   26  C   UNL     1       1.751   7.588 -26.496  1.00  0.00     0.024 A 
HETATM   27  C   UNL     1       1.694   8.704 -25.669  1.00  0.00     0.004 A 
HETATM   28  C   UNL     1       0.543   9.500 -25.647  1.00  0.00     0.029 A 
ENDBRANCH  19  22
ENDBRANCH  14  15
ENDBRANCH  13  14
ENDBRANCH  12  13
ENDBRANCH   9  12
ENDBRANCH   5   8
BRANCH   1  29
HETATM   29  C   UNL     1      -4.810   3.902 -32.463  1.00  0.00     0.296 C 
BRANCH  29  30
HETATM   30  C   UNL     1      -5.176   2.471 -32.332  1.00  0.00     0.092 A 
HETATM   31  C   UNL     1      -5.636   1.801 -31.220  1.00  0.00     0.078 A 
HETATM   32  C   UNL     1      -5.933   2.169 -29.822  1.00  0.00     0.079 C 
HETATM   33  O   UNL     1      -5.847   0.505 -31.576  1.00  0.00    -0.294 OA
HETATM   34  C   UNL     1      -5.491   0.437 -32.898  1.00  0.00     0.180 A 
HETATM   35  N   UNL     1      -5.083   1.595 -33.398  1.00  0.00    -0.224 NA
BRANCH  34  36
HETATM   36  C   UNL     1      -5.638  -0.866 -33.542  1.00  0.00     0.017 A 
HETATM   37  C   UNL     1      -4.523  -1.670 -33.837  1.00  0.00     0.017 A 
HETATM   38  C   UNL     1      -4.680  -2.918 -34.447  1.00  0.00     0.025 A 
HETATM   39  C   UNL     1      -5.955  -3.375 -34.768  1.00  0.00     0.034 A 
HETATM   40 CL   UNL     1      -6.151  -4.910 -35.514  1.00  0.00    -0.084 Cl
HETATM   41  C   UNL     1      -7.072  -2.593 -34.486  1.00  0.00     0.025 A 
HETATM   42  C   UNL     1      -6.913  -1.343 -33.876  1.00  0.00     0.017 A 
ENDBRANCH  34  36
ENDBRANCH  29  30
ENDBRANCH   1  29
TORSDOF 9
ENDMDL
MODEL 7
REMARK VINA RESULT:      -9.6      2.439     11.465
REMARK  9 active torsions:
REMARK  status: ('A' for Active; 'I' for Inactive)
REMARK    1  A    between atoms: C_4  and  C_5 
REMARK    2  A    between atoms: C_13  and  C_14 
REMARK    3  A    between atoms: C_14  and  N_15 
REMARK    4  A    between atoms: C_19  and  C_20 
REMARK       I    between atoms: C_20  and  N_21 
REMARK    5  A    between atoms: N_21  and  C_22 
REMARK    6  A    between atoms: C_22  and  C_23 
REMARK    7  A    between atoms: C_23  and  C_24 
REMARK    8  A    between atoms: C_24  and  N_25 
REMARK    9  A    between atoms: N_29  and  C_30 
ROOT
HETATM    1  N   UNL     1      -3.162   5.163 -30.528  1.00  0.00    -0.066 N 
HETATM    2  H   UNL     1      -2.765   4.897 -29.613  1.00  0.00     0.280 HD
HETATM    3  C   UNL     1      -4.644   5.345 -30.320  1.00  0.00     0.236 C 
HETATM    4  C   UNL     1      -5.316   4.001 -30.049  1.00  0.00     0.042 C 
HETATM    5  C   UNL     1      -5.056   2.994 -31.170  1.00  0.00     0.081 C 
HETATM    6  C   UNL     1      -3.549   2.827 -31.368  1.00  0.00     0.042 C 
HETATM    7  C   UNL     1      -2.796   4.135 -31.564  1.00  0.00     0.236 C 
ENDROOT
BRANCH   5   8
HETATM    8  C   UNL     1      -5.769   3.469 -32.436  1.00  0.00     0.221 C 
HETATM    9  N   UNL     1      -6.678   4.484 -32.239  1.00  0.00    -0.361 N 
HETATM   10  H   UNL     1      -6.848   4.817 -31.295  1.00  0.00     0.162 HD
HETATM   11  O   UNL     1      -5.459   3.061 -33.552  1.00  0.00    -0.273 OA
BRANCH   9  12
HETATM   12  C   UNL     1      -7.183   5.289 -33.337  1.00  0.00     0.124 C 
BRANCH  12  13
HETATM   13  C   UNL     1      -8.571   4.873 -33.838  1.00  0.00     0.047 C 
BRANCH  13  14
HETATM   14  C   UNL     1      -9.385   4.289 -32.684  1.00  0.00     0.236 C 
BRANCH  14  15
HETATM   15  N   UNL     1      -9.681   2.818 -32.879  1.00  0.00    -0.068 N 
HETATM   16  H   UNL     1     -10.700   2.684 -32.936  1.00  0.00     0.280 HD
HETATM   17  C   UNL     1      -9.102   2.334 -34.227  1.00  0.00     0.254 C 
HETATM   18  C   UNL     1      -9.354   0.826 -34.439  1.00  0.00     0.150 C 
HETATM   19  N   UNL     1      -8.872   0.034 -33.295  1.00  0.00    -0.378 N 
HETATM   20  C   UNL     1      -9.457   0.443 -32.004  1.00  0.00     0.150 C 
HETATM   21  C   UNL     1      -9.164   1.934 -31.729  1.00  0.00     0.254 C 
BRANCH  19  22
HETATM   22  C   UNL     1      -7.573  -0.481 -33.272  1.00  0.00     0.031 A 
HETATM   23  C   UNL     1      -7.103  -1.435 -34.187  1.00  0.00     0.053 A 
HETATM   24  C   UNL     1      -5.788  -1.915 -34.132  1.00  0.00     0.036 A 
HETATM   25 CL   UNL     1      -5.256  -3.051 -35.312  1.00  0.00    -0.084 Cl
HETATM   26  C   UNL     1      -4.910  -1.478 -33.150  1.00  0.00     0.024 A 
HETATM   27  C   UNL     1      -5.357  -0.560 -32.208  1.00  0.00     0.004 A 
HETATM   28  C   UNL     1      -6.669  -0.075 -32.272  1.00  0.00     0.029 A 
ENDBRANCH  19  22
ENDBRANCH  14  15
ENDBRANCH  13  14
ENDBRANCH  12  13
ENDBRANCH   9  12
ENDBRANCH   5   8
BRANCH   1  29
HETATM   29  C   UNL     1      -2.469   6.481 -30.864  1.00  0.00     0.296 C 
BRANCH  29  30
HETATM   30  C   UNL     1      -1.249   6.773 -30.073  1.00  0.00     0.092 A 
HETATM   31  C   UNL     1       0.018   6.258 -30.228  1.00  0.00     0.078 A 
HETATM   32  C   UNL     1       0.653   5.294 -31.148  1.00  0.00     0.079 C 
HETATM   33  O   UNL     1       0.813   6.823 -29.279  1.00  0.00    -0.294 OA
HETATM   34  C   UNL     1      -0.015   7.655 -28.572  1.00  0.00     0.180 A 
HETATM   35  N   UNL     1      -1.265   7.661 -29.013  1.00  0.00    -0.224 NA
BRANCH  34  36
HETATM   36  C   UNL     1       0.602   8.409 -27.483  1.00  0.00     0.017 A 
HETATM   37  C   UNL     1       1.604   7.845 -26.674  1.00  0.00     0.017 A 
HETATM   38  C   UNL     1       2.191   8.582 -25.641  1.00  0.00     0.025 A 
HETATM   39  C   UNL     1       1.780   9.890 -25.405  1.00  0.00     0.034 A 
HETATM   40 CL   UNL     1       2.502  10.799 -24.138  1.00  0.00    -0.084 Cl
HETATM   41  C   UNL     1       0.787  10.467 -26.193  1.00  0.00     0.025 A 
HETATM   42  C   UNL     1       0.200   9.728 -27.227  1.00  0.00     0.017 A 
ENDBRANCH  34  36
ENDBRANCH  29  30
ENDBRANCH   1  29
TORSDOF 9
ENDMDL
MODEL 8
REMARK VINA RESULT:      -9.6      1.397      2.038
REMARK  9 active torsions:
REMARK  status: ('A' for Active; 'I' for Inactive)
REMARK    1  A    between atoms: C_4  and  C_5 
REMARK    2  A    between atoms: C_13  and  C_14 
REMARK    3  A    between atoms: C_14  and  N_15 
REMARK    4  A    between atoms: C_19  and  C_20 
REMARK       I    between atoms: C_20  and  N_21 
REMARK    5  A    between atoms: N_21  and  C_22 
REMARK    6  A    between atoms: C_22  and  C_23 
REMARK    7  A    between atoms: C_23  and  C_24 
REMARK    8  A    between atoms: C_24  and  N_25 
REMARK    9  A    between atoms: N_29  and  C_30 
ROOT
HETATM    1  N   UNL     1      -3.559   4.146 -32.927  1.00  0.00    -0.066 N 
HETATM    2  H   UNL     1      -3.269   3.206 -33.240  1.00  0.00     0.280 HD
HETATM    3  C   UNL     1      -3.483   5.046 -34.135  1.00  0.00     0.236 C 
HETATM    4  C   UNL     1      -2.029   5.270 -34.544  1.00  0.00     0.042 C 
HETATM    5  C   UNL     1      -1.194   5.845 -33.399  1.00  0.00     0.081 C 
HETATM    6  C   UNL     1      -1.288   4.921 -32.184  1.00  0.00     0.042 C 
HETATM    7  C   UNL     1      -2.712   4.586 -31.764  1.00  0.00     0.236 C 
ENDROOT
BRANCH   5   8
HETATM    8  C   UNL     1      -1.675   7.264 -33.101  1.00  0.00     0.221 C 
HETATM    9  N   UNL     1      -1.847   7.546 -31.765  1.00  0.00    -0.361 N 
HETATM   10  H   UNL     1      -1.693   6.810 -31.083  1.00  0.00     0.162 HD
HETATM   11  O   UNL     1      -1.774   8.118 -33.979  1.00  0.00    -0.273 OA
BRANCH   9  12
HETATM   12  C   UNL     1      -1.954   8.909 -31.273  1.00  0.00     0.124 C 
BRANCH  12  13
HETATM   13  C   UNL     1      -2.863   9.067 -30.049  1.00  0.00     0.047 C 
BRANCH  13  14
HETATM   14  C   UNL     1      -2.433   8.093 -28.953  1.00  0.00     0.236 C 
BRANCH  14  15
HETATM   15  N   UNL     1      -2.866   8.550 -27.578  1.00  0.00    -0.068 N 
HETATM   16  H   UNL     1      -3.894   8.533 -27.525  1.00  0.00     0.280 HD
HETATM   17  C   UNL     1      -2.358   7.562 -26.504  1.00  0.00     0.254 C 
HETATM   18  C   UNL     1      -2.752   8.020 -25.084  1.00  0.00     0.150 C 
HETATM   19  N   UNL     1      -2.325   9.406 -24.829  1.00  0.00    -0.378 N 
HETATM   20  C   UNL     1      -2.846  10.377 -25.810  1.00  0.00     0.150 C 
HETATM   21  C   UNL     1      -2.412   9.982 -27.239  1.00  0.00     0.254 C 
BRANCH  19  22
HETATM   22  C   UNL     1      -1.078   9.682 -24.260  1.00  0.00     0.031 A 
HETATM   23  C   UNL     1       0.138   9.276 -24.829  1.00  0.00     0.053 A 
HETATM   24  C   UNL     1       1.366   9.585 -24.228  1.00  0.00     0.036 A 
HETATM   25 CL   UNL     1       2.827   9.099 -24.998  1.00  0.00    -0.084 Cl
HETATM   26  C   UNL     1       1.417  10.285 -23.031  1.00  0.00     0.024 A 
HETATM   27  C   UNL     1       0.227  10.670 -22.425  1.00  0.00     0.004 A 
HETATM   28  C   UNL     1      -0.997  10.368 -23.034  1.00  0.00     0.029 A 
ENDBRANCH  19  22
ENDBRANCH  14  15
ENDBRANCH  13  14
ENDBRANCH  12  13
ENDBRANCH   9  12
ENDBRANCH   5   8
BRANCH   1  29
HETATM   29  C   UNL     1      -4.998   3.953 -32.454  1.00  0.00     0.296 C 
BRANCH  29  30
HETATM   30  C   UNL     1      -5.442   2.542 -32.344  1.00  0.00     0.092 A 
HETATM   31  C   UNL     1      -6.115   1.932 -31.308  1.00  0.00     0.078 A 
HETATM   32  C   UNL     1      -6.634   2.363 -29.997  1.00  0.00     0.079 C 
HETATM   33  O   UNL     1      -6.315   0.632 -31.656  1.00  0.00    -0.294 OA
HETATM   34  C   UNL     1      -5.739   0.501 -32.892  1.00  0.00     0.180 A 
HETATM   35  N   UNL     1      -5.202   1.623 -33.349  1.00  0.00    -0.224 NA
BRANCH  34  36
HETATM   36  C   UNL     1      -5.827  -0.819 -33.511  1.00  0.00     0.017 A 
HETATM   37  C   UNL     1      -7.059  -1.359 -33.920  1.00  0.00     0.017 A 
HETATM   38  C   UNL     1      -7.127  -2.620 -34.519  1.00  0.00     0.025 A 
HETATM   39  C   UNL     1      -5.962  -3.356 -34.715  1.00  0.00     0.034 A 
HETATM   40 CL   UNL     1      -6.042  -4.905 -35.454  1.00  0.00    -0.084 Cl
HETATM   41  C   UNL     1      -4.731  -2.841 -34.315  1.00  0.00     0.025 A 
HETATM   42  C   UNL     1      -4.665  -1.578 -33.715  1.00  0.00     0.017 A 
ENDBRANCH  34  36
ENDBRANCH  29  30
ENDBRANCH   1  29
TORSDOF 9
ENDMDL
MODEL 9
REMARK VINA RESULT:      -9.5      2.619     12.715
REMARK  9 active torsions:
REMARK  status: ('A' for Active; 'I' for Inactive)
REMARK    1  A    between atoms: C_4  and  C_5 
REMARK    2  A    between atoms: C_13  and  C_14 
REMARK    3  A    between atoms: C_14  and  N_15 
REMARK    4  A    between atoms: C_19  and  C_20 
REMARK       I    between atoms: C_20  and  N_21 
REMARK    5  A    between atoms: N_21  and  C_22 
REMARK    6  A    between atoms: C_22  and  C_23 
REMARK    7  A    between atoms: C_23  and  C_24 
REMARK    8  A    between atoms: C_24  and  N_25 
REMARK    9  A    between atoms: N_29  and  C_30 
ROOT
HETATM    1  N   UNL     1      -0.674   7.969 -29.013  1.00  0.00    -0.066 N 
HETATM    2  H   UNL     1      -0.219   8.885 -29.158  1.00  0.00     0.280 HD
HETATM    3  C   UNL     1       0.337   6.919 -29.402  1.00  0.00     0.236 C 
HETATM    4  C   UNL     1       0.570   6.934 -30.911  1.00  0.00     0.042 C 
HETATM    5  C   UNL     1      -0.730   6.739 -31.693  1.00  0.00     0.081 C 
HETATM    6  C   UNL     1      -1.741   7.809 -31.282  1.00  0.00     0.042 C 
HETATM    7  C   UNL     1      -1.967   7.910 -29.780  1.00  0.00     0.236 C 
ENDROOT
BRANCH   5   8
HETATM    8  C   UNL     1      -1.242   5.319 -31.454  1.00  0.00     0.221 C 
HETATM    9  N   UNL     1      -2.534   5.094 -31.870  1.00  0.00    -0.361 N 
HETATM   10  H   UNL     1      -3.068   5.866 -32.257  1.00  0.00     0.162 HD
HETATM   11  O   UNL     1      -0.511   4.422 -31.040  1.00  0.00    -0.273 OA
BRANCH   9  12
HETATM   12  C   UNL     1      -3.065   3.754 -32.048  1.00  0.00     0.124 C 
BRANCH  12  13
HETATM   13  C   UNL     1      -4.269   3.672 -32.992  1.00  0.00     0.047 C 
BRANCH  13  14
HETATM   14  C   UNL     1      -5.560   3.895 -32.206  1.00  0.00     0.236 C 
BRANCH  14  15
HETATM   15  N   UNL     1      -6.576   2.800 -32.452  1.00  0.00    -0.068 N 
HETATM   16  H   UNL     1      -7.518   3.165 -32.257  1.00  0.00     0.280 HD
HETATM   17  C   UNL     1      -6.567   2.392 -33.943  1.00  0.00     0.254 C 
HETATM   18  C   UNL     1      -7.567   1.249 -34.220  1.00  0.00     0.150 C 
HETATM   19  N   UNL     1      -7.343   0.109 -33.316  1.00  0.00    -0.378 N 
HETATM   20  C   UNL     1      -7.405   0.465 -31.886  1.00  0.00     0.150 C 
HETATM   21  C   UNL     1      -6.367   1.562 -31.561  1.00  0.00     0.254 C 
BRANCH  19  22
HETATM   22  C   UNL     1      -6.490  -0.939 -33.676  1.00  0.00     0.031 A 
HETATM   23  C   UNL     1      -6.929  -2.106 -34.318  1.00  0.00     0.053 A 
HETATM   24  C   UNL     1      -6.034  -3.127 -34.669  1.00  0.00     0.036 A 
HETATM   25 CL   UNL     1      -6.625  -4.516 -35.498  1.00  0.00    -0.084 Cl
HETATM   26  C   UNL     1      -4.683  -3.025 -34.370  1.00  0.00     0.024 A 
HETATM   27  C   UNL     1      -4.225  -1.895 -33.702  1.00  0.00     0.004 A 
HETATM   28  C   UNL     1      -5.120  -0.874 -33.361  1.00  0.00     0.029 A 
ENDBRANCH  19  22
ENDBRANCH  14  15
ENDBRANCH  13  14
ENDBRANCH  12  13
ENDBRANCH   9  12
ENDBRANCH   5   8
BRANCH   1  29
HETATM   29  C   UNL     1      -0.977   7.938 -27.517  1.00  0.00     0.296 C 
BRANCH  29  30
HETATM   30  C   UNL     1      -0.185   8.884 -26.693  1.00  0.00     0.092 A 
HETATM   31  C   UNL     1      -0.227  10.260 -26.686  1.00  0.00     0.078 A 
HETATM   32  C   UNL     1      -0.992  11.290 -27.415  1.00  0.00     0.079 C 
HETATM   33  O   UNL     1       0.671  10.696 -25.761  1.00  0.00    -0.294 OA
HETATM   34  C   UNL     1       1.236   9.558 -25.250  1.00  0.00     0.180 A 
HETATM   35  N   UNL     1       0.752   8.442 -25.777  1.00  0.00    -0.224 NA
BRANCH  34  36
HETATM   36  C   UNL     1       2.242   9.746 -24.207  1.00  0.00     0.017 A 
HETATM   37  C   UNL     1       2.774   8.657 -23.495  1.00  0.00     0.017 A 
HETATM   38  C   UNL     1       3.743   8.851 -22.505  1.00  0.00     0.025 A 
HETATM   39  C   UNL     1       4.189  10.138 -22.218  1.00  0.00     0.034 A 
HETATM   40 CL   UNL     1       5.382  10.380 -21.006  1.00  0.00    -0.084 Cl
HETATM   41  C   UNL     1       3.674  11.231 -22.912  1.00  0.00     0.025 A 
HETATM   42  C   UNL     1       2.703  11.034 -23.901  1.00  0.00     0.017 A 
ENDBRANCH  34  36
ENDBRANCH  29  30
ENDBRANCH   1  29
TORSDOF 9
ENDMDL
MODEL 10
REMARK VINA RESULT:      -9.5      2.378     11.167
REMARK  9 active torsions:
REMARK  status: ('A' for Active; 'I' for Inactive)
REMARK    1  A    between atoms: C_4  and  C_5 
REMARK    2  A    between atoms: C_13  and  C_14 
REMARK    3  A    between atoms: C_14  and  N_15 
REMARK    4  A    between atoms: C_19  and  C_20 
REMARK       I    between atoms: C_20  and  N_21 
REMARK    5  A    between atoms: N_21  and  C_22 
REMARK    6  A    between atoms: C_22  and  C_23 
REMARK    7  A    between atoms: C_23  and  C_24 
REMARK    8  A    between atoms: C_24  and  N_25 
REMARK    9  A    between atoms: N_29  and  C_30 
ROOT
HETATM    1  N   UNL     1      -2.161   7.307 -31.938  1.00  0.00    -0.066 N 
HETATM    2  H   UNL     1      -1.275   7.227 -31.416  1.00  0.00     0.280 HD
HETATM    3  C   UNL     1      -2.975   6.085 -31.597  1.00  0.00     0.236 C 
HETATM    4  C   UNL     1      -2.345   4.835 -32.208  1.00  0.00     0.042 C 
HETATM    5  C   UNL     1      -2.181   4.959 -33.723  1.00  0.00     0.081 C 
HETATM    6  C   UNL     1      -1.358   6.205 -34.048  1.00  0.00     0.042 C 
HETATM    7  C   UNL     1      -1.879   7.483 -33.406  1.00  0.00     0.236 C 
ENDROOT
BRANCH   5   8
HETATM    8  C   UNL     1      -3.566   4.980 -34.370  1.00  0.00     0.221 C 
HETATM    9  N   UNL     1      -4.594   4.586 -33.545  1.00  0.00    -0.361 N 
HETATM   10  H   UNL     1      -4.377   4.274 -32.602  1.00  0.00     0.162 HD
HETATM   11  O   UNL     1      -3.754   5.433 -35.496  1.00  0.00    -0.273 OA
BRANCH   9  12
HETATM   12  C   UNL     1      -5.984   4.868 -33.857  1.00  0.00     0.124 C 
BRANCH  12  13
HETATM   13  C   UNL     1      -6.962   4.558 -32.717  1.00  0.00     0.047 C 
BRANCH  13  14
HETATM   14  C   UNL     1      -8.329   4.192 -33.291  1.00  0.00     0.236 C 
BRANCH  14  15
HETATM   15  N   UNL     1      -8.723   2.767 -32.968  1.00  0.00    -0.068 N 
HETATM   16  H   UNL     1      -9.690   2.756 -32.616  1.00  0.00     0.280 HD
HETATM   17  C   UNL     1      -8.718   1.910 -34.254  1.00  0.00     0.254 C 
HETATM   18  C   UNL     1      -9.078   0.440 -33.952  1.00  0.00     0.150 C 
HETATM   19  N   UNL     1      -8.221  -0.118 -32.893  1.00  0.00    -0.378 N 
HETATM   20  C   UNL     1      -8.256   0.654 -31.636  1.00  0.00     0.150 C 
HETATM   21  C   UNL     1      -7.834   2.117 -31.892  1.00  0.00     0.254 C 
BRANCH  19  22
HETATM   22  C   UNL     1      -7.028  -0.777 -33.204  1.00  0.00     0.031 A 
HETATM   23  C   UNL     1      -5.870  -0.690 -32.418  1.00  0.00     0.053 A 
HETATM   24  C   UNL     1      -4.698  -1.377 -32.764  1.00  0.00     0.036 A 
HETATM   25 CL   UNL     1      -3.323  -1.268 -31.734  1.00  0.00    -0.084 Cl
HETATM   26  C   UNL     1      -4.639  -2.150 -33.914  1.00  0.00     0.024 A 
HETATM   27  C   UNL     1      -5.760  -2.227 -34.732  1.00  0.00     0.004 A 
HETATM   28  C   UNL     1      -6.932  -1.546 -34.378  1.00  0.00     0.029 A 
ENDBRANCH  19  22
ENDBRANCH  14  15
ENDBRANCH  13  14
ENDBRANCH  12  13
ENDBRANCH   9  12
ENDBRANCH   5   8
BRANCH   1  29
HETATM   29  C   UNL     1      -2.799   8.584 -31.395  1.00  0.00     0.296 C 
BRANCH  29  30
HETATM   30  C   UNL     1      -2.227   9.081 -30.120  1.00  0.00     0.092 A 
HETATM   31  C   UNL     1      -2.669  10.116 -29.326  1.00  0.00     0.078 A 
HETATM   32  C   UNL     1      -3.783  11.082 -29.387  1.00  0.00     0.079 C 
HETATM   33  O   UNL     1      -1.836  10.200 -28.254  1.00  0.00    -0.294 OA
HETATM   34  C   UNL     1      -0.906   9.213 -28.449  1.00  0.00     0.180 A 
HETATM   35  N   UNL     1      -1.101   8.511 -29.556  1.00  0.00    -0.224 NA
BRANCH  34  36
HETATM   36  C   UNL     1       0.116   9.073 -27.415  1.00  0.00     0.017 A 
HETATM   37  C   UNL     1       0.849   7.883 -27.261  1.00  0.00     0.017 A 
HETATM   38  C   UNL     1       1.830   7.767 -26.272  1.00  0.00     0.025 A 
HETATM   39  C   UNL     1       2.089   8.841 -25.426  1.00  0.00     0.034 A 
HETATM   40 CL   UNL     1       3.298   8.703 -24.213  1.00  0.00    -0.084 Cl
HETATM   41  C   UNL     1       1.374  10.028 -25.560  1.00  0.00     0.025 A 
HETATM   42  C   UNL     1       0.391  10.143 -26.550  1.00  0.00     0.017 A 
ENDBRANCH  34  36
ENDBRANCH  29  30
ENDBRANCH   1  29
TORSDOF 9
ENDMDL
