MODEL 1
REMARK VINA RESULT:      -8.1      0.000      0.000
REMARK  9 active torsions:
REMARK  status: ('A' for Active; 'I' for Inactive)
REMARK    1  A    between atoms: C_5  and  C_6 
REMARK    2  A    between atoms: C_6  and  N_7 
REMARK       I    between atoms: N_7  and  C_8 
REMARK    3  A    between atoms: C_8  and  C_9 
REMARK    4  A    between atoms: C_10  and  S_11 
REMARK    5  A    between atoms: S_11  and  C_12 
REMARK    6  A    between atoms: C_12  and  C_13 
REMARK       I    between atoms: C_13  and  N_14 
REMARK    7  A    between atoms: N_14  and  C_15 
REMARK    8  A    between atoms: C_16  and  O_17 
REMARK    9  A    between atoms: C_20  and  O_21 
ROOT
HETATM    1  C   UNL     1      -7.794   3.169 -33.127  1.00  0.00     0.067 A 
HETATM    2  C   UNL     1      -7.701   2.892 -31.762  1.00  0.00     0.109 A 
HETATM    3  N   UNL     1      -8.430   1.898 -31.175  1.00  0.00    -0.253 NA
HETATM    4  C   UNL     1      -9.297   1.206 -31.949  1.00  0.00     0.118 A 
HETATM    5  C   UNL     1      -9.468   1.429 -33.300  1.00  0.00     0.020 A 
HETATM    6  C   UNL     1      -8.701   2.422 -33.898  1.00  0.00     0.021 A 
ENDROOT
BRANCH   2   7
HETATM    7  S   UNL     1      -6.658   3.755 -30.605  1.00  0.00    -0.100 SA
BRANCH   7   8
HETATM    8  C   UNL     1      -5.495   2.427 -30.190  1.00  0.00     0.184 C 
BRANCH   8   9
HETATM    9  C   UNL     1      -5.107   1.499 -31.337  1.00  0.00     0.231 C 
HETATM   10  N   UNL     1      -5.679   0.240 -31.310  1.00  0.00    -0.324 N 
HETATM   11  H   UNL     1      -6.469   0.142 -30.672  1.00  0.00     0.169 HD
HETATM   12  O   UNL     1      -4.451   1.963 -32.272  1.00  0.00    -0.272 OA
BRANCH  10  13
HETATM   13  C   UNL     1      -5.552  -0.747 -32.314  1.00  0.00     0.068 A 
HETATM   14  C   UNL     1      -4.416  -1.555 -32.508  1.00  0.00     0.097 A 
HETATM   15  C   UNL     1      -4.368  -2.423 -33.613  1.00  0.00     0.075 A 
HETATM   16  C   UNL     1      -5.446  -2.510 -34.498  1.00  0.00     0.070 A 
HETATM   17  C   UNL     1      -6.604  -1.779 -34.243  1.00  0.00     0.039 A 
HETATM   18  C   UNL     1      -6.660  -0.911 -33.155  1.00  0.00     0.035 A 
BRANCH  14  19
HETATM   19  O   UNL     1      -3.465  -1.541 -31.521  1.00  0.00    -0.354 OA
HETATM   20  C   UNL     1      -2.227  -0.905 -31.802  1.00  0.00     0.210 C 
ENDBRANCH  14  19
BRANCH  16  21
HETATM   21  O   UNL     1      -5.503  -3.302 -35.613  1.00  0.00    -0.356 OA
HETATM   22  C   UNL     1      -6.212  -4.528 -35.481  1.00  0.00     0.210 C 
ENDBRANCH  16  21
ENDBRANCH  10  13
ENDBRANCH   8   9
ENDBRANCH   7   8
ENDBRANCH   2   7
BRANCH   1  23
HETATM   23  C   UNL     1      -7.001   4.223 -33.805  1.00  0.00     0.254 C 
HETATM   24  N   UNL     1      -5.684   3.899 -34.055  1.00  0.00    -0.353 N 
HETATM   25  H   UNL     1      -5.270   3.078 -33.634  1.00  0.00     0.163 HD
HETATM   26  O   UNL     1      -7.506   5.286 -34.137  1.00  0.00    -0.268 OA
BRANCH  24  27
HETATM   27  C   UNL     1      -4.786   4.834 -34.697  1.00  0.00     0.161 C 
BRANCH  27  28
HETATM   28  C   UNL     1      -3.570   5.080 -33.843  1.00  0.00    -0.041 A 
HETATM   29  C   UNL     1      -2.292   5.087 -34.421  1.00  0.00     0.009 A 
HETATM   30  C   UNL     1      -1.158   5.332 -33.644  1.00  0.00     0.007 A 
HETATM   31  C   UNL     1      -1.280   5.570 -32.271  1.00  0.00    -0.062 A 
HETATM   32  C   UNL     1      -0.072   5.884 -31.437  1.00  0.00     0.048 C 
HETATM   33  C   UNL     1      -2.554   5.568 -31.692  1.00  0.00     0.007 A 
HETATM   34  C   UNL     1      -3.688   5.321 -32.469  1.00  0.00     0.009 A 
ENDBRANCH  27  28
ENDBRANCH  24  27
ENDBRANCH   1  23
TORSDOF 9
ENDMDL
MODEL 2
REMARK VINA RESULT:      -8.0      2.676      6.693
REMARK  9 active torsions:
REMARK  status: ('A' for Active; 'I' for Inactive)
REMARK    1  A    between atoms: C_5  and  C_6 
REMARK    2  A    between atoms: C_6  and  N_7 
REMARK       I    between atoms: N_7  and  C_8 
REMARK    3  A    between atoms: C_8  and  C_9 
REMARK    4  A    between atoms: C_10  and  S_11 
REMARK    5  A    between atoms: S_11  and  C_12 
REMARK    6  A    between atoms: C_12  and  C_13 
REMARK       I    between atoms: C_13  and  N_14 
REMARK    7  A    between atoms: N_14  and  C_15 
REMARK    8  A    between atoms: C_16  and  O_17 
REMARK    9  A    between atoms: C_20  and  O_21 
ROOT
HETATM    1  C   UNL     1      -5.624   2.863 -30.918  1.00  0.00     0.067 A 
HETATM    2  C   UNL     1      -5.794   4.179 -31.352  1.00  0.00     0.109 A 
HETATM    3  N   UNL     1      -6.787   4.978 -30.862  1.00  0.00    -0.253 NA
HETATM    4  C   UNL     1      -7.648   4.444 -29.967  1.00  0.00     0.118 A 
HETATM    5  C   UNL     1      -7.565   3.147 -29.501  1.00  0.00     0.020 A 
HETATM    6  C   UNL     1      -6.535   2.347 -29.982  1.00  0.00     0.021 A 
ENDROOT
BRANCH   2   7
HETATM    7  S   UNL     1      -4.787   5.001 -32.569  1.00  0.00    -0.100 SA
BRANCH   7   8
HETATM    8  C   UNL     1      -5.845   4.804 -34.028  1.00  0.00     0.184 C 
BRANCH   8   9
HETATM    9  C   UNL     1      -6.726   3.560 -34.049  1.00  0.00     0.231 C 
HETATM   10  N   UNL     1      -8.044   3.751 -33.673  1.00  0.00    -0.324 N 
HETATM   11  H   UNL     1      -8.346   4.725 -33.650  1.00  0.00     0.169 HD
HETATM   12  O   UNL     1      -6.267   2.523 -34.532  1.00  0.00    -0.272 OA
BRANCH  10  13
HETATM   13  C   UNL     1      -9.065   2.773 -33.716  1.00  0.00     0.068 A 
HETATM   14  C   UNL     1     -10.265   2.897 -34.440  1.00  0.00     0.097 A 
HETATM   15  C   UNL     1     -11.253   1.904 -34.312  1.00  0.00     0.075 A 
HETATM   16  C   UNL     1     -11.039   0.787 -33.501  1.00  0.00     0.070 A 
HETATM   17  C   UNL     1      -9.810   0.626 -32.866  1.00  0.00     0.039 A 
HETATM   18  C   UNL     1      -8.827   1.606 -32.980  1.00  0.00     0.035 A 
BRANCH  14  19
HETATM   19  O   UNL     1     -10.349   3.929 -35.339  1.00  0.00    -0.354 OA
HETATM   20  C   UNL     1     -11.262   4.980 -35.059  1.00  0.00     0.210 C 
ENDBRANCH  14  19
BRANCH  16  21
HETATM   21  O   UNL     1     -11.931  -0.228 -33.286  1.00  0.00    -0.356 OA
HETATM   22  C   UNL     1     -13.279   0.026 -33.665  1.00  0.00     0.210 C 
ENDBRANCH  16  21
ENDBRANCH  10  13
ENDBRANCH   8   9
ENDBRANCH   7   8
ENDBRANCH   2   7
BRANCH   1  23
HETATM   23  C   UNL     1      -4.544   1.971 -31.409  1.00  0.00     0.254 C 
HETATM   24  N   UNL     1      -4.958   0.949 -32.239  1.00  0.00    -0.353 N 
HETATM   25  H   UNL     1      -5.942   0.736 -32.337  1.00  0.00     0.163 HD
HETATM   26  O   UNL     1      -3.374   2.163 -31.112  1.00  0.00    -0.268 OA
BRANCH  24  27
HETATM   27  C   UNL     1      -4.019  -0.007 -32.782  1.00  0.00     0.161 C 
BRANCH  27  28
HETATM   28  C   UNL     1      -4.743  -1.153 -33.440  1.00  0.00    -0.041 A 
HETATM   29  C   UNL     1      -6.091  -1.020 -33.802  1.00  0.00     0.009 A 
HETATM   30  C   UNL     1      -6.768  -2.068 -34.430  1.00  0.00     0.007 A 
HETATM   31  C   UNL     1      -6.111  -3.272 -34.702  1.00  0.00    -0.062 A 
HETATM   32  C   UNL     1      -6.816  -4.386 -35.420  1.00  0.00     0.048 C 
HETATM   33  C   UNL     1      -4.764  -3.406 -34.346  1.00  0.00     0.007 A 
HETATM   34  C   UNL     1      -4.087  -2.359 -33.716  1.00  0.00     0.009 A 
ENDBRANCH  27  28
ENDBRANCH  24  27
ENDBRANCH   1  23
TORSDOF 9
ENDMDL
MODEL 3
REMARK VINA RESULT:      -8.0      4.028      8.266
REMARK  9 active torsions:
REMARK  status: ('A' for Active; 'I' for Inactive)
REMARK    1  A    between atoms: C_5  and  C_6 
REMARK    2  A    between atoms: C_6  and  N_7 
REMARK       I    between atoms: N_7  and  C_8 
REMARK    3  A    between atoms: C_8  and  C_9 
REMARK    4  A    between atoms: C_10  and  S_11 
REMARK    5  A    between atoms: S_11  and  C_12 
REMARK    6  A    between atoms: C_12  and  C_13 
REMARK       I    between atoms: C_13  and  N_14 
REMARK    7  A    between atoms: N_14  and  C_15 
REMARK    8  A    between atoms: C_16  and  O_17 
REMARK    9  A    between atoms: C_20  and  O_21 
ROOT
HETATM    1  C   UNL     1      -7.332   1.952 -30.918  1.00  0.00     0.067 A 
HETATM    2  C   UNL     1      -8.606   1.833 -31.477  1.00  0.00     0.109 A 
HETATM    3  N   UNL     1      -9.588   2.752 -31.238  1.00  0.00    -0.253 NA
HETATM    4  C   UNL     1      -9.311   3.772 -30.394  1.00  0.00     0.118 A 
HETATM    5  C   UNL     1      -8.087   3.951 -29.782  1.00  0.00     0.020 A 
HETATM    6  C   UNL     1      -7.082   3.030 -30.053  1.00  0.00     0.021 A 
ENDROOT
BRANCH   2   7
HETATM    7  S   UNL     1      -9.143   0.518 -32.550  1.00  0.00    -0.100 SA
BRANCH   7   8
HETATM    8  C   UNL     1      -9.542   1.477 -34.036  1.00  0.00     0.184 C 
BRANCH   8   9
HETATM    9  C   UNL     1     -11.007   1.866 -34.205  1.00  0.00     0.231 C 
HETATM   10  N   UNL     1     -11.860   1.439 -33.203  1.00  0.00    -0.324 N 
HETATM   11  H   UNL     1     -11.396   1.120 -32.352  1.00  0.00     0.169 HD
HETATM   12  O   UNL     1     -11.309   2.643 -35.113  1.00  0.00    -0.272 OA
BRANCH  10  13
HETATM   13  C   UNL     1     -13.231   1.766 -33.089  1.00  0.00     0.068 A 
HETATM   14  C   UNL     1     -13.746   2.804 -32.290  1.00  0.00     0.097 A 
HETATM   15  C   UNL     1     -15.138   2.958 -32.174  1.00  0.00     0.075 A 
HETATM   16  C   UNL     1     -16.009   2.113 -32.866  1.00  0.00     0.070 A 
HETATM   17  C   UNL     1     -15.490   1.152 -33.731  1.00  0.00     0.039 A 
HETATM   18  C   UNL     1     -14.112   0.986 -33.848  1.00  0.00     0.035 A 
BRANCH  14  19
HETATM   19  O   UNL     1     -12.845   3.695 -31.768  1.00  0.00    -0.354 OA
HETATM   20  C   UNL     1     -12.578   4.879 -32.505  1.00  0.00     0.210 C 
ENDBRANCH  14  19
BRANCH  16  21
HETATM   21  O   UNL     1     -17.376   2.157 -32.815  1.00  0.00    -0.356 OA
HETATM   22  C   UNL     1     -17.951   3.373 -32.352  1.00  0.00     0.210 C 
ENDBRANCH  16  21
ENDBRANCH  10  13
ENDBRANCH   8   9
ENDBRANCH   7   8
ENDBRANCH   2   7
BRANCH   1  23
HETATM   23  C   UNL     1      -6.234   0.988 -31.173  1.00  0.00     0.254 C 
HETATM   24  N   UNL     1      -5.594   1.134 -32.387  1.00  0.00    -0.353 N 
HETATM   25  H   UNL     1      -5.984   1.734 -33.102  1.00  0.00     0.163 HD
HETATM   26  O   UNL     1      -5.914   0.152 -30.342  1.00  0.00    -0.268 OA
BRANCH  24  27
HETATM   27  C   UNL     1      -4.513   0.257 -32.779  1.00  0.00     0.161 C 
BRANCH  27  28
HETATM   28  C   UNL     1      -5.042  -0.957 -33.497  1.00  0.00    -0.041 A 
HETATM   29  C   UNL     1      -4.280  -2.133 -33.550  1.00  0.00     0.009 A 
HETATM   30  C   UNL     1      -4.767  -3.271 -34.196  1.00  0.00     0.007 A 
HETATM   31  C   UNL     1      -6.024  -3.253 -34.808  1.00  0.00    -0.062 A 
HETATM   32  C   UNL     1      -6.577  -4.486 -35.461  1.00  0.00     0.048 C 
HETATM   33  C   UNL     1      -6.790  -2.082 -34.753  1.00  0.00     0.007 A 
HETATM   34  C   UNL     1      -6.302  -0.943 -34.109  1.00  0.00     0.009 A 
ENDBRANCH  27  28
ENDBRANCH  24  27
ENDBRANCH   1  23
TORSDOF 9
ENDMDL
MODEL 4
REMARK VINA RESULT:      -7.8      2.539      7.062
REMARK  9 active torsions:
REMARK  status: ('A' for Active; 'I' for Inactive)
REMARK    1  A    between atoms: C_5  and  C_6 
REMARK    2  A    between atoms: C_6  and  N_7 
REMARK       I    between atoms: N_7  and  C_8 
REMARK    3  A    between atoms: C_8  and  C_9 
REMARK    4  A    between atoms: C_10  and  S_11 
REMARK    5  A    between atoms: S_11  and  C_12 
REMARK    6  A    between atoms: C_12  and  C_13 
REMARK       I    between atoms: C_13  and  N_14 
REMARK    7  A    between atoms: N_14  and  C_15 
REMARK    8  A    between atoms: C_16  and  O_17 
REMARK    9  A    between atoms: C_20  and  O_21 
ROOT
HETATM    1  C   UNL     1      -3.360   4.215 -32.646  1.00  0.00     0.067 A 
HETATM    2  C   UNL     1      -4.093   4.676 -33.741  1.00  0.00     0.109 A 
HETATM    3  N   UNL     1      -3.662   5.718 -34.511  1.00  0.00    -0.253 NA
HETATM    4  C   UNL     1      -2.513   6.337 -34.156  1.00  0.00     0.118 A 
HETATM    5  C   UNL     1      -1.739   5.961 -33.077  1.00  0.00     0.020 A 
HETATM    6  C   UNL     1      -2.168   4.881 -32.314  1.00  0.00     0.021 A 
ENDROOT
BRANCH   2   7
HETATM    7  S   UNL     1      -5.649   4.011 -34.293  1.00  0.00    -0.100 SA
BRANCH   7   8
HETATM    8  C   UNL     1      -6.757   4.768 -33.074  1.00  0.00     0.184 C 
BRANCH   8   9
HETATM    9  C   UNL     1      -8.155   4.165 -32.980  1.00  0.00     0.231 C 
HETATM   10  N   UNL     1      -8.447   3.179 -33.904  1.00  0.00    -0.324 N 
HETATM   11  H   UNL     1      -7.637   2.795 -34.392  1.00  0.00     0.169 HD
HETATM   12  O   UNL     1      -8.864   4.473 -32.019  1.00  0.00    -0.272 OA
BRANCH  10  13
HETATM   13  C   UNL     1      -9.631   2.408 -33.944  1.00  0.00     0.068 A 
HETATM   14  C   UNL     1     -10.820   2.795 -34.590  1.00  0.00     0.097 A 
HETATM   15  C   UNL     1     -11.967   1.991 -34.462  1.00  0.00     0.075 A 
HETATM   16  C   UNL     1     -11.926   0.802 -33.729  1.00  0.00     0.070 A 
HETATM   17  C   UNL     1     -10.720   0.379 -33.175  1.00  0.00     0.039 A 
HETATM   18  C   UNL     1      -9.579   1.171 -33.289  1.00  0.00     0.035 A 
BRANCH  14  19
HETATM   19  O   UNL     1     -10.753   3.881 -35.423  1.00  0.00    -0.354 OA
HETATM   20  C   UNL     1     -11.400   5.075 -35.009  1.00  0.00     0.210 C 
ENDBRANCH  14  19
BRANCH  16  21
HETATM   21  O   UNL     1     -12.979  -0.046 -33.521  1.00  0.00    -0.356 OA
HETATM   22  C   UNL     1     -14.262   0.436 -33.903  1.00  0.00     0.210 C 
ENDBRANCH  16  21
ENDBRANCH  10  13
ENDBRANCH   8   9
ENDBRANCH   7   8
ENDBRANCH   2   7
BRANCH   1  23
HETATM   23  C   UNL     1      -3.783   3.072 -31.800  1.00  0.00     0.254 C 
HETATM   24  N   UNL     1      -3.380   1.830 -32.246  1.00  0.00    -0.353 N 
HETATM   25  H   UNL     1      -2.991   1.721 -33.174  1.00  0.00     0.163 HD
HETATM   26  O   UNL     1      -4.417   3.242 -30.769  1.00  0.00    -0.268 OA
BRANCH  24  27
HETATM   27  C   UNL     1      -3.731   0.623 -31.532  1.00  0.00     0.161 C 
BRANCH  27  28
HETATM   28  C   UNL     1      -4.504  -0.318 -32.419  1.00  0.00    -0.041 A 
HETATM   29  C   UNL     1      -3.839  -1.341 -33.110  1.00  0.00     0.009 A 
HETATM   30  C   UNL     1      -4.546  -2.232 -33.921  1.00  0.00     0.007 A 
HETATM   31  C   UNL     1      -5.933  -2.112 -34.061  1.00  0.00    -0.062 A 
HETATM   32  C   UNL     1      -6.708  -3.095 -34.890  1.00  0.00     0.048 C 
HETATM   33  C   UNL     1      -6.600  -1.095 -33.368  1.00  0.00     0.007 A 
HETATM   34  C   UNL     1      -5.892  -0.203 -32.559  1.00  0.00     0.009 A 
ENDBRANCH  27  28
ENDBRANCH  24  27
ENDBRANCH   1  23
TORSDOF 9
ENDMDL
MODEL 5
REMARK VINA RESULT:      -7.8      1.396      2.223
REMARK  9 active torsions:
REMARK  status: ('A' for Active; 'I' for Inactive)
REMARK    1  A    between atoms: C_5  and  C_6 
REMARK    2  A    between atoms: C_6  and  N_7 
REMARK       I    between atoms: N_7  and  C_8 
REMARK    3  A    between atoms: C_8  and  C_9 
REMARK    4  A    between atoms: C_10  and  S_11 
REMARK    5  A    between atoms: S_11  and  C_12 
REMARK    6  A    between atoms: C_12  and  C_13 
REMARK       I    between atoms: C_13  and  N_14 
REMARK    7  A    between atoms: N_14  and  C_15 
REMARK    8  A    between atoms: C_16  and  O_17 
REMARK    9  A    between atoms: C_20  and  O_21 
ROOT
HETATM    1  C   UNL     1      -6.788   4.665 -32.900  1.00  0.00     0.067 A 
HETATM    2  C   UNL     1      -6.745   4.090 -31.629  1.00  0.00     0.109 A 
HETATM    3  N   UNL     1      -7.803   3.397 -31.114  1.00  0.00    -0.253 NA
HETATM    4  C   UNL     1      -8.932   3.319 -31.853  1.00  0.00     0.118 A 
HETATM    5  C   UNL     1      -9.068   3.878 -33.108  1.00  0.00     0.020 A 
HETATM    6  C   UNL     1      -7.978   4.557 -33.640  1.00  0.00     0.021 A 
ENDROOT
BRANCH   2   7
HETATM    7  S   UNL     1      -5.360   4.160 -30.512  1.00  0.00    -0.100 SA
BRANCH   7   8
HETATM    8  C   UNL     1      -5.080   2.387 -30.257  1.00  0.00     0.184 C 
BRANCH   8   9
HETATM    9  C   UNL     1      -4.907   1.552 -31.521  1.00  0.00     0.231 C 
HETATM   10  N   UNL     1      -5.559   0.332 -31.529  1.00  0.00    -0.324 N 
HETATM   11  H   UNL     1      -6.268   0.220 -30.803  1.00  0.00     0.169 HD
HETATM   12  O   UNL     1      -4.343   2.063 -32.491  1.00  0.00    -0.272 OA
BRANCH  10  13
HETATM   13  C   UNL     1      -5.631  -0.560 -32.623  1.00  0.00     0.068 A 
HETATM   14  C   UNL     1      -6.726  -0.670 -33.500  1.00  0.00     0.097 A 
HETATM   15  C   UNL     1      -6.724  -1.675 -34.483  1.00  0.00     0.075 A 
HETATM   16  C   UNL     1      -5.635  -2.540 -34.616  1.00  0.00     0.070 A 
HETATM   17  C   UNL     1      -4.514  -2.361 -33.808  1.00  0.00     0.039 A 
HETATM   18  C   UNL     1      -4.508  -1.373 -32.825  1.00  0.00     0.035 A 
BRANCH  14  19
HETATM   19  O   UNL     1      -7.687   0.305 -33.424  1.00  0.00    -0.354 OA
HETATM   20  C   UNL     1      -8.472   0.554 -34.580  1.00  0.00     0.210 C 
ENDBRANCH  14  19
BRANCH  16  21
HETATM   21  O   UNL     1      -5.530  -3.562 -35.520  1.00  0.00    -0.356 OA
HETATM   22  C   UNL     1      -6.465  -4.626 -35.380  1.00  0.00     0.210 C 
ENDBRANCH  16  21
ENDBRANCH  10  13
ENDBRANCH   8   9
ENDBRANCH   7   8
ENDBRANCH   2   7
BRANCH   1  23
HETATM   23  C   UNL     1      -5.653   5.405 -33.503  1.00  0.00     0.254 C 
HETATM   24  N   UNL     1      -4.873   4.673 -34.375  1.00  0.00    -0.353 N 
HETATM   25  H   UNL     1      -4.976   3.669 -34.436  1.00  0.00     0.163 HD
HETATM   26  O   UNL     1      -5.457   6.585 -33.256  1.00  0.00    -0.268 OA
BRANCH  24  27
HETATM   27  C   UNL     1      -3.722   5.257 -35.028  1.00  0.00     0.161 C 
BRANCH  27  28
HETATM   28  C   UNL     1      -2.666   5.630 -34.020  1.00  0.00    -0.041 A 
HETATM   29  C   UNL     1      -2.187   4.672 -33.115  1.00  0.00     0.009 A 
HETATM   30  C   UNL     1      -1.195   5.000 -32.188  1.00  0.00     0.007 A 
HETATM   31  C   UNL     1      -0.668   6.294 -32.144  1.00  0.00    -0.062 A 
HETATM   32  C   UNL     1       0.433   6.643 -31.185  1.00  0.00     0.048 C 
HETATM   33  C   UNL     1      -1.141   7.251 -33.049  1.00  0.00     0.007 A 
HETATM   34  C   UNL     1      -2.134   6.925 -33.975  1.00  0.00     0.009 A 
ENDBRANCH  27  28
ENDBRANCH  24  27
ENDBRANCH   1  23
TORSDOF 9
ENDMDL
MODEL 6
REMARK VINA RESULT:      -7.8      3.513      8.960
REMARK  9 active torsions:
REMARK  status: ('A' for Active; 'I' for Inactive)
REMARK    1  A    between atoms: C_5  and  C_6 
REMARK    2  A    between atoms: C_6  and  N_7 
REMARK       I    between atoms: N_7  and  C_8 
REMARK    3  A    between atoms: C_8  and  C_9 
REMARK    4  A    between atoms: C_10  and  S_11 
REMARK    5  A    between atoms: S_11  and  C_12 
REMARK    6  A    between atoms: C_12  and  C_13 
REMARK       I    between atoms: C_13  and  N_14 
REMARK    7  A    between atoms: N_14  and  C_15 
REMARK    8  A    between atoms: C_16  and  O_17 
REMARK    9  A    between atoms: C_20  and  O_21 
ROOT
HETATM    1  C   UNL     1      -4.560   3.695 -32.540  1.00  0.00     0.067 A 
HETATM    2  C   UNL     1      -3.966   4.751 -33.233  1.00  0.00     0.109 A 
HETATM    3  N   UNL     1      -4.651   5.893 -33.533  1.00  0.00    -0.253 NA
HETATM    4  C   UNL     1      -5.955   5.963 -33.181  1.00  0.00     0.118 A 
HETATM    5  C   UNL     1      -6.625   4.957 -32.514  1.00  0.00     0.020 A 
HETATM    6  C   UNL     1      -5.915   3.808 -32.186  1.00  0.00     0.021 A 
ENDROOT
BRANCH   2   7
HETATM    7  S   UNL     1      -2.285   4.783 -33.819  1.00  0.00    -0.100 SA
BRANCH   7   8
HETATM    8  C   UNL     1      -2.043   6.575 -33.961  1.00  0.00     0.184 C 
BRANCH   8   9
HETATM    9  C   UNL     1      -1.796   7.319 -32.653  1.00  0.00     0.231 C 
HETATM   10  N   UNL     1      -1.451   6.531 -31.569  1.00  0.00    -0.324 N 
HETATM   11  H   UNL     1      -1.170   5.579 -31.804  1.00  0.00     0.169 HD
HETATM   12  O   UNL     1      -1.768   8.551 -32.674  1.00  0.00    -0.272 OA
BRANCH  10  13
HETATM   13  C   UNL     1      -1.075   7.003 -30.291  1.00  0.00     0.068 A 
HETATM   14  C   UNL     1      -1.976   7.385 -29.279  1.00  0.00     0.097 A 
HETATM   15  C   UNL     1      -1.478   7.945 -28.089  1.00  0.00     0.075 A 
HETATM   16  C   UNL     1      -0.103   8.096 -27.893  1.00  0.00     0.070 A 
HETATM   17  C   UNL     1       0.783   7.625 -28.859  1.00  0.00     0.039 A 
HETATM   18  C   UNL     1       0.301   7.075 -30.045  1.00  0.00     0.035 A 
BRANCH  14  19
HETATM   19  O   UNL     1      -3.296   7.065 -29.465  1.00  0.00    -0.354 OA
HETATM   20  C   UNL     1      -4.205   8.125 -29.721  1.00  0.00     0.210 C 
ENDBRANCH  14  19
BRANCH  16  21
HETATM   21  O   UNL     1       0.492   8.643 -26.789  1.00  0.00    -0.356 OA
HETATM   22  C   UNL     1       1.772   8.127 -26.441  1.00  0.00     0.210 C 
ENDBRANCH  16  21
ENDBRANCH  10  13
ENDBRANCH   8   9
ENDBRANCH   7   8
ENDBRANCH   2   7
BRANCH   1  23
HETATM   23  C   UNL     1      -3.843   2.448 -32.175  1.00  0.00     0.254 C 
HETATM   24  N   UNL     1      -4.322   1.300 -32.771  1.00  0.00    -0.353 N 
HETATM   25  H   UNL     1      -5.205   1.308 -33.264  1.00  0.00     0.163 HD
HETATM   26  O   UNL     1      -2.881   2.463 -31.422  1.00  0.00    -0.268 OA
BRANCH  24  27
HETATM   27  C   UNL     1      -3.731   0.007 -32.499  1.00  0.00     0.161 C 
BRANCH  27  28
HETATM   28  C   UNL     1      -4.481  -1.085 -33.218  1.00  0.00    -0.041 A 
HETATM   29  C   UNL     1      -5.756  -0.835 -33.745  1.00  0.00     0.009 A 
HETATM   30  C   UNL     1      -6.453  -1.834 -34.429  1.00  0.00     0.007 A 
HETATM   31  C   UNL     1      -5.890  -3.104 -34.594  1.00  0.00    -0.062 A 
HETATM   32  C   UNL     1      -6.611  -4.167 -35.370  1.00  0.00     0.048 C 
HETATM   33  C   UNL     1      -4.616  -3.354 -34.072  1.00  0.00     0.007 A 
HETATM   34  C   UNL     1      -3.919  -2.356 -33.386  1.00  0.00     0.009 A 
ENDBRANCH  27  28
ENDBRANCH  24  27
ENDBRANCH   1  23
TORSDOF 9
ENDMDL
MODEL 7
REMARK VINA RESULT:      -7.7      2.612      7.015
REMARK  9 active torsions:
REMARK  status: ('A' for Active; 'I' for Inactive)
REMARK    1  A    between atoms: C_5  and  C_6 
REMARK    2  A    between atoms: C_6  and  N_7 
REMARK       I    between atoms: N_7  and  C_8 
REMARK    3  A    between atoms: C_8  and  C_9 
REMARK    4  A    between atoms: C_10  and  S_11 
REMARK    5  A    between atoms: S_11  and  C_12 
REMARK    6  A    between atoms: C_12  and  C_13 
REMARK       I    between atoms: C_13  and  N_14 
REMARK    7  A    between atoms: N_14  and  C_15 
REMARK    8  A    between atoms: C_16  and  O_17 
REMARK    9  A    between atoms: C_20  and  O_21 
ROOT
HETATM    1  C   UNL     1      -3.375   4.090 -32.700  1.00  0.00     0.067 A 
HETATM    2  C   UNL     1      -4.168   4.579 -33.739  1.00  0.00     0.109 A 
HETATM    3  N   UNL     1      -3.778   5.637 -34.509  1.00  0.00    -0.253 NA
HETATM    4  C   UNL     1      -2.608   6.246 -34.207  1.00  0.00     0.118 A 
HETATM    5  C   UNL     1      -1.775   5.842 -33.183  1.00  0.00     0.020 A 
HETATM    6  C   UNL     1      -2.163   4.745 -32.422  1.00  0.00     0.021 A 
ENDROOT
BRANCH   2   7
HETATM    7  S   UNL     1      -5.756   3.931 -34.216  1.00  0.00    -0.100 SA
BRANCH   7   8
HETATM    8  C   UNL     1      -6.793   4.684 -32.934  1.00  0.00     0.184 C 
BRANCH   8   9
HETATM    9  C   UNL     1      -8.243   4.214 -32.889  1.00  0.00     0.231 C 
HETATM   10  N   UNL     1      -8.722   3.633 -34.049  1.00  0.00    -0.324 N 
HETATM   11  H   UNL     1      -8.003   3.366 -34.723  1.00  0.00     0.169 HD
HETATM   12  O   UNL     1      -8.836   4.238 -31.808  1.00  0.00    -0.272 OA
BRANCH  10  13
HETATM   13  C   UNL     1      -9.992   3.031 -34.209  1.00  0.00     0.068 A 
HETATM   14  C   UNL     1     -10.252   1.655 -34.072  1.00  0.00     0.097 A 
HETATM   15  C   UNL     1     -11.536   1.164 -34.367  1.00  0.00     0.075 A 
HETATM   16  C   UNL     1     -12.557   2.031 -34.764  1.00  0.00     0.070 A 
HETATM   17  C   UNL     1     -12.316   3.402 -34.802  1.00  0.00     0.039 A 
HETATM   18  C   UNL     1     -11.046   3.900 -34.519  1.00  0.00     0.035 A 
BRANCH  14  19
HETATM   19  O   UNL     1      -9.259   0.883 -33.527  1.00  0.00    -0.354 OA
HETATM   20  C   UNL     1      -9.396   0.485 -32.171  1.00  0.00     0.210 C 
ENDBRANCH  14  19
BRANCH  16  21
HETATM   21  O   UNL     1     -13.834   1.665 -35.093  1.00  0.00    -0.356 OA
HETATM   22  C   UNL     1     -14.538   0.895 -34.127  1.00  0.00     0.210 C 
ENDBRANCH  16  21
ENDBRANCH  10  13
ENDBRANCH   8   9
ENDBRANCH   7   8
ENDBRANCH   2   7
BRANCH   1  23
HETATM   23  C   UNL     1      -3.753   2.929 -31.857  1.00  0.00     0.254 C 
HETATM   24  N   UNL     1      -3.374   1.698 -32.352  1.00  0.00    -0.353 N 
HETATM   25  H   UNL     1      -3.036   1.608 -33.301  1.00  0.00     0.163 HD
HETATM   26  O   UNL     1      -4.331   3.076 -30.791  1.00  0.00    -0.268 OA
BRANCH  24  27
HETATM   27  C   UNL     1      -3.687   0.474 -31.646  1.00  0.00     0.161 C 
BRANCH  27  28
HETATM   28  C   UNL     1      -4.403  -0.496 -32.549  1.00  0.00    -0.041 A 
HETATM   29  C   UNL     1      -3.764  -1.674 -32.966  1.00  0.00     0.009 A 
HETATM   30  C   UNL     1      -4.423  -2.590 -33.788  1.00  0.00     0.007 A 
HETATM   31  C   UNL     1      -5.732  -2.344 -34.215  1.00  0.00    -0.062 A 
HETATM   32  C   UNL     1      -6.466  -3.347 -35.057  1.00  0.00     0.048 C 
HETATM   33  C   UNL     1      -6.374  -1.172 -33.797  1.00  0.00     0.007 A 
HETATM   34  C   UNL     1      -5.714  -0.254 -32.976  1.00  0.00     0.009 A 
ENDBRANCH  27  28
ENDBRANCH  24  27
ENDBRANCH   1  23
TORSDOF 9
ENDMDL
MODEL 8
REMARK VINA RESULT:      -7.7      2.400      6.942
REMARK  9 active torsions:
REMARK  status: ('A' for Active; 'I' for Inactive)
REMARK    1  A    between atoms: C_5  and  C_6 
REMARK    2  A    between atoms: C_6  and  N_7 
REMARK       I    between atoms: N_7  and  C_8 
REMARK    3  A    between atoms: C_8  and  C_9 
REMARK    4  A    between atoms: C_10  and  S_11 
REMARK    5  A    between atoms: S_11  and  C_12 
REMARK    6  A    between atoms: C_12  and  C_13 
REMARK       I    between atoms: C_13  and  N_14 
REMARK    7  A    between atoms: N_14  and  C_15 
REMARK    8  A    between atoms: C_16  and  O_17 
REMARK    9  A    between atoms: C_20  and  O_21 
ROOT
HETATM    1  C   UNL     1      -9.633   1.655 -32.851  1.00  0.00     0.067 A 
HETATM    2  C   UNL     1     -10.085   2.965 -32.678  1.00  0.00     0.109 A 
HETATM    3  N   UNL     1     -11.374   3.326 -32.948  1.00  0.00    -0.253 NA
HETATM    4  C   UNL     1     -12.208   2.382 -33.442  1.00  0.00     0.118 A 
HETATM    5  C   UNL     1     -11.837   1.071 -33.663  1.00  0.00     0.020 A 
HETATM    6  C   UNL     1     -10.532   0.702 -33.359  1.00  0.00     0.021 A 
ENDROOT
BRANCH   2   7
HETATM    7  S   UNL     1      -9.095   4.328 -32.102  1.00  0.00    -0.100 SA
BRANCH   7   8
HETATM    8  C   UNL     1      -8.219   4.741 -33.635  1.00  0.00     0.184 C 
BRANCH   8   9
HETATM    9  C   UNL     1      -6.698   4.807 -33.535  1.00  0.00     0.231 C 
HETATM   10  N   UNL     1      -6.187   4.962 -32.259  1.00  0.00    -0.324 N 
HETATM   11  H   UNL     1      -6.851   4.781 -31.506  1.00  0.00     0.169 HD
HETATM   12  O   UNL     1      -6.032   4.571 -34.545  1.00  0.00    -0.272 OA
BRANCH  10  13
HETATM   13  C   UNL     1      -4.816   4.943 -31.910  1.00  0.00     0.068 A 
HETATM   14  C   UNL     1      -4.033   6.087 -31.669  1.00  0.00     0.097 A 
HETATM   15  C   UNL     1      -2.654   5.942 -31.440  1.00  0.00     0.075 A 
HETATM   16  C   UNL     1      -2.064   4.675 -31.421  1.00  0.00     0.070 A 
HETATM   17  C   UNL     1      -2.864   3.544 -31.563  1.00  0.00     0.039 A 
HETATM   18  C   UNL     1      -4.231   3.676 -31.797  1.00  0.00     0.035 A 
BRANCH  14  19
HETATM   19  O   UNL     1      -4.694   7.281 -31.542  1.00  0.00    -0.354 OA
HETATM   20  C   UNL     1      -3.936   8.423 -31.174  1.00  0.00     0.210 C 
ENDBRANCH  14  19
BRANCH  16  21
HETATM   21  O   UNL     1      -0.734   4.415 -31.228  1.00  0.00    -0.356 OA
HETATM   22  C   UNL     1       0.114   5.546 -31.076  1.00  0.00     0.210 C 
ENDBRANCH  16  21
ENDBRANCH  10  13
ENDBRANCH   8   9
ENDBRANCH   7   8
ENDBRANCH   2   7
BRANCH   1  23
HETATM   23  C   UNL     1      -8.248   1.219 -32.547  1.00  0.00     0.254 C 
HETATM   24  N   UNL     1      -7.402   1.152 -33.634  1.00  0.00    -0.353 N 
HETATM   25  H   UNL     1      -7.769   1.218 -34.574  1.00  0.00     0.163 HD
HETATM   26  O   UNL     1      -7.895   0.971 -31.404  1.00  0.00    -0.268 OA
BRANCH  24  27
HETATM   27  C   UNL     1      -6.026   0.729 -33.493  1.00  0.00     0.161 C 
BRANCH  27  28
HETATM   28  C   UNL     1      -5.869  -0.720 -33.877  1.00  0.00    -0.041 A 
HETATM   29  C   UNL     1      -4.613  -1.338 -33.798  1.00  0.00     0.009 A 
HETATM   30  C   UNL     1      -4.458  -2.684 -34.133  1.00  0.00     0.007 A 
HETATM   31  C   UNL     1      -5.556  -3.438 -34.560  1.00  0.00    -0.062 A 
HETATM   32  C   UNL     1      -5.409  -4.898 -34.874  1.00  0.00     0.048 C 
HETATM   33  C   UNL     1      -6.813  -2.825 -34.635  1.00  0.00     0.007 A 
HETATM   34  C   UNL     1      -6.967  -1.477 -34.302  1.00  0.00     0.009 A 
ENDBRANCH  27  28
ENDBRANCH  24  27
ENDBRANCH   1  23
TORSDOF 9
ENDMDL
MODEL 9
REMARK VINA RESULT:      -7.5      3.485      8.832
REMARK  9 active torsions:
REMARK  status: ('A' for Active; 'I' for Inactive)
REMARK    1  A    between atoms: C_5  and  C_6 
REMARK    2  A    between atoms: C_6  and  N_7 
REMARK       I    between atoms: N_7  and  C_8 
REMARK    3  A    between atoms: C_8  and  C_9 
REMARK    4  A    between atoms: C_10  and  S_11 
REMARK    5  A    between atoms: S_11  and  C_12 
REMARK    6  A    between atoms: C_12  and  C_13 
REMARK       I    between atoms: C_13  and  N_14 
REMARK    7  A    between atoms: N_14  and  C_15 
REMARK    8  A    between atoms: C_16  and  O_17 
REMARK    9  A    between atoms: C_20  and  O_21 
ROOT
HETATM    1  C   UNL     1      -3.756   4.309 -32.799  1.00  0.00     0.067 A 
HETATM    2  C   UNL     1      -4.203   5.623 -32.956  1.00  0.00     0.109 A 
HETATM    3  N   UNL     1      -3.487   6.551 -33.655  1.00  0.00    -0.253 NA
HETATM    4  C   UNL     1      -2.289   6.180 -34.161  1.00  0.00     0.118 A 
HETATM    5  C   UNL     1      -1.762   4.910 -34.033  1.00  0.00     0.020 A 
HETATM    6  C   UNL     1      -2.510   3.961 -33.346  1.00  0.00     0.021 A 
ENDROOT
BRANCH   2   7
HETATM    7  S   UNL     1      -5.721   6.280 -32.296  1.00  0.00    -0.100 SA
BRANCH   7   8
HETATM    8  C   UNL     1      -5.265   6.408 -30.545  1.00  0.00     0.184 C 
BRANCH   8   9
HETATM    9  C   UNL     1      -4.029   7.247 -30.239  1.00  0.00     0.231 C 
HETATM   10  N   UNL     1      -3.077   6.643 -29.438  1.00  0.00    -0.324 N 
HETATM   11  H   UNL     1      -3.185   5.634 -29.330  1.00  0.00     0.169 HD
HETATM   12  O   UNL     1      -3.885   8.319 -30.831  1.00  0.00    -0.272 OA
BRANCH  10  13
HETATM   13  C   UNL     1      -1.811   7.181 -29.109  1.00  0.00     0.068 A 
HETATM   14  C   UNL     1      -0.597   6.806 -29.714  1.00  0.00     0.097 A 
HETATM   15  C   UNL     1       0.610   7.333 -29.222  1.00  0.00     0.075 A 
HETATM   16  C   UNL     1       0.610   8.244 -28.162  1.00  0.00     0.070 A 
HETATM   17  C   UNL     1      -0.602   8.683 -27.635  1.00  0.00     0.039 A 
HETATM   18  C   UNL     1      -1.804   8.163 -28.111  1.00  0.00     0.035 A 
BRANCH  14  19
HETATM   19  O   UNL     1      -0.675   6.038 -30.847  1.00  0.00    -0.354 OA
HETATM   20  C   UNL     1       0.426   5.196 -31.155  1.00  0.00     0.210 C 
ENDBRANCH  14  19
BRANCH  16  21
HETATM   21  O   UNL     1       1.719   8.805 -27.590  1.00  0.00    -0.356 OA
HETATM   22  C   UNL     1       1.979   8.451 -26.237  1.00  0.00     0.210 C 
ENDBRANCH  16  21
ENDBRANCH  10  13
ENDBRANCH   8   9
ENDBRANCH   7   8
ENDBRANCH   2   7
BRANCH   1  23
HETATM   23  C   UNL     1      -4.516   3.267 -32.067  1.00  0.00     0.254 C 
HETATM   24  N   UNL     1      -5.413   2.549 -32.832  1.00  0.00    -0.353 N 
HETATM   25  H   UNL     1      -5.648   2.853 -33.767  1.00  0.00     0.163 HD
HETATM   26  O   UNL     1      -4.326   3.055 -30.879  1.00  0.00    -0.268 OA
BRANCH  24  27
HETATM   27  C   UNL     1      -6.234   1.509 -32.252  1.00  0.00     0.161 C 
BRANCH  27  28
HETATM   28  C   UNL     1      -6.088   0.221 -33.019  1.00  0.00    -0.041 A 
HETATM   29  C   UNL     1      -4.841  -0.417 -33.093  1.00  0.00     0.009 A 
HETATM   30  C   UNL     1      -4.696  -1.621 -33.785  1.00  0.00     0.007 A 
HETATM   31  C   UNL     1      -5.794  -2.209 -34.422  1.00  0.00    -0.062 A 
HETATM   32  C   UNL     1      -5.658  -3.527 -35.125  1.00  0.00     0.048 C 
HETATM   33  C   UNL     1      -7.040  -1.576 -34.346  1.00  0.00     0.007 A 
HETATM   34  C   UNL     1      -7.186  -0.371 -33.655  1.00  0.00     0.009 A 
ENDBRANCH  27  28
ENDBRANCH  24  27
ENDBRANCH   1  23
TORSDOF 9
ENDMDL
MODEL 10
REMARK VINA RESULT:      -7.5      4.129      9.180
REMARK  9 active torsions:
REMARK  status: ('A' for Active; 'I' for Inactive)
REMARK    1  A    between atoms: C_5  and  C_6 
REMARK    2  A    between atoms: C_6  and  N_7 
REMARK       I    between atoms: N_7  and  C_8 
REMARK    3  A    between atoms: C_8  and  C_9 
REMARK    4  A    between atoms: C_10  and  S_11 
REMARK    5  A    between atoms: S_11  and  C_12 
REMARK    6  A    between atoms: C_12  and  C_13 
REMARK       I    between atoms: C_13  and  N_14 
REMARK    7  A    between atoms: N_14  and  C_15 
REMARK    8  A    between atoms: C_16  and  O_17 
REMARK    9  A    between atoms: C_20  and  O_21 
ROOT
HETATM    1  C   UNL     1      -3.948   5.010 -33.661  1.00  0.00     0.067 A 
HETATM    2  C   UNL     1      -3.464   5.371 -32.402  1.00  0.00     0.109 A 
HETATM    3  N   UNL     1      -2.207   5.874 -32.228  1.00  0.00    -0.253 NA
HETATM    4  C   UNL     1      -1.407   5.973 -33.314  1.00  0.00     0.118 A 
HETATM    5  C   UNL     1      -1.797   5.619 -34.590  1.00  0.00     0.020 A 
HETATM    6  C   UNL     1      -3.088   5.135 -34.765  1.00  0.00     0.021 A 
ENDROOT
BRANCH   2   7
HETATM    7  S   UNL     1      -4.369   5.239 -30.874  1.00  0.00    -0.100 SA
BRANCH   7   8
HETATM    8  C   UNL     1      -4.592   6.998 -30.496  1.00  0.00     0.184 C 
BRANCH   8   9
HETATM    9  C   UNL     1      -3.486   7.646 -29.669  1.00  0.00     0.231 C 
HETATM   10  N   UNL     1      -2.553   6.779 -29.129  1.00  0.00    -0.324 N 
HETATM   11  H   UNL     1      -2.562   5.839 -29.526  1.00  0.00     0.169 HD
HETATM   12  O   UNL     1      -3.404   8.876 -29.660  1.00  0.00    -0.272 OA
BRANCH  10  13
HETATM   13  C   UNL     1      -1.389   7.155 -28.421  1.00  0.00     0.068 A 
HETATM   14  C   UNL     1      -1.310   7.294 -27.022  1.00  0.00     0.097 A 
HETATM   15  C   UNL     1      -0.125   7.783 -26.445  1.00  0.00     0.075 A 
HETATM   16  C   UNL     1       0.978   8.101 -27.242  1.00  0.00     0.070 A 
HETATM   17  C   UNL     1       0.923   7.867 -28.614  1.00  0.00     0.039 A 
HETATM   18  C   UNL     1      -0.248   7.389 -29.198  1.00  0.00     0.035 A 
BRANCH  14  19
HETATM   19  O   UNL     1      -2.363   6.817 -26.287  1.00  0.00    -0.354 OA
HETATM   20  C   UNL     1      -2.835   7.613 -25.210  1.00  0.00     0.210 C 
ENDBRANCH  14  19
BRANCH  16  21
HETATM   21  O   UNL     1       2.171   8.600 -26.794  1.00  0.00    -0.356 OA
HETATM   22  C   UNL     1       2.363   8.607 -25.385  1.00  0.00     0.210 C 
ENDBRANCH  16  21
ENDBRANCH  10  13
ENDBRANCH   8   9
ENDBRANCH   7   8
ENDBRANCH   2   7
BRANCH   1  23
HETATM   23  C   UNL     1      -5.314   4.483 -33.893  1.00  0.00     0.254 C 
HETATM   24  N   UNL     1      -5.488   3.148 -33.590  1.00  0.00    -0.353 N 
HETATM   25  H   UNL     1      -4.689   2.556 -33.405  1.00  0.00     0.163 HD
HETATM   26  O   UNL     1      -6.216   5.202 -34.297  1.00  0.00    -0.268 OA
BRANCH  24  27
HETATM   27  C   UNL     1      -6.763   2.492 -33.779  1.00  0.00     0.161 C 
BRANCH  27  28
HETATM   28  C   UNL     1      -6.576   1.015 -34.010  1.00  0.00    -0.041 A 
HETATM   29  C   UNL     1      -7.410   0.330 -34.906  1.00  0.00     0.009 A 
HETATM   30  C   UNL     1      -7.235  -1.035 -35.143  1.00  0.00     0.007 A 
HETATM   31  C   UNL     1      -6.225  -1.744 -34.483  1.00  0.00    -0.062 A 
HETATM   32  C   UNL     1      -5.997  -3.200 -34.769  1.00  0.00     0.048 C 
HETATM   33  C   UNL     1      -5.388  -1.062 -33.592  1.00  0.00     0.007 A 
HETATM   34  C   UNL     1      -5.565   0.303 -33.353  1.00  0.00     0.009 A 
ENDBRANCH  27  28
ENDBRANCH  24  27
ENDBRANCH   1  23
TORSDOF 9
ENDMDL
