MODEL 1
REMARK VINA RESULT:      -7.2      0.000      0.000
REMARK  4 active torsions:
REMARK  status: ('A' for Active; 'I' for Inactive)
REMARK    1  A    between atoms: O_2  and  C_3 
REMARK    2  A    between atoms: C_5  and  N_6 
REMARK    3  A    between atoms: N_6  and  C_7 
REMARK    4  A    between atoms: C_7  and  C_8 
ROOT
HETATM    1  N   UNL     1     -10.024   0.257 -32.583  1.00  0.00    -0.372 N 
HETATM    2  H   UNL     1     -10.025  -0.752 -32.663  1.00  0.00     0.161 HD
ENDROOT
BRANCH   1   3
HETATM    3  C   UNL     1     -10.821   1.010 -33.411  1.00  0.00     0.103 A 
HETATM    4  C   UNL     1     -12.144   0.703 -33.760  1.00  0.00     0.085 A 
HETATM    5  C   UNL     1     -12.856   1.535 -34.623  1.00  0.00     0.073 A 
HETATM    6  C   UNL     1     -12.230   2.653 -35.157  1.00  0.00     0.053 A 
HETATM    7  C   UNL     1     -10.919   2.917 -34.810  1.00  0.00     0.092 A 
HETATM    8  N   UNL     1     -10.271   2.103 -33.968  1.00  0.00    -0.352 N 
HETATM    9  H   UNL     1      -9.305   2.311 -33.735  1.00  0.00     0.166 HD
BRANCH   5  10
HETATM   10  O   UNL     1     -14.145   1.359 -35.030  1.00  0.00    -0.356 OA
HETATM   11  C   UNL     1     -15.024   0.649 -34.162  1.00  0.00     0.210 C 
ENDBRANCH   5  10
ENDBRANCH   1   3
BRANCH   1  12
HETATM   12  C   UNL     1      -8.809   0.772 -31.954  1.00  0.00     0.160 C 
BRANCH  12  13
HETATM   13  C   UNL     1      -7.595   0.003 -32.414  1.00  0.00    -0.036 A 
HETATM   14  C   UNL     1      -6.342   0.192 -31.783  1.00  0.00     0.031 A 
HETATM   15  C   UNL     1      -5.213  -0.524 -32.197  1.00  0.00     0.047 A 
HETATM   16 BR   UNL     1      -3.562  -0.259 -31.323  1.00  0.00    -0.048 Br
HETATM   17  C   UNL     1      -5.345  -1.413 -33.242  1.00  0.00     0.122 A 
HETATM   18  C   UNL     1      -6.558  -1.593 -33.864  1.00  0.00     0.107 A 
HETATM   19  O   UNL     1      -4.374  -2.197 -33.785  1.00  0.00    -0.322 OA
HETATM   20  O   UNL     1      -6.499  -2.505 -34.871  1.00  0.00    -0.323 OA
HETATM   21  C   UNL     1      -7.692  -0.906 -33.481  1.00  0.00     0.048 A 
HETATM   22  C   UNL     1      -5.099  -2.856 -34.844  1.00  0.00     0.352 A 
ENDBRANCH  12  13
ENDBRANCH   1  12
TORSDOF 4
ENDMDL
MODEL 2
REMARK VINA RESULT:      -7.2      1.468      1.745
REMARK  4 active torsions:
REMARK  status: ('A' for Active; 'I' for Inactive)
REMARK    1  A    between atoms: O_2  and  C_3 
REMARK    2  A    between atoms: C_5  and  N_6 
REMARK    3  A    between atoms: N_6  and  C_7 
REMARK    4  A    between atoms: C_7  and  C_8 
ROOT
HETATM    1  N   UNL     1      -8.619   0.475 -33.883  1.00  0.00    -0.372 N 
HETATM    2  H   UNL     1      -8.427  -0.069 -33.052  1.00  0.00     0.161 HD
ENDROOT
BRANCH   1   3
HETATM    3  C   UNL     1      -9.807   1.156 -33.996  1.00  0.00     0.103 A 
HETATM    4  C   UNL     1     -11.046   0.707 -33.517  1.00  0.00     0.085 A 
HETATM    5  C   UNL     1     -12.193   1.478 -33.701  1.00  0.00     0.073 A 
HETATM    6  C   UNL     1     -12.100   2.679 -34.391  1.00  0.00     0.053 A 
HETATM    7  C   UNL     1     -10.868   3.084 -34.869  1.00  0.00     0.092 A 
HETATM    8  N   UNL     1      -9.786   2.324 -34.662  1.00  0.00    -0.352 N 
HETATM    9  H   UNL     1      -8.893   2.636 -35.031  1.00  0.00     0.166 HD
BRANCH   5  10
HETATM   10  O   UNL     1     -13.450   1.166 -33.275  1.00  0.00    -0.356 OA
HETATM   11  C   UNL     1     -14.384   0.704 -34.246  1.00  0.00     0.210 C 
ENDBRANCH   5  10
ENDBRANCH   1   3
BRANCH   1  12
HETATM   12  C   UNL     1      -7.832   0.042 -35.036  1.00  0.00     0.160 C 
BRANCH  12  13
HETATM   13  C   UNL     1      -6.710  -0.875 -34.610  1.00  0.00    -0.036 A 
HETATM   14  C   UNL     1      -5.610  -0.370 -33.874  1.00  0.00     0.031 A 
HETATM   15  C   UNL     1      -4.570  -1.214 -33.467  1.00  0.00     0.047 A 
HETATM   16 BR   UNL     1      -3.127  -0.513 -32.475  1.00  0.00    -0.048 Br
HETATM   17  C   UNL     1      -4.635  -2.549 -33.806  1.00  0.00     0.122 A 
HETATM   18  C   UNL     1      -5.697  -3.041 -34.528  1.00  0.00     0.107 A 
HETATM   19  O   UNL     1      -3.732  -3.522 -33.505  1.00  0.00    -0.322 OA
HETATM   20  O   UNL     1      -5.592  -4.375 -34.771  1.00  0.00    -0.323 OA
HETATM   21  C   UNL     1      -6.741  -2.239 -34.944  1.00  0.00     0.048 A 
HETATM   22  C   UNL     1      -4.320  -4.668 -34.153  1.00  0.00     0.352 A 
ENDBRANCH  12  13
ENDBRANCH   1  12
TORSDOF 4
ENDMDL
MODEL 3
REMARK VINA RESULT:      -7.1      2.001      2.518
REMARK  4 active torsions:
REMARK  status: ('A' for Active; 'I' for Inactive)
REMARK    1  A    between atoms: O_2  and  C_3 
REMARK    2  A    between atoms: C_5  and  N_6 
REMARK    3  A    between atoms: N_6  and  C_7 
REMARK    4  A    between atoms: C_7  and  C_8 
ROOT
HETATM    1  N   UNL     1      -8.710   1.109 -33.757  1.00  0.00    -0.372 N 
HETATM    2  H   UNL     1      -8.449   0.686 -32.875  1.00  0.00     0.161 HD
ENDROOT
BRANCH   1   3
HETATM    3  C   UNL     1     -10.026   1.418 -34.004  1.00  0.00     0.103 A 
HETATM    4  C   UNL     1     -11.130   0.694 -33.532  1.00  0.00     0.085 A 
HETATM    5  C   UNL     1     -12.425   1.094 -33.859  1.00  0.00     0.073 A 
HETATM    6  C   UNL     1     -12.608   2.196 -34.683  1.00  0.00     0.053 A 
HETATM    7  C   UNL     1     -11.498   2.876 -35.149  1.00  0.00     0.092 A 
HETATM    8  N   UNL     1     -10.270   2.472 -34.803  1.00  0.00    -0.352 N 
HETATM    9  H   UNL     1      -9.470   2.980 -35.166  1.00  0.00     0.166 HD
BRANCH   5  10
HETATM   10  O   UNL     1     -13.579   0.490 -33.457  1.00  0.00    -0.356 OA
HETATM   11  C   UNL     1     -14.698   1.324 -33.169  1.00  0.00     0.210 C 
ENDBRANCH   5  10
ENDBRANCH   1   3
BRANCH   1  12
HETATM   12  C   UNL     1      -7.733   0.857 -34.815  1.00  0.00     0.160 C 
BRANCH  12  13
HETATM   13  C   UNL     1      -6.735  -0.193 -34.389  1.00  0.00    -0.036 A 
HETATM   14  C   UNL     1      -6.852  -1.526 -34.852  1.00  0.00     0.031 A 
HETATM   15  C   UNL     1      -5.925  -2.503 -34.470  1.00  0.00     0.047 A 
HETATM   16 BR   UNL     1      -6.101  -4.266 -35.117  1.00  0.00    -0.048 Br
HETATM   17  C   UNL     1      -4.899  -2.141 -33.623  1.00  0.00     0.122 A 
HETATM   18  C   UNL     1      -4.787  -0.850 -33.164  1.00  0.00     0.107 A 
HETATM   19  O   UNL     1      -3.907  -2.939 -33.142  1.00  0.00    -0.322 OA
HETATM   20  O   UNL     1      -3.719  -0.678 -32.341  1.00  0.00    -0.323 OA
HETATM   21  C   UNL     1      -5.681   0.140 -33.522  1.00  0.00     0.048 A 
HETATM   22  C   UNL     1      -3.185  -2.018 -32.298  1.00  0.00     0.352 A 
ENDBRANCH  12  13
ENDBRANCH   1  12
TORSDOF 4
ENDMDL
MODEL 4
REMARK VINA RESULT:      -7.0      1.538      2.220
REMARK  4 active torsions:
REMARK  status: ('A' for Active; 'I' for Inactive)
REMARK    1  A    between atoms: O_2  and  C_3 
REMARK    2  A    between atoms: C_5  and  N_6 
REMARK    3  A    between atoms: N_6  and  C_7 
REMARK    4  A    between atoms: C_7  and  C_8 
ROOT
HETATM    1  N   UNL     1      -9.882   0.454 -32.419  1.00  0.00    -0.372 N 
HETATM    2  H   UNL     1      -9.774  -0.547 -32.518  1.00  0.00     0.161 HD
ENDROOT
BRANCH   1   3
HETATM    3  C   UNL     1     -10.720   1.139 -33.267  1.00  0.00     0.103 A 
HETATM    4  C   UNL     1     -11.979   0.693 -33.693  1.00  0.00     0.085 A 
HETATM    5  C   UNL     1     -12.739   1.467 -34.569  1.00  0.00     0.073 A 
HETATM    6  C   UNL     1     -12.222   2.667 -35.039  1.00  0.00     0.053 A 
HETATM    7  C   UNL     1     -10.970   3.068 -34.615  1.00  0.00     0.092 A 
HETATM    8  N   UNL     1     -10.273   2.306 -33.763  1.00  0.00    -0.352 N 
HETATM    9  H   UNL     1      -9.351   2.615 -33.474  1.00  0.00     0.166 HD
BRANCH   5  10
HETATM   10  O   UNL     1     -13.978   1.159 -35.048  1.00  0.00    -0.356 OA
HETATM   11  C   UNL     1     -15.005   0.879 -34.101  1.00  0.00     0.210 C 
ENDBRANCH   5  10
ENDBRANCH   1   3
BRANCH   1  12
HETATM   12  C   UNL     1      -8.755   1.079 -31.729  1.00  0.00     0.160 C 
BRANCH  12  13
HETATM   13  C   UNL     1      -7.469   0.345 -32.022  1.00  0.00    -0.036 A 
HETATM   14  C   UNL     1      -7.407  -0.609 -33.067  1.00  0.00     0.031 A 
HETATM   15  C   UNL     1      -6.217  -1.287 -33.351  1.00  0.00     0.047 A 
HETATM   16 BR   UNL     1      -6.165  -2.541 -34.760  1.00  0.00    -0.048 Br
HETATM   17  C   UNL     1      -5.104  -1.014 -32.584  1.00  0.00     0.122 A 
HETATM   18  C   UNL     1      -5.162  -0.095 -31.562  1.00  0.00     0.107 A 
HETATM   19  O   UNL     1      -3.865  -1.563 -32.703  1.00  0.00    -0.322 OA
HETATM   20  O   UNL     1      -3.974   0.044 -30.915  1.00  0.00    -0.323 OA
HETATM   21  C   UNL     1      -6.319   0.594 -31.255  1.00  0.00     0.048 A 
HETATM   22  C   UNL     1      -3.163  -0.922 -31.618  1.00  0.00     0.352 A 
ENDBRANCH  12  13
ENDBRANCH   1  12
TORSDOF 4
ENDMDL
MODEL 5
REMARK VINA RESULT:      -7.0      2.893      7.162
REMARK  4 active torsions:
REMARK  status: ('A' for Active; 'I' for Inactive)
REMARK    1  A    between atoms: O_2  and  C_3 
REMARK    2  A    between atoms: C_5  and  N_6 
REMARK    3  A    between atoms: N_6  and  C_7 
REMARK    4  A    between atoms: C_7  and  C_8 
ROOT
HETATM    1  N   UNL     1      -7.729   0.173 -32.500  1.00  0.00    -0.372 N 
HETATM    2  H   UNL     1      -7.941   0.138 -31.511  1.00  0.00     0.161 HD
ENDROOT
BRANCH   1   3
HETATM    3  C   UNL     1      -6.743  -0.633 -33.017  1.00  0.00     0.103 A 
HETATM    4  C   UNL     1      -6.940  -1.638 -33.975  1.00  0.00     0.085 A 
HETATM    5  C   UNL     1      -5.865  -2.407 -34.419  1.00  0.00     0.073 A 
HETATM    6  C   UNL     1      -4.605  -2.188 -33.879  1.00  0.00     0.053 A 
HETATM    7  C   UNL     1      -4.448  -1.203 -32.922  1.00  0.00     0.092 A 
HETATM    8  N   UNL     1      -5.500  -0.475 -32.529  1.00  0.00    -0.352 N 
HETATM    9  H   UNL     1      -5.363   0.234 -31.817  1.00  0.00     0.166 HD
BRANCH   5  10
HETATM   10  O   UNL     1      -5.917  -3.401 -35.351  1.00  0.00    -0.356 OA
HETATM   11  C   UNL     1      -5.757  -4.742 -34.899  1.00  0.00     0.210 C 
ENDBRANCH   5  10
ENDBRANCH   1   3
BRANCH   1  12
HETATM   12  C   UNL     1      -8.148   1.427 -33.123  1.00  0.00     0.160 C 
BRANCH  12  13
HETATM   13  C   UNL     1      -9.604   1.373 -33.518  1.00  0.00    -0.036 A 
HETATM   14  C   UNL     1     -10.177   2.407 -34.298  1.00  0.00     0.031 A 
HETATM   15  C   UNL     1     -11.523   2.361 -34.676  1.00  0.00     0.047 A 
HETATM   16 BR   UNL     1     -12.250   3.747 -35.729  1.00  0.00    -0.048 Br
HETATM   17  C   UNL     1     -12.285   1.288 -34.264  1.00  0.00     0.122 A 
HETATM   18  C   UNL     1     -11.736   0.287 -33.499  1.00  0.00     0.107 A 
HETATM   19  O   UNL     1     -13.601   1.062 -34.528  1.00  0.00    -0.322 OA
HETATM   20  O   UNL     1     -12.634  -0.686 -33.187  1.00  0.00    -0.323 OA
HETATM   21  C   UNL     1     -10.411   0.298 -33.110  1.00  0.00     0.048 A 
HETATM   22  C   UNL     1     -13.829  -0.167 -33.809  1.00  0.00     0.352 A 
ENDBRANCH  12  13
ENDBRANCH   1  12
TORSDOF 4
ENDMDL
MODEL 6
REMARK VINA RESULT:      -6.9      3.746      7.072
REMARK  4 active torsions:
REMARK  status: ('A' for Active; 'I' for Inactive)
REMARK    1  A    between atoms: O_2  and  C_3 
REMARK    2  A    between atoms: C_5  and  N_6 
REMARK    3  A    between atoms: N_6  and  C_7 
REMARK    4  A    between atoms: C_7  and  C_8 
ROOT
HETATM    1  N   UNL     1      -3.261  -0.618 -31.933  1.00  0.00    -0.372 N 
HETATM    2  H   UNL     1      -2.669   0.072 -32.378  1.00  0.00     0.161 HD
ENDROOT
BRANCH   1   3
HETATM    3  C   UNL     1      -3.556  -1.790 -32.588  1.00  0.00     0.103 A 
HETATM    4  C   UNL     1      -4.378  -1.901 -33.718  1.00  0.00     0.085 A 
HETATM    5  C   UNL     1      -4.619  -3.148 -34.293  1.00  0.00     0.073 A 
HETATM    6  C   UNL     1      -4.063  -4.281 -33.715  1.00  0.00     0.053 A 
HETATM    7  C   UNL     1      -3.274  -4.141 -32.589  1.00  0.00     0.092 A 
HETATM    8  N   UNL     1      -3.053  -2.926 -32.072  1.00  0.00    -0.352 N 
HETATM    9  H   UNL     1      -2.479  -2.848 -31.239  1.00  0.00     0.166 HD
BRANCH   5  10
HETATM   10  O   UNL     1      -5.384  -3.392 -35.395  1.00  0.00    -0.356 OA
HETATM   11  C   UNL     1      -6.295  -4.486 -35.342  1.00  0.00     0.210 C 
ENDBRANCH   5  10
ENDBRANCH   1   3
BRANCH   1  12
HETATM   12  C   UNL     1      -4.112  -0.047 -30.892  1.00  0.00     0.160 C 
BRANCH  12  13
HETATM   13  C   UNL     1      -5.317   0.636 -31.494  1.00  0.00    -0.036 A 
HETATM   14  C   UNL     1      -5.160   1.780 -32.314  1.00  0.00     0.031 A 
HETATM   15  C   UNL     1      -6.271   2.413 -32.883  1.00  0.00     0.047 A 
HETATM   16 BR   UNL     1      -6.026   3.924 -33.985  1.00  0.00    -0.048 Br
HETATM   17  C   UNL     1      -7.525   1.904 -32.620  1.00  0.00     0.122 A 
HETATM   18  C   UNL     1      -7.682   0.800 -31.816  1.00  0.00     0.107 A 
HETATM   19  O   UNL     1      -8.718   2.373 -33.077  1.00  0.00    -0.322 OA
HETATM   20  O   UNL     1      -8.986   0.442 -31.667  1.00  0.00    -0.323 OA
HETATM   21  C   UNL     1      -6.610   0.148 -31.240  1.00  0.00     0.048 A 
HETATM   22  C   UNL     1      -9.643   1.470 -32.438  1.00  0.00     0.352 A 
ENDBRANCH  12  13
ENDBRANCH   1  12
TORSDOF 4
ENDMDL
MODEL 7
REMARK VINA RESULT:      -6.8      5.198      7.132
REMARK  4 active torsions:
REMARK  status: ('A' for Active; 'I' for Inactive)
REMARK    1  A    between atoms: O_2  and  C_3 
REMARK    2  A    between atoms: C_5  and  N_6 
REMARK    3  A    between atoms: N_6  and  C_7 
REMARK    4  A    between atoms: C_7  and  C_8 
ROOT
HETATM    1  N   UNL     1      -4.172   1.631 -31.106  1.00  0.00    -0.372 N 
HETATM    2  H   UNL     1      -5.152   1.437 -30.945  1.00  0.00     0.161 HD
ENDROOT
BRANCH   1   3
HETATM    3  C   UNL     1      -3.779   2.887 -31.499  1.00  0.00     0.103 A 
HETATM    4  C   UNL     1      -2.940   3.169 -32.587  1.00  0.00     0.085 A 
HETATM    5  C   UNL     1      -2.594   4.486 -32.887  1.00  0.00     0.073 A 
HETATM    6  C   UNL     1      -3.064   5.512 -32.078  1.00  0.00     0.053 A 
HETATM    7  C   UNL     1      -3.871   5.199 -31.001  1.00  0.00     0.092 A 
HETATM    8  N   UNL     1      -4.194   3.924 -30.751  1.00  0.00    -0.352 N 
HETATM    9  H   UNL     1      -4.779   3.718 -29.948  1.00  0.00     0.166 HD
BRANCH   5  10
HETATM   10  O   UNL     1      -1.803   4.896 -33.918  1.00  0.00    -0.356 OA
HETATM   11  C   UNL     1      -1.756   6.291 -34.205  1.00  0.00     0.210 C 
ENDBRANCH   5  10
ENDBRANCH   1   3
BRANCH   1  12
HETATM   12  C   UNL     1      -3.395   0.424 -31.384  1.00  0.00     0.160 C 
BRANCH  12  13
HETATM   13  C   UNL     1      -4.104  -0.454 -32.388  1.00  0.00    -0.036 A 
HETATM   14  C   UNL     1      -5.182   0.054 -33.152  1.00  0.00     0.031 A 
HETATM   15  C   UNL     1      -5.838  -0.750 -34.091  1.00  0.00     0.047 A 
HETATM   16 BR   UNL     1      -7.261  -0.038 -35.105  1.00  0.00    -0.048 Br
HETATM   17  C   UNL     1      -5.417  -2.054 -34.250  1.00  0.00     0.122 A 
HETATM   18  C   UNL     1      -4.377  -2.553 -33.503  1.00  0.00     0.107 A 
HETATM   19  O   UNL     1      -5.921  -2.985 -35.105  1.00  0.00    -0.322 OA
HETATM   20  O   UNL     1      -4.101  -3.853 -33.792  1.00  0.00    -0.323 OA
HETATM   21  C   UNL     1      -3.705  -1.789 -32.570  1.00  0.00     0.048 A 
HETATM   22  C   UNL     1      -5.113  -4.135 -34.783  1.00  0.00     0.352 A 
ENDBRANCH  12  13
ENDBRANCH   1  12
TORSDOF 4
ENDMDL
MODEL 8
REMARK VINA RESULT:      -6.8      3.064      7.469
REMARK  4 active torsions:
REMARK  status: ('A' for Active; 'I' for Inactive)
REMARK    1  A    between atoms: O_2  and  C_3 
REMARK    2  A    between atoms: C_5  and  N_6 
REMARK    3  A    between atoms: N_6  and  C_7 
REMARK    4  A    between atoms: C_7  and  C_8 
ROOT
HETATM    1  N   UNL     1      -7.430   0.471 -34.166  1.00  0.00    -0.372 N 
HETATM    2  H   UNL     1      -7.753   0.842 -35.050  1.00  0.00     0.161 HD
ENDROOT
BRANCH   1   3
HETATM    3  C   UNL     1      -6.418  -0.459 -34.144  1.00  0.00     0.103 A 
HETATM    4  C   UNL     1      -6.502  -1.758 -34.664  1.00  0.00     0.085 A 
HETATM    5  C   UNL     1      -5.413  -2.624 -34.573  1.00  0.00     0.073 A 
HETATM    6  C   UNL     1      -4.257  -2.197 -33.933  1.00  0.00     0.053 A 
HETATM    7  C   UNL     1      -4.214  -0.917 -33.413  1.00  0.00     0.092 A 
HETATM    8  N   UNL     1      -5.274  -0.108 -33.531  1.00  0.00    -0.352 N 
HETATM    9  H   UNL     1      -5.223   0.823 -33.132  1.00  0.00     0.166 HD
BRANCH   5  10
HETATM   10  O   UNL     1      -5.358  -3.901 -35.046  1.00  0.00    -0.356 OA
HETATM   11  C   UNL     1      -6.591  -4.575 -35.283  1.00  0.00     0.210 C 
ENDBRANCH   5  10
ENDBRANCH   1   3
BRANCH   1  12
HETATM   12  C   UNL     1      -8.423   0.600 -33.102  1.00  0.00     0.160 C 
BRANCH  12  13
HETATM   13  C   UNL     1      -9.698   1.218 -33.624  1.00  0.00    -0.036 A 
HETATM   14  C   UNL     1     -10.935   0.545 -33.477  1.00  0.00     0.031 A 
HETATM   15  C   UNL     1     -12.123   1.114 -33.951  1.00  0.00     0.047 A 
HETATM   16 BR   UNL     1     -13.757   0.199 -33.724  1.00  0.00    -0.048 Br
HETATM   17  C   UNL     1     -12.061   2.343 -34.574  1.00  0.00     0.122 A 
HETATM   18  C   UNL     1     -10.860   2.995 -34.727  1.00  0.00     0.107 A 
HETATM   19  O   UNL     1     -13.096   3.055 -35.096  1.00  0.00    -0.322 OA
HETATM   20  O   UNL     1     -10.991   4.189 -35.364  1.00  0.00    -0.323 OA
HETATM   21  C   UNL     1      -9.670   2.465 -34.271  1.00  0.00     0.048 A 
HETATM   22  C   UNL     1     -12.409   4.204 -35.632  1.00  0.00     0.352 A 
ENDBRANCH  12  13
ENDBRANCH   1  12
TORSDOF 4
ENDMDL
MODEL 9
REMARK VINA RESULT:      -6.7      5.109      8.025
REMARK  4 active torsions:
REMARK  status: ('A' for Active; 'I' for Inactive)
REMARK    1  A    between atoms: O_2  and  C_3 
REMARK    2  A    between atoms: C_5  and  N_6 
REMARK    3  A    between atoms: N_6  and  C_7 
REMARK    4  A    between atoms: C_7  and  C_8 
ROOT
HETATM    1  N   UNL     1      -4.012   2.919 -32.124  1.00  0.00    -0.372 N 
HETATM    2  H   UNL     1      -4.928   2.994 -32.548  1.00  0.00     0.161 HD
ENDROOT
BRANCH   1   3
HETATM    3  C   UNL     1      -3.021   3.803 -32.477  1.00  0.00     0.103 A 
HETATM    4  C   UNL     1      -2.126   4.413 -31.586  1.00  0.00     0.085 A 
HETATM    5  C   UNL     1      -1.167   5.308 -32.056  1.00  0.00     0.073 A 
HETATM    6  C   UNL     1      -1.127   5.613 -33.410  1.00  0.00     0.053 A 
HETATM    7  C   UNL     1      -2.036   5.011 -34.259  1.00  0.00     0.092 A 
HETATM    8  N   UNL     1      -2.935   4.145 -33.774  1.00  0.00    -0.352 N 
HETATM    9  H   UNL     1      -3.600   3.724 -34.415  1.00  0.00     0.166 HD
BRANCH   5  10
HETATM   10  O   UNL     1      -0.233   5.957 -31.303  1.00  0.00    -0.356 OA
HETATM   11  C   UNL     1       0.783   5.172 -30.684  1.00  0.00     0.210 C 
ENDBRANCH   5  10
ENDBRANCH   1   3
BRANCH   1  12
HETATM   12  C   UNL     1      -3.743   1.584 -31.592  1.00  0.00     0.160 C 
BRANCH  12  13
HETATM   13  C   UNL     1      -4.335   0.518 -32.482  1.00  0.00    -0.036 A 
HETATM   14  C   UNL     1      -5.483   0.792 -33.266  1.00  0.00     0.031 A 
HETATM   15  C   UNL     1      -6.032  -0.188 -34.101  1.00  0.00     0.047 A 
HETATM   16 BR   UNL     1      -7.552   0.214 -35.143  1.00  0.00    -0.048 Br
HETATM   17  C   UNL     1      -5.436  -1.431 -34.138  1.00  0.00     0.122 A 
HETATM   18  C   UNL     1      -4.328  -1.703 -33.372  1.00  0.00     0.107 A 
HETATM   19  O   UNL     1      -5.817  -2.506 -34.880  1.00  0.00    -0.322 OA
HETATM   20  O   UNL     1      -3.878  -2.976 -33.535  1.00  0.00    -0.323 OA
HETATM   21  C   UNL     1      -3.757  -0.761 -32.539  1.00  0.00     0.048 A 
HETATM   22  C   UNL     1      -4.853  -3.495 -34.465  1.00  0.00     0.352 A 
ENDBRANCH  12  13
ENDBRANCH   1  12
TORSDOF 4
ENDMDL
MODEL 10
REMARK VINA RESULT:      -6.6      4.822      7.530
REMARK  4 active torsions:
REMARK  status: ('A' for Active; 'I' for Inactive)
REMARK    1  A    between atoms: O_2  and  C_3 
REMARK    2  A    between atoms: C_5  and  N_6 
REMARK    3  A    between atoms: N_6  and  C_7 
REMARK    4  A    between atoms: C_7  and  C_8 
ROOT
HETATM    1  N   UNL     1      -5.076   4.103 -33.750  1.00  0.00    -0.372 N 
HETATM    2  H   UNL     1      -5.463   4.017 -34.681  1.00  0.00     0.161 HD
ENDROOT
BRANCH   1   3
HETATM    3  C   UNL     1      -3.780   4.532 -33.584  1.00  0.00     0.103 A 
HETATM    4  C   UNL     1      -2.986   4.289 -32.454  1.00  0.00     0.085 A 
HETATM    5  C   UNL     1      -1.686   4.787 -32.389  1.00  0.00     0.073 A 
HETATM    6  C   UNL     1      -1.198   5.552 -33.440  1.00  0.00     0.053 A 
HETATM    7  C   UNL     1      -2.013   5.790 -34.530  1.00  0.00     0.092 A 
HETATM    8  N   UNL     1      -3.252   5.285 -34.564  1.00  0.00    -0.352 N 
HETATM    9  H   UNL     1      -3.836   5.482 -35.370  1.00  0.00     0.166 HD
BRANCH   5  10
HETATM   10  O   UNL     1      -0.808   4.613 -31.361  1.00  0.00    -0.356 OA
HETATM   11  C   UNL     1       0.217   5.589 -31.191  1.00  0.00     0.210 C 
ENDBRANCH   5  10
ENDBRANCH   1   3
BRANCH   1  12
HETATM   12  C   UNL     1      -5.779   3.280 -32.767  1.00  0.00     0.160 C 
BRANCH  12  13
HETATM   13  C   UNL     1      -5.593   1.811 -33.061  1.00  0.00    -0.036 A 
HETATM   14  C   UNL     1      -4.540   1.084 -32.454  1.00  0.00     0.031 A 
HETATM   15  C   UNL     1      -4.366  -0.280 -32.713  1.00  0.00     0.047 A 
HETATM   16 BR   UNL     1      -2.963  -1.222 -31.874  1.00  0.00    -0.048 Br
HETATM   17  C   UNL     1      -5.237  -0.901 -33.582  1.00  0.00     0.122 A 
HETATM   18  C   UNL     1      -6.255  -0.197 -34.181  1.00  0.00     0.107 A 
HETATM   19  O   UNL     1      -5.234  -2.209 -33.959  1.00  0.00    -0.322 OA
HETATM   20  O   UNL     1      -7.011  -0.969 -35.006  1.00  0.00    -0.323 OA
HETATM   21  C   UNL     1      -6.458   1.149 -33.947  1.00  0.00     0.048 A 
HETATM   22  C   UNL     1      -6.333  -2.239 -34.892  1.00  0.00     0.352 A 
ENDBRANCH  12  13
ENDBRANCH   1  12
TORSDOF 4
ENDMDL
