MODEL 1
REMARK VINA RESULT:      -8.4      0.000      0.000
REMARK  2 active torsions:
REMARK  status: ('A' for Active; 'I' for Inactive)
REMARK    1  A    between atoms: C_4  and  N_5 
REMARK       I    between atoms: N_5  and  C_6 
REMARK    2  A    between atoms: C_6  and  C_7 
ROOT
HETATM    1  C   UNL     1      -4.833   1.005 -31.882  1.00  0.00     0.099 C 
HETATM    2  C   UNL     1      -4.736  -0.006 -32.769  1.00  0.00     0.079 C 
HETATM    3  S   UNL     1      -5.839  -0.322 -34.054  1.00  0.00    -0.082 SA
HETATM    4  C   UNL     1      -5.703  -2.082 -34.216  1.00  0.00     0.032 A 
HETATM    5  C   UNL     1      -4.583  -2.787 -33.775  1.00  0.00     0.052 A 
HETATM    6  N   UNL     1      -3.541  -2.158 -33.089  1.00  0.00    -0.321 N 
HETATM    7  C   UNL     1      -6.731  -2.774 -34.869  1.00  0.00     0.021 A 
HETATM    8  C   UNL     1      -6.636  -4.151 -35.086  1.00  0.00     0.002 A 
HETATM    9  C   UNL     1      -5.504  -4.843 -34.666  1.00  0.00     0.002 A 
HETATM   10  C   UNL     1      -4.475  -4.162 -34.015  1.00  0.00     0.031 A 
HETATM   11  C   UNL     1      -3.533  -0.887 -32.594  1.00  0.00     0.263 C 
HETATM   12  O   UNL     1      -2.541  -0.505 -31.969  1.00  0.00    -0.267 OA
HETATM   13  H   UNL     1      -2.713  -2.692 -32.855  1.00  0.00     0.169 HD
ENDROOT
BRANCH   1  14
HETATM   14  C   UNL     1      -5.874   2.062 -31.839  1.00  0.00     0.247 C 
HETATM   15  N   UNL     1      -5.585   3.333 -32.248  1.00  0.00    -0.324 N 
HETATM   16  H   UNL     1      -6.290   3.972 -31.895  1.00  0.00     0.169 HD
HETATM   17  O   UNL     1      -6.984   1.869 -31.348  1.00  0.00    -0.268 OA
BRANCH  15  18
HETATM   18  C   UNL     1      -4.561   3.923 -33.006  1.00  0.00     0.035 A 
HETATM   19  C   UNL     1      -3.202   3.855 -32.699  1.00  0.00     0.029 A 
HETATM   20  C   UNL     1      -2.259   4.474 -33.527  1.00  0.00     0.002 A 
HETATM   21  C   UNL     1      -2.663   5.139 -34.683  1.00  0.00     0.000 A 
HETATM   22  C   UNL     1      -4.012   5.171 -35.023  1.00  0.00     0.002 A 
HETATM   23  C   UNL     1      -4.951   4.555 -34.194  1.00  0.00     0.029 A 
ENDBRANCH  15  18
ENDBRANCH   1  14
TORSDOF 2
ENDMDL
MODEL 2
REMARK VINA RESULT:      -8.2      2.304      7.232
REMARK  2 active torsions:
REMARK  status: ('A' for Active; 'I' for Inactive)
REMARK    1  A    between atoms: C_4  and  N_5 
REMARK       I    between atoms: N_5  and  C_6 
REMARK    2  A    between atoms: C_6  and  C_7 
ROOT
HETATM    1  C   UNL     1      -5.999   2.802 -32.121  1.00  0.00     0.099 C 
HETATM    2  C   UNL     1      -4.919   3.371 -32.692  1.00  0.00     0.079 C 
HETATM    3  S   UNL     1      -3.282   3.111 -32.224  1.00  0.00    -0.082 SA
HETATM    4  C   UNL     1      -2.536   4.660 -32.657  1.00  0.00     0.032 A 
HETATM    5  C   UNL     1      -3.092   5.515 -33.610  1.00  0.00     0.052 A 
HETATM    6  N   UNL     1      -4.326   5.245 -34.208  1.00  0.00    -0.321 N 
HETATM    7  C   UNL     1      -1.312   5.001 -32.068  1.00  0.00     0.021 A 
HETATM    8  C   UNL     1      -0.649   6.175 -32.432  1.00  0.00     0.002 A 
HETATM    9  C   UNL     1      -1.198   7.010 -33.401  1.00  0.00     0.002 A 
HETATM   10  C   UNL     1      -2.416   6.679 -33.994  1.00  0.00     0.031 A 
HETATM   11  C   UNL     1      -5.222   4.282 -33.846  1.00  0.00     0.263 C 
HETATM   12  O   UNL     1      -6.290   4.213 -34.458  1.00  0.00    -0.267 OA
HETATM   13  H   UNL     1      -4.656   5.852 -34.949  1.00  0.00     0.169 HD
ENDROOT
BRANCH   1  14
HETATM   14  C   UNL     1      -6.010   1.823 -31.006  1.00  0.00     0.247 C 
HETATM   15  N   UNL     1      -6.227   0.497 -31.253  1.00  0.00    -0.324 N 
HETATM   16  H   UNL     1      -6.483   0.027 -30.390  1.00  0.00     0.169 HD
HETATM   17  O   UNL     1      -5.931   2.168 -29.829  1.00  0.00    -0.268 OA
BRANCH  15  18
HETATM   18  C   UNL     1      -6.187  -0.320 -32.395  1.00  0.00     0.035 A 
HETATM   19  C   UNL     1      -7.252  -0.508 -33.277  1.00  0.00     0.029 A 
HETATM   20  C   UNL     1      -7.105  -1.339 -34.393  1.00  0.00     0.002 A 
HETATM   21  C   UNL     1      -5.888  -1.965 -34.652  1.00  0.00     0.000 A 
HETATM   22  C   UNL     1      -4.806  -1.744 -33.805  1.00  0.00     0.002 A 
HETATM   23  C   UNL     1      -4.954  -0.917 -32.691  1.00  0.00     0.029 A 
ENDBRANCH  15  18
ENDBRANCH   1  14
TORSDOF 2
ENDMDL
MODEL 3
REMARK VINA RESULT:      -7.9      2.191      6.668
REMARK  2 active torsions:
REMARK  status: ('A' for Active; 'I' for Inactive)
REMARK    1  A    between atoms: C_4  and  N_5 
REMARK       I    between atoms: N_5  and  C_6 
REMARK    2  A    between atoms: C_6  and  C_7 
ROOT
HETATM    1  C   UNL     1      -6.490   2.031 -32.308  1.00  0.00     0.099 C 
HETATM    2  C   UNL     1      -5.614   3.055 -32.341  1.00  0.00     0.079 C 
HETATM    3  S   UNL     1      -5.424   4.171 -33.639  1.00  0.00    -0.082 SA
HETATM    4  C   UNL     1      -3.710   4.599 -33.493  1.00  0.00     0.032 A 
HETATM    5  C   UNL     1      -3.004   4.454 -32.298  1.00  0.00     0.052 A 
HETATM    6  N   UNL     1      -3.583   3.868 -31.169  1.00  0.00    -0.321 N 
HETATM    7  C   UNL     1      -3.065   5.163 -34.602  1.00  0.00     0.021 A 
HETATM    8  C   UNL     1      -1.736   5.585 -34.513  1.00  0.00     0.002 A 
HETATM    9  C   UNL     1      -1.047   5.460 -33.311  1.00  0.00     0.002 A 
HETATM   10  C   UNL     1      -1.681   4.900 -32.201  1.00  0.00     0.031 A 
HETATM   11  C   UNL     1      -4.774   3.207 -31.106  1.00  0.00     0.263 C 
HETATM   12  O   UNL     1      -5.114   2.709 -30.031  1.00  0.00    -0.267 OA
HETATM   13  H   UNL     1      -3.061   3.853 -30.302  1.00  0.00     0.169 HD
ENDROOT
BRANCH   1  14
HETATM   14  C   UNL     1      -7.482   1.667 -33.350  1.00  0.00     0.247 C 
HETATM   15  N   UNL     1      -7.250   0.614 -34.188  1.00  0.00    -0.324 N 
HETATM   16  H   UNL     1      -7.863   0.679 -34.995  1.00  0.00     0.169 HD
HETATM   17  O   UNL     1      -8.485   2.345 -33.567  1.00  0.00    -0.268 OA
BRANCH  15  18
HETATM   18  C   UNL     1      -6.375  -0.484 -34.182  1.00  0.00     0.035 A 
HETATM   19  C   UNL     1      -5.072  -0.463 -33.681  1.00  0.00     0.029 A 
HETATM   20  C   UNL     1      -4.283  -1.618 -33.716  1.00  0.00     0.002 A 
HETATM   21  C   UNL     1      -4.797  -2.808 -34.225  1.00  0.00     0.000 A 
HETATM   22  C   UNL     1      -6.110  -2.852 -34.683  1.00  0.00     0.002 A 
HETATM   23  C   UNL     1      -6.896  -1.698 -34.649  1.00  0.00     0.029 A 
ENDBRANCH  15  18
ENDBRANCH   1  14
TORSDOF 2
ENDMDL
MODEL 4
REMARK VINA RESULT:      -7.7      4.437      7.375
REMARK  2 active torsions:
REMARK  status: ('A' for Active; 'I' for Inactive)
REMARK    1  A    between atoms: C_4  and  N_5 
REMARK       I    between atoms: N_5  and  C_6 
REMARK    2  A    between atoms: C_6  and  C_7 
ROOT
HETATM    1  C   UNL     1      -8.488   0.436 -32.108  1.00  0.00     0.099 C 
HETATM    2  C   UNL     1      -9.255   0.992 -33.067  1.00  0.00     0.079 C 
HETATM    3  S   UNL     1      -8.776   2.269 -34.119  1.00  0.00    -0.082 SA
HETATM    4  C   UNL     1     -10.326   3.072 -34.433  1.00  0.00     0.032 A 
HETATM    5  C   UNL     1     -11.549   2.417 -34.283  1.00  0.00     0.052 A 
HETATM    6  N   UNL     1     -11.630   1.116 -33.780  1.00  0.00    -0.321 N 
HETATM    7  C   UNL     1     -10.312   4.389 -34.910  1.00  0.00     0.021 A 
HETATM    8  C   UNL     1     -11.503   5.039 -35.242  1.00  0.00     0.002 A 
HETATM    9  C   UNL     1     -12.717   4.370 -35.113  1.00  0.00     0.002 A 
HETATM   10  C   UNL     1     -12.741   3.059 -34.639  1.00  0.00     0.031 A 
HETATM   11  C   UNL     1     -10.625   0.393 -33.206  1.00  0.00     0.263 C 
HETATM   12  O   UNL     1     -10.883  -0.731 -32.772  1.00  0.00    -0.267 OA
HETATM   13  H   UNL     1     -12.529   0.652 -33.760  1.00  0.00     0.169 HD
ENDROOT
BRANCH   1  14
HETATM   14  C   UNL     1      -7.082   0.776 -31.776  1.00  0.00     0.247 C 
HETATM   15  N   UNL     1      -6.063  -0.052 -32.152  1.00  0.00    -0.324 N 
HETATM   16  H   UNL     1      -5.230   0.169 -31.616  1.00  0.00     0.169 HD
HETATM   17  O   UNL     1      -6.789   1.743 -31.075  1.00  0.00    -0.268 OA
BRANCH  15  18
HETATM   18  C   UNL     1      -5.929  -1.107 -33.069  1.00  0.00     0.035 A 
HETATM   19  C   UNL     1      -6.970  -1.635 -33.834  1.00  0.00     0.029 A 
HETATM   20  C   UNL     1      -6.727  -2.685 -34.728  1.00  0.00     0.002 A 
HETATM   21  C   UNL     1      -5.440  -3.195 -34.885  1.00  0.00     0.000 A 
HETATM   22  C   UNL     1      -4.387  -2.642 -34.162  1.00  0.00     0.002 A 
HETATM   23  C   UNL     1      -4.631  -1.597 -33.270  1.00  0.00     0.029 A 
ENDBRANCH  15  18
ENDBRANCH   1  14
TORSDOF 2
ENDMDL
MODEL 5
REMARK VINA RESULT:      -7.7      2.243      2.863
REMARK  2 active torsions:
REMARK  status: ('A' for Active; 'I' for Inactive)
REMARK    1  A    between atoms: C_4  and  N_5 
REMARK       I    between atoms: N_5  and  C_6 
REMARK    2  A    between atoms: C_6  and  C_7 
ROOT
HETATM    1  C   UNL     1      -4.437   3.269 -30.927  1.00  0.00     0.099 C 
HETATM    2  C   UNL     1      -4.627   2.450 -31.980  1.00  0.00     0.079 C 
HETATM    3  S   UNL     1      -5.613   2.790 -33.351  1.00  0.00    -0.082 SA
HETATM    4  C   UNL     1      -6.132   1.164 -33.829  1.00  0.00     0.032 A 
HETATM    5  C   UNL     1      -5.418   0.018 -33.475  1.00  0.00     0.052 A 
HETATM    6  N   UNL     1      -4.301   0.077 -32.637  1.00  0.00    -0.321 N 
HETATM    7  C   UNL     1      -7.264   1.036 -34.646  1.00  0.00     0.021 A 
HETATM    8  C   UNL     1      -7.670  -0.217 -35.109  1.00  0.00     0.002 A 
HETATM    9  C   UNL     1      -6.937  -1.352 -34.772  1.00  0.00     0.002 A 
HETATM   10  C   UNL     1      -5.809  -1.235 -33.960  1.00  0.00     0.031 A 
HETATM   11  C   UNL     1      -3.873   1.153 -31.915  1.00  0.00     0.263 C 
HETATM   12  O   UNL     1      -2.888   1.016 -31.185  1.00  0.00    -0.267 OA
HETATM   13  H   UNL     1      -3.769  -0.767 -32.468  1.00  0.00     0.169 HD
ENDROOT
BRANCH   1  14
HETATM   14  C   UNL     1      -5.001   4.628 -30.737  1.00  0.00     0.247 C 
HETATM   15  N   UNL     1      -4.320   5.727 -31.179  1.00  0.00    -0.324 N 
HETATM   16  H   UNL     1      -4.689   6.559 -30.731  1.00  0.00     0.169 HD
HETATM   17  O   UNL     1      -6.031   4.828 -30.097  1.00  0.00    -0.268 OA
BRANCH  15  18
HETATM   18  C   UNL     1      -3.258   5.943 -32.072  1.00  0.00     0.035 A 
HETATM   19  C   UNL     1      -1.926   6.126 -31.697  1.00  0.00     0.029 A 
HETATM   20  C   UNL     1      -0.939   6.327 -32.669  1.00  0.00     0.002 A 
HETATM   21  C   UNL     1      -1.270   6.319 -34.022  1.00  0.00     0.000 A 
HETATM   22  C   UNL     1      -2.587   6.090 -34.408  1.00  0.00     0.002 A 
HETATM   23  C   UNL     1      -3.570   5.891 -33.437  1.00  0.00     0.029 A 
ENDBRANCH  15  18
ENDBRANCH   1  14
TORSDOF 2
ENDMDL
MODEL 6
REMARK VINA RESULT:      -7.5      1.966      2.821
REMARK  2 active torsions:
REMARK  status: ('A' for Active; 'I' for Inactive)
REMARK    1  A    between atoms: C_4  and  N_5 
REMARK       I    between atoms: N_5  and  C_6 
REMARK    2  A    between atoms: C_6  and  C_7 
ROOT
HETATM    1  C   UNL     1      -5.736   2.650 -32.021  1.00  0.00     0.099 C 
HETATM    2  C   UNL     1      -5.865   1.338 -32.302  1.00  0.00     0.079 C 
HETATM    3  S   UNL     1      -5.063   0.053 -31.483  1.00  0.00    -0.082 SA
HETATM    4  C   UNL     1      -4.927  -1.160 -32.769  1.00  0.00     0.032 A 
HETATM    5  C   UNL     1      -5.772  -1.166 -33.880  1.00  0.00     0.052 A 
HETATM    6  N   UNL     1      -6.713  -0.155 -34.095  1.00  0.00    -0.321 N 
HETATM    7  C   UNL     1      -3.981  -2.183 -32.626  1.00  0.00     0.021 A 
HETATM    8  C   UNL     1      -3.886  -3.203 -33.576  1.00  0.00     0.002 A 
HETATM    9  C   UNL     1      -4.748  -3.216 -34.668  1.00  0.00     0.002 A 
HETATM   10  C   UNL     1      -5.694  -2.202 -34.819  1.00  0.00     0.031 A 
HETATM   11  C   UNL     1      -6.821   1.023 -33.416  1.00  0.00     0.263 C 
HETATM   12  O   UNL     1      -7.687   1.827 -33.769  1.00  0.00    -0.267 OA
HETATM   13  H   UNL     1      -7.356  -0.240 -34.872  1.00  0.00     0.169 HD
ENDROOT
BRANCH   1  14
HETATM   14  C   UNL     1      -4.913   3.259 -30.946  1.00  0.00     0.247 C 
HETATM   15  N   UNL     1      -3.756   3.917 -31.251  1.00  0.00    -0.324 N 
HETATM   16  H   UNL     1      -3.190   4.015 -30.414  1.00  0.00     0.169 HD
HETATM   17  O   UNL     1      -5.178   3.112 -29.755  1.00  0.00    -0.268 OA
BRANCH  15  18
HETATM   18  C   UNL     1      -3.197   4.452 -32.423  1.00  0.00     0.035 A 
HETATM   19  C   UNL     1      -3.916   4.767 -33.577  1.00  0.00     0.029 A 
HETATM   20  C   UNL     1      -3.263   5.304 -34.692  1.00  0.00     0.002 A 
HETATM   21  C   UNL     1      -1.893   5.556 -34.653  1.00  0.00     0.000 A 
HETATM   22  C   UNL     1      -1.176   5.290 -33.491  1.00  0.00     0.002 A 
HETATM   23  C   UNL     1      -1.829   4.752 -32.380  1.00  0.00     0.029 A 
ENDBRANCH  15  18
ENDBRANCH   1  14
TORSDOF 2
ENDMDL
MODEL 7
REMARK VINA RESULT:      -7.4     14.304     16.033
REMARK  2 active torsions:
REMARK  status: ('A' for Active; 'I' for Inactive)
REMARK    1  A    between atoms: C_4  and  N_5 
REMARK       I    between atoms: N_5  and  C_6 
REMARK    2  A    between atoms: C_6  and  C_7 
ROOT
HETATM    1  C   UNL     1      -4.771 -13.010 -40.037  1.00  0.00     0.099 C 
HETATM    2  C   UNL     1      -4.721 -13.492 -38.779  1.00  0.00     0.079 C 
HETATM    3  S   UNL     1      -5.263 -15.048 -38.278  1.00  0.00    -0.082 SA
HETATM    4  C   UNL     1      -5.745 -14.734 -36.601  1.00  0.00     0.032 A 
HETATM    5  C   UNL     1      -5.240 -13.660 -35.868  1.00  0.00     0.052 A 
HETATM    6  N   UNL     1      -4.397 -12.707 -36.446  1.00  0.00    -0.321 N 
HETATM    7  C   UNL     1      -6.613 -15.638 -35.974  1.00  0.00     0.021 A 
HETATM    8  C   UNL     1      -6.964 -15.475 -34.632  1.00  0.00     0.002 A 
HETATM    9  C   UNL     1      -6.436 -14.415 -33.901  1.00  0.00     0.002 A 
HETATM   10  C   UNL     1      -5.570 -13.510 -34.516  1.00  0.00     0.031 A 
HETATM   11  C   UNL     1      -4.108 -12.562 -37.771  1.00  0.00     0.263 C 
HETATM   12  O   UNL     1      -3.375 -11.632 -38.116  1.00  0.00    -0.267 OA
HETATM   13  H   UNL     1      -3.993 -11.988 -35.859  1.00  0.00     0.169 HD
ENDROOT
BRANCH   1  14
HETATM   14  C   UNL     1      -5.267 -13.714 -41.246  1.00  0.00     0.247 C 
HETATM   15  N   UNL     1      -6.584 -14.056 -41.355  1.00  0.00    -0.324 N 
HETATM   16  H   UNL     1      -6.695 -14.758 -42.079  1.00  0.00     0.169 HD
HETATM   17  O   UNL     1      -4.512 -14.102 -42.135  1.00  0.00    -0.268 OA
BRANCH  15  18
HETATM   18  C   UNL     1      -7.766 -13.672 -40.700  1.00  0.00     0.035 A 
HETATM   19  C   UNL     1      -8.180 -12.353 -40.510  1.00  0.00     0.029 A 
HETATM   20  C   UNL     1      -9.383 -12.078 -39.850  1.00  0.00     0.002 A 
HETATM   21  C   UNL     1     -10.194 -13.117 -39.399  1.00  0.00     0.000 A 
HETATM   22  C   UNL     1      -9.813 -14.437 -39.626  1.00  0.00     0.002 A 
HETATM   23  C   UNL     1      -8.612 -14.709 -40.284  1.00  0.00     0.029 A 
ENDBRANCH  15  18
ENDBRANCH   1  14
TORSDOF 2
ENDMDL
MODEL 8
REMARK VINA RESULT:      -7.3      3.156      6.599
REMARK  2 active torsions:
REMARK  status: ('A' for Active; 'I' for Inactive)
REMARK    1  A    between atoms: C_4  and  N_5 
REMARK       I    between atoms: N_5  and  C_6 
REMARK    2  A    between atoms: C_6  and  C_7 
ROOT
HETATM    1  C   UNL     1      -7.451   3.232 -31.597  1.00  0.00     0.099 C 
HETATM    2  C   UNL     1      -6.342   3.951 -31.864  1.00  0.00     0.079 C 
HETATM    3  S   UNL     1      -6.124   4.995 -33.216  1.00  0.00    -0.082 SA
HETATM    4  C   UNL     1      -4.373   4.892 -33.468  1.00  0.00     0.032 A 
HETATM    5  C   UNL     1      -3.494   4.511 -32.452  1.00  0.00     0.052 A 
HETATM    6  N   UNL     1      -3.954   4.092 -31.201  1.00  0.00    -0.321 N 
HETATM    7  C   UNL     1      -3.853   5.270 -34.713  1.00  0.00     0.021 A 
HETATM    8  C   UNL     1      -2.474   5.276 -34.936  1.00  0.00     0.002 A 
HETATM    9  C   UNL     1      -1.603   4.919 -33.910  1.00  0.00     0.002 A 
HETATM   10  C   UNL     1      -2.111   4.541 -32.667  1.00  0.00     0.031 A 
HETATM   11  C   UNL     1      -5.242   3.813 -30.850  1.00  0.00     0.263 C 
HETATM   12  O   UNL     1      -5.467   3.407 -29.708  1.00  0.00    -0.267 OA
HETATM   13  H   UNL     1      -3.281   3.898 -30.470  1.00  0.00     0.169 HD
ENDROOT
BRANCH   1  14
HETATM   14  C   UNL     1      -8.712   3.207 -32.380  1.00  0.00     0.247 C 
HETATM   15  N   UNL     1      -8.882   2.300 -33.387  1.00  0.00    -0.324 N 
HETATM   16  H   UNL     1      -9.647   2.597 -33.986  1.00  0.00     0.169 HD
HETATM   17  O   UNL     1      -9.595   4.049 -32.228  1.00  0.00    -0.268 OA
BRANCH  15  18
HETATM   18  C   UNL     1      -8.248   1.106 -33.765  1.00  0.00     0.035 A 
HETATM   19  C   UNL     1      -8.366  -0.108 -33.086  1.00  0.00     0.029 A 
HETATM   20  C   UNL     1      -7.697  -1.245 -33.552  1.00  0.00     0.002 A 
HETATM   21  C   UNL     1      -6.928  -1.186 -34.712  1.00  0.00     0.000 A 
HETATM   22  C   UNL     1      -6.843   0.007 -35.422  1.00  0.00     0.002 A 
HETATM   23  C   UNL     1      -7.510   1.141 -34.955  1.00  0.00     0.029 A 
ENDBRANCH  15  18
ENDBRANCH   1  14
TORSDOF 2
ENDMDL
MODEL 9
REMARK VINA RESULT:      -7.3      3.340      5.320
REMARK  2 active torsions:
REMARK  status: ('A' for Active; 'I' for Inactive)
REMARK    1  A    between atoms: C_4  and  N_5 
REMARK       I    between atoms: N_5  and  C_6 
REMARK    2  A    between atoms: C_6  and  C_7 
ROOT
HETATM    1  C   UNL     1      -4.139   5.600 -32.595  1.00  0.00     0.099 C 
HETATM    2  C   UNL     1      -4.267   4.395 -32.006  1.00  0.00     0.079 C 
HETATM    3  S   UNL     1      -3.310   3.004 -32.347  1.00  0.00    -0.082 SA
HETATM    4  C   UNL     1      -4.449   1.692 -31.996  1.00  0.00     0.032 A 
HETATM    5  C   UNL     1      -5.548   1.864 -31.154  1.00  0.00     0.052 A 
HETATM    6  N   UNL     1      -5.873   3.111 -30.614  1.00  0.00    -0.321 N 
HETATM    7  C   UNL     1      -4.193   0.423 -32.534  1.00  0.00     0.021 A 
HETATM    8  C   UNL     1      -5.020  -0.660 -32.227  1.00  0.00     0.002 A 
HETATM    9  C   UNL     1      -6.101  -0.486 -31.366  1.00  0.00     0.002 A 
HETATM   10  C   UNL     1      -6.363   0.773 -30.826  1.00  0.00     0.031 A 
HETATM   11  C   UNL     1      -5.334   4.318 -30.951  1.00  0.00     0.263 C 
HETATM   12  O   UNL     1      -5.773   5.332 -30.405  1.00  0.00    -0.267 OA
HETATM   13  H   UNL     1      -6.633   3.175 -29.948  1.00  0.00     0.169 HD
ENDROOT
BRANCH   1  14
HETATM   14  C   UNL     1      -3.145   5.993 -33.624  1.00  0.00     0.247 C 
HETATM   15  N   UNL     1      -1.900   6.417 -33.256  1.00  0.00    -0.324 N 
HETATM   16  H   UNL     1      -1.462   6.903 -34.032  1.00  0.00     0.169 HD
HETATM   17  O   UNL     1      -3.425   6.050 -34.819  1.00  0.00    -0.268 OA
BRANCH  15  18
HETATM   18  C   UNL     1      -1.132   6.341 -32.082  1.00  0.00     0.035 A 
HETATM   19  C   UNL     1      -0.275   5.289 -31.757  1.00  0.00     0.029 A 
HETATM   20  C   UNL     1       0.453   5.315 -30.562  1.00  0.00     0.002 A 
HETATM   21  C   UNL     1       0.351   6.402 -29.697  1.00  0.00     0.000 A 
HETATM   22  C   UNL     1      -0.464   7.478 -30.035  1.00  0.00     0.002 A 
HETATM   23  C   UNL     1      -1.190   7.450 -31.227  1.00  0.00     0.029 A 
ENDBRANCH  15  18
ENDBRANCH   1  14
TORSDOF 2
ENDMDL
MODEL 10
REMARK VINA RESULT:      -7.3     14.463     16.265
REMARK  2 active torsions:
REMARK  status: ('A' for Active; 'I' for Inactive)
REMARK    1  A    between atoms: C_4  and  N_5 
REMARK       I    between atoms: N_5  and  C_6 
REMARK    2  A    between atoms: C_6  and  C_7 
ROOT
HETATM    1  C   UNL     1      -3.327 -13.014 -37.855  1.00  0.00     0.099 C 
HETATM    2  C   UNL     1      -4.536 -13.404 -38.306  1.00  0.00     0.079 C 
HETATM    3  S   UNL     1      -5.202 -13.027 -39.848  1.00  0.00    -0.082 SA
HETATM    4  C   UNL     1      -6.939 -13.013 -39.493  1.00  0.00     0.032 A 
HETATM    5  C   UNL     1      -7.482 -13.691 -38.401  1.00  0.00     0.052 A 
HETATM    6  N   UNL     1      -6.675 -14.341 -37.463  1.00  0.00    -0.321 N 
HETATM    7  C   UNL     1      -7.798 -12.352 -40.381  1.00  0.00     0.021 A 
HETATM    8  C   UNL     1      -9.181 -12.375 -40.185  1.00  0.00     0.002 A 
HETATM    9  C   UNL     1      -9.716 -13.075 -39.107  1.00  0.00     0.002 A 
HETATM   10  C   UNL     1      -8.869 -13.737 -38.218  1.00  0.00     0.031 A 
HETATM   11  C   UNL     1      -5.318 -14.261 -37.352  1.00  0.00     0.263 C 
HETATM   12  O   UNL     1      -4.767 -14.867 -36.431  1.00  0.00    -0.267 OA
HETATM   13  H   UNL     1      -7.114 -14.884 -36.730  1.00  0.00     0.169 HD
ENDROOT
BRANCH   1  14
HETATM   14  C   UNL     1      -2.314 -12.214 -38.589  1.00  0.00     0.247 C 
HETATM   15  N   UNL     1      -1.429 -12.825 -39.431  1.00  0.00    -0.324 N 
HETATM   16  H   UNL     1      -0.651 -12.200 -39.618  1.00  0.00     0.169 HD
HETATM   17  O   UNL     1      -2.164 -11.010 -38.396  1.00  0.00    -0.268 OA
BRANCH  15  18
HETATM   18  C   UNL     1      -1.358 -14.081 -40.055  1.00  0.00     0.035 A 
HETATM   19  C   UNL     1      -2.052 -14.436 -41.213  1.00  0.00     0.029 A 
HETATM   20  C   UNL     1      -1.905 -15.716 -41.760  1.00  0.00     0.002 A 
HETATM   21  C   UNL     1      -1.044 -16.640 -41.172  1.00  0.00     0.000 A 
HETATM   22  C   UNL     1      -0.311 -16.279 -40.046  1.00  0.00     0.002 A 
HETATM   23  C   UNL     1      -0.460 -15.003 -39.500  1.00  0.00     0.029 A 
ENDBRANCH  15  18
ENDBRANCH   1  14
TORSDOF 2
ENDMDL
