MODEL 1
REMARK VINA RESULT:      -8.6      0.000      0.000
REMARK  3 active torsions:
REMARK  status: ('A' for Active; 'I' for Inactive)
REMARK    1  A    between atoms: N_7  and  C_9 
REMARK    2  A    between atoms: C_9  and  C_10 
REMARK    3  A    between atoms: C_13  and  C_14 
ROOT
HETATM    1  C   UNL     1      -0.133   5.217 -30.913  1.00  0.00     0.269 C 
HETATM    2  N   UNL     1      -1.440   5.308 -31.675  1.00  0.00    -0.074 N 
HETATM    3  H   UNL     1      -1.935   6.103 -31.247  1.00  0.00     0.279 HD
HETATM    4  C   UNL     1      -2.264   4.051 -31.523  1.00  0.00     0.245 C 
HETATM    5  C   UNL     1      -3.665   4.188 -32.197  1.00  0.00     0.008 C 
HETATM    6  C   UNL     1      -4.348   2.787 -32.120  1.00  0.00     0.246 C 
HETATM    7  N   UNL     1      -5.834   2.787 -32.401  1.00  0.00    -0.063 N 
HETATM    8  H   UNL     1      -6.159   1.876 -32.028  1.00  0.00     0.280 HD
HETATM    9  C   UNL     1      -6.611   3.811 -31.620  1.00  0.00     0.235 C 
HETATM   10  C   UNL     1      -6.004   5.189 -31.819  1.00  0.00     0.029 C 
HETATM   11  C   UNL     1      -4.528   5.216 -31.422  1.00  0.00     0.014 C 
HETATM   12  C   UNL     1      -3.441   4.629 -33.667  1.00  0.00     0.014 C 
HETATM   13  C   UNL     1      -2.521   5.844 -33.824  1.00  0.00     0.029 C 
HETATM   14  C   UNL     1      -1.187   5.662 -33.121  1.00  0.00     0.234 C 
ENDROOT
BRANCH   7  15
HETATM   15  C   UNL     1      -6.276   2.654 -33.869  1.00  0.00     0.323 C 
BRANCH  15  16
HETATM   16  C   UNL     1      -6.543   1.248 -34.263  1.00  0.00     0.199 A 
HETATM   17  O   UNL     1      -7.706   0.989 -34.909  1.00  0.00    -0.194 OA
HETATM   18  N   UNL     1      -7.699  -0.371 -35.185  1.00  0.00    -0.106 NA
HETATM   19  C   UNL     1      -6.545  -0.814 -34.658  1.00  0.00     0.189 A 
HETATM   20  N   UNL     1      -5.765   0.199 -34.118  1.00  0.00    -0.202 NA
BRANCH  19  21
HETATM   21  C   UNL     1      -6.129  -2.212 -34.652  1.00  0.00     0.016 A 
HETATM   22  C   UNL     1      -4.946  -2.593 -34.003  1.00  0.00     0.039 A 
HETATM   23  C   UNL     1      -4.553  -3.932 -33.982  1.00  0.00     0.035 A 
HETATM   24 CL   UNL     1      -3.095  -4.370 -33.182  1.00  0.00    -0.084 Cl
HETATM   25  C   UNL     1      -5.328  -4.908 -34.601  1.00  0.00     0.024 A 
HETATM   26  C   UNL     1      -6.507  -4.543 -35.248  1.00  0.00     0.003 A 
HETATM   27  C   UNL     1      -6.906  -3.203 -35.274  1.00  0.00     0.015 A 
ENDBRANCH  19  21
ENDBRANCH  15  16
ENDBRANCH   7  15
TORSDOF 3
ENDMDL
MODEL 2
REMARK VINA RESULT:      -8.5      4.925      7.482
REMARK  3 active torsions:
REMARK  status: ('A' for Active; 'I' for Inactive)
REMARK    1  A    between atoms: N_7  and  C_9 
REMARK    2  A    between atoms: C_9  and  C_10 
REMARK    3  A    between atoms: C_13  and  C_14 
ROOT
HETATM    1  C   UNL     1     -16.173   2.149 -32.699  1.00  0.00     0.269 C 
HETATM    2  N   UNL     1     -14.882   2.944 -32.704  1.00  0.00    -0.074 N 
HETATM    3  H   UNL     1     -15.140   3.857 -33.105  1.00  0.00     0.279 HD
HETATM    4  C   UNL     1     -13.826   2.289 -33.562  1.00  0.00     0.245 C 
HETATM    5  C   UNL     1     -12.541   3.166 -33.673  1.00  0.00     0.008 C 
HETATM    6  C   UNL     1     -11.473   2.319 -34.435  1.00  0.00     0.246 C 
HETATM    7  N   UNL     1     -10.287   3.103 -34.950  1.00  0.00    -0.063 N 
HETATM    8  H   UNL     1      -9.857   2.473 -35.652  1.00  0.00     0.280 HD
HETATM    9  C   UNL     1     -10.651   4.338 -35.726  1.00  0.00     0.235 C 
HETATM   10  C   UNL     1     -11.587   5.212 -34.908  1.00  0.00     0.029 C 
HETATM   11  C   UNL     1     -12.843   4.449 -34.488  1.00  0.00     0.014 C 
HETATM   12  C   UNL     1     -12.072   3.504 -32.234  1.00  0.00     0.014 C 
HETATM   13  C   UNL     1     -13.173   4.075 -31.335  1.00  0.00     0.029 C 
HETATM   14  C   UNL     1     -14.408   3.192 -31.291  1.00  0.00     0.234 C 
ENDROOT
BRANCH   7  15
HETATM   15  C   UNL     1      -9.098   3.295 -33.992  1.00  0.00     0.323 C 
BRANCH  15  16
HETATM   16  C   UNL     1      -8.464   2.012 -33.599  1.00  0.00     0.199 A 
HETATM   17  O   UNL     1      -8.765   1.513 -32.376  1.00  0.00    -0.194 OA
HETATM   18  N   UNL     1      -8.075   0.314 -32.268  1.00  0.00    -0.106 NA
HETATM   19  C   UNL     1      -7.399   0.210 -33.425  1.00  0.00     0.189 A 
HETATM   20  N   UNL     1      -7.671   1.243 -34.312  1.00  0.00    -0.202 NA
BRANCH  19  21
HETATM   21  C   UNL     1      -6.477  -0.874 -33.743  1.00  0.00     0.016 A 
HETATM   22  C   UNL     1      -6.948  -2.039 -34.367  1.00  0.00     0.039 A 
HETATM   23  C   UNL     1      -6.066  -3.073 -34.686  1.00  0.00     0.035 A 
HETATM   24 CL   UNL     1      -6.670  -4.492 -35.448  1.00  0.00    -0.084 Cl
HETATM   25  C   UNL     1      -4.709  -2.964 -34.394  1.00  0.00     0.024 A 
HETATM   26  C   UNL     1      -4.230  -1.810 -33.776  1.00  0.00     0.003 A 
HETATM   27  C   UNL     1      -5.107  -0.771 -33.452  1.00  0.00     0.015 A 
ENDBRANCH  19  21
ENDBRANCH  15  16
ENDBRANCH   7  15
TORSDOF 3
ENDMDL
MODEL 3
REMARK VINA RESULT:      -8.5      1.733      2.511
REMARK  3 active torsions:
REMARK  status: ('A' for Active; 'I' for Inactive)
REMARK    1  A    between atoms: N_7  and  C_9 
REMARK    2  A    between atoms: C_9  and  C_10 
REMARK    3  A    between atoms: C_13  and  C_14 
ROOT
HETATM    1  C   UNL     1      -1.615   8.919 -29.392  1.00  0.00     0.269 C 
HETATM    2  N   UNL     1      -1.534   7.739 -30.340  1.00  0.00    -0.074 N 
HETATM    3  H   UNL     1      -1.488   8.162 -31.278  1.00  0.00     0.279 HD
HETATM    4  C   UNL     1      -2.754   6.855 -30.237  1.00  0.00     0.245 C 
HETATM    5  C   UNL     1      -2.736   5.712 -31.300  1.00  0.00     0.008 C 
HETATM    6  C   UNL     1      -3.947   4.779 -30.988  1.00  0.00     0.246 C 
HETATM    7  N   UNL     1      -4.311   3.816 -32.096  1.00  0.00    -0.063 N 
HETATM    8  H   UNL     1      -5.269   3.505 -31.853  1.00  0.00     0.280 HD
HETATM    9  C   UNL     1      -4.457   4.457 -33.449  1.00  0.00     0.235 C 
HETATM   10  C   UNL     1      -3.208   5.253 -33.787  1.00  0.00     0.029 C 
HETATM   11  C   UNL     1      -2.907   6.307 -32.721  1.00  0.00     0.014 C 
HETATM   12  C   UNL     1      -1.388   4.957 -31.159  1.00  0.00     0.014 C 
HETATM   13  C   UNL     1      -0.157   5.868 -31.162  1.00  0.00     0.029 C 
HETATM   14  C   UNL     1      -0.248   6.977 -30.127  1.00  0.00     0.234 C 
ENDROOT
BRANCH   7  15
HETATM   15  C   UNL     1      -3.584   2.461 -32.122  1.00  0.00     0.323 C 
BRANCH  15  16
HETATM   16  C   UNL     1      -4.460   1.347 -32.563  1.00  0.00     0.199 A 
HETATM   17  O   UNL     1      -5.799   1.516 -32.439  1.00  0.00    -0.194 OA
HETATM   18  N   UNL     1      -6.381   0.360 -32.939  1.00  0.00    -0.106 NA
HETATM   19  C   UNL     1      -5.341  -0.413 -33.296  1.00  0.00     0.189 A 
HETATM   20  N   UNL     1      -4.113   0.210 -33.123  1.00  0.00    -0.202 NA
BRANCH  19  21
HETATM   21  C   UNL     1      -5.468  -1.767 -33.824  1.00  0.00     0.016 A 
HETATM   22  C   UNL     1      -4.400  -2.668 -33.714  1.00  0.00     0.039 A 
HETATM   23  C   UNL     1      -4.523  -3.969 -34.204  1.00  0.00     0.035 A 
HETATM   24 CL   UNL     1      -3.195  -5.054 -34.060  1.00  0.00    -0.084 Cl
HETATM   25  C   UNL     1      -5.704  -4.392 -34.806  1.00  0.00     0.024 A 
HETATM   26  C   UNL     1      -6.774  -3.506 -34.919  1.00  0.00     0.003 A 
HETATM   27  C   UNL     1      -6.657  -2.200 -34.432  1.00  0.00     0.015 A 
ENDBRANCH  19  21
ENDBRANCH  15  16
ENDBRANCH   7  15
TORSDOF 3
ENDMDL
MODEL 4
REMARK VINA RESULT:      -8.3      3.164      5.384
REMARK  3 active torsions:
REMARK  status: ('A' for Active; 'I' for Inactive)
REMARK    1  A    between atoms: N_7  and  C_9 
REMARK    2  A    between atoms: C_9  and  C_10 
REMARK    3  A    between atoms: C_13  and  C_14 
ROOT
HETATM    1  C   UNL     1     -10.958   1.697 -34.600  1.00  0.00     0.269 C 
HETATM    2  N   UNL     1     -10.104   1.571 -33.354  1.00  0.00    -0.074 N 
HETATM    3  H   UNL     1     -10.578   2.159 -32.653  1.00  0.00     0.279 HD
HETATM    4  C   UNL     1      -8.702   2.082 -33.584  1.00  0.00     0.245 C 
HETATM    5  C   UNL     1      -7.857   2.074 -32.272  1.00  0.00     0.008 C 
HETATM    6  C   UNL     1      -6.396   2.459 -32.667  1.00  0.00     0.246 C 
HETATM    7  N   UNL     1      -5.504   2.845 -31.508  1.00  0.00    -0.063 N 
HETATM    8  H   UNL     1      -4.709   3.334 -31.957  1.00  0.00     0.280 HD
HETATM    9  C   UNL     1      -6.101   3.868 -30.582  1.00  0.00     0.235 C 
HETATM   10  C   UNL     1      -7.468   3.408 -30.107  1.00  0.00     0.029 C 
HETATM   11  C   UNL     1      -8.408   3.130 -31.281  1.00  0.00     0.014 C 
HETATM   12  C   UNL     1      -7.923   0.644 -31.675  1.00  0.00     0.014 C 
HETATM   13  C   UNL     1      -9.345   0.089 -31.537  1.00  0.00     0.029 C 
HETATM   14  C   UNL     1     -10.125   0.152 -32.839  1.00  0.00     0.234 C 
ENDROOT
BRANCH   7  15
HETATM   15  C   UNL     1      -4.753   1.712 -30.786  1.00  0.00     0.323 C 
BRANCH  15  16
HETATM   16  C   UNL     1      -4.343   0.620 -31.702  1.00  0.00     0.199 A 
HETATM   17  O   UNL     1      -3.364   0.890 -32.601  1.00  0.00    -0.194 OA
HETATM   18  N   UNL     1      -3.152  -0.286 -33.306  1.00  0.00    -0.106 NA
HETATM   19  C   UNL     1      -4.039  -1.152 -32.787  1.00  0.00     0.189 A 
HETATM   20  N   UNL     1      -4.767  -0.624 -31.730  1.00  0.00    -0.202 NA
BRANCH  19  21
HETATM   21  C   UNL     1      -4.227  -2.518 -33.264  1.00  0.00     0.016 A 
HETATM   22  C   UNL     1      -5.229  -2.806 -34.201  1.00  0.00     0.039 A 
HETATM   23  C   UNL     1      -5.402  -4.109 -34.671  1.00  0.00     0.035 A 
HETATM   24 CL   UNL     1      -6.642  -4.434 -35.818  1.00  0.00    -0.084 Cl
HETATM   25  C   UNL     1      -4.583  -5.140 -34.220  1.00  0.00     0.024 A 
HETATM   26  C   UNL     1      -3.582  -4.866 -33.290  1.00  0.00     0.003 A 
HETATM   27  C   UNL     1      -3.404  -3.564 -32.814  1.00  0.00     0.015 A 
ENDBRANCH  19  21
ENDBRANCH  15  16
ENDBRANCH   7  15
TORSDOF 3
ENDMDL
MODEL 5
REMARK VINA RESULT:      -8.2      5.027      7.361
REMARK  3 active torsions:
REMARK  status: ('A' for Active; 'I' for Inactive)
REMARK    1  A    between atoms: N_7  and  C_9 
REMARK    2  A    between atoms: C_9  and  C_10 
REMARK    3  A    between atoms: C_13  and  C_14 
ROOT
HETATM    1  C   UNL     1     -15.592   6.054 -32.381  1.00  0.00     0.269 C 
HETATM    2  N   UNL     1     -14.631   5.379 -33.339  1.00  0.00    -0.074 N 
HETATM    3  H   UNL     1     -15.217   4.725 -33.877  1.00  0.00     0.279 HD
HETATM    4  C   UNL     1     -13.555   4.615 -32.604  1.00  0.00     0.245 C 
HETATM    5  C   UNL     1     -12.640   3.813 -33.582  1.00  0.00     0.008 C 
HETATM    6  C   UNL     1     -11.480   3.209 -32.730  1.00  0.00     0.246 C 
HETATM    7  N   UNL     1     -10.685   2.121 -33.418  1.00  0.00    -0.063 N 
HETATM    8  H   UNL     1     -10.183   1.651 -32.643  1.00  0.00     0.280 HD
HETATM    9  C   UNL     1     -11.526   1.036 -34.033  1.00  0.00     0.235 C 
HETATM   10  C   UNL     1     -12.563   1.643 -34.962  1.00  0.00     0.029 C 
HETATM   11  C   UNL     1     -13.444   2.659 -34.234  1.00  0.00     0.014 C 
HETATM   12  C   UNL     1     -12.103   4.804 -34.648  1.00  0.00     0.014 C 
HETATM   13  C   UNL     1     -13.189   5.651 -35.319  1.00  0.00     0.029 C 
HETATM   14  C   UNL     1     -14.064   6.382 -34.316  1.00  0.00     0.234 C 
ENDROOT
BRANCH   7  15
HETATM   15  C   UNL     1      -9.494   2.558 -34.289  1.00  0.00     0.323 C 
BRANCH  15  16
HETATM   16  C   UNL     1      -8.272   1.756 -34.035  1.00  0.00     0.199 A 
HETATM   17  O   UNL     1      -7.233   2.373 -33.422  1.00  0.00    -0.194 OA
HETATM   18  N   UNL     1      -6.242   1.412 -33.280  1.00  0.00    -0.106 NA
HETATM   19  C   UNL     1      -6.763   0.308 -33.844  1.00  0.00     0.189 A 
HETATM   20  N   UNL     1      -8.069   0.480 -34.279  1.00  0.00    -0.202 NA
BRANCH  19  21
HETATM   21  C   UNL     1      -6.048  -0.956 -33.986  1.00  0.00     0.016 A 
HETATM   22  C   UNL     1      -6.663  -2.045 -34.620  1.00  0.00     0.039 A 
HETATM   23  C   UNL     1      -5.977  -3.251 -34.770  1.00  0.00     0.035 A 
HETATM   24 CL   UNL     1      -6.756  -4.573 -35.549  1.00  0.00    -0.084 Cl
HETATM   25  C   UNL     1      -4.676  -3.391 -34.297  1.00  0.00     0.024 A 
HETATM   26  C   UNL     1      -4.054  -2.315 -33.666  1.00  0.00     0.003 A 
HETATM   27  C   UNL     1      -4.735  -1.104 -33.511  1.00  0.00     0.015 A 
ENDBRANCH  19  21
ENDBRANCH  15  16
ENDBRANCH   7  15
TORSDOF 3
ENDMDL
MODEL 6
REMARK VINA RESULT:      -8.2      2.921      4.723
REMARK  3 active torsions:
REMARK  status: ('A' for Active; 'I' for Inactive)
REMARK    1  A    between atoms: N_7  and  C_9 
REMARK    2  A    between atoms: C_9  and  C_10 
REMARK    3  A    between atoms: C_13  and  C_14 
ROOT
HETATM    1  C   UNL     1      -1.726  10.224 -27.630  1.00  0.00     0.269 C 
HETATM    2  N   UNL     1      -1.275   9.211 -28.664  1.00  0.00    -0.074 N 
HETATM    3  H   UNL     1      -0.969   9.779 -29.467  1.00  0.00     0.279 HD
HETATM    4  C   UNL     1      -2.403   8.299 -29.082  1.00  0.00     0.245 C 
HETATM    5  C   UNL     1      -1.978   7.341 -30.238  1.00  0.00     0.008 C 
HETATM    6  C   UNL     1      -3.160   6.346 -30.465  1.00  0.00     0.246 C 
HETATM    7  N   UNL     1      -3.096   5.566 -31.759  1.00  0.00    -0.063 N 
HETATM    8  H   UNL     1      -4.059   5.202 -31.879  1.00  0.00     0.280 HD
HETATM    9  C   UNL     1      -2.858   6.411 -32.980  1.00  0.00     0.235 C 
HETATM   10  C   UNL     1      -1.623   7.273 -32.785  1.00  0.00     0.029 C 
HETATM   11  C   UNL     1      -1.741   8.150 -31.538  1.00  0.00     0.014 C 
HETATM   12  C   UNL     1      -0.693   6.598 -29.789  1.00  0.00     0.014 C 
HETATM   13  C   UNL     1       0.414   7.521 -29.268  1.00  0.00     0.029 C 
HETATM   14  C   UNL     1      -0.069   8.449 -28.167  1.00  0.00     0.234 C 
ENDROOT
BRANCH   7  15
HETATM   15  C   UNL     1      -2.306   4.245 -31.749  1.00  0.00     0.323 C 
BRANCH  15  16
HETATM   16  C   UNL     1      -3.165   3.060 -31.988  1.00  0.00     0.199 A 
HETATM   17  O   UNL     1      -2.984   1.983 -31.185  1.00  0.00    -0.194 OA
HETATM   18  N   UNL     1      -3.915   1.038 -31.593  1.00  0.00    -0.106 NA
HETATM   19  C   UNL     1      -4.555   1.619 -32.622  1.00  0.00     0.189 A 
HETATM   20  N   UNL     1      -4.141   2.922 -32.858  1.00  0.00    -0.202 NA
BRANCH  19  21
HETATM   21  C   UNL     1      -5.591   0.968 -33.417  1.00  0.00     0.016 A 
HETATM   22  C   UNL     1      -5.594  -0.426 -33.564  1.00  0.00     0.039 A 
HETATM   23  C   UNL     1      -6.593  -1.053 -34.312  1.00  0.00     0.035 A 
HETATM   24 CL   UNL     1      -6.571  -2.765 -34.480  1.00  0.00    -0.084 Cl
HETATM   25  C   UNL     1      -7.599  -0.307 -34.918  1.00  0.00     0.024 A 
HETATM   26  C   UNL     1      -7.608   1.079 -34.777  1.00  0.00     0.003 A 
HETATM   27  C   UNL     1      -6.610   1.715 -34.031  1.00  0.00     0.015 A 
ENDBRANCH  19  21
ENDBRANCH  15  16
ENDBRANCH   7  15
TORSDOF 3
ENDMDL
MODEL 7
REMARK VINA RESULT:      -8.0      2.871      7.558
REMARK  3 active torsions:
REMARK  status: ('A' for Active; 'I' for Inactive)
REMARK    1  A    between atoms: N_7  and  C_9 
REMARK    2  A    between atoms: C_9  and  C_10 
REMARK    3  A    between atoms: C_13  and  C_14 
ROOT
HETATM    1  C   UNL     1      -4.485  -2.857 -34.586  1.00  0.00     0.269 C 
HETATM    2  N   UNL     1      -5.195  -1.886 -33.662  1.00  0.00    -0.074 N 
HETATM    3  H   UNL     1      -6.002  -2.415 -33.301  1.00  0.00     0.279 HD
HETATM    4  C   UNL     1      -5.675  -0.661 -34.403  1.00  0.00     0.245 C 
HETATM    5  C   UNL     1      -6.517   0.280 -33.486  1.00  0.00     0.008 C 
HETATM    6  C   UNL     1      -6.811   1.575 -34.307  1.00  0.00     0.246 C 
HETATM    7  N   UNL     1      -7.896   2.460 -33.734  1.00  0.00    -0.063 N 
HETATM    8  H   UNL     1      -8.154   3.081 -34.523  1.00  0.00     0.280 HD
HETATM    9  C   UNL     1      -9.169   1.735 -33.394  1.00  0.00     0.235 C 
HETATM   10  C   UNL     1      -8.871   0.555 -32.485  1.00  0.00     0.029 C 
HETATM   11  C   UNL     1      -7.860  -0.401 -33.118  1.00  0.00     0.014 C 
HETATM   12  C   UNL     1      -5.672   0.590 -32.223  1.00  0.00     0.014 C 
HETATM   13  C   UNL     1      -5.101  -0.652 -31.531  1.00  0.00     0.029 C 
HETATM   14  C   UNL     1      -4.319  -1.542 -32.482  1.00  0.00     0.234 C 
ENDROOT
BRANCH   7  15
HETATM   15  C   UNL     1      -7.475   3.508 -32.689  1.00  0.00     0.323 C 
BRANCH  15  16
HETATM   16  C   UNL     1      -6.268   4.270 -33.094  1.00  0.00     0.199 A 
HETATM   17  O   UNL     1      -6.265   4.829 -34.329  1.00  0.00    -0.194 OA
HETATM   18  N   UNL     1      -5.054   5.497 -34.446  1.00  0.00    -0.106 NA
HETATM   19  C   UNL     1      -4.425   5.259 -33.283  1.00  0.00     0.189 A 
HETATM   20  N   UNL     1      -5.194   4.533 -32.384  1.00  0.00    -0.202 NA
BRANCH  19  21
HETATM   21  C   UNL     1      -3.076   5.717 -32.970  1.00  0.00     0.016 A 
HETATM   22  C   UNL     1      -2.394   5.197 -31.860  1.00  0.00     0.039 A 
HETATM   23  C   UNL     1      -1.097   5.622 -31.567  1.00  0.00     0.035 A 
HETATM   24 CL   UNL     1      -0.286   4.971 -30.197  1.00  0.00    -0.084 Cl
HETATM   25  C   UNL     1      -0.461   6.563 -32.371  1.00  0.00     0.024 A 
HETATM   26  C   UNL     1      -1.127   7.086 -33.478  1.00  0.00     0.003 A 
HETATM   27  C   UNL     1      -2.427   6.666 -33.777  1.00  0.00     0.015 A 
ENDBRANCH  19  21
ENDBRANCH  15  16
ENDBRANCH   7  15
TORSDOF 3
ENDMDL
MODEL 8
REMARK VINA RESULT:      -7.9      4.214      9.276
REMARK  3 active torsions:
REMARK  status: ('A' for Active; 'I' for Inactive)
REMARK    1  A    between atoms: N_7  and  C_9 
REMARK    2  A    between atoms: C_9  and  C_10 
REMARK    3  A    between atoms: C_13  and  C_14 
ROOT
HETATM    1  C   UNL     1     -10.125  -0.086 -32.765  1.00  0.00     0.269 C 
HETATM    2  N   UNL     1      -8.690   0.177 -33.176  1.00  0.00    -0.074 N 
HETATM    3  H   UNL     1      -8.248  -0.753 -33.186  1.00  0.00     0.279 HD
HETATM    4  C   UNL     1      -7.981   1.070 -32.187  1.00  0.00     0.245 C 
HETATM    5  C   UNL     1      -6.469   1.240 -32.536  1.00  0.00     0.008 C 
HETATM    6  C   UNL     1      -5.890   2.305 -31.552  1.00  0.00     0.246 C 
HETATM    7  N   UNL     1      -4.379   2.361 -31.492  1.00  0.00    -0.063 N 
HETATM    8  H   UNL     1      -4.183   2.880 -30.617  1.00  0.00     0.280 HD
HETATM    9  C   UNL     1      -3.719   1.024 -31.293  1.00  0.00     0.235 C 
HETATM   10  C   UNL     1      -4.200   0.042 -32.347  1.00  0.00     0.029 C 
HETATM   11  C   UNL     1      -5.723  -0.102 -32.327  1.00  0.00     0.014 C 
HETATM   12  C   UNL     1      -6.375   1.720 -34.008  1.00  0.00     0.014 C 
HETATM   13  C   UNL     1      -7.180   0.870 -34.996  1.00  0.00     0.029 C 
HETATM   14  C   UNL     1      -8.634   0.716 -34.586  1.00  0.00     0.234 C 
ENDROOT
BRANCH   7  15
HETATM   15  C   UNL     1      -3.665   3.266 -32.510  1.00  0.00     0.323 C 
BRANCH  15  16
HETATM   16  C   UNL     1      -2.726   4.221 -31.871  1.00  0.00     0.199 A 
HETATM   17  O   UNL     1      -1.405   4.076 -32.140  1.00  0.00    -0.194 OA
HETATM   18  N   UNL     1      -0.758   5.094 -31.453  1.00  0.00    -0.106 NA
HETATM   19  C   UNL     1      -1.744   5.744 -30.810  1.00  0.00     0.189 A 
HETATM   20  N   UNL     1      -3.007   5.249 -31.102  1.00  0.00    -0.202 NA
BRANCH  19  21
HETATM   21  C   UNL     1      -1.531   6.865 -29.902  1.00  0.00     0.016 A 
HETATM   22  C   UNL     1      -0.244   7.149 -29.423  1.00  0.00     0.039 A 
HETATM   23  C   UNL     1      -0.034   8.231 -28.566  1.00  0.00     0.035 A 
HETATM   24 CL   UNL     1       1.554   8.555 -27.990  1.00  0.00    -0.084 Cl
HETATM   25  C   UNL     1      -1.095   9.043 -28.176  1.00  0.00     0.024 A 
HETATM   26  C   UNL     1      -2.378   8.772 -28.647  1.00  0.00     0.003 A 
HETATM   27  C   UNL     1      -2.596   7.690 -29.504  1.00  0.00     0.015 A 
ENDBRANCH  19  21
ENDBRANCH  15  16
ENDBRANCH   7  15
TORSDOF 3
ENDMDL
MODEL 9
REMARK VINA RESULT:      -7.8      2.472      3.373
REMARK  3 active torsions:
REMARK  status: ('A' for Active; 'I' for Inactive)
REMARK    1  A    between atoms: N_7  and  C_9 
REMARK    2  A    between atoms: C_9  and  C_10 
REMARK    3  A    between atoms: C_13  and  C_14 
ROOT
HETATM    1  C   UNL     1      -7.111   7.886 -27.896  1.00  0.00     0.269 C 
HETATM    2  N   UNL     1      -7.205   6.997 -29.121  1.00  0.00    -0.074 N 
HETATM    3  H   UNL     1      -8.193   6.708 -29.157  1.00  0.00     0.279 HD
HETATM    4  C   UNL     1      -6.320   5.780 -28.995  1.00  0.00     0.245 C 
HETATM    5  C   UNL     1      -6.509   4.798 -30.194  1.00  0.00     0.008 C 
HETATM    6  C   UNL     1      -5.434   3.676 -30.039  1.00  0.00     0.246 C 
HETATM    7  N   UNL     1      -5.666   2.449 -30.893  1.00  0.00    -0.063 N 
HETATM    8  H   UNL     1      -5.061   1.727 -30.461  1.00  0.00     0.280 HD
HETATM    9  C   UNL     1      -7.056   1.883 -30.795  1.00  0.00     0.235 C 
HETATM   10  C   UNL     1      -8.082   2.966 -31.082  1.00  0.00     0.029 C 
HETATM   11  C   UNL     1      -7.919   4.158 -30.138  1.00  0.00     0.014 C 
HETATM   12  C   UNL     1      -6.302   5.603 -31.503  1.00  0.00     0.014 C 
HETATM   13  C   UNL     1      -7.126   6.892 -31.582  1.00  0.00     0.029 C 
HETATM   14  C   UNL     1      -6.923   7.791 -30.374  1.00  0.00     0.234 C 
ENDROOT
BRANCH   7  15
HETATM   15  C   UNL     1      -5.096   2.464 -32.322  1.00  0.00     0.323 C 
BRANCH  15  16
HETATM   16  C   UNL     1      -5.529   1.295 -33.125  1.00  0.00     0.199 A 
HETATM   17  O   UNL     1      -6.458   1.507 -34.090  1.00  0.00    -0.194 OA
HETATM   18  N   UNL     1      -6.665   0.279 -34.702  1.00  0.00    -0.106 NA
HETATM   19  C   UNL     1      -5.862  -0.568 -34.035  1.00  0.00     0.189 A 
HETATM   20  N   UNL     1      -5.087   0.058 -33.069  1.00  0.00    -0.202 NA
BRANCH  19  21
HETATM   21  C   UNL     1      -5.788  -2.002 -34.292  1.00  0.00     0.016 A 
HETATM   22  C   UNL     1      -4.618  -2.713 -33.990  1.00  0.00     0.039 A 
HETATM   23  C   UNL     1      -4.549  -4.088 -34.220  1.00  0.00     0.035 A 
HETATM   24 CL   UNL     1      -3.099  -4.934 -33.843  1.00  0.00    -0.084 Cl
HETATM   25  C   UNL     1      -5.638  -4.774 -34.749  1.00  0.00     0.024 A 
HETATM   26  C   UNL     1      -6.807  -4.079 -35.053  1.00  0.00     0.003 A 
HETATM   27  C   UNL     1      -6.883  -2.702 -34.826  1.00  0.00     0.015 A 
ENDBRANCH  19  21
ENDBRANCH  15  16
ENDBRANCH   7  15
TORSDOF 3
ENDMDL
MODEL 10
REMARK VINA RESULT:      -7.8      1.840      2.697
REMARK  3 active torsions:
REMARK  status: ('A' for Active; 'I' for Inactive)
REMARK    1  A    between atoms: N_7  and  C_9 
REMARK    2  A    between atoms: C_9  and  C_10 
REMARK    3  A    between atoms: C_13  and  C_14 
ROOT
HETATM    1  C   UNL     1      -2.433   7.469 -32.371  1.00  0.00     0.269 C 
HETATM    2  N   UNL     1      -3.154   6.137 -32.447  1.00  0.00    -0.074 N 
HETATM    3  H   UNL     1      -3.058   5.846 -33.430  1.00  0.00     0.279 HD
HETATM    4  C   UNL     1      -4.616   6.273 -32.095  1.00  0.00     0.245 C 
HETATM    5  C   UNL     1      -5.390   4.933 -32.296  1.00  0.00     0.008 C 
HETATM    6  C   UNL     1      -6.835   5.153 -31.747  1.00  0.00     0.246 C 
HETATM    7  N   UNL     1      -7.840   4.100 -32.159  1.00  0.00    -0.063 N 
HETATM    8  H   UNL     1      -8.757   4.543 -31.969  1.00  0.00     0.280 HD
HETATM    9  C   UNL     1      -7.861   3.810 -33.634  1.00  0.00     0.235 C 
HETATM   10  C   UNL     1      -6.462   3.468 -34.119  1.00  0.00     0.029 C 
HETATM   11  C   UNL     1      -5.470   4.588 -33.805  1.00  0.00     0.014 C 
HETATM   12  C   UNL     1      -4.644   3.831 -31.499  1.00  0.00     0.014 C 
HETATM   13  C   UNL     1      -3.140   3.764 -31.784  1.00  0.00     0.029 C 
HETATM   14  C   UNL     1      -2.449   5.104 -31.601  1.00  0.00     0.234 C 
ENDROOT
BRANCH   7  15
HETATM   15  C   UNL     1      -7.954   2.847 -31.274  1.00  0.00     0.323 C 
BRANCH  15  16
HETATM   16  C   UNL     1      -7.801   1.586 -32.040  1.00  0.00     0.199 A 
HETATM   17  O   UNL     1      -8.915   1.055 -32.602  1.00  0.00    -0.194 OA
HETATM   18  N   UNL     1      -8.501  -0.086 -33.274  1.00  0.00    -0.106 NA
HETATM   19  C   UNL     1      -7.180  -0.156 -33.036  1.00  0.00     0.189 A 
HETATM   20  N   UNL     1      -6.699   0.921 -32.305  1.00  0.00    -0.202 NA
BRANCH  19  21
HETATM   21  C   UNL     1      -6.319  -1.239 -33.497  1.00  0.00     0.016 A 
HETATM   22  C   UNL     1      -6.853  -2.289 -34.258  1.00  0.00     0.039 A 
HETATM   23  C   UNL     1      -6.029  -3.319 -34.714  1.00  0.00     0.035 A 
HETATM   24 CL   UNL     1      -6.712  -4.596 -35.643  1.00  0.00    -0.084 Cl
HETATM   25  C   UNL     1      -4.668  -3.320 -34.425  1.00  0.00     0.024 A 
HETATM   26  C   UNL     1      -4.125  -2.281 -33.671  1.00  0.00     0.003 A 
HETATM   27  C   UNL     1      -4.944  -1.246 -33.209  1.00  0.00     0.015 A 
ENDBRANCH  19  21
ENDBRANCH  15  16
ENDBRANCH   7  15
TORSDOF 3
ENDMDL
