MODEL 1
REMARK VINA RESULT:      -9.2      0.000      0.000
REMARK  7 active torsions:
REMARK  status: ('A' for Active; 'I' for Inactive)
REMARK    1  A    between atoms: C_2  and  C_3 
REMARK    2  A    between atoms: C_4  and  O_5 
REMARK    3  A    between atoms: N_10  and  N_11 
REMARK       I    between atoms: N_11  and  C_12 
REMARK    4  A    between atoms: C_12  and  C_13 
REMARK    5  A    between atoms: C_16  and  C_17 
REMARK    6  A    between atoms: C_17  and  S_18 
REMARK    7  A    between atoms: S_18  and  C_19 
ROOT
HETATM    1  C   UNL     1      -4.552   5.054 -31.545  1.00  0.00     0.033 A 
HETATM    2  C   UNL     1      -5.217   3.920 -31.068  1.00  0.00     0.017 A 
HETATM    3  C   UNL     1      -5.836   3.040 -31.960  1.00  0.00     0.009 A 
HETATM    4  C   UNL     1      -5.806   3.289 -33.340  1.00  0.00    -0.048 A 
HETATM    5  C   UNL     1      -5.180   4.454 -33.808  1.00  0.00     0.009 A 
HETATM    6  C   UNL     1      -4.557   5.334 -32.917  1.00  0.00     0.017 A 
ENDROOT
BRANCH   1   7
HETATM    7  C   UNL     1      -3.849   5.925 -30.564  1.00  0.00     0.271 C 
HETATM    8  N   UNL     1      -2.486   5.693 -30.439  1.00  0.00    -0.243 N 
HETATM    9  H   UNL     1      -2.054   4.923 -30.931  1.00  0.00     0.192 HD
HETATM   10  O   UNL     1      -4.488   6.734 -29.898  1.00  0.00    -0.266 OA
BRANCH   8  11
HETATM   11  N   UNL     1      -1.773   6.391 -29.516  1.00  0.00    -0.176 NA
HETATM   12  C   UNL     1      -0.486   6.216 -29.427  1.00  0.00     0.064 C 
HETATM   13  C   UNL     1       0.298   5.251 -30.292  1.00  0.00     0.073 C 
BRANCH  12  14
HETATM   14  C   UNL     1       0.245   7.001 -28.383  1.00  0.00     0.023 A 
HETATM   15  C   UNL     1       0.123   6.660 -27.028  1.00  0.00     0.077 A 
HETATM   16  C   UNL     1       0.836   7.356 -26.053  1.00  0.00     0.037 A 
HETATM   17  C   UNL     1       1.658   8.420 -26.419  1.00  0.00     0.003 A 
HETATM   18  C   UNL     1       1.762   8.791 -27.759  1.00  0.00     0.001 A 
HETATM   19  C   UNL     1       1.056   8.087 -28.740  1.00  0.00     0.016 A 
BRANCH  15  20
HETATM   20  O   UNL     1      -0.677   5.644 -26.576  1.00  0.00    -0.360 OA
HETATM   21  H   UNL     1      -1.125   5.239 -27.356  1.00  0.00     0.217 HD
ENDBRANCH  15  20
ENDBRANCH  12  14
ENDBRANCH   8  11
ENDBRANCH   1   7
BRANCH   4  22
HETATM   22  C   UNL     1      -6.436   2.317 -34.309  1.00  0.00     0.121 C 
BRANCH  22  23
HETATM   23  S   UNL     1      -7.617   1.204 -33.493  1.00  0.00    -0.087 SA
BRANCH  23  24
HETATM   24  C   UNL     1      -6.828  -0.303 -33.767  1.00  0.00     0.167 A 
HETATM   25  N   UNL     1      -5.569  -0.592 -33.550  1.00  0.00    -0.223 NA
HETATM   26  C   UNL     1      -5.442  -1.907 -33.930  1.00  0.00     0.086 A 
HETATM   27  C   UNL     1      -6.658  -2.417 -34.380  1.00  0.00     0.063 A 
HETATM   28  C   UNL     1      -4.313  -2.738 -33.918  1.00  0.00     0.034 A 
HETATM   29  N   UNL     1      -7.527  -1.362 -34.265  1.00  0.00    -0.333 N 
HETATM   30  C   UNL     1      -6.819  -3.731 -34.825  1.00  0.00     0.032 A 
HETATM   31  H   UNL     1      -8.508  -1.356 -34.500  1.00  0.00     0.168 HD
HETATM   32  C   UNL     1      -5.680  -4.544 -34.805  1.00  0.00     0.002 A 
HETATM   33  C   UNL     1      -4.447  -4.059 -34.361  1.00  0.00     0.002 A 
ENDBRANCH  23  24
ENDBRANCH  22  23
ENDBRANCH   4  22
TORSDOF 7
ENDMDL
MODEL 2
REMARK VINA RESULT:      -8.8      2.918     10.837
REMARK  7 active torsions:
REMARK  status: ('A' for Active; 'I' for Inactive)
REMARK    1  A    between atoms: C_2  and  C_3 
REMARK    2  A    between atoms: C_4  and  O_5 
REMARK    3  A    between atoms: N_10  and  N_11 
REMARK       I    between atoms: N_11  and  C_12 
REMARK    4  A    between atoms: C_12  and  C_13 
REMARK    5  A    between atoms: C_16  and  C_17 
REMARK    6  A    between atoms: C_17  and  S_18 
REMARK    7  A    between atoms: S_18  and  C_19 
ROOT
HETATM    1  C   UNL     1      -4.848   2.882 -31.345  1.00  0.00     0.033 A 
HETATM    2  C   UNL     1      -4.364   3.998 -32.035  1.00  0.00     0.017 A 
HETATM    3  C   UNL     1      -4.527   5.280 -31.504  1.00  0.00     0.009 A 
HETATM    4  C   UNL     1      -5.186   5.462 -30.278  1.00  0.00    -0.048 A 
HETATM    5  C   UNL     1      -5.712   4.343 -29.616  1.00  0.00     0.009 A 
HETATM    6  C   UNL     1      -5.547   3.060 -30.144  1.00  0.00     0.017 A 
ENDROOT
BRANCH   1   7
HETATM    7  C   UNL     1      -4.590   1.532 -31.917  1.00  0.00     0.271 C 
HETATM    8  N   UNL     1      -5.711   0.727 -32.058  1.00  0.00    -0.243 N 
HETATM    9  H   UNL     1      -6.607   1.037 -31.708  1.00  0.00     0.192 HD
HETATM   10  O   UNL     1      -3.440   1.187 -32.172  1.00  0.00    -0.266 OA
BRANCH   8  11
HETATM   11  N   UNL     1      -5.563  -0.548 -32.506  1.00  0.00    -0.176 NA
HETATM   12  C   UNL     1      -5.986  -0.868 -33.695  1.00  0.00     0.064 C 
HETATM   13  C   UNL     1      -6.663   0.102 -34.641  1.00  0.00     0.073 C 
BRANCH  12  14
HETATM   14  C   UNL     1      -5.810  -2.289 -34.130  1.00  0.00     0.023 A 
HETATM   15  C   UNL     1      -4.610  -2.966 -33.865  1.00  0.00     0.077 A 
HETATM   16  C   UNL     1      -4.454  -4.303 -34.224  1.00  0.00     0.037 A 
HETATM   17  C   UNL     1      -5.486  -4.972 -34.880  1.00  0.00     0.003 A 
HETATM   18  C   UNL     1      -6.670  -4.302 -35.181  1.00  0.00     0.001 A 
HETATM   19  C   UNL     1      -6.833  -2.963 -34.810  1.00  0.00     0.016 A 
BRANCH  15  20
HETATM   20  O   UNL     1      -3.538  -2.382 -33.244  1.00  0.00    -0.360 OA
HETATM   21  H   UNL     1      -2.779  -2.390 -33.873  1.00  0.00     0.217 HD
ENDBRANCH  15  20
ENDBRANCH  12  14
ENDBRANCH   8  11
ENDBRANCH   1   7
BRANCH   4  22
HETATM   22  C   UNL     1      -5.324   6.842 -29.680  1.00  0.00     0.121 C 
BRANCH  22  23
HETATM   23  S   UNL     1      -5.033   6.844 -27.888  1.00  0.00    -0.087 SA
BRANCH  23  24
HETATM   24  C   UNL     1      -3.329   7.102 -27.874  1.00  0.00     0.167 A 
HETATM   25  N   UNL     1      -2.615   7.741 -28.768  1.00  0.00    -0.223 NA
HETATM   26  C   UNL     1      -1.324   7.663 -28.303  1.00  0.00     0.086 A 
HETATM   27  C   UNL     1      -1.267   6.965 -27.098  1.00  0.00     0.063 A 
HETATM   28  C   UNL     1      -0.140   8.169 -28.857  1.00  0.00     0.034 A 
HETATM   29  N   UNL     1      -2.570   6.616 -26.851  1.00  0.00    -0.333 N 
HETATM   30  C   UNL     1      -0.079   6.739 -26.399  1.00  0.00     0.032 A 
HETATM   31  H   UNL     1      -2.921   6.098 -26.060  1.00  0.00     0.168 HD
HETATM   32  C   UNL     1       1.091   7.252 -26.970  1.00  0.00     0.002 A 
HETATM   33  C   UNL     1       1.066   7.954 -28.178  1.00  0.00     0.002 A 
ENDBRANCH  23  24
ENDBRANCH  22  23
ENDBRANCH   4  22
TORSDOF 7
ENDMDL
MODEL 3
REMARK VINA RESULT:      -8.7      2.926     10.268
REMARK  7 active torsions:
REMARK  status: ('A' for Active; 'I' for Inactive)
REMARK    1  A    between atoms: C_2  and  C_3 
REMARK    2  A    between atoms: C_4  and  O_5 
REMARK    3  A    between atoms: N_10  and  N_11 
REMARK       I    between atoms: N_11  and  C_12 
REMARK    4  A    between atoms: C_12  and  C_13 
REMARK    5  A    between atoms: C_16  and  C_17 
REMARK    6  A    between atoms: C_17  and  S_18 
REMARK    7  A    between atoms: S_18  and  C_19 
ROOT
HETATM    1  C   UNL     1      -5.186   2.993 -31.829  1.00  0.00     0.033 A 
HETATM    2  C   UNL     1      -4.979   3.308 -30.482  1.00  0.00     0.017 A 
HETATM    3  C   UNL     1      -5.346   4.562 -29.988  1.00  0.00     0.009 A 
HETATM    4  C   UNL     1      -5.917   5.522 -30.837  1.00  0.00    -0.048 A 
HETATM    5  C   UNL     1      -6.075   5.217 -32.198  1.00  0.00     0.009 A 
HETATM    6  C   UNL     1      -5.712   3.962 -32.693  1.00  0.00     0.017 A 
ENDROOT
BRANCH   1   7
HETATM    7  C   UNL     1      -4.843   1.621 -32.294  1.00  0.00     0.271 C 
HETATM    8  N   UNL     1      -5.918   0.750 -32.404  1.00  0.00    -0.243 N 
HETATM    9  H   UNL     1      -6.838   1.036 -32.100  1.00  0.00     0.192 HD
HETATM   10  O   UNL     1      -3.670   1.321 -32.496  1.00  0.00    -0.266 OA
BRANCH   8  11
HETATM   11  N   UNL     1      -5.692  -0.544 -32.754  1.00  0.00    -0.176 NA
HETATM   12  C   UNL     1      -6.066  -0.971 -33.926  1.00  0.00     0.064 C 
HETATM   13  C   UNL     1      -6.769  -0.109 -34.955  1.00  0.00     0.073 C 
BRANCH  12  14
HETATM   14  C   UNL     1      -5.805  -2.408 -34.252  1.00  0.00     0.023 A 
HETATM   15  C   UNL     1      -4.586  -3.003 -33.896  1.00  0.00     0.077 A 
HETATM   16  C   UNL     1      -4.351  -4.352 -34.154  1.00  0.00     0.037 A 
HETATM   17  C   UNL     1      -5.323  -5.117 -34.797  1.00  0.00     0.003 A 
HETATM   18  C   UNL     1      -6.526  -4.530 -35.187  1.00  0.00     0.001 A 
HETATM   19  C   UNL     1      -6.768  -3.179 -34.919  1.00  0.00     0.016 A 
BRANCH  15  20
HETATM   20  O   UNL     1      -3.568  -2.323 -33.280  1.00  0.00    -0.360 OA
HETATM   21  H   UNL     1      -2.769  -2.901 -33.285  1.00  0.00     0.217 HD
ENDBRANCH  15  20
ENDBRANCH  12  14
ENDBRANCH   8  11
ENDBRANCH   1   7
BRANCH   4  22
HETATM   22  C   UNL     1      -6.355   6.862 -30.297  1.00  0.00     0.121 C 
BRANCH  22  23
HETATM   23  S   UNL     1      -5.578   8.245 -31.180  1.00  0.00    -0.087 SA
BRANCH  23  24
HETATM   24  C   UNL     1      -3.919   7.871 -30.898  1.00  0.00     0.167 A 
HETATM   25  N   UNL     1      -3.302   7.816 -29.743  1.00  0.00    -0.223 NA
HETATM   26  C   UNL     1      -2.005   7.485 -30.057  1.00  0.00     0.086 A 
HETATM   27  C   UNL     1      -1.846   7.333 -31.433  1.00  0.00     0.063 A 
HETATM   28  C   UNL     1      -0.901   7.294 -29.215  1.00  0.00     0.034 A 
HETATM   29  N   UNL     1      -3.092   7.590 -31.945  1.00  0.00    -0.333 N 
HETATM   30  C   UNL     1      -0.630   6.993 -32.030  1.00  0.00     0.032 A 
HETATM   31  H   UNL     1      -3.365   7.575 -32.916  1.00  0.00     0.168 HD
HETATM   32  C   UNL     1       0.459   6.807 -31.172  1.00  0.00     0.002 A 
HETATM   33  C   UNL     1       0.330   6.955 -29.788  1.00  0.00     0.002 A 
ENDBRANCH  23  24
ENDBRANCH  22  23
ENDBRANCH   4  22
TORSDOF 7
ENDMDL
MODEL 4
REMARK VINA RESULT:      -8.7      6.390      9.773
REMARK  7 active torsions:
REMARK  status: ('A' for Active; 'I' for Inactive)
REMARK    1  A    between atoms: C_2  and  C_3 
REMARK    2  A    between atoms: C_4  and  O_5 
REMARK    3  A    between atoms: N_10  and  N_11 
REMARK       I    between atoms: N_11  and  C_12 
REMARK    4  A    between atoms: C_12  and  C_13 
REMARK    5  A    between atoms: C_16  and  C_17 
REMARK    6  A    between atoms: C_17  and  S_18 
REMARK    7  A    between atoms: S_18  and  C_19 
ROOT
HETATM    1  C   UNL     1      -8.215   2.681 -31.435  1.00  0.00     0.033 A 
HETATM    2  C   UNL     1      -9.341   2.607 -30.609  1.00  0.00     0.017 A 
HETATM    3  C   UNL     1     -10.178   3.716 -30.461  1.00  0.00     0.009 A 
HETATM    4  C   UNL     1      -9.894   4.916 -31.129  1.00  0.00    -0.048 A 
HETATM    5  C   UNL     1      -8.735   4.999 -31.915  1.00  0.00     0.009 A 
HETATM    6  C   UNL     1      -7.898   3.889 -32.068  1.00  0.00     0.017 A 
ENDROOT
BRANCH   1   7
HETATM    7  C   UNL     1      -7.391   1.454 -31.616  1.00  0.00     0.271 C 
HETATM    8  N   UNL     1      -7.743   0.662 -32.700  1.00  0.00    -0.243 N 
HETATM    9  H   UNL     1      -8.559   0.889 -33.252  1.00  0.00     0.192 HD
HETATM   10  O   UNL     1      -6.513   1.182 -30.802  1.00  0.00    -0.266 OA
BRANCH   8  11
HETATM   11  N   UNL     1      -7.093  -0.514 -32.904  1.00  0.00    -0.176 NA
HETATM   12  C   UNL     1      -6.867  -0.924 -34.119  1.00  0.00     0.064 C 
HETATM   13  C   UNL     1      -7.301  -0.172 -35.361  1.00  0.00     0.073 C 
BRANCH  12  14
HETATM   14  C   UNL     1      -6.160  -2.233 -34.284  1.00  0.00     0.023 A 
HETATM   15  C   UNL     1      -4.796  -2.343 -33.978  1.00  0.00     0.077 A 
HETATM   16  C   UNL     1      -4.140  -3.568 -34.084  1.00  0.00     0.037 A 
HETATM   17  C   UNL     1      -4.834  -4.693 -34.526  1.00  0.00     0.003 A 
HETATM   18  C   UNL     1      -6.181  -4.590 -34.868  1.00  0.00     0.001 A 
HETATM   19  C   UNL     1      -6.844  -3.364 -34.751  1.00  0.00     0.016 A 
BRANCH  15  20
HETATM   20  O   UNL     1      -4.032  -1.287 -33.556  1.00  0.00    -0.360 OA
HETATM   21  H   UNL     1      -3.770  -1.455 -32.620  1.00  0.00     0.217 HD
ENDBRANCH  15  20
ENDBRANCH  12  14
ENDBRANCH   8  11
ENDBRANCH   1   7
BRANCH   4  22
HETATM   22  C   UNL     1     -10.821   6.101 -31.005  1.00  0.00     0.121 C 
BRANCH  22  23
HETATM   23  S   UNL     1     -11.654   6.487 -32.572  1.00  0.00    -0.087 SA
BRANCH  23  24
HETATM   24  C   UNL     1     -12.413   4.969 -32.874  1.00  0.00     0.167 A 
HETATM   25  N   UNL     1     -13.393   4.422 -32.198  1.00  0.00    -0.223 NA
HETATM   26  C   UNL     1     -13.629   3.226 -32.833  1.00  0.00     0.086 A 
HETATM   27  C   UNL     1     -12.773   3.058 -33.919  1.00  0.00     0.063 A 
HETATM   28  C   UNL     1     -14.565   2.225 -32.538  1.00  0.00     0.034 A 
HETATM   29  N   UNL     1     -12.003   4.194 -33.918  1.00  0.00    -0.333 N 
HETATM   30  C   UNL     1     -12.797   1.933 -34.746  1.00  0.00     0.032 A 
HETATM   31  H   UNL     1     -11.267   4.428 -34.565  1.00  0.00     0.168 HD
HETATM   32  C   UNL     1     -13.739   0.946 -34.434  1.00  0.00     0.002 A 
HETATM   33  C   UNL     1     -14.609   1.085 -33.350  1.00  0.00     0.002 A 
ENDBRANCH  23  24
ENDBRANCH  22  23
ENDBRANCH   4  22
TORSDOF 7
ENDMDL
MODEL 5
REMARK VINA RESULT:      -8.4      3.031     11.408
REMARK  7 active torsions:
REMARK  status: ('A' for Active; 'I' for Inactive)
REMARK    1  A    between atoms: C_2  and  C_3 
REMARK    2  A    between atoms: C_4  and  O_5 
REMARK    3  A    between atoms: N_10  and  N_11 
REMARK       I    between atoms: N_11  and  C_12 
REMARK    4  A    between atoms: C_12  and  C_13 
REMARK    5  A    between atoms: C_16  and  C_17 
REMARK    6  A    between atoms: C_17  and  S_18 
REMARK    7  A    between atoms: S_18  and  C_19 
ROOT
HETATM    1  C   UNL     1      -4.239   3.244 -32.221  1.00  0.00     0.033 A 
HETATM    2  C   UNL     1      -4.929   4.059 -31.319  1.00  0.00     0.017 A 
HETATM    3  C   UNL     1      -4.319   5.203 -30.796  1.00  0.00     0.009 A 
HETATM    4  C   UNL     1      -3.007   5.540 -31.163  1.00  0.00    -0.048 A 
HETATM    5  C   UNL     1      -2.304   4.690 -32.030  1.00  0.00     0.009 A 
HETATM    6  C   UNL     1      -2.913   3.548 -32.557  1.00  0.00     0.017 A 
ENDROOT
BRANCH   1   7
HETATM    7  C   UNL     1      -4.953   2.075 -32.805  1.00  0.00     0.271 C 
HETATM    8  N   UNL     1      -4.230   0.890 -32.823  1.00  0.00    -0.243 N 
HETATM    9  H   UNL     1      -3.262   0.881 -32.532  1.00  0.00     0.192 HD
HETATM   10  O   UNL     1      -6.078   2.218 -33.273  1.00  0.00    -0.266 OA
BRANCH   8  11
HETATM   11  N   UNL     1      -4.774  -0.213 -33.400  1.00  0.00    -0.176 NA
HETATM   12  C   UNL     1      -4.328  -1.395 -33.081  1.00  0.00     0.064 C 
HETATM   13  C   UNL     1      -3.205  -1.637 -32.094  1.00  0.00     0.073 C 
BRANCH  12  14
HETATM   14  C   UNL     1      -4.954  -2.573 -33.759  1.00  0.00     0.023 A 
HETATM   15  C   UNL     1      -6.285  -2.510 -34.200  1.00  0.00     0.077 A 
HETATM   16  C   UNL     1      -6.862  -3.585 -34.873  1.00  0.00     0.037 A 
HETATM   17  C   UNL     1      -6.125  -4.748 -35.088  1.00  0.00     0.003 A 
HETATM   18  C   UNL     1      -4.813  -4.837 -34.624  1.00  0.00     0.001 A 
HETATM   19  C   UNL     1      -4.228  -3.755 -33.959  1.00  0.00     0.016 A 
BRANCH  15  20
HETATM   20  O   UNL     1      -7.088  -1.416 -34.014  1.00  0.00    -0.360 OA
HETATM   21  H   UNL     1      -6.510  -0.619 -33.962  1.00  0.00     0.217 HD
ENDBRANCH  15  20
ENDBRANCH  12  14
ENDBRANCH   8  11
ENDBRANCH   1   7
BRANCH   4  22
HETATM   22  C   UNL     1      -2.363   6.799 -30.634  1.00  0.00     0.121 C 
BRANCH  22  23
HETATM   23  S   UNL     1      -3.194   7.422 -29.145  1.00  0.00    -0.087 SA
BRANCH  23  24
HETATM   24  C   UNL     1      -1.821   7.960 -28.253  1.00  0.00     0.167 A 
HETATM   25  N   UNL     1      -1.588   9.170 -27.807  1.00  0.00    -0.223 NA
HETATM   26  C   UNL     1      -0.372   9.078 -27.173  1.00  0.00     0.086 A 
HETATM   27  C   UNL     1       0.131   7.781 -27.237  1.00  0.00     0.063 A 
HETATM   28  C   UNL     1       0.370  10.068 -26.513  1.00  0.00     0.034 A 
HETATM   29  N   UNL     1      -0.822   7.087 -27.940  1.00  0.00    -0.333 N 
HETATM   30  C   UNL     1       1.350   7.402 -26.671  1.00  0.00     0.032 A 
HETATM   31  H   UNL     1      -0.803   6.110 -28.186  1.00  0.00     0.168 HD
HETATM   32  C   UNL     1       2.075   8.405 -26.017  1.00  0.00     0.002 A 
HETATM   33  C   UNL     1       1.598   9.716 -25.938  1.00  0.00     0.002 A 
ENDBRANCH  23  24
ENDBRANCH  22  23
ENDBRANCH   4  22
TORSDOF 7
ENDMDL
MODEL 6
REMARK VINA RESULT:      -8.2      3.952      9.683
REMARK  7 active torsions:
REMARK  status: ('A' for Active; 'I' for Inactive)
REMARK    1  A    between atoms: C_2  and  C_3 
REMARK    2  A    between atoms: C_4  and  O_5 
REMARK    3  A    between atoms: N_10  and  N_11 
REMARK       I    between atoms: N_11  and  C_12 
REMARK    4  A    between atoms: C_12  and  C_13 
REMARK    5  A    between atoms: C_16  and  C_17 
REMARK    6  A    between atoms: C_17  and  S_18 
REMARK    7  A    between atoms: S_18  and  C_19 
ROOT
HETATM    1  C   UNL     1      -6.704   2.929 -31.510  1.00  0.00     0.033 A 
HETATM    2  C   UNL     1      -6.632   3.076 -30.121  1.00  0.00     0.017 A 
HETATM    3  C   UNL     1      -6.595   4.352 -29.550  1.00  0.00     0.009 A 
HETATM    4  C   UNL     1      -6.620   5.495 -30.363  1.00  0.00    -0.048 A 
HETATM    5  C   UNL     1      -6.642   5.339 -31.757  1.00  0.00     0.009 A 
HETATM    6  C   UNL     1      -6.683   4.064 -32.330  1.00  0.00     0.017 A 
ENDROOT
BRANCH   1   7
HETATM    7  C   UNL     1      -6.811   1.553 -32.069  1.00  0.00     0.271 C 
HETATM    8  N   UNL     1      -5.750   0.710 -31.770  1.00  0.00    -0.243 N 
HETATM    9  H   UNL     1      -4.941   1.066 -31.279  1.00  0.00     0.192 HD
HETATM   10  O   UNL     1      -7.764   1.257 -32.784  1.00  0.00    -0.266 OA
BRANCH   8  11
HETATM   11  N   UNL     1      -5.726  -0.543 -32.296  1.00  0.00    -0.176 NA
HETATM   12  C   UNL     1      -4.652  -0.971 -32.895  1.00  0.00     0.064 C 
HETATM   13  C   UNL     1      -3.393  -0.145 -33.067  1.00  0.00     0.073 C 
BRANCH  12  14
HETATM   14  C   UNL     1      -4.687  -2.353 -33.468  1.00  0.00     0.023 A 
HETATM   15  C   UNL     1      -5.676  -2.708 -34.397  1.00  0.00     0.077 A 
HETATM   16  C   UNL     1      -5.689  -3.978 -34.970  1.00  0.00     0.037 A 
HETATM   17  C   UNL     1      -4.730  -4.919 -34.599  1.00  0.00     0.003 A 
HETATM   18  C   UNL     1      -3.763  -4.591 -33.651  1.00  0.00     0.001 A 
HETATM   19  C   UNL     1      -3.740  -3.313 -33.084  1.00  0.00     0.016 A 
BRANCH  15  20
HETATM   20  O   UNL     1      -6.668  -1.855 -34.803  1.00  0.00    -0.360 OA
HETATM   21  H   UNL     1      -7.535  -2.254 -34.554  1.00  0.00     0.217 HD
ENDBRANCH  15  20
ENDBRANCH  12  14
ENDBRANCH   8  11
ENDBRANCH   1   7
BRANCH   4  22
HETATM   22  C   UNL     1      -6.625   6.873 -29.747  1.00  0.00     0.121 C 
BRANCH  22  23
HETATM   23  S   UNL     1      -5.087   7.229 -28.849  1.00  0.00    -0.087 SA
BRANCH  23  24
HETATM   24  C   UNL     1      -3.948   6.971 -30.117  1.00  0.00     0.167 A 
HETATM   25  N   UNL     1      -3.737   7.733 -31.161  1.00  0.00    -0.223 NA
HETATM   26  C   UNL     1      -2.742   7.094 -31.863  1.00  0.00     0.086 A 
HETATM   27  C   UNL     1      -2.346   5.924 -31.217  1.00  0.00     0.063 A 
HETATM   28  C   UNL     1      -2.121   7.455 -33.066  1.00  0.00     0.034 A 
HETATM   29  N   UNL     1      -3.141   5.873 -30.100  1.00  0.00    -0.333 N 
HETATM   30  C   UNL     1      -1.348   5.079 -31.707  1.00  0.00     0.032 A 
HETATM   31  H   UNL     1      -3.139   5.161 -29.386  1.00  0.00     0.168 HD
HETATM   32  C   UNL     1      -0.741   5.458 -32.910  1.00  0.00     0.002 A 
HETATM   33  C   UNL     1      -1.119   6.624 -33.581  1.00  0.00     0.002 A 
ENDBRANCH  23  24
ENDBRANCH  22  23
ENDBRANCH   4  22
TORSDOF 7
ENDMDL
MODEL 7
REMARK VINA RESULT:      -8.2      6.367     11.366
REMARK  7 active torsions:
REMARK  status: ('A' for Active; 'I' for Inactive)
REMARK    1  A    between atoms: C_2  and  C_3 
REMARK    2  A    between atoms: C_4  and  O_5 
REMARK    3  A    between atoms: N_10  and  N_11 
REMARK       I    between atoms: N_11  and  C_12 
REMARK    4  A    between atoms: C_12  and  C_13 
REMARK    5  A    between atoms: C_16  and  C_17 
REMARK    6  A    between atoms: C_17  and  S_18 
REMARK    7  A    between atoms: S_18  and  C_19 
ROOT
HETATM    1  C   UNL     1      -9.520   1.308 -33.077  1.00  0.00     0.033 A 
HETATM    2  C   UNL     1      -8.731   2.449 -33.252  1.00  0.00     0.017 A 
HETATM    3  C   UNL     1      -7.337   2.356 -33.199  1.00  0.00     0.009 A 
HETATM    4  C   UNL     1      -6.716   1.122 -32.960  1.00  0.00    -0.048 A 
HETATM    5  C   UNL     1      -7.515  -0.010 -32.735  1.00  0.00     0.009 A 
HETATM    6  C   UNL     1      -8.909   0.081 -32.792  1.00  0.00     0.017 A 
ENDROOT
BRANCH   1   7
HETATM    7  C   UNL     1     -10.997   1.443 -33.210  1.00  0.00     0.271 C 
HETATM    8  N   UNL     1     -11.512   2.677 -32.839  1.00  0.00    -0.243 N 
HETATM    9  H   UNL     1     -10.909   3.378 -32.431  1.00  0.00     0.192 HD
HETATM   10  O   UNL     1     -11.667   0.481 -33.573  1.00  0.00    -0.266 OA
BRANCH   8  11
HETATM   11  N   UNL     1     -12.857   2.870 -32.860  1.00  0.00    -0.176 NA
HETATM   12  C   UNL     1     -13.425   3.558 -31.911  1.00  0.00     0.064 C 
HETATM   13  C   UNL     1     -12.677   4.166 -30.743  1.00  0.00     0.073 C 
BRANCH  12  14
HETATM   14  C   UNL     1     -14.911   3.726 -31.978  1.00  0.00     0.023 A 
HETATM   15  C   UNL     1     -15.750   2.602 -31.986  1.00  0.00     0.077 A 
HETATM   16  C   UNL     1     -17.135   2.750 -32.001  1.00  0.00     0.037 A 
HETATM   17  C   UNL     1     -17.699   4.024 -32.038  1.00  0.00     0.003 A 
HETATM   18  C   UNL     1     -16.877   5.149 -32.066  1.00  0.00     0.001 A 
HETATM   19  C   UNL     1     -15.486   5.003 -32.038  1.00  0.00     0.016 A 
BRANCH  15  20
HETATM   20  O   UNL     1     -15.283   1.315 -31.972  1.00  0.00    -0.360 OA
HETATM   21  H   UNL     1     -15.159   1.025 -32.906  1.00  0.00     0.217 HD
ENDBRANCH  15  20
ENDBRANCH  12  14
ENDBRANCH   8  11
ENDBRANCH   1   7
BRANCH   4  22
HETATM   22  C   UNL     1      -5.210   1.011 -32.946  1.00  0.00     0.121 C 
BRANCH  22  23
HETATM   23  S   UNL     1      -4.493   1.602 -31.386  1.00  0.00    -0.087 SA
BRANCH  23  24
HETATM   24  C   UNL     1      -3.596   2.951 -31.975  1.00  0.00     0.167 A 
HETATM   25  N   UNL     1      -2.478   3.434 -31.492  1.00  0.00    -0.223 NA
HETATM   26  C   UNL     1      -2.178   4.500 -32.307  1.00  0.00     0.086 A 
HETATM   27  C   UNL     1      -3.138   4.653 -33.305  1.00  0.00     0.063 A 
HETATM   28  C   UNL     1      -1.095   5.388 -32.256  1.00  0.00     0.034 A 
HETATM   29  N   UNL     1      -4.036   3.644 -33.064  1.00  0.00    -0.333 N 
HETATM   30  C   UNL     1      -3.080   5.655 -34.276  1.00  0.00     0.032 A 
HETATM   31  H   UNL     1      -4.873   3.438 -33.587  1.00  0.00     0.168 HD
HETATM   32  C   UNL     1      -1.991   6.531 -34.208  1.00  0.00     0.002 A 
HETATM   33  C   UNL     1      -1.014   6.404 -33.216  1.00  0.00     0.002 A 
ENDBRANCH  23  24
ENDBRANCH  22  23
ENDBRANCH   4  22
TORSDOF 7
ENDMDL
MODEL 8
REMARK VINA RESULT:      -7.9      6.052     10.264
REMARK  7 active torsions:
REMARK  status: ('A' for Active; 'I' for Inactive)
REMARK    1  A    between atoms: C_2  and  C_3 
REMARK    2  A    between atoms: C_4  and  O_5 
REMARK    3  A    between atoms: N_10  and  N_11 
REMARK       I    between atoms: N_11  and  C_12 
REMARK    4  A    between atoms: C_12  and  C_13 
REMARK    5  A    between atoms: C_16  and  C_17 
REMARK    6  A    between atoms: C_17  and  S_18 
REMARK    7  A    between atoms: S_18  and  C_19 
ROOT
HETATM    1  C   UNL     1      -9.145   3.275 -31.728  1.00  0.00     0.033 A 
HETATM    2  C   UNL     1      -8.861   3.268 -33.097  1.00  0.00     0.017 A 
HETATM    3  C   UNL     1      -7.590   2.907 -33.551  1.00  0.00     0.009 A 
HETATM    4  C   UNL     1      -6.582   2.559 -32.639  1.00  0.00    -0.048 A 
HETATM    5  C   UNL     1      -6.859   2.617 -31.264  1.00  0.00     0.009 A 
HETATM    6  C   UNL     1      -8.132   2.973 -30.809  1.00  0.00     0.017 A 
ENDROOT
BRANCH   1   7
HETATM    7  C   UNL     1     -10.532   3.599 -31.296  1.00  0.00     0.271 C 
HETATM    8  N   UNL     1     -11.534   3.156 -32.148  1.00  0.00    -0.243 N 
HETATM    9  H   UNL     1     -11.297   2.724 -33.030  1.00  0.00     0.192 HD
HETATM   10  O   UNL     1     -10.716   4.263 -30.280  1.00  0.00    -0.266 OA
BRANCH   8  11
HETATM   11  N   UNL     1     -12.828   3.466 -31.872  1.00  0.00    -0.176 NA
HETATM   12  C   UNL     1     -13.783   2.952 -32.593  1.00  0.00     0.064 C 
HETATM   13  C   UNL     1     -13.551   2.015 -33.760  1.00  0.00     0.073 C 
BRANCH  12  14
HETATM   14  C   UNL     1     -15.188   3.340 -32.253  1.00  0.00     0.023 A 
HETATM   15  C   UNL     1     -15.512   4.684 -32.013  1.00  0.00     0.077 A 
HETATM   16  C   UNL     1     -16.825   5.061 -31.741  1.00  0.00     0.037 A 
HETATM   17  C   UNL     1     -17.828   4.095 -31.678  1.00  0.00     0.003 A 
HETATM   18  C   UNL     1     -17.514   2.752 -31.880  1.00  0.00     0.001 A 
HETATM   19  C   UNL     1     -16.198   2.373 -32.164  1.00  0.00     0.016 A 
BRANCH  15  20
HETATM   20  O   UNL     1     -14.588   5.696 -32.035  1.00  0.00    -0.360 OA
HETATM   21  H   UNL     1     -14.842   6.355 -31.347  1.00  0.00     0.217 HD
ENDBRANCH  15  20
ENDBRANCH  12  14
ENDBRANCH   8  11
ENDBRANCH   1   7
BRANCH   4  22
HETATM   22  C   UNL     1      -5.221   2.126 -33.128  1.00  0.00     0.121 C 
BRANCH  22  23
HETATM   23  S   UNL     1      -4.397   1.005 -31.961  1.00  0.00    -0.087 SA
BRANCH  23  24
HETATM   24  C   UNL     1      -4.679  -0.497 -32.759  1.00  0.00     0.167 A 
HETATM   25  N   UNL     1      -3.843  -1.498 -32.886  1.00  0.00    -0.223 NA
HETATM   26  C   UNL     1      -4.540  -2.444 -33.599  1.00  0.00     0.086 A 
HETATM   27  C   UNL     1      -5.826  -2.000 -33.899  1.00  0.00     0.063 A 
HETATM   28  C   UNL     1      -4.138  -3.717 -34.028  1.00  0.00     0.034 A 
HETATM   29  N   UNL     1      -5.883  -0.745 -33.348  1.00  0.00    -0.333 N 
HETATM   30  C   UNL     1      -6.753  -2.762 -34.613  1.00  0.00     0.032 A 
HETATM   31  H   UNL     1      -6.666  -0.110 -33.364  1.00  0.00     0.168 HD
HETATM   32  C   UNL     1      -6.332  -4.029 -35.032  1.00  0.00     0.002 A 
HETATM   33  C   UNL     1      -5.048  -4.502 -34.748  1.00  0.00     0.002 A 
ENDBRANCH  23  24
ENDBRANCH  22  23
ENDBRANCH   4  22
TORSDOF 7
ENDMDL
MODEL 9
REMARK VINA RESULT:      -7.8     17.815     19.156
REMARK  7 active torsions:
REMARK  status: ('A' for Active; 'I' for Inactive)
REMARK    1  A    between atoms: C_2  and  C_3 
REMARK    2  A    between atoms: C_4  and  O_5 
REMARK    3  A    between atoms: N_10  and  N_11 
REMARK       I    between atoms: N_11  and  C_12 
REMARK    4  A    between atoms: C_12  and  C_13 
REMARK    5  A    between atoms: C_16  and  C_17 
REMARK    6  A    between atoms: C_17  and  S_18 
REMARK    7  A    between atoms: S_18  and  C_19 
ROOT
HETATM    1  C   UNL     1      -6.405 -15.025 -33.905  1.00  0.00     0.033 A 
HETATM    2  C   UNL     1      -6.449 -16.037 -34.869  1.00  0.00     0.017 A 
HETATM    3  C   UNL     1      -6.948 -15.771 -36.147  1.00  0.00     0.009 A 
HETATM    4  C   UNL     1      -7.419 -14.490 -36.474  1.00  0.00    -0.048 A 
HETATM    5  C   UNL     1      -7.419 -13.493 -35.487  1.00  0.00     0.009 A 
HETATM    6  C   UNL     1      -6.916 -13.757 -34.209  1.00  0.00     0.017 A 
ENDROOT
BRANCH   1   7
HETATM    7  C   UNL     1      -5.802 -15.337 -32.580  1.00  0.00     0.271 C 
HETATM    8  N   UNL     1      -4.522 -14.838 -32.383  1.00  0.00    -0.243 N 
HETATM    9  H   UNL     1      -4.034 -14.376 -33.137  1.00  0.00     0.192 HD
HETATM   10  O   UNL     1      -6.414 -16.038 -31.781  1.00  0.00    -0.266 OA
BRANCH   8  11
HETATM   11  N   UNL     1      -3.863 -15.133 -31.231  1.00  0.00    -0.176 NA
HETATM   12  C   UNL     1      -2.952 -16.063 -31.228  1.00  0.00     0.064 C 
HETATM   13  C   UNL     1      -2.569 -16.875 -32.449  1.00  0.00     0.073 C 
BRANCH  12  14
HETATM   14  C   UNL     1      -2.269 -16.354 -29.929  1.00  0.00     0.023 A 
HETATM   15  C   UNL     1      -1.280 -15.488 -29.440  1.00  0.00     0.077 A 
HETATM   16  C   UNL     1      -0.672 -15.726 -28.210  1.00  0.00     0.037 A 
HETATM   17  C   UNL     1      -1.023 -16.851 -27.465  1.00  0.00     0.003 A 
HETATM   18  C   UNL     1      -1.979 -17.739 -27.956  1.00  0.00     0.001 A 
HETATM   19  C   UNL     1      -2.600 -17.495 -29.185  1.00  0.00     0.016 A 
BRANCH  15  20
HETATM   20  O   UNL     1      -0.859 -14.371 -30.113  1.00  0.00    -0.360 OA
HETATM   21  H   UNL     1      -0.094 -13.989 -29.621  1.00  0.00     0.217 HD
ENDBRANCH  15  20
ENDBRANCH  12  14
ENDBRANCH   8  11
ENDBRANCH   1   7
BRANCH   4  22
HETATM   22  C   UNL     1      -7.918 -14.189 -37.866  1.00  0.00     0.121 C 
BRANCH  22  23
HETATM   23  S   UNL     1      -7.417 -12.537 -38.431  1.00  0.00    -0.087 SA
BRANCH  23  24
HETATM   24  C   UNL     1      -5.748 -12.834 -38.744  1.00  0.00     0.167 A 
HETATM   25  N   UNL     1      -5.238 -13.592 -39.682  1.00  0.00    -0.223 NA
HETATM   26  C   UNL     1      -3.878 -13.498 -39.505  1.00  0.00     0.086 A 
HETATM   27  C   UNL     1      -3.569 -12.657 -38.439  1.00  0.00     0.063 A 
HETATM   28  C   UNL     1      -2.838 -14.104 -40.223  1.00  0.00     0.034 A 
HETATM   29  N   UNL     1      -4.791 -12.249 -37.969  1.00  0.00    -0.333 N 
HETATM   30  C   UNL     1      -2.261 -12.378 -38.038  1.00  0.00     0.032 A 
HETATM   31  H   UNL     1      -4.967 -11.627 -37.195  1.00  0.00     0.168 HD
HETATM   32  C   UNL     1      -1.237 -12.993 -38.768  1.00  0.00     0.002 A 
HETATM   33  C   UNL     1      -1.517 -13.843 -39.841  1.00  0.00     0.002 A 
ENDBRANCH  23  24
ENDBRANCH  22  23
ENDBRANCH   4  22
TORSDOF 7
ENDMDL
MODEL 10
REMARK VINA RESULT:      -7.6      3.342     10.817
REMARK  7 active torsions:
REMARK  status: ('A' for Active; 'I' for Inactive)
REMARK    1  A    between atoms: C_2  and  C_3 
REMARK    2  A    between atoms: C_4  and  O_5 
REMARK    3  A    between atoms: N_10  and  N_11 
REMARK       I    between atoms: N_11  and  C_12 
REMARK    4  A    between atoms: C_12  and  C_13 
REMARK    5  A    between atoms: C_16  and  C_17 
REMARK    6  A    between atoms: C_17  and  S_18 
REMARK    7  A    between atoms: S_18  and  C_19 
ROOT
HETATM    1  C   UNL     1      -5.859   2.901 -31.565  1.00  0.00     0.033 A 
HETATM    2  C   UNL     1      -5.962   3.099 -30.185  1.00  0.00     0.017 A 
HETATM    3  C   UNL     1      -6.466   4.303 -29.683  1.00  0.00     0.009 A 
HETATM    4  C   UNL     1      -6.864   5.326 -30.557  1.00  0.00    -0.048 A 
HETATM    5  C   UNL     1      -6.710   5.139 -31.939  1.00  0.00     0.009 A 
HETATM    6  C   UNL     1      -6.210   3.934 -32.443  1.00  0.00     0.017 A 
ENDROOT
BRANCH   1   7
HETATM    7  C   UNL     1      -5.381   1.578 -32.054  1.00  0.00     0.271 C 
HETATM    8  N   UNL     1      -6.373   0.626 -32.246  1.00  0.00    -0.243 N 
HETATM    9  H   UNL     1      -7.328   0.826 -31.981  1.00  0.00     0.192 HD
HETATM   10  O   UNL     1      -4.179   1.380 -32.204  1.00  0.00    -0.266 OA
BRANCH   8  11
HETATM   11  N   UNL     1      -6.025  -0.632 -32.623  1.00  0.00    -0.176 NA
HETATM   12  C   UNL     1      -6.263  -1.031 -33.839  1.00  0.00     0.064 C 
HETATM   13  C   UNL     1      -6.933  -0.174 -34.894  1.00  0.00     0.073 C 
BRANCH  12  14
HETATM   14  C   UNL     1      -5.871  -2.431 -34.195  1.00  0.00     0.023 A 
HETATM   15  C   UNL     1      -4.595  -2.913 -33.865  1.00  0.00     0.077 A 
HETATM   16  C   UNL     1      -4.238  -4.229 -34.150  1.00  0.00     0.037 A 
HETATM   17  C   UNL     1      -5.141  -5.072 -34.795  1.00  0.00     0.003 A 
HETATM   18  C   UNL     1      -6.399  -4.595 -35.160  1.00  0.00     0.001 A 
HETATM   19  C   UNL     1      -6.765  -3.278 -34.864  1.00  0.00     0.016 A 
BRANCH  15  20
HETATM   20  O   UNL     1      -3.639  -2.150 -33.249  1.00  0.00    -0.360 OA
HETATM   21  H   UNL     1      -3.961  -1.929 -32.344  1.00  0.00     0.217 HD
ENDBRANCH  15  20
ENDBRANCH  12  14
ENDBRANCH   8  11
ENDBRANCH   1   7
BRANCH   4  22
HETATM   22  C   UNL     1      -7.449   6.609 -30.018  1.00  0.00     0.121 C 
BRANCH  22  23
HETATM   23  S   UNL     1      -7.076   6.848 -28.258  1.00  0.00    -0.087 SA
BRANCH  23  24
HETATM   24  C   UNL     1      -5.512   7.562 -28.390  1.00  0.00     0.167 A 
HETATM   25  N   UNL     1      -4.357   6.995 -28.144  1.00  0.00    -0.223 NA
HETATM   26  C   UNL     1      -3.428   7.977 -28.393  1.00  0.00     0.086 A 
HETATM   27  C   UNL     1      -4.044   9.157 -28.804  1.00  0.00     0.063 A 
HETATM   28  C   UNL     1      -2.030   7.934 -28.292  1.00  0.00     0.034 A 
HETATM   29  N   UNL     1      -5.383   8.859 -28.790  1.00  0.00    -0.333 N 
HETATM   30  C   UNL     1      -3.337  10.317 -29.128  1.00  0.00     0.032 A 
HETATM   31  H   UNL     1      -6.144   9.474 -29.030  1.00  0.00     0.168 HD
HETATM   32  C   UNL     1      -1.943  10.253 -29.020  1.00  0.00     0.002 A 
HETATM   33  C   UNL     1      -1.298   9.084 -28.608  1.00  0.00     0.002 A 
ENDBRANCH  23  24
ENDBRANCH  22  23
ENDBRANCH   4  22
TORSDOF 7
ENDMDL
