MODEL 1
REMARK VINA RESULT:      -9.3      0.000      0.000
REMARK  5 active torsions:
REMARK  status: ('A' for Active; 'I' for Inactive)
REMARK    1  A    between atoms: C_5  and  C_6 
REMARK    2  A    between atoms: C_10  and  C_11 
REMARK       I    between atoms: C_11  and  N_12 
REMARK    3  A    between atoms: N_12  and  N_13 
REMARK       I    between atoms: N_13  and  C_14 
REMARK       I    between atoms: C_14  and  N_15 
REMARK    4  A    between atoms: N_15  and  C_16 
REMARK    5  A    between atoms: C_16  and  C_17 
ROOT
HETATM    1  C   UNL     1      -6.346   2.913 -29.947  1.00  0.00     0.288 C 
HETATM    2  N   UNL     1      -5.311   3.549 -29.279  1.00  0.00    -0.261 N 
HETATM    3  O   UNL     1      -7.526   3.176 -29.724  1.00  0.00    -0.264 OA
HETATM    4  H   UNL     1      -4.380   3.557 -29.681  1.00  0.00     0.190 HD
ENDROOT
BRANCH   2   5
HETATM    5  N   UNL     1      -5.659   4.671 -28.512  1.00  0.00    -0.249 N 
HETATM    6  C   UNL     1      -5.085   5.904 -28.654  1.00  0.00     0.334 C 
HETATM    7  N   UNL     1      -4.052   5.953 -29.563  1.00  0.00    -0.341 N 
HETATM    8  O   UNL     1      -5.487   6.868 -28.013  1.00  0.00    -0.246 OA
HETATM    9  H   UNL     1      -3.533   5.088 -29.579  1.00  0.00     0.164 HD
HETATM   10  H   UNL     1      -6.378   4.553 -27.800  1.00  0.00     0.192 HD
BRANCH   7  11
HETATM   11  C   UNL     1      -3.286   7.180 -29.662  1.00  0.00     0.129 C 
BRANCH  11  12
HETATM   12  C   UNL     1      -1.848   7.087 -29.133  1.00  0.00     0.004 C 
HETATM   13  C   UNL     1      -1.612   8.004 -27.922  1.00  0.00     0.010 C 
HETATM   14  C   UNL     1      -0.198   7.812 -27.354  1.00  0.00    -0.018 C 
HETATM   15  C   UNL     1       0.040   8.740 -26.164  1.00  0.00     0.010 C 
HETATM   16  C   UNL     1       0.863   8.038 -28.439  1.00  0.00     0.004 C 
HETATM   17  C   UNL     1       0.618   7.161 -29.665  1.00  0.00     0.001 C 
HETATM   18  C   UNL     1      -0.794   7.343 -30.218  1.00  0.00     0.006 C 
ENDBRANCH  11  12
ENDBRANCH   7  11
ENDBRANCH   2   5
BRANCH   1  19
HETATM   19  C   UNL     1      -5.955   1.953 -30.942  1.00  0.00     0.121 A 
HETATM   20  N   UNL     1      -4.848   2.151 -31.719  1.00  0.00    -0.272 N 
HETATM   21  N   UNL     1      -4.621   1.178 -32.610  1.00  0.00    -0.174 NA
HETATM   22  H   UNL     1      -4.212   2.943 -31.683  1.00  0.00     0.189 HD
HETATM   23  C   UNL     1      -5.613   0.296 -32.416  1.00  0.00     0.089 A 
HETATM   24  C   UNL     1      -6.474   0.748 -31.373  1.00  0.00     0.071 A 
BRANCH  23  25
HETATM   25  C   UNL     1      -5.722  -0.924 -33.222  1.00  0.00    -0.006 A 
HETATM   26  C   UNL     1      -4.594  -1.700 -33.526  1.00  0.00     0.014 A 
HETATM   27  C   UNL     1      -4.716  -2.871 -34.284  1.00  0.00     0.007 A 
HETATM   28  C   UNL     1      -5.964  -3.284 -34.761  1.00  0.00    -0.062 A 
HETATM   29  C   UNL     1      -6.108  -4.555 -35.543  1.00  0.00     0.048 C 
HETATM   30  C   UNL     1      -7.093  -2.516 -34.458  1.00  0.00     0.007 A 
HETATM   31  C   UNL     1      -6.970  -1.346 -33.702  1.00  0.00     0.014 A 
ENDBRANCH  23  25
ENDBRANCH   1  19
TORSDOF 5
ENDMDL
MODEL 2
REMARK VINA RESULT:      -9.3      1.066      2.095
REMARK  5 active torsions:
REMARK  status: ('A' for Active; 'I' for Inactive)
REMARK    1  A    between atoms: C_5  and  C_6 
REMARK    2  A    between atoms: C_10  and  C_11 
REMARK       I    between atoms: C_11  and  N_12 
REMARK    3  A    between atoms: N_12  and  N_13 
REMARK       I    between atoms: N_13  and  C_14 
REMARK       I    between atoms: C_14  and  N_15 
REMARK    4  A    between atoms: N_15  and  C_16 
REMARK    5  A    between atoms: C_16  and  C_17 
ROOT
HETATM    1  C   UNL     1      -6.667   3.092 -29.882  1.00  0.00     0.288 C 
HETATM    2  N   UNL     1      -5.649   3.709 -29.174  1.00  0.00    -0.261 N 
HETATM    3  O   UNL     1      -7.853   3.331 -29.661  1.00  0.00    -0.264 OA
HETATM    4  H   UNL     1      -4.713   3.746 -29.564  1.00  0.00     0.190 HD
ENDROOT
BRANCH   2   5
HETATM    5  N   UNL     1      -6.019   4.790 -28.361  1.00  0.00    -0.249 N 
HETATM    6  C   UNL     1      -5.340   5.977 -28.308  1.00  0.00     0.334 C 
HETATM    7  N   UNL     1      -4.187   6.011 -29.058  1.00  0.00    -0.341 N 
HETATM    8  O   UNL     1      -5.757   6.917 -27.641  1.00  0.00    -0.246 OA
HETATM    9  H   UNL     1      -3.736   5.108 -29.084  1.00  0.00     0.164 HD
HETATM   10  H   UNL     1      -6.839   4.678 -27.767  1.00  0.00     0.192 HD
BRANCH   7  11
HETATM   11  C   UNL     1      -3.325   7.171 -28.937  1.00  0.00     0.129 C 
BRANCH  11  12
HETATM   12  C   UNL     1      -2.112   7.173 -29.877  1.00  0.00     0.004 C 
HETATM   13  C   UNL     1      -2.264   6.166 -31.028  1.00  0.00     0.010 C 
HETATM   14  C   UNL     1      -1.084   6.265 -32.006  1.00  0.00    -0.018 C 
HETATM   15  C   UNL     1      -1.228   5.249 -33.137  1.00  0.00     0.010 C 
HETATM   16  C   UNL     1       0.251   6.075 -31.273  1.00  0.00     0.004 C 
HETATM   17  C   UNL     1       0.399   7.044 -30.101  1.00  0.00     0.001 C 
HETATM   18  C   UNL     1      -0.784   6.954 -29.139  1.00  0.00     0.006 C 
ENDBRANCH  11  12
ENDBRANCH   7  11
ENDBRANCH   2   5
BRANCH   1  19
HETATM   19  C   UNL     1      -6.254   2.184 -30.916  1.00  0.00     0.121 A 
HETATM   20  N   UNL     1      -5.319   2.547 -31.844  1.00  0.00    -0.272 N 
HETATM   21  N   UNL     1      -5.047   1.600 -32.750  1.00  0.00    -0.174 NA
HETATM   22  H   UNL     1      -4.835   3.439 -31.905  1.00  0.00     0.189 HD
HETATM   23  C   UNL     1      -5.829   0.565 -32.409  1.00  0.00     0.089 A 
HETATM   24  C   UNL     1      -6.603   0.892 -31.258  1.00  0.00     0.071 A 
BRANCH  23  25
HETATM   25  C   UNL     1      -5.829  -0.682 -33.183  1.00  0.00    -0.006 A 
HETATM   26  C   UNL     1      -4.649  -1.410 -33.392  1.00  0.00     0.014 A 
HETATM   27  C   UNL     1      -4.667  -2.607 -34.119  1.00  0.00     0.007 A 
HETATM   28  C   UNL     1      -5.862  -3.093 -34.659  1.00  0.00    -0.062 A 
HETATM   29  C   UNL     1      -5.896  -4.392 -35.409  1.00  0.00     0.048 C 
HETATM   30  C   UNL     1      -7.042  -2.373 -34.450  1.00  0.00     0.007 A 
HETATM   31  C   UNL     1      -7.023  -1.178 -33.725  1.00  0.00     0.014 A 
ENDBRANCH  23  25
ENDBRANCH   1  19
TORSDOF 5
ENDMDL
MODEL 3
REMARK VINA RESULT:      -9.3      2.679     10.137
REMARK  5 active torsions:
REMARK  status: ('A' for Active; 'I' for Inactive)
REMARK    1  A    between atoms: C_5  and  C_6 
REMARK    2  A    between atoms: C_10  and  C_11 
REMARK       I    between atoms: C_11  and  N_12 
REMARK    3  A    between atoms: N_12  and  N_13 
REMARK       I    between atoms: N_13  and  C_14 
REMARK       I    between atoms: C_14  and  N_15 
REMARK    4  A    between atoms: N_15  and  C_16 
REMARK    5  A    between atoms: C_16  and  C_17 
ROOT
HETATM    1  C   UNL     1      -4.580   4.542 -33.543  1.00  0.00     0.288 C 
HETATM    2  N   UNL     1      -5.540   3.875 -32.799  1.00  0.00    -0.261 N 
HETATM    3  O   UNL     1      -4.757   4.832 -34.726  1.00  0.00    -0.264 OA
HETATM    4  H   UNL     1      -5.517   3.925 -31.786  1.00  0.00     0.190 HD
ENDROOT
BRANCH   2   5
HETATM    5  N   UNL     1      -6.811   3.756 -33.380  1.00  0.00    -0.249 N 
HETATM    6  C   UNL     1      -7.465   2.568 -33.556  1.00  0.00     0.334 C 
HETATM    7  N   UNL     1      -6.739   1.456 -33.196  1.00  0.00    -0.341 N 
HETATM    8  O   UNL     1      -8.609   2.533 -33.994  1.00  0.00    -0.246 OA
HETATM    9  H   UNL     1      -5.753   1.585 -33.374  1.00  0.00     0.164 HD
HETATM   10  H   UNL     1      -7.267   4.609 -33.699  1.00  0.00     0.192 HD
BRANCH   7  11
HETATM   11  C   UNL     1      -7.293   0.150 -33.494  1.00  0.00     0.129 C 
BRANCH  11  12
HETATM   12  C   UNL     1      -6.291  -0.861 -34.067  1.00  0.00     0.004 C 
HETATM   13  C   UNL     1      -6.943  -2.219 -34.372  1.00  0.00     0.010 C 
HETATM   14  C   UNL     1      -5.940  -3.173 -35.039  1.00  0.00    -0.018 C 
HETATM   15  C   UNL     1      -6.586  -4.528 -35.323  1.00  0.00     0.010 C 
HETATM   16  C   UNL     1      -4.684  -3.340 -34.173  1.00  0.00     0.004 C 
HETATM   17  C   UNL     1      -4.049  -1.994 -33.828  1.00  0.00     0.001 C 
HETATM   18  C   UNL     1      -5.052  -1.043 -33.180  1.00  0.00     0.006 C 
ENDBRANCH  11  12
ENDBRANCH   7  11
ENDBRANCH   2   5
BRANCH   1  19
HETATM   19  C   UNL     1      -3.381   4.907 -32.841  1.00  0.00     0.121 A 
HETATM   20  N   UNL     1      -2.147   4.605 -33.345  1.00  0.00    -0.272 N 
HETATM   21  N   UNL     1      -1.127   4.996 -32.572  1.00  0.00    -0.174 NA
HETATM   22  H   UNL     1      -1.946   4.124 -34.217  1.00  0.00     0.189 HD
HETATM   23  C   UNL     1      -1.705   5.587 -31.515  1.00  0.00     0.089 A 
HETATM   24  C   UNL     1      -3.123   5.552 -31.647  1.00  0.00     0.071 A 
BRANCH  23  25
HETATM   25  C   UNL     1      -0.906   6.145 -30.418  1.00  0.00    -0.006 A 
HETATM   26  C   UNL     1      -1.024   7.491 -30.043  1.00  0.00     0.014 A 
HETATM   27  C   UNL     1      -0.266   8.006 -28.984  1.00  0.00     0.007 A 
HETATM   28  C   UNL     1       0.630   7.190 -28.287  1.00  0.00    -0.062 A 
HETATM   29  C   UNL     1       1.420   7.726 -27.129  1.00  0.00     0.048 C 
HETATM   30  C   UNL     1       0.750   5.847 -28.655  1.00  0.00     0.007 A 
HETATM   31  C   UNL     1      -0.006   5.333 -29.713  1.00  0.00     0.014 A 
ENDBRANCH  23  25
ENDBRANCH   1  19
TORSDOF 5
ENDMDL
MODEL 4
REMARK VINA RESULT:      -9.1      1.828      2.381
REMARK  5 active torsions:
REMARK  status: ('A' for Active; 'I' for Inactive)
REMARK    1  A    between atoms: C_5  and  C_6 
REMARK    2  A    between atoms: C_10  and  C_11 
REMARK       I    between atoms: C_11  and  N_12 
REMARK    3  A    between atoms: N_12  and  N_13 
REMARK       I    between atoms: N_13  and  C_14 
REMARK       I    between atoms: C_14  and  N_15 
REMARK    4  A    between atoms: N_15  and  C_16 
REMARK    5  A    between atoms: C_16  and  C_17 
ROOT
HETATM    1  C   UNL     1      -5.034   3.633 -31.213  1.00  0.00     0.288 C 
HETATM    2  N   UNL     1      -5.045   4.702 -32.096  1.00  0.00    -0.261 N 
HETATM    3  O   UNL     1      -5.211   3.782 -30.005  1.00  0.00    -0.264 OA
HETATM    4  H   UNL     1      -5.213   4.539 -33.083  1.00  0.00     0.190 HD
ENDROOT
BRANCH   2   5
HETATM    5  N   UNL     1      -5.500   5.927 -31.588  1.00  0.00    -0.249 N 
HETATM    6  C   UNL     1      -4.773   7.085 -31.615  1.00  0.00     0.334 C 
HETATM    7  N   UNL     1      -3.495   6.948 -32.108  1.00  0.00    -0.341 N 
HETATM    8  O   UNL     1      -5.254   8.145 -31.231  1.00  0.00    -0.246 OA
HETATM    9  H   UNL     1      -3.104   6.046 -31.875  1.00  0.00     0.164 HD
HETATM   10  H   UNL     1      -6.426   5.949 -31.163  1.00  0.00     0.192 HD
BRANCH   7  11
HETATM   11  C   UNL     1      -2.604   8.089 -32.028  1.00  0.00     0.129 C 
BRANCH  11  12
HETATM   12  C   UNL     1      -1.344   7.865 -31.183  1.00  0.00     0.004 C 
HETATM   13  C   UNL     1      -0.759   6.456 -31.370  1.00  0.00     0.010 C 
HETATM   14  C   UNL     1       0.556   6.297 -30.592  1.00  0.00    -0.018 C 
HETATM   15  C   UNL     1       1.124   4.890 -30.765  1.00  0.00     0.010 C 
HETATM   16  C   UNL     1       0.355   6.623 -29.106  1.00  0.00     0.004 C 
HETATM   17  C   UNL     1      -0.263   8.006 -28.906  1.00  0.00     0.001 C 
HETATM   18  C   UNL     1      -1.562   8.165 -29.693  1.00  0.00     0.006 C 
ENDBRANCH  11  12
ENDBRANCH   7  11
ENDBRANCH   2   5
BRANCH   1  19
HETATM   19  C   UNL     1      -4.842   2.335 -31.799  1.00  0.00     0.121 A 
HETATM   20  N   UNL     1      -3.603   1.761 -31.854  1.00  0.00    -0.272 N 
HETATM   21  N   UNL     1      -3.581   0.558 -32.441  1.00  0.00    -0.174 NA
HETATM   22  H   UNL     1      -2.733   2.154 -31.505  1.00  0.00     0.189 HD
HETATM   23  C   UNL     1      -4.855   0.320 -32.786  1.00  0.00     0.089 A 
HETATM   24  C   UNL     1      -5.681   1.416 -32.399  1.00  0.00     0.071 A 
BRANCH  23  25
HETATM   25  C   UNL     1      -5.244  -0.914 -33.477  1.00  0.00    -0.006 A 
HETATM   26  C   UNL     1      -4.292  -1.874 -33.847  1.00  0.00     0.014 A 
HETATM   27  C   UNL     1      -4.680  -3.055 -34.491  1.00  0.00     0.007 A 
HETATM   28  C   UNL     1      -6.025  -3.294 -34.788  1.00  0.00    -0.062 A 
HETATM   29  C   UNL     1      -6.453  -4.572 -35.447  1.00  0.00     0.048 C 
HETATM   30  C   UNL     1      -6.980  -2.342 -34.419  1.00  0.00     0.007 A 
HETATM   31  C   UNL     1      -6.591  -1.162 -33.776  1.00  0.00     0.014 A 
ENDBRANCH  23  25
ENDBRANCH   1  19
TORSDOF 5
ENDMDL
MODEL 5
REMARK VINA RESULT:      -8.9      2.290      3.056
REMARK  5 active torsions:
REMARK  status: ('A' for Active; 'I' for Inactive)
REMARK    1  A    between atoms: C_5  and  C_6 
REMARK    2  A    between atoms: C_10  and  C_11 
REMARK       I    between atoms: C_11  and  N_12 
REMARK    3  A    between atoms: N_12  and  N_13 
REMARK       I    between atoms: N_13  and  C_14 
REMARK       I    between atoms: C_14  and  N_15 
REMARK    4  A    between atoms: N_15  and  C_16 
REMARK    5  A    between atoms: C_16  and  C_17 
ROOT
HETATM    1  C   UNL     1      -4.073   4.313 -32.320  1.00  0.00     0.288 C 
HETATM    2  N   UNL     1      -3.075   4.777 -33.163  1.00  0.00    -0.261 N 
HETATM    3  O   UNL     1      -4.717   5.069 -31.595  1.00  0.00    -0.264 OA
HETATM    4  H   UNL     1      -2.783   4.216 -33.957  1.00  0.00     0.190 HD
ENDROOT
BRANCH   2   5
HETATM    5  N   UNL     1      -2.993   6.167 -33.329  1.00  0.00    -0.249 N 
HETATM    6  C   UNL     1      -1.969   6.937 -32.850  1.00  0.00     0.334 C 
HETATM    7  N   UNL     1      -1.042   6.253 -32.097  1.00  0.00    -0.341 N 
HETATM    8  O   UNL     1      -1.909   8.136 -33.097  1.00  0.00    -0.246 OA
HETATM    9  H   UNL     1      -1.471   5.503 -31.574  1.00  0.00     0.164 HD
HETATM   10  H   UNL     1      -3.751   6.629 -33.829  1.00  0.00     0.192 HD
BRANCH   7  11
HETATM   11  C   UNL     1      -0.011   7.017 -31.422  1.00  0.00     0.129 C 
BRANCH  11  12
HETATM   12  C   UNL     1      -0.380   7.491 -30.010  1.00  0.00     0.004 C 
HETATM   13  C   UNL     1       0.805   7.396 -29.035  1.00  0.00     0.010 C 
HETATM   14  C   UNL     1       0.434   7.971 -27.660  1.00  0.00    -0.018 C 
HETATM   15  C   UNL     1       1.607   7.857 -26.688  1.00  0.00     0.010 C 
HETATM   16  C   UNL     1      -0.811   7.275 -27.093  1.00  0.00     0.004 C 
HETATM   17  C   UNL     1      -1.985   7.327 -28.069  1.00  0.00     0.001 C 
HETATM   18  C   UNL     1      -1.608   6.769 -29.439  1.00  0.00     0.006 C 
ENDBRANCH  11  12
ENDBRANCH   7  11
ENDBRANCH   2   5
BRANCH   1  19
HETATM   19  C   UNL     1      -4.334   2.901 -32.372  1.00  0.00     0.121 A 
HETATM   20  N   UNL     1      -3.973   2.077 -31.344  1.00  0.00    -0.272 N 
HETATM   21  N   UNL     1      -4.269   0.787 -31.543  1.00  0.00    -0.174 NA
HETATM   22  H   UNL     1      -3.513   2.348 -30.478  1.00  0.00     0.189 HD
HETATM   23  C   UNL     1      -4.854   0.752 -32.750  1.00  0.00     0.089 A 
HETATM   24  C   UNL     1      -4.915   2.064 -33.304  1.00  0.00     0.071 A 
BRANCH  23  25
HETATM   25  C   UNL     1      -5.319  -0.509 -33.339  1.00  0.00    -0.006 A 
HETATM   26  C   UNL     1      -6.678  -0.734 -33.600  1.00  0.00     0.014 A 
HETATM   27  C   UNL     1      -7.106  -1.935 -34.178  1.00  0.00     0.007 A 
HETATM   28  C   UNL     1      -6.185  -2.939 -34.496  1.00  0.00    -0.062 A 
HETATM   29  C   UNL     1      -6.630  -4.215 -35.146  1.00  0.00     0.048 C 
HETATM   30  C   UNL     1      -4.828  -2.719 -34.240  1.00  0.00     0.007 A 
HETATM   31  C   UNL     1      -4.403  -1.519 -33.662  1.00  0.00     0.014 A 
ENDBRANCH  23  25
ENDBRANCH   1  19
TORSDOF 5
ENDMDL
MODEL 6
REMARK VINA RESULT:      -8.6      2.563      9.506
REMARK  5 active torsions:
REMARK  status: ('A' for Active; 'I' for Inactive)
REMARK    1  A    between atoms: C_5  and  C_6 
REMARK    2  A    between atoms: C_10  and  C_11 
REMARK       I    between atoms: C_11  and  N_12 
REMARK    3  A    between atoms: N_12  and  N_13 
REMARK       I    between atoms: N_13  and  C_14 
REMARK       I    between atoms: C_14  and  N_15 
REMARK    4  A    between atoms: N_15  and  C_16 
REMARK    5  A    between atoms: C_16  and  C_17 
ROOT
HETATM    1  C   UNL     1      -6.298   4.809 -33.153  1.00  0.00     0.288 C 
HETATM    2  N   UNL     1      -6.848   3.902 -32.261  1.00  0.00    -0.261 N 
HETATM    3  O   UNL     1      -6.892   5.166 -34.170  1.00  0.00    -0.264 OA
HETATM    4  H   UNL     1      -6.505   3.863 -31.307  1.00  0.00     0.190 HD
ENDROOT
BRANCH   2   5
HETATM    5  N   UNL     1      -8.203   3.592 -32.441  1.00  0.00    -0.249 N 
HETATM    6  C   UNL     1      -8.666   2.350 -32.782  1.00  0.00     0.334 C 
HETATM    7  N   UNL     1      -7.682   1.421 -33.030  1.00  0.00    -0.341 N 
HETATM    8  O   UNL     1      -9.867   2.116 -32.845  1.00  0.00    -0.246 OA
HETATM    9  H   UNL     1      -6.865   1.848 -33.444  1.00  0.00     0.164 HD
HETATM   10  H   UNL     1      -8.881   4.342 -32.320  1.00  0.00     0.192 HD
BRANCH   7  11
HETATM   11  C   UNL     1      -8.078   0.125 -33.548  1.00  0.00     0.129 C 
BRANCH  11  12
HETATM   12  C   UNL     1      -6.995  -0.960 -33.467  1.00  0.00     0.004 C 
HETATM   13  C   UNL     1      -5.633  -0.392 -33.038  1.00  0.00     0.010 C 
HETATM   14  C   UNL     1      -4.598  -1.515 -32.868  1.00  0.00    -0.018 C 
HETATM   15  C   UNL     1      -3.240  -0.946 -32.462  1.00  0.00     0.010 C 
HETATM   16  C   UNL     1      -4.476  -2.346 -34.153  1.00  0.00     0.004 C 
HETATM   17  C   UNL     1      -5.830  -2.884 -34.613  1.00  0.00     0.001 C 
HETATM   18  C   UNL     1      -6.860  -1.767 -34.766  1.00  0.00     0.006 C 
ENDBRANCH  11  12
ENDBRANCH   7  11
ENDBRANCH   2   5
BRANCH   1  19
HETATM   19  C   UNL     1      -5.009   5.336 -32.801  1.00  0.00     0.121 A 
HETATM   20  N   UNL     1      -4.066   5.595 -33.756  1.00  0.00    -0.272 N 
HETATM   21  N   UNL     1      -2.911   6.069 -33.273  1.00  0.00    -0.174 NA
HETATM   22  H   UNL     1      -4.161   5.461 -34.759  1.00  0.00     0.189 HD
HETATM   23  C   UNL     1      -3.093   6.132 -31.946  1.00  0.00     0.089 A 
HETATM   24  C   UNL     1      -4.402   5.679 -31.608  1.00  0.00     0.071 A 
BRANCH  23  25
HETATM   25  C   UNL     1      -2.031   6.598 -31.048  1.00  0.00    -0.006 A 
HETATM   26  C   UNL     1      -0.679   6.499 -31.404  1.00  0.00     0.014 A 
HETATM   27  C   UNL     1       0.323   6.963 -30.544  1.00  0.00     0.007 A 
HETATM   28  C   UNL     1      -0.006   7.525 -29.306  1.00  0.00    -0.062 A 
HETATM   29  C   UNL     1       1.060   8.056 -28.394  1.00  0.00     0.048 C 
HETATM   30  C   UNL     1      -1.353   7.630 -28.946  1.00  0.00     0.007 A 
HETATM   31  C   UNL     1      -2.353   7.165 -29.806  1.00  0.00     0.014 A 
ENDBRANCH  23  25
ENDBRANCH   1  19
TORSDOF 5
ENDMDL
MODEL 7
REMARK VINA RESULT:      -8.6      5.153      8.492
REMARK  5 active torsions:
REMARK  status: ('A' for Active; 'I' for Inactive)
REMARK    1  A    between atoms: C_5  and  C_6 
REMARK    2  A    between atoms: C_10  and  C_11 
REMARK       I    between atoms: C_11  and  N_12 
REMARK    3  A    between atoms: N_12  and  N_13 
REMARK       I    between atoms: N_13  and  C_14 
REMARK       I    between atoms: C_14  and  N_15 
REMARK    4  A    between atoms: N_15  and  C_16 
REMARK    5  A    between atoms: C_16  and  C_17 
ROOT
HETATM    1  C   UNL     1      -6.973   4.062 -32.879  1.00  0.00     0.288 C 
HETATM    2  N   UNL     1      -7.641   4.534 -33.998  1.00  0.00    -0.261 N 
HETATM    3  O   UNL     1      -6.867   4.731 -31.853  1.00  0.00    -0.264 OA
HETATM    4  H   UNL     1      -7.986   3.880 -34.693  1.00  0.00     0.190 HD
ENDROOT
BRANCH   2   5
HETATM    5  N   UNL     1      -8.392   5.706 -33.830  1.00  0.00    -0.249 N 
HETATM    6  C   UNL     1      -9.707   5.831 -34.184  1.00  0.00     0.334 C 
HETATM    7  N   UNL     1     -10.237   4.728 -34.814  1.00  0.00    -0.341 N 
HETATM    8  O   UNL     1     -10.336   6.853 -33.937  1.00  0.00    -0.246 OA
HETATM    9  H   UNL     1      -9.546   4.259 -35.382  1.00  0.00     0.164 HD
HETATM   10  H   UNL     1      -7.922   6.516 -33.429  1.00  0.00     0.192 HD
BRANCH   7  11
HETATM   11  C   UNL     1     -11.576   4.830 -35.361  1.00  0.00     0.129 C 
BRANCH  11  12
HETATM   12  C   UNL     1     -12.522   3.687 -34.970  1.00  0.00     0.004 C 
HETATM   13  C   UNL     1     -13.043   3.828 -33.531  1.00  0.00     0.010 C 
HETATM   14  C   UNL     1     -14.064   2.727 -33.205  1.00  0.00    -0.018 C 
HETATM   15  C   UNL     1     -14.565   2.859 -31.768  1.00  0.00     0.010 C 
HETATM   16  C   UNL     1     -13.464   1.335 -33.446  1.00  0.00     0.004 C 
HETATM   17  C   UNL     1     -12.905   1.194 -34.861  1.00  0.00     0.001 C 
HETATM   18  C   UNL     1     -11.903   2.299 -35.187  1.00  0.00     0.006 C 
ENDBRANCH  11  12
ENDBRANCH   7  11
ENDBRANCH   2   5
BRANCH   1  19
HETATM   19  C   UNL     1      -6.445   2.730 -32.977  1.00  0.00     0.121 A 
HETATM   20  N   UNL     1      -5.294   2.376 -32.331  1.00  0.00    -0.272 N 
HETATM   21  N   UNL     1      -4.921   1.106 -32.529  1.00  0.00    -0.174 NA
HETATM   22  H   UNL     1      -4.719   2.972 -31.742  1.00  0.00     0.189 HD
HETATM   23  C   UNL     1      -5.863   0.593 -33.334  1.00  0.00     0.089 A 
HETATM   24  C   UNL     1      -6.841   1.584 -33.639  1.00  0.00     0.071 A 
BRANCH  23  25
HETATM   25  C   UNL     1      -5.800  -0.798 -33.797  1.00  0.00    -0.006 A 
HETATM   26  C   UNL     1      -4.588  -1.503 -33.827  1.00  0.00     0.014 A 
HETATM   27  C   UNL     1      -4.547  -2.835 -34.256  1.00  0.00     0.007 A 
HETATM   28  C   UNL     1      -5.713  -3.485 -34.672  1.00  0.00    -0.062 A 
HETATM   29  C   UNL     1      -5.682  -4.922 -35.100  1.00  0.00     0.048 C 
HETATM   30  C   UNL     1      -6.925  -2.789 -34.641  1.00  0.00     0.007 A 
HETATM   31  C   UNL     1      -6.965  -1.458 -34.214  1.00  0.00     0.014 A 
ENDBRANCH  23  25
ENDBRANCH   1  19
TORSDOF 5
ENDMDL
MODEL 8
REMARK VINA RESULT:      -8.5      3.254      9.915
REMARK  5 active torsions:
REMARK  status: ('A' for Active; 'I' for Inactive)
REMARK    1  A    between atoms: C_5  and  C_6 
REMARK    2  A    between atoms: C_10  and  C_11 
REMARK       I    between atoms: C_11  and  N_12 
REMARK    3  A    between atoms: N_12  and  N_13 
REMARK       I    between atoms: N_13  and  C_14 
REMARK       I    between atoms: C_14  and  N_15 
REMARK    4  A    between atoms: N_15  and  C_16 
REMARK    5  A    between atoms: C_16  and  C_17 
ROOT
HETATM    1  C   UNL     1      -7.840   4.922 -33.834  1.00  0.00     0.288 C 
HETATM    2  N   UNL     1      -7.831   3.538 -33.771  1.00  0.00    -0.261 N 
HETATM    3  O   UNL     1      -8.775   5.547 -34.334  1.00  0.00    -0.264 OA
HETATM    4  H   UNL     1      -7.234   3.067 -33.099  1.00  0.00     0.190 HD
ENDROOT
BRANCH   2   5
HETATM    5  N   UNL     1      -9.035   2.890 -34.084  1.00  0.00    -0.249 N 
HETATM    6  C   UNL     1      -9.214   1.535 -34.026  1.00  0.00     0.334 C 
HETATM    7  N   UNL     1      -8.079   0.821 -33.716  1.00  0.00    -0.341 N 
HETATM    8  O   UNL     1     -10.312   1.032 -34.230  1.00  0.00    -0.246 OA
HETATM    9  H   UNL     1      -7.252   1.261 -34.091  1.00  0.00     0.164 HD
HETATM   10  H   UNL     1      -9.819   3.467 -34.383  1.00  0.00     0.192 HD
BRANCH   7  11
HETATM   11  C   UNL     1      -8.141  -0.626 -33.786  1.00  0.00     0.129 C 
BRANCH  11  12
HETATM   12  C   UNL     1      -6.845  -1.305 -34.247  1.00  0.00     0.004 C 
HETATM   13  C   UNL     1      -7.033  -2.809 -34.502  1.00  0.00     0.010 C 
HETATM   14  C   UNL     1      -5.748  -3.439 -35.060  1.00  0.00    -0.018 C 
HETATM   15  C   UNL     1      -5.933  -4.936 -35.294  1.00  0.00     0.010 C 
HETATM   16  C   UNL     1      -4.560  -3.177 -34.123  1.00  0.00     0.004 C 
HETATM   17  C   UNL     1      -4.385  -1.689 -33.828  1.00  0.00     0.001 C 
HETATM   18  C   UNL     1      -5.670  -1.063 -33.290  1.00  0.00     0.006 C 
ENDBRANCH  11  12
ENDBRANCH   7  11
ENDBRANCH   2   5
BRANCH   1  19
HETATM   19  C   UNL     1      -6.709   5.586 -33.248  1.00  0.00     0.121 A 
HETATM   20  N   UNL     1      -6.831   6.822 -32.678  1.00  0.00    -0.272 N 
HETATM   21  N   UNL     1      -5.688   7.316 -32.187  1.00  0.00    -0.174 NA
HETATM   22  H   UNL     1      -7.679   7.377 -32.602  1.00  0.00     0.189 HD
HETATM   23  C   UNL     1      -4.770   6.370 -32.435  1.00  0.00     0.089 A 
HETATM   24  C   UNL     1      -5.373   5.264 -33.102  1.00  0.00     0.071 A 
BRANCH  23  25
HETATM   25  C   UNL     1      -3.365   6.547 -32.052  1.00  0.00    -0.006 A 
HETATM   26  C   UNL     1      -2.846   5.955 -30.892  1.00  0.00     0.014 A 
HETATM   27  C   UNL     1      -1.499   6.120 -30.548  1.00  0.00     0.007 A 
HETATM   28  C   UNL     1      -0.648   6.887 -31.350  1.00  0.00    -0.062 A 
HETATM   29  C   UNL     1       0.804   7.039 -31.007  1.00  0.00     0.048 C 
HETATM   30  C   UNL     1      -1.159   7.477 -32.509  1.00  0.00     0.007 A 
HETATM   31  C   UNL     1      -2.505   7.313 -32.852  1.00  0.00     0.014 A 
ENDBRANCH  23  25
ENDBRANCH   1  19
TORSDOF 5
ENDMDL
MODEL 9
REMARK VINA RESULT:      -8.3      4.106      5.231
REMARK  5 active torsions:
REMARK  status: ('A' for Active; 'I' for Inactive)
REMARK    1  A    between atoms: C_5  and  C_6 
REMARK    2  A    between atoms: C_10  and  C_11 
REMARK       I    between atoms: C_11  and  N_12 
REMARK    3  A    between atoms: N_12  and  N_13 
REMARK       I    between atoms: N_13  and  C_14 
REMARK       I    between atoms: C_14  and  N_15 
REMARK    4  A    between atoms: N_15  and  C_16 
REMARK    5  A    between atoms: C_16  and  C_17 
ROOT
HETATM    1  C   UNL     1     -10.229   1.571 -33.365  1.00  0.00     0.288 C 
HETATM    2  N   UNL     1     -10.130   2.001 -32.052  1.00  0.00    -0.261 N 
HETATM    3  O   UNL     1     -11.164   1.904 -34.092  1.00  0.00    -0.264 OA
HETATM    4  H   UNL     1      -9.231   1.984 -31.582  1.00  0.00     0.190 HD
ENDROOT
BRANCH   2   5
HETATM    5  N   UNL     1     -11.009   3.021 -31.661  1.00  0.00    -0.249 N 
HETATM    6  C   UNL     1     -10.671   4.346 -31.606  1.00  0.00     0.334 C 
HETATM    7  N   UNL     1      -9.349   4.610 -31.883  1.00  0.00    -0.341 N 
HETATM    8  O   UNL     1     -11.504   5.202 -31.336  1.00  0.00    -0.246 OA
HETATM    9  H   UNL     1      -8.748   3.865 -31.563  1.00  0.00     0.164 HD
HETATM   10  H   UNL     1     -11.955   2.754 -31.391  1.00  0.00     0.192 HD
BRANCH   7  11
HETATM   11  C   UNL     1      -8.868   5.966 -31.695  1.00  0.00     0.129 C 
BRANCH  11  12
HETATM   12  C   UNL     1      -7.476   6.074 -31.060  1.00  0.00     0.004 C 
HETATM   13  C   UNL     1      -6.362   6.179 -32.114  1.00  0.00     0.010 C 
HETATM   14  C   UNL     1      -4.993   6.389 -31.448  1.00  0.00    -0.018 C 
HETATM   15  C   UNL     1      -3.886   6.473 -32.497  1.00  0.00     0.010 C 
HETATM   16  C   UNL     1      -4.699   5.272 -30.437  1.00  0.00     0.004 C 
HETATM   17  C   UNL     1      -5.818   5.130 -29.407  1.00  0.00     0.001 C 
HETATM   18  C   UNL     1      -7.179   4.938 -30.072  1.00  0.00     0.006 C 
ENDBRANCH  11  12
ENDBRANCH   7  11
ENDBRANCH   2   5
BRANCH   1  19
HETATM   19  C   UNL     1      -9.156   0.741 -33.838  1.00  0.00     0.121 A 
HETATM   20  N   UNL     1      -8.695   0.843 -35.120  1.00  0.00    -0.272 N 
HETATM   21  N   UNL     1      -7.703  -0.004 -35.417  1.00  0.00    -0.174 NA
HETATM   22  H   UNL     1      -9.031   1.478 -35.840  1.00  0.00     0.189 HD
HETATM   23  C   UNL     1      -7.492  -0.695 -34.287  1.00  0.00     0.089 A 
HETATM   24  C   UNL     1      -8.387  -0.255 -33.268  1.00  0.00     0.071 A 
BRANCH  23  25
HETATM   25  C   UNL     1      -6.472  -1.747 -34.211  1.00  0.00    -0.006 A 
HETATM   26  C   UNL     1      -6.713  -3.033 -34.714  1.00  0.00     0.014 A 
HETATM   27  C   UNL     1      -5.725  -4.023 -34.649  1.00  0.00     0.007 A 
HETATM   28  C   UNL     1      -4.481  -3.749 -34.072  1.00  0.00    -0.062 A 
HETATM   29  C   UNL     1      -3.405  -4.793 -34.029  1.00  0.00     0.048 C 
HETATM   30  C   UNL     1      -4.233  -2.467 -33.571  1.00  0.00     0.007 A 
HETATM   31  C   UNL     1      -5.222  -1.480 -33.636  1.00  0.00     0.014 A 
ENDBRANCH  23  25
ENDBRANCH   1  19
TORSDOF 5
ENDMDL
MODEL 10
REMARK VINA RESULT:      -8.2      4.838      8.134
REMARK  5 active torsions:
REMARK  status: ('A' for Active; 'I' for Inactive)
REMARK    1  A    between atoms: C_5  and  C_6 
REMARK    2  A    between atoms: C_10  and  C_11 
REMARK       I    between atoms: C_11  and  N_12 
REMARK    3  A    between atoms: N_12  and  N_13 
REMARK       I    between atoms: N_13  and  C_14 
REMARK       I    between atoms: C_14  and  N_15 
REMARK    4  A    between atoms: N_15  and  C_16 
REMARK    5  A    between atoms: C_16  and  C_17 
ROOT
HETATM    1  C   UNL     1      -6.296   4.227 -32.823  1.00  0.00     0.288 C 
HETATM    2  N   UNL     1      -7.243   4.675 -33.731  1.00  0.00    -0.261 N 
HETATM    3  O   UNL     1      -5.762   4.982 -32.011  1.00  0.00    -0.264 OA
HETATM    4  H   UNL     1      -7.883   4.014 -34.159  1.00  0.00     0.190 HD
ENDROOT
BRANCH   2   5
HETATM    5  N   UNL     1      -7.741   5.969 -33.526  1.00  0.00    -0.249 N 
HETATM    6  C   UNL     1      -8.948   6.243 -32.942  1.00  0.00     0.334 C 
HETATM    7  N   UNL     1      -9.702   5.132 -32.639  1.00  0.00    -0.341 N 
HETATM    8  O   UNL     1      -9.295   7.396 -32.714  1.00  0.00    -0.246 OA
HETATM    9  H   UNL     1      -9.560   4.394 -33.314  1.00  0.00     0.164 HD
HETATM   10  H   UNL     1      -7.171   6.752 -33.843  1.00  0.00     0.192 HD
BRANCH   7  11
HETATM   11  C   UNL     1     -11.056   5.334 -32.163  1.00  0.00     0.129 C 
BRANCH  11  12
HETATM   12  C   UNL     1     -11.938   4.078 -32.178  1.00  0.00     0.004 C 
HETATM   13  C   UNL     1     -11.930   3.377 -33.546  1.00  0.00     0.010 C 
HETATM   14  C   UNL     1     -12.738   2.071 -33.500  1.00  0.00    -0.018 C 
HETATM   15  C   UNL     1     -12.743   1.387 -34.866  1.00  0.00     0.010 C 
HETATM   16  C   UNL     1     -14.171   2.331 -33.017  1.00  0.00     0.004 C 
HETATM   17  C   UNL     1     -14.195   3.064 -31.677  1.00  0.00     0.001 C 
HETATM   18  C   UNL     1     -13.378   4.353 -31.722  1.00  0.00     0.006 C 
ENDBRANCH  11  12
ENDBRANCH   7  11
ENDBRANCH   2   5
BRANCH   1  19
HETATM   19  C   UNL     1      -6.000   2.822 -32.864  1.00  0.00     0.121 A 
HETATM   20  N   UNL     1      -5.142   2.254 -31.966  1.00  0.00    -0.272 N 
HETATM   21  N   UNL     1      -4.956   0.939 -32.138  1.00  0.00    -0.174 NA
HETATM   22  H   UNL     1      -4.648   2.725 -31.212  1.00  0.00     0.189 HD
HETATM   23  C   UNL     1      -5.725   0.619 -33.190  1.00  0.00     0.089 A 
HETATM   24  C   UNL     1      -6.400   1.778 -33.675  1.00  0.00     0.071 A 
BRANCH  23  25
HETATM   25  C   UNL     1      -5.785  -0.753 -33.705  1.00  0.00    -0.006 A 
HETATM   26  C   UNL     1      -7.005  -1.345 -34.063  1.00  0.00     0.014 A 
HETATM   27  C   UNL     1      -7.046  -2.649 -34.569  1.00  0.00     0.007 A 
HETATM   28  C   UNL     1      -5.870  -3.392 -34.717  1.00  0.00    -0.062 A 
HETATM   29  C   UNL     1      -5.901  -4.777 -35.291  1.00  0.00     0.048 C 
HETATM   30  C   UNL     1      -4.650  -2.806 -34.365  1.00  0.00     0.007 A 
HETATM   31  C   UNL     1      -4.611  -1.503 -33.859  1.00  0.00     0.014 A 
ENDBRANCH  23  25
ENDBRANCH   1  19
TORSDOF 5
ENDMDL
