MODEL 1
REMARK VINA RESULT:      -7.3      0.000      0.000
REMARK  2 active torsions:
REMARK  status: ('A' for Active; 'I' for Inactive)
REMARK    1  A    between atoms: C_8  and  S_9 
REMARK    2  A    between atoms: S_9  and  C_10 
ROOT
HETATM    1  C   UNL     1      -6.365  -4.544 -34.980  1.00  0.00     0.002 A 
HETATM    2  C   UNL     1      -6.927  -3.321 -34.614  1.00  0.00     0.034 A 
HETATM    3  C   UNL     1      -6.154  -2.306 -34.064  1.00  0.00     0.087 A 
HETATM    4  C   UNL     1      -4.763  -2.525 -33.882  1.00  0.00     0.087 A 
HETATM    5  N   UNL     1      -3.965  -1.570 -33.370  1.00  0.00    -0.232 NA
HETATM    6  C   UNL     1      -4.547  -0.395 -33.054  1.00  0.00     0.164 A 
HETATM    7 CL   UNL     1      -3.447   0.777 -32.456  1.00  0.00    -0.059 Cl
HETATM    8  C   UNL     1      -5.906  -0.182 -33.219  1.00  0.00     0.165 A 
HETATM    9  N   UNL     1      -6.734  -1.135 -33.716  1.00  0.00    -0.234 NA
HETATM   10  C   UNL     1      -4.216  -3.749 -34.246  1.00  0.00     0.034 A 
HETATM   11  C   UNL     1      -5.006  -4.760 -34.792  1.00  0.00     0.002 A 
ENDROOT
BRANCH   8  12
HETATM   12  S   UNL     1      -6.738   1.361 -32.831  1.00  0.00     0.078 S 
HETATM   13  O   UNL     1      -6.623   1.525 -31.338  1.00  0.00    -0.251 OA
BRANCH  12  14
HETATM   14  C   UNL     1      -8.504   0.917 -33.131  1.00  0.00     0.112 C 
HETATM   15  C   UNL     1      -9.231   0.714 -31.795  1.00  0.00     0.250 C 
HETATM   16  N   UNL     1      -9.364   2.024 -31.071  1.00  0.00    -0.074 N 
HETATM   17  H   UNL     1      -8.398   2.381 -30.895  1.00  0.00     0.277 HD
HETATM   18  H   UNL     1      -9.771   1.882 -30.138  1.00  0.00     0.277 HD
HETATM   19  C   UNL     1     -10.122   3.061 -31.820  1.00  0.00     0.232 C 
HETATM   20  C   UNL     1      -9.443   3.316 -33.158  1.00  0.00     0.029 C 
HETATM   21  C   UNL     1      -9.188   2.028 -33.947  1.00  0.00     0.021 C 
ENDBRANCH  12  14
ENDBRANCH   8  12
TORSDOF 2
ENDMDL
MODEL 2
REMARK VINA RESULT:      -7.2      2.516      2.937
REMARK  2 active torsions:
REMARK  status: ('A' for Active; 'I' for Inactive)
REMARK    1  A    between atoms: C_8  and  S_9 
REMARK    2  A    between atoms: S_9  and  C_10 
ROOT
HETATM    1  C   UNL     1      -3.813  -4.623 -33.620  1.00  0.00     0.002 A 
HETATM    2  C   UNL     1      -3.695  -3.331 -33.106  1.00  0.00     0.034 A 
HETATM    3  C   UNL     1      -4.542  -2.309 -33.518  1.00  0.00     0.087 A 
HETATM    4  C   UNL     1      -5.549  -2.597 -34.477  1.00  0.00     0.087 A 
HETATM    5  N   UNL     1      -6.407  -1.648 -34.897  1.00  0.00    -0.232 NA
HETATM    6  C   UNL     1      -6.271  -0.421 -34.354  1.00  0.00     0.164 A 
HETATM    7 CL   UNL     1      -7.435   0.709 -34.911  1.00  0.00    -0.059 Cl
HETATM    8  C   UNL     1      -5.281  -0.134 -33.428  1.00  0.00     0.165 A 
HETATM    9  N   UNL     1      -4.394  -1.068 -33.003  1.00  0.00    -0.234 NA
HETATM   10  C   UNL     1      -5.653  -3.885 -34.985  1.00  0.00     0.034 A 
HETATM   11  C   UNL     1      -4.793  -4.900 -34.565  1.00  0.00     0.002 A 
ENDROOT
BRANCH   8  12
HETATM   12  S   UNL     1      -5.057   1.473 -32.659  1.00  0.00     0.078 S 
HETATM   13  O   UNL     1      -3.790   1.367 -31.850  1.00  0.00    -0.251 OA
BRANCH  12  14
HETATM   14  C   UNL     1      -6.422   1.484 -31.418  1.00  0.00     0.112 C 
HETATM   15  C   UNL     1      -5.843   1.553 -29.998  1.00  0.00     0.250 C 
HETATM   16  N   UNL     1      -5.202   2.893 -29.762  1.00  0.00    -0.074 N 
HETATM   17  H   UNL     1      -4.433   2.997 -30.461  1.00  0.00     0.277 HD
HETATM   18  H   UNL     1      -4.737   2.915 -28.846  1.00  0.00     0.277 HD
HETATM   19  C   UNL     1      -6.130   4.046 -29.904  1.00  0.00     0.232 C 
HETATM   20  C   UNL     1      -6.734   4.040 -31.301  1.00  0.00     0.029 C 
HETATM   21  C   UNL     1      -7.348   2.687 -31.675  1.00  0.00     0.021 C 
ENDBRANCH  12  14
ENDBRANCH   8  12
TORSDOF 2
ENDMDL
MODEL 3
REMARK VINA RESULT:      -6.8      3.512      4.474
REMARK  2 active torsions:
REMARK  status: ('A' for Active; 'I' for Inactive)
REMARK    1  A    between atoms: C_8  and  S_9 
REMARK    2  A    between atoms: S_9  and  C_10 
ROOT
HETATM    1  C   UNL     1      -4.752  -3.251 -34.510  1.00  0.00     0.002 A 
HETATM    2  C   UNL     1      -4.120  -2.232 -33.797  1.00  0.00     0.034 A 
HETATM    3  C   UNL     1      -4.808  -1.088 -33.409  1.00  0.00     0.087 A 
HETATM    4  C   UNL     1      -6.183  -0.967 -33.744  1.00  0.00     0.087 A 
HETATM    5  N   UNL     1      -6.900   0.111 -33.377  1.00  0.00    -0.232 NA
HETATM    6  C   UNL     1      -6.255   1.060 -32.668  1.00  0.00     0.164 A 
HETATM    7 CL   UNL     1      -7.258   2.371 -32.204  1.00  0.00    -0.059 Cl
HETATM    8  C   UNL     1      -4.910   0.950 -32.351  1.00  0.00     0.165 A 
HETATM    9  N   UNL     1      -4.162  -0.118 -32.724  1.00  0.00    -0.234 NA
HETATM   10  C   UNL     1      -6.798  -1.986 -34.459  1.00  0.00     0.034 A 
HETATM   11  C   UNL     1      -6.094  -3.126 -34.845  1.00  0.00     0.002 A 
ENDROOT
BRANCH   8  12
HETATM   12  S   UNL     1      -3.998   2.169 -31.398  1.00  0.00     0.078 S 
HETATM   13  O   UNL     1      -4.867   2.495 -30.211  1.00  0.00    -0.251 OA
BRANCH  12  14
HETATM   14  C   UNL     1      -4.102   3.650 -32.493  1.00  0.00     0.112 C 
HETATM   15  C   UNL     1      -4.695   4.836 -31.720  1.00  0.00     0.250 C 
HETATM   16  N   UNL     1      -3.731   5.303 -30.664  1.00  0.00    -0.074 N 
HETATM   17  H   UNL     1      -3.573   4.502 -30.012  1.00  0.00     0.277 HD
HETATM   18  H   UNL     1      -4.156   6.039 -30.087  1.00  0.00     0.277 HD
HETATM   19  C   UNL     1      -2.415   5.748 -31.194  1.00  0.00     0.232 C 
HETATM   20  C   UNL     1      -1.768   4.608 -31.967  1.00  0.00     0.029 C 
HETATM   21  C   UNL     1      -2.701   4.005 -33.022  1.00  0.00     0.021 C 
ENDBRANCH  12  14
ENDBRANCH   8  12
TORSDOF 2
ENDMDL
MODEL 4
REMARK VINA RESULT:      -6.7      2.894      3.480
REMARK  2 active torsions:
REMARK  status: ('A' for Active; 'I' for Inactive)
REMARK    1  A    between atoms: C_8  and  S_9 
REMARK    2  A    between atoms: S_9  and  C_10 
ROOT
HETATM    1  C   UNL     1      -4.357  -3.012 -34.322  1.00  0.00     0.002 A 
HETATM    2  C   UNL     1      -4.366  -1.704 -33.834  1.00  0.00     0.034 A 
HETATM    3  C   UNL     1      -5.548  -0.980 -33.731  1.00  0.00     0.087 A 
HETATM    4  C   UNL     1      -6.766  -1.594 -34.125  1.00  0.00     0.087 A 
HETATM    5  N   UNL     1      -7.941  -0.944 -34.030  1.00  0.00    -0.232 NA
HETATM    6  C   UNL     1      -7.905   0.309 -33.530  1.00  0.00     0.164 A 
HETATM    7 CL   UNL     1      -9.450   1.040 -33.399  1.00  0.00    -0.059 Cl
HETATM    8  C   UNL     1      -6.716   0.915 -33.156  1.00  0.00     0.165 A 
HETATM    9  N   UNL     1      -5.518   0.287 -33.260  1.00  0.00    -0.234 NA
HETATM   10  C   UNL     1      -6.743  -2.894 -34.614  1.00  0.00     0.034 A 
HETATM   11  C   UNL     1      -5.548  -3.607 -34.716  1.00  0.00     0.002 A 
ENDROOT
BRANCH   8  12
HETATM   12  S   UNL     1      -6.602   2.571 -32.471  1.00  0.00     0.078 S 
HETATM   13  O   UNL     1      -5.173   3.001 -32.675  1.00  0.00    -0.251 OA
BRANCH  12  14
HETATM   14  C   UNL     1      -6.750   2.236 -30.662  1.00  0.00     0.112 C 
HETATM   15  C   UNL     1      -5.381   2.386 -29.985  1.00  0.00     0.250 C 
HETATM   16  N   UNL     1      -4.950   3.826 -29.996  1.00  0.00    -0.074 N 
HETATM   17  H   UNL     1      -4.882   4.123 -30.995  1.00  0.00     0.277 HD
HETATM   18  H   UNL     1      -3.997   3.921 -29.623  1.00  0.00     0.277 HD
HETATM   19  C   UNL     1      -5.882   4.747 -29.292  1.00  0.00     0.232 C 
HETATM   20  C   UNL     1      -7.262   4.652 -29.925  1.00  0.00     0.029 C 
HETATM   21  C   UNL     1      -7.765   3.209 -30.035  1.00  0.00     0.021 C 
ENDBRANCH  12  14
ENDBRANCH   8  12
TORSDOF 2
ENDMDL
MODEL 5
REMARK VINA RESULT:      -6.6     13.750     15.182
REMARK  2 active torsions:
REMARK  status: ('A' for Active; 'I' for Inactive)
REMARK    1  A    between atoms: C_8  and  S_9 
REMARK    2  A    between atoms: S_9  and  C_10 
ROOT
HETATM    1  C   UNL     1      -9.316 -12.178 -40.325  1.00  0.00     0.002 A 
HETATM    2  C   UNL     1      -7.949 -12.045 -40.078  1.00  0.00     0.034 A 
HETATM    3  C   UNL     1      -7.351 -12.652 -38.980  1.00  0.00     0.087 A 
HETATM    4  C   UNL     1      -8.155 -13.425 -38.101  1.00  0.00     0.087 A 
HETATM    5  N   UNL     1      -7.624 -14.048 -37.033  1.00  0.00    -0.232 NA
HETATM    6  C   UNL     1      -6.294 -13.913 -36.847  1.00  0.00     0.164 A 
HETATM    7 CL   UNL     1      -5.699 -14.778 -35.492  1.00  0.00    -0.059 Cl
HETATM    8  C   UNL     1      -5.510 -13.148 -37.696  1.00  0.00     0.165 A 
HETATM    9  N   UNL     1      -6.025 -12.496 -38.768  1.00  0.00    -0.234 NA
HETATM   10  C   UNL     1      -9.515 -13.545 -38.355  1.00  0.00     0.034 A 
HETATM   11  C   UNL     1     -10.102 -12.927 -39.459  1.00  0.00     0.002 A 
ENDROOT
BRANCH   8  12
HETATM   12  S   UNL     1      -3.736 -12.939 -37.513  1.00  0.00     0.078 S 
HETATM   13  O   UNL     1      -3.377 -11.737 -38.345  1.00  0.00    -0.251 OA
BRANCH  12  14
HETATM   14  C   UNL     1      -3.092 -14.388 -38.457  1.00  0.00     0.112 C 
HETATM   15  C   UNL     1      -2.460 -13.920 -39.774  1.00  0.00     0.250 C 
HETATM   16  N   UNL     1      -1.199 -13.148 -39.501  1.00  0.00    -0.074 N 
HETATM   17  H   UNL     1      -1.462 -12.318 -38.922  1.00  0.00     0.277 HD
HETATM   18  H   UNL     1      -0.818 -12.758 -40.371  1.00  0.00     0.277 HD
HETATM   19  C   UNL     1      -0.157 -13.920 -38.773  1.00  0.00     0.232 C 
HETATM   20  C   UNL     1      -0.721 -14.407 -37.447  1.00  0.00     0.029 C 
HETATM   21  C   UNL     1      -2.055 -15.143 -37.605  1.00  0.00     0.021 C 
ENDBRANCH  12  14
ENDBRANCH   8  12
TORSDOF 2
ENDMDL
MODEL 6
REMARK VINA RESULT:      -6.5      1.799      2.094
REMARK  2 active torsions:
REMARK  status: ('A' for Active; 'I' for Inactive)
REMARK    1  A    between atoms: C_8  and  S_9 
REMARK    2  A    between atoms: S_9  and  C_10 
ROOT
HETATM    1  C   UNL     1      -6.531  -3.243 -34.846  1.00  0.00     0.002 A 
HETATM    2  C   UNL     1      -6.992  -2.013 -34.375  1.00  0.00     0.034 A 
HETATM    3  C   UNL     1      -6.158  -1.148 -33.676  1.00  0.00     0.087 A 
HETATM    4  C   UNL     1      -4.810  -1.531 -33.447  1.00  0.00     0.087 A 
HETATM    5  N   UNL     1      -3.956  -0.724 -32.791  1.00  0.00    -0.232 NA
HETATM    6  C   UNL     1      -4.438   0.466 -32.376  1.00  0.00     0.164 A 
HETATM    7 CL   UNL     1      -3.269   1.446 -31.594  1.00  0.00    -0.059 Cl
HETATM    8  C   UNL     1      -5.757   0.836 -32.587  1.00  0.00     0.165 A 
HETATM    9  N   UNL     1      -6.641   0.033 -33.229  1.00  0.00    -0.234 NA
HETATM   10  C   UNL     1      -4.365  -2.760 -33.916  1.00  0.00     0.034 A 
HETATM   11  C   UNL     1      -5.215  -3.619 -34.613  1.00  0.00     0.002 A 
ENDROOT
BRANCH   8  12
HETATM   12  S   UNL     1      -6.456   2.408 -32.073  1.00  0.00     0.078 S 
HETATM   13  O   UNL     1      -7.693   2.068 -31.284  1.00  0.00    -0.251 OA
BRANCH  12  14
HETATM   14  C   UNL     1      -7.077   3.080 -33.676  1.00  0.00     0.112 C 
HETATM   15  C   UNL     1      -8.586   3.339 -33.589  1.00  0.00     0.250 C 
HETATM   16  N   UNL     1      -8.866   4.480 -32.650  1.00  0.00    -0.074 N 
HETATM   17  H   UNL     1      -8.502   4.204 -31.711  1.00  0.00     0.277 HD
HETATM   18  H   UNL     1      -9.878   4.602 -32.521  1.00  0.00     0.277 HD
HETATM   19  C   UNL     1      -8.231   5.765 -33.046  1.00  0.00     0.232 C 
HETATM   20  C   UNL     1      -6.724   5.576 -33.140  1.00  0.00     0.029 C 
HETATM   21  C   UNL     1      -6.330   4.383 -34.017  1.00  0.00     0.021 C 
ENDBRANCH  12  14
ENDBRANCH   8  12
TORSDOF 2
ENDMDL
MODEL 7
REMARK VINA RESULT:      -6.4      3.648      4.377
REMARK  2 active torsions:
REMARK  status: ('A' for Active; 'I' for Inactive)
REMARK    1  A    between atoms: C_8  and  S_9 
REMARK    2  A    between atoms: S_9  and  C_10 
ROOT
HETATM    1  C   UNL     1      -4.499  -2.521 -34.041  1.00  0.00     0.002 A 
HETATM    2  C   UNL     1      -4.461  -1.182 -33.651  1.00  0.00     0.034 A 
HETATM    3  C   UNL     1      -5.560  -0.348 -33.820  1.00  0.00     0.087 A 
HETATM    4  C   UNL     1      -6.743  -0.881 -34.397  1.00  0.00     0.087 A 
HETATM    5  N   UNL     1      -7.841  -0.122 -34.568  1.00  0.00    -0.232 NA
HETATM    6  C   UNL     1      -7.767   1.160 -34.154  1.00  0.00     0.164 A 
HETATM    7 CL   UNL     1      -9.226   2.036 -34.366  1.00  0.00    -0.059 Cl
HETATM    8  C   UNL     1      -6.609   1.686 -33.602  1.00  0.00     0.165 A 
HETATM    9  N   UNL     1      -5.485   0.946 -33.436  1.00  0.00    -0.234 NA
HETATM   10  C   UNL     1      -6.766  -2.214 -34.786  1.00  0.00     0.034 A 
HETATM   11  C   UNL     1      -5.654  -3.037 -34.614  1.00  0.00     0.002 A 
ENDROOT
BRANCH   8  12
HETATM   12  S   UNL     1      -6.450   3.376 -33.018  1.00  0.00     0.078 S 
HETATM   13  O   UNL     1      -6.582   4.246 -34.241  1.00  0.00    -0.251 OA
BRANCH  12  14
HETATM   14  C   UNL     1      -4.663   3.447 -32.568  1.00  0.00     0.112 C 
HETATM   15  C   UNL     1      -3.947   4.507 -33.416  1.00  0.00     0.250 C 
HETATM   16  N   UNL     1      -4.414   5.883 -33.033  1.00  0.00    -0.074 N 
HETATM   17  H   UNL     1      -5.442   5.924 -33.214  1.00  0.00     0.277 HD
HETATM   18  H   UNL     1      -4.004   6.591 -33.655  1.00  0.00     0.277 HD
HETATM   19  C   UNL     1      -4.170   6.236 -31.608  1.00  0.00     0.232 C 
HETATM   20  C   UNL     1      -4.866   5.223 -30.711  1.00  0.00     0.029 C 
HETATM   21  C   UNL     1      -4.517   3.775 -31.070  1.00  0.00     0.021 C 
ENDBRANCH  12  14
ENDBRANCH   8  12
TORSDOF 2
ENDMDL
MODEL 8
REMARK VINA RESULT:      -6.4     13.704     14.437
REMARK  2 active torsions:
REMARK  status: ('A' for Active; 'I' for Inactive)
REMARK    1  A    between atoms: C_8  and  S_9 
REMARK    2  A    between atoms: S_9  and  C_10 
ROOT
HETATM    1  C   UNL     1      -9.655 -13.188 -39.212  1.00  0.00     0.002 A 
HETATM    2  C   UNL     1      -8.860 -13.526 -38.116  1.00  0.00     0.034 A 
HETATM    3  C   UNL     1      -7.497 -13.253 -38.100  1.00  0.00     0.087 A 
HETATM    4  C   UNL     1      -6.913 -12.611 -39.224  1.00  0.00     0.087 A 
HETATM    5  N   UNL     1      -5.602 -12.308 -39.253  1.00  0.00    -0.232 NA
HETATM    6  C   UNL     1      -4.877 -12.631 -38.162  1.00  0.00     0.164 A 
HETATM    7 CL   UNL     1      -3.231 -12.165 -38.269  1.00  0.00    -0.059 Cl
HETATM    8  C   UNL     1      -5.442 -13.269 -37.069  1.00  0.00     0.165 A 
HETATM    9  N   UNL     1      -6.757 -13.600 -37.024  1.00  0.00    -0.234 NA
HETATM   10  C   UNL     1      -7.714 -12.285 -40.310  1.00  0.00     0.034 A 
HETATM   11  C   UNL     1      -9.079 -12.569 -40.314  1.00  0.00     0.002 A 
ENDROOT
BRANCH   8  12
HETATM   12  S   UNL     1      -4.537 -13.712 -35.583  1.00  0.00     0.078 S 
HETATM   13  O   UNL     1      -3.432 -14.630 -36.035  1.00  0.00    -0.251 OA
BRANCH  12  14
HETATM   14  C   UNL     1      -5.749 -14.804 -34.721  1.00  0.00     0.112 C 
HETATM   15  C   UNL     1      -5.027 -16.010 -34.106  1.00  0.00     0.250 C 
HETATM   16  N   UNL     1      -4.151 -15.566 -32.967  1.00  0.00    -0.074 N 
HETATM   17  H   UNL     1      -3.450 -14.898 -33.357  1.00  0.00     0.277 HD
HETATM   18  H   UNL     1      -3.599 -16.355 -32.607  1.00  0.00     0.277 HD
HETATM   19  C   UNL     1      -4.883 -14.893 -31.862  1.00  0.00     0.232 C 
HETATM   20  C   UNL     1      -5.617 -13.677 -32.408  1.00  0.00     0.029 C 
HETATM   21  C   UNL     1      -6.482 -14.006 -33.628  1.00  0.00     0.021 C 
ENDBRANCH  12  14
ENDBRANCH   8  12
TORSDOF 2
ENDMDL
MODEL 9
REMARK VINA RESULT:      -6.4     14.331     16.040
REMARK  2 active torsions:
REMARK  status: ('A' for Active; 'I' for Inactive)
REMARK    1  A    between atoms: C_8  and  S_9 
REMARK    2  A    between atoms: S_9  and  C_10 
ROOT
HETATM    1  C   UNL     1     -10.821 -12.292 -40.199  1.00  0.00     0.002 A 
HETATM    2  C   UNL     1      -9.460 -11.984 -40.204  1.00  0.00     0.034 A 
HETATM    3  C   UNL     1      -8.501 -12.954 -40.465  1.00  0.00     0.087 A 
HETATM    4  C   UNL     1      -8.924 -14.282 -40.739  1.00  0.00     0.087 A 
HETATM    5  N   UNL     1      -8.037 -15.256 -41.015  1.00  0.00    -0.232 NA
HETATM    6  C   UNL     1      -6.734 -14.907 -41.033  1.00  0.00     0.164 A 
HETATM    7 CL   UNL     1      -5.683 -16.199 -41.441  1.00  0.00    -0.059 Cl
HETATM    8  C   UNL     1      -6.318 -13.615 -40.754  1.00  0.00     0.165 A 
HETATM    9  N   UNL     1      -7.190 -12.621 -40.455  1.00  0.00    -0.234 NA
HETATM   10  C   UNL     1     -10.281 -14.577 -40.726  1.00  0.00     0.034 A 
HETATM   11  C   UNL     1     -11.233 -13.593 -40.458  1.00  0.00     0.002 A 
ENDROOT
BRANCH   8  12
HETATM   12  S   UNL     1      -4.603 -13.084 -40.775  1.00  0.00     0.078 S 
HETATM   13  O   UNL     1      -4.032 -13.595 -42.072  1.00  0.00    -0.251 OA
BRANCH  12  14
HETATM   14  C   UNL     1      -3.865 -14.157 -39.468  1.00  0.00     0.112 C 
HETATM   15  C   UNL     1      -2.505 -14.696 -39.934  1.00  0.00     0.250 C 
HETATM   16  N   UNL     1      -1.503 -13.578 -40.015  1.00  0.00    -0.074 N 
HETATM   17  H   UNL     1      -1.864 -12.887 -40.710  1.00  0.00     0.277 HD
HETATM   18  H   UNL     1      -0.616 -13.916 -40.409  1.00  0.00     0.277 HD
HETATM   19  C   UNL     1      -1.268 -12.875 -38.726  1.00  0.00     0.232 C 
HETATM   20  C   UNL     1      -2.583 -12.306 -38.213  1.00  0.00     0.029 C 
HETATM   21  C   UNL     1      -3.702 -13.352 -38.166  1.00  0.00     0.021 C 
ENDBRANCH  12  14
ENDBRANCH   8  12
TORSDOF 2
ENDMDL
MODEL 10
REMARK VINA RESULT:      -6.3     14.154     15.369
REMARK  2 active torsions:
REMARK  status: ('A' for Active; 'I' for Inactive)
REMARK    1  A    between atoms: C_8  and  S_9 
REMARK    2  A    between atoms: S_9  and  C_10 
ROOT
HETATM    1  C   UNL     1      -1.084 -13.539 -37.941  1.00  0.00     0.002 A 
HETATM    2  C   UNL     1      -2.448 -13.355 -38.175  1.00  0.00     0.034 A 
HETATM    3  C   UNL     1      -2.999 -13.564 -39.433  1.00  0.00     0.087 A 
HETATM    4  C   UNL     1      -2.152 -13.980 -40.494  1.00  0.00     0.087 A 
HETATM    5  N   UNL     1      -2.637 -14.214 -41.727  1.00  0.00    -0.232 NA
HETATM    6  C   UNL     1      -3.965 -14.046 -41.901  1.00  0.00     0.164 A 
HETATM    7 CL   UNL     1      -4.501 -14.412 -43.488  1.00  0.00    -0.059 Cl
HETATM    8  C   UNL     1      -4.792 -13.628 -40.871  1.00  0.00     0.165 A 
HETATM    9  N   UNL     1      -4.323 -13.369 -39.625  1.00  0.00    -0.234 NA
HETATM   10  C   UNL     1      -0.796 -14.155 -40.249  1.00  0.00     0.034 A 
HETATM   11  C   UNL     1      -0.255 -13.937 -38.982  1.00  0.00     0.002 A 
ENDROOT
BRANCH   8  12
HETATM   12  S   UNL     1      -6.566 -13.401 -41.033  1.00  0.00     0.078 S 
HETATM   13  O   UNL     1      -6.779 -11.915 -41.153  1.00  0.00    -0.251 OA
BRANCH  12  14
HETATM   14  C   UNL     1      -7.153 -13.837 -39.339  1.00  0.00     0.112 C 
HETATM   15  C   UNL     1      -7.770 -12.606 -38.662  1.00  0.00     0.250 C 
HETATM   16  N   UNL     1      -9.056 -12.227 -39.344  1.00  0.00    -0.074 N 
HETATM   17  H   UNL     1      -8.826 -12.003 -40.338  1.00  0.00     0.277 HD
HETATM   18  H   UNL     1      -9.429 -11.354 -38.952  1.00  0.00     0.277 HD
HETATM   19  C   UNL     1     -10.092 -13.293 -39.326  1.00  0.00     0.232 C 
HETATM   20  C   UNL     1      -9.543 -14.544 -39.995  1.00  0.00     0.029 C 
HETATM   21  C   UNL     1      -8.187 -14.974 -39.424  1.00  0.00     0.021 C 
ENDBRANCH  12  14
ENDBRANCH   8  12
TORSDOF 2
ENDMDL
