MODEL 1
REMARK VINA RESULT:      -9.0      0.000      0.000
REMARK  5 active torsions:
REMARK  status: ('A' for Active; 'I' for Inactive)
REMARK    1  A    between atoms: C_2  and  O_3 
REMARK    2  A    between atoms: O_3  and  C_4 
REMARK    3  A    between atoms: C_5  and  N_6 
REMARK       I    between atoms: N_6  and  C_7 
REMARK    4  A    between atoms: C_7  and  C_8 
REMARK    5  A    between atoms: C_9  and  C_10 
ROOT
HETATM    1  N   UNL     1      -3.203   3.128 -32.307  1.00  0.00    -0.321 N 
HETATM    2  C   UNL     1      -4.471   2.878 -31.838  1.00  0.00     0.245 C 
HETATM    3  O   UNL     1      -5.165   3.612 -31.148  1.00  0.00    -0.268 OA
HETATM    4  H   UNL     1      -2.803   2.487 -32.983  1.00  0.00     0.169 HD
ENDROOT
BRANCH   1   5
HETATM    5  C   UNL     1      -2.375   4.230 -32.000  1.00  0.00     0.071 A 
HETATM    6  C   UNL     1      -1.746   4.887 -33.087  1.00  0.00     0.096 A 
HETATM    7  C   UNL     1      -0.825   5.919 -32.892  1.00  0.00     0.049 A 
HETATM    8  C   UNL     1      -0.590   6.328 -31.595  1.00  0.00    -0.020 A 
HETATM    9  C   UNL     1      -1.233   5.717 -30.529  1.00  0.00     0.078 A 
HETATM   10  C   UNL     1       0.361   7.340 -31.080  1.00  0.00     0.073 C 
HETATM   11  C   UNL     1      -2.120   4.668 -30.699  1.00  0.00     0.069 A 
HETATM   12  O   UNL     1      -0.869   6.225 -29.308  1.00  0.00    -0.345 OA
HETATM   13  C   UNL     1      -0.154   7.445 -29.637  1.00  0.00     0.129 C 
HETATM   14  C   UNL     1       0.968   7.648 -28.633  1.00  0.00     0.040 C 
BRANCH   6  15
HETATM   15  O   UNL     1      -2.008   4.491 -34.379  1.00  0.00    -0.349 OA
BRANCH  15  16
HETATM   16  C   UNL     1      -2.852   5.447 -35.043  1.00  0.00     0.171 C 
HETATM   17  C   UNL     1      -4.293   4.972 -35.021  1.00  0.00     0.034 C 
ENDBRANCH  15  16
ENDBRANCH   6  15
ENDBRANCH   1   5
BRANCH   2  18
HETATM   18  C   UNL     1      -4.982   1.571 -32.324  1.00  0.00     0.077 C 
HETATM   19  C   UNL     1      -4.133   0.697 -32.880  1.00  0.00     0.043 C 
BRANCH  19  20
HETATM   20  C   UNL     1      -4.599  -0.554 -33.367  1.00  0.00     0.077 A 
HETATM   21  O   UNL     1      -3.833  -1.700 -33.403  1.00  0.00    -0.310 OA
HETATM   22  C   UNL     1      -4.591  -2.709 -33.903  1.00  0.00     0.086 A 
HETATM   23  C   UNL     1      -5.856  -2.246 -34.225  1.00  0.00     0.000 A 
HETATM   24  C   UNL     1      -4.173  -4.027 -34.073  1.00  0.00     0.038 A 
HETATM   25  C   UNL     1      -5.854  -0.872 -33.876  1.00  0.00     0.051 A 
HETATM   26  C   UNL     1      -6.785  -3.148 -34.772  1.00  0.00     0.014 A 
HETATM   27  C   UNL     1      -6.395  -4.483 -34.959  1.00  0.00     0.001 A 
HETATM   28  C   UNL     1      -5.111  -4.913 -34.611  1.00  0.00     0.003 A 
ENDBRANCH  19  20
ENDBRANCH   2  18
TORSDOF 5
ENDMDL
MODEL 2
REMARK VINA RESULT:      -8.6      1.294      1.364
REMARK  5 active torsions:
REMARK  status: ('A' for Active; 'I' for Inactive)
REMARK    1  A    between atoms: C_2  and  O_3 
REMARK    2  A    between atoms: O_3  and  C_4 
REMARK    3  A    between atoms: C_5  and  N_6 
REMARK       I    between atoms: N_6  and  C_7 
REMARK    4  A    between atoms: C_7  and  C_8 
REMARK    5  A    between atoms: C_9  and  C_10 
ROOT
HETATM    1  N   UNL     1      -4.168   3.413 -32.337  1.00  0.00    -0.321 N 
HETATM    2  C   UNL     1      -5.520   3.227 -32.504  1.00  0.00     0.245 C 
HETATM    3  O   UNL     1      -6.406   4.061 -32.372  1.00  0.00    -0.268 OA
HETATM    4  H   UNL     1      -3.540   2.668 -32.614  1.00  0.00     0.169 HD
ENDROOT
BRANCH   1   5
HETATM    5  C   UNL     1      -3.512   4.569 -31.859  1.00  0.00     0.071 A 
HETATM    6  C   UNL     1      -2.387   5.022 -32.592  1.00  0.00     0.096 A 
HETATM    7  C   UNL     1      -1.601   6.090 -32.153  1.00  0.00     0.049 A 
HETATM    8  C   UNL     1      -1.996   6.740 -31.001  1.00  0.00    -0.020 A 
HETATM    9  C   UNL     1      -3.119   6.328 -30.300  1.00  0.00     0.078 A 
HETATM   10  C   UNL     1      -1.341   7.850 -30.271  1.00  0.00     0.073 C 
HETATM   11  C   UNL     1      -3.889   5.249 -30.699  1.00  0.00     0.069 A 
HETATM   12  O   UNL     1      -3.357   7.065 -29.168  1.00  0.00    -0.345 OA
HETATM   13  C   UNL     1      -2.482   8.215 -29.310  1.00  0.00     0.129 C 
HETATM   14  C   UNL     1      -1.977   8.625 -27.937  1.00  0.00     0.040 C 
BRANCH   6  15
HETATM   15  O   UNL     1      -2.018   4.385 -33.755  1.00  0.00    -0.349 OA
BRANCH  15  16
HETATM   16  C   UNL     1      -2.217   5.244 -34.891  1.00  0.00     0.171 C 
HETATM   17  C   UNL     1      -3.676   5.225 -35.309  1.00  0.00     0.034 C 
ENDBRANCH  15  16
ENDBRANCH   6  15
ENDBRANCH   1   5
BRANCH   2  18
HETATM   18  C   UNL     1      -5.827   1.843 -32.947  1.00  0.00     0.077 C 
HETATM   19  C   UNL     1      -4.837   0.944 -33.037  1.00  0.00     0.043 C 
BRANCH  19  20
HETATM   20  C   UNL     1      -5.102  -0.382 -33.472  1.00  0.00     0.077 A 
HETATM   21  O   UNL     1      -4.170  -1.398 -33.454  1.00  0.00    -0.310 OA
HETATM   22  C   UNL     1      -4.759  -2.531 -33.915  1.00  0.00     0.086 A 
HETATM   23  C   UNL     1      -6.075  -2.280 -34.265  1.00  0.00     0.000 A 
HETATM   24  C   UNL     1      -4.144  -3.775 -34.026  1.00  0.00     0.038 A 
HETATM   25  C   UNL     1      -6.287  -0.907 -33.975  1.00  0.00     0.051 A 
HETATM   26  C   UNL     1      -6.850  -3.334 -34.779  1.00  0.00     0.014 A 
HETATM   27  C   UNL     1      -6.259  -4.601 -34.906  1.00  0.00     0.001 A 
HETATM   28  C   UNL     1      -4.930  -4.816 -34.531  1.00  0.00     0.003 A 
ENDBRANCH  19  20
ENDBRANCH   2  18
TORSDOF 5
ENDMDL
MODEL 3
REMARK VINA RESULT:      -8.5      2.217      2.538
REMARK  5 active torsions:
REMARK  status: ('A' for Active; 'I' for Inactive)
REMARK    1  A    between atoms: C_2  and  O_3 
REMARK    2  A    between atoms: O_3  and  C_4 
REMARK    3  A    between atoms: C_5  and  N_6 
REMARK       I    between atoms: N_6  and  C_7 
REMARK    4  A    between atoms: C_7  and  C_8 
REMARK    5  A    between atoms: C_9  and  C_10 
ROOT
HETATM    1  N   UNL     1      -3.835   5.038 -31.667  1.00  0.00    -0.321 N 
HETATM    2  C   UNL     1      -3.049   3.916 -31.784  1.00  0.00     0.245 C 
HETATM    3  O   UNL     1      -1.909   3.761 -31.366  1.00  0.00    -0.268 OA
HETATM    4  H   UNL     1      -4.809   4.977 -31.940  1.00  0.00     0.169 HD
ENDROOT
BRANCH   1   5
HETATM    5  C   UNL     1      -3.462   6.298 -31.148  1.00  0.00     0.071 A 
HETATM    6  C   UNL     1      -2.925   7.238 -32.063  1.00  0.00     0.096 A 
HETATM    7  C   UNL     1      -2.425   8.474 -31.643  1.00  0.00     0.049 A 
HETATM    8  C   UNL     1      -2.530   8.782 -30.301  1.00  0.00    -0.020 A 
HETATM    9  C   UNL     1      -3.092   7.883 -29.407  1.00  0.00     0.078 A 
HETATM   10  C   UNL     1      -2.045   9.970 -29.563  1.00  0.00     0.073 C 
HETATM   11  C   UNL     1      -3.558   6.639 -29.798  1.00  0.00     0.069 A 
HETATM   12  O   UNL     1      -3.098   8.333 -28.112  1.00  0.00    -0.345 OA
HETATM   13  C   UNL     1      -2.775   9.743 -28.231  1.00  0.00     0.129 C 
HETATM   14  C   UNL     1      -1.941  10.163 -27.032  1.00  0.00     0.040 C 
BRANCH   6  15
HETATM   15  O   UNL     1      -2.850   6.935 -33.403  1.00  0.00    -0.349 OA
BRANCH  15  16
HETATM   16  C   UNL     1      -1.480   6.799 -33.819  1.00  0.00     0.171 C 
HETATM   17  C   UNL     1      -1.304   5.522 -34.621  1.00  0.00     0.034 C 
ENDBRANCH  15  16
ENDBRANCH   6  15
ENDBRANCH   1   5
BRANCH   2  18
HETATM   18  C   UNL     1      -3.777   2.812 -32.459  1.00  0.00     0.077 C 
HETATM   19  C   UNL     1      -3.611   1.553 -32.031  1.00  0.00     0.043 C 
BRANCH  19  20
HETATM   20  C   UNL     1      -4.284   0.478 -32.670  1.00  0.00     0.077 A 
HETATM   21  O   UNL     1      -3.648  -0.637 -33.175  1.00  0.00    -0.310 OA
HETATM   22  C   UNL     1      -4.586  -1.470 -33.695  1.00  0.00     0.086 A 
HETATM   23  C   UNL     1      -5.848  -0.914 -33.562  1.00  0.00     0.000 A 
HETATM   24  C   UNL     1      -4.334  -2.709 -34.278  1.00  0.00     0.038 A 
HETATM   25  C   UNL     1      -5.647   0.326 -32.904  1.00  0.00     0.051 A 
HETATM   26  C   UNL     1      -6.954  -1.628 -34.055  1.00  0.00     0.014 A 
HETATM   27  C   UNL     1      -6.734  -2.879 -34.652  1.00  0.00     0.001 A 
HETATM   28  C   UNL     1      -5.445  -3.410 -34.757  1.00  0.00     0.003 A 
ENDBRANCH  19  20
ENDBRANCH   2  18
TORSDOF 5
ENDMDL
MODEL 4
REMARK VINA RESULT:      -8.5      1.343      9.664
REMARK  5 active torsions:
REMARK  status: ('A' for Active; 'I' for Inactive)
REMARK    1  A    between atoms: C_2  and  O_3 
REMARK    2  A    between atoms: O_3  and  C_4 
REMARK    3  A    between atoms: C_5  and  N_6 
REMARK       I    between atoms: N_6  and  C_7 
REMARK    4  A    between atoms: C_7  and  C_8 
REMARK    5  A    between atoms: C_9  and  C_10 
ROOT
HETATM    1  N   UNL     1      -3.693   2.620 -31.796  1.00  0.00    -0.321 N 
HETATM    2  C   UNL     1      -2.839   3.574 -32.298  1.00  0.00     0.245 C 
HETATM    3  O   UNL     1      -2.473   3.705 -33.458  1.00  0.00    -0.268 OA
HETATM    4  H   UNL     1      -4.017   2.716 -30.840  1.00  0.00     0.169 HD
ENDROOT
BRANCH   1   5
HETATM    5  C   UNL     1      -4.240   1.512 -32.479  1.00  0.00     0.071 A 
HETATM    6  C   UNL     1      -5.583   1.624 -32.919  1.00  0.00     0.096 A 
HETATM    7  C   UNL     1      -6.258   0.553 -33.510  1.00  0.00     0.049 A 
HETATM    8  C   UNL     1      -5.549  -0.614 -33.713  1.00  0.00    -0.020 A 
HETATM    9  C   UNL     1      -4.222  -0.717 -33.322  1.00  0.00     0.078 A 
HETATM   10  C   UNL     1      -6.004  -1.915 -34.253  1.00  0.00     0.073 C 
HETATM   11  C   UNL     1      -3.548   0.320 -32.701  1.00  0.00     0.069 A 
HETATM   12  O   UNL     1      -3.673  -1.949 -33.573  1.00  0.00    -0.345 OA
HETATM   13  C   UNL     1      -4.638  -2.588 -34.451  1.00  0.00     0.129 C 
HETATM   14  C   UNL     1      -4.673  -4.076 -34.147  1.00  0.00     0.040 C 
BRANCH   6  15
HETATM   15  O   UNL     1      -6.274   2.800 -32.738  1.00  0.00    -0.349 OA
BRANCH  15  16
HETATM   16  C   UNL     1      -6.480   3.468 -33.995  1.00  0.00     0.171 C 
HETATM   17  C   UNL     1      -5.798   4.824 -33.982  1.00  0.00     0.034 C 
ENDBRANCH  15  16
ENDBRANCH   6  15
ENDBRANCH   1   5
BRANCH   2  18
HETATM   18  C   UNL     1      -2.416   4.532 -31.245  1.00  0.00     0.077 C 
HETATM   19  C   UNL     1      -1.298   5.249 -31.416  1.00  0.00     0.043 C 
BRANCH  19  20
HETATM   20  C   UNL     1      -0.864   6.161 -30.416  1.00  0.00     0.077 A 
HETATM   21  O   UNL     1      -1.711   6.788 -29.528  1.00  0.00    -0.310 OA
HETATM   22  C   UNL     1      -0.967   7.570 -28.703  1.00  0.00     0.086 A 
HETATM   23  C   UNL     1       0.373   7.489 -29.043  1.00  0.00     0.000 A 
HETATM   24  C   UNL     1      -1.463   8.345 -27.658  1.00  0.00     0.038 A 
HETATM   25  C   UNL     1       0.431   6.585 -30.135  1.00  0.00     0.051 A 
HETATM   26  C   UNL     1       1.303   8.243 -28.306  1.00  0.00     0.014 A 
HETATM   27  C   UNL     1       0.835   9.037 -27.248  1.00  0.00     0.001 A 
HETATM   28  C   UNL     1      -0.525   9.083 -26.929  1.00  0.00     0.003 A 
ENDBRANCH  19  20
ENDBRANCH   2  18
TORSDOF 5
ENDMDL
MODEL 5
REMARK VINA RESULT:      -8.4      6.583      8.575
REMARK  5 active torsions:
REMARK  status: ('A' for Active; 'I' for Inactive)
REMARK    1  A    between atoms: C_2  and  O_3 
REMARK    2  A    between atoms: O_3  and  C_4 
REMARK    3  A    between atoms: C_5  and  N_6 
REMARK       I    between atoms: N_6  and  C_7 
REMARK    4  A    between atoms: C_7  and  C_8 
REMARK    5  A    between atoms: C_9  and  C_10 
ROOT
HETATM    1  N   UNL     1      -9.967   1.978 -34.422  1.00  0.00    -0.321 N 
HETATM    2  C   UNL     1      -9.619   1.599 -33.147  1.00  0.00     0.245 C 
HETATM    3  O   UNL     1      -9.987   2.104 -32.096  1.00  0.00    -0.268 OA
HETATM    4  H   UNL     1      -9.695   1.382 -35.196  1.00  0.00     0.169 HD
ENDROOT
BRANCH   1   5
HETATM    5  C   UNL     1     -10.728   3.105 -34.806  1.00  0.00     0.071 A 
HETATM    6  C   UNL     1     -12.017   2.861 -35.342  1.00  0.00     0.096 A 
HETATM    7  C   UNL     1     -12.811   3.891 -35.851  1.00  0.00     0.049 A 
HETATM    8  C   UNL     1     -12.324   5.179 -35.757  1.00  0.00    -0.020 A 
HETATM    9  C   UNL     1     -11.080   5.429 -35.197  1.00  0.00     0.078 A 
HETATM   10  C   UNL     1     -12.903   6.447 -36.254  1.00  0.00     0.073 C 
HETATM   11  C   UNL     1     -10.262   4.418 -34.722  1.00  0.00     0.069 A 
HETATM   12  O   UNL     1     -10.736   6.757 -35.202  1.00  0.00    -0.345 OA
HETATM   13  C   UNL     1     -11.976   7.437 -35.532  1.00  0.00     0.129 C 
HETATM   14  C   UNL     1     -11.660   8.659 -36.377  1.00  0.00     0.040 C 
BRANCH   6  15
HETATM   15  O   UNL     1     -12.507   1.576 -35.405  1.00  0.00    -0.349 OA
BRANCH  15  16
HETATM   16  C   UNL     1     -13.543   1.378 -34.427  1.00  0.00     0.171 C 
HETATM   17  C   UNL     1     -13.438  -0.015 -33.834  1.00  0.00     0.034 C 
ENDBRANCH  15  16
ENDBRANCH   6  15
ENDBRANCH   1   5
BRANCH   2  18
HETATM   18  C   UNL     1      -8.739   0.402 -33.159  1.00  0.00     0.077 C 
HETATM   19  C   UNL     1      -7.891   0.216 -34.179  1.00  0.00     0.043 C 
BRANCH  19  20
HETATM   20  C   UNL     1      -7.051  -0.929 -34.221  1.00  0.00     0.077 A 
HETATM   21  O   UNL     1      -7.456  -2.164 -34.681  1.00  0.00    -0.310 OA
HETATM   22  C   UNL     1      -6.404  -3.019 -34.602  1.00  0.00     0.086 A 
HETATM   23  C   UNL     1      -5.299  -2.374 -34.072  1.00  0.00     0.000 A 
HETATM   24  C   UNL     1      -6.416  -4.355 -34.995  1.00  0.00     0.038 A 
HETATM   25  C   UNL     1      -5.719  -1.040 -33.836  1.00  0.00     0.051 A 
HETATM   26  C   UNL     1      -4.110  -3.104 -33.900  1.00  0.00     0.014 A 
HETATM   27  C   UNL     1      -4.089  -4.453 -34.284  1.00  0.00     0.001 A 
HETATM   28  C   UNL     1      -5.223  -5.065 -34.825  1.00  0.00     0.003 A 
ENDBRANCH  19  20
ENDBRANCH   2  18
TORSDOF 5
ENDMDL
MODEL 6
REMARK VINA RESULT:      -8.2      1.782      9.586
REMARK  5 active torsions:
REMARK  status: ('A' for Active; 'I' for Inactive)
REMARK    1  A    between atoms: C_2  and  O_3 
REMARK    2  A    between atoms: O_3  and  C_4 
REMARK    3  A    between atoms: C_5  and  N_6 
REMARK       I    between atoms: N_6  and  C_7 
REMARK    4  A    between atoms: C_7  and  C_8 
REMARK    5  A    between atoms: C_9  and  C_10 
ROOT
HETATM    1  N   UNL     1      -4.936   2.066 -32.492  1.00  0.00    -0.321 N 
HETATM    2  C   UNL     1      -4.894   3.311 -33.072  1.00  0.00     0.245 C 
HETATM    3  O   UNL     1      -5.398   3.653 -34.133  1.00  0.00    -0.268 OA
HETATM    4  H   UNL     1      -4.591   1.962 -31.544  1.00  0.00     0.169 HD
ENDROOT
BRANCH   1   5
HETATM    5  C   UNL     1      -5.463   0.877 -33.045  1.00  0.00     0.071 A 
HETATM    6  C   UNL     1      -6.874   0.781 -33.140  1.00  0.00     0.096 A 
HETATM    7  C   UNL     1      -7.506  -0.388 -33.571  1.00  0.00     0.049 A 
HETATM    8  C   UNL     1      -6.703  -1.438 -33.968  1.00  0.00    -0.020 A 
HETATM    9  C   UNL     1      -5.321  -1.336 -33.916  1.00  0.00     0.078 A 
HETATM   10  C   UNL     1      -7.078  -2.801 -34.410  1.00  0.00     0.073 C 
HETATM   11  C   UNL     1      -4.676  -0.201 -33.456  1.00  0.00     0.069 A 
HETATM   12  O   UNL     1      -4.674  -2.475 -34.322  1.00  0.00    -0.345 OA
HETATM   13  C   UNL     1      -5.718  -3.265 -34.950  1.00  0.00     0.129 C 
HETATM   14  C   UNL     1      -5.456  -4.737 -34.680  1.00  0.00     0.040 C 
BRANCH   6  15
HETATM   15  O   UNL     1      -7.666   1.844 -32.770  1.00  0.00    -0.349 OA
BRANCH  15  16
HETATM   16  C   UNL     1      -8.255   1.614 -31.478  1.00  0.00     0.171 C 
HETATM   17  C   UNL     1      -7.855   2.720 -30.519  1.00  0.00     0.034 C 
ENDBRANCH  15  16
ENDBRANCH   6  15
ENDBRANCH   1   5
BRANCH   2  18
HETATM   18  C   UNL     1      -4.182   4.288 -32.209  1.00  0.00     0.077 C 
HETATM   19  C   UNL     1      -2.844   4.260 -32.145  1.00  0.00     0.043 C 
BRANCH  19  20
HETATM   20  C   UNL     1      -2.140   5.173 -31.315  1.00  0.00     0.077 A 
HETATM   21  O   UNL     1      -2.751   6.143 -30.548  1.00  0.00    -0.310 OA
HETATM   22  C   UNL     1      -1.791   6.820 -29.867  1.00  0.00     0.086 A 
HETATM   23  C   UNL     1      -0.537   6.327 -30.186  1.00  0.00     0.000 A 
HETATM   24  C   UNL     1      -2.018   7.862 -28.971  1.00  0.00     0.038 A 
HETATM   25  C   UNL     1      -0.769   5.274 -31.107  1.00  0.00     0.051 A 
HETATM   26  C   UNL     1       0.591   6.914 -29.586  1.00  0.00     0.014 A 
HETATM   27  C   UNL     1       0.398   7.968 -28.680  1.00  0.00     0.001 A 
HETATM   28  C   UNL     1      -0.886   8.430 -28.376  1.00  0.00     0.003 A 
ENDBRANCH  19  20
ENDBRANCH   2  18
TORSDOF 5
ENDMDL
MODEL 7
REMARK VINA RESULT:      -7.9      5.236      6.940
REMARK  5 active torsions:
REMARK  status: ('A' for Active; 'I' for Inactive)
REMARK    1  A    between atoms: C_2  and  O_3 
REMARK    2  A    between atoms: O_3  and  C_4 
REMARK    3  A    between atoms: C_5  and  N_6 
REMARK       I    between atoms: N_6  and  C_7 
REMARK    4  A    between atoms: C_7  and  C_8 
REMARK    5  A    between atoms: C_9  and  C_10 
ROOT
HETATM    1  N   UNL     1      -7.022   2.733 -33.589  1.00  0.00    -0.321 N 
HETATM    2  C   UNL     1      -7.477   1.735 -34.419  1.00  0.00     0.245 C 
HETATM    3  O   UNL     1      -6.811   1.023 -35.158  1.00  0.00    -0.268 OA
HETATM    4  H   UNL     1      -7.671   3.147 -32.931  1.00  0.00     0.169 HD
ENDROOT
BRANCH   1   5
HETATM    5  C   UNL     1      -5.707   3.239 -33.496  1.00  0.00     0.071 A 
HETATM    6  C   UNL     1      -4.783   2.494 -32.721  1.00  0.00     0.096 A 
HETATM    7  C   UNL     1      -3.488   2.955 -32.473  1.00  0.00     0.049 A 
HETATM    8  C   UNL     1      -3.108   4.142 -33.066  1.00  0.00    -0.020 A 
HETATM    9  C   UNL     1      -3.994   4.855 -33.859  1.00  0.00     0.078 A 
HETATM   10  C   UNL     1      -1.841   4.898 -32.942  1.00  0.00     0.073 C 
HETATM   11  C   UNL     1      -5.293   4.435 -34.086  1.00  0.00     0.069 A 
HETATM   12  O   UNL     1      -3.468   6.023 -34.352  1.00  0.00    -0.345 OA
HETATM   13  C   UNL     1      -2.046   5.904 -34.086  1.00  0.00     0.129 C 
HETATM   14  C   UNL     1      -1.487   7.278 -33.758  1.00  0.00     0.040 C 
BRANCH   6  15
HETATM   15  O   UNL     1      -5.161   1.297 -32.156  1.00  0.00    -0.349 OA
BRANCH  15  16
HETATM   16  C   UNL     1      -4.434   0.205 -32.745  1.00  0.00     0.171 C 
HETATM   17  C   UNL     1      -4.821  -1.100 -32.073  1.00  0.00     0.034 C 
ENDBRANCH  15  16
ENDBRANCH   6  15
ENDBRANCH   1   5
BRANCH   2  18
HETATM   18  C   UNL     1      -8.944   1.546 -34.285  1.00  0.00     0.077 C 
HETATM   19  C   UNL     1      -9.658   2.412 -33.553  1.00  0.00     0.043 C 
BRANCH  19  20
HETATM   20  C   UNL     1     -11.059   2.244 -33.398  1.00  0.00     0.077 A 
HETATM   21  O   UNL     1     -11.852   3.070 -32.629  1.00  0.00    -0.310 OA
HETATM   22  C   UNL     1     -13.137   2.639 -32.719  1.00  0.00     0.086 A 
HETATM   23  C   UNL     1     -13.212   1.515 -33.524  1.00  0.00     0.000 A 
HETATM   24  C   UNL     1     -14.234   3.231 -32.097  1.00  0.00     0.038 A 
HETATM   25  C   UNL     1     -11.883   1.273 -33.957  1.00  0.00     0.051 A 
HETATM   26  C   UNL     1     -14.466   0.913 -33.728  1.00  0.00     0.014 A 
HETATM   27  C   UNL     1     -15.591   1.484 -33.114  1.00  0.00     0.001 A 
HETATM   28  C   UNL     1     -15.475   2.625 -32.316  1.00  0.00     0.003 A 
ENDBRANCH  19  20
ENDBRANCH   2  18
TORSDOF 5
ENDMDL
MODEL 8
REMARK VINA RESULT:      -7.9      2.409      9.653
REMARK  5 active torsions:
REMARK  status: ('A' for Active; 'I' for Inactive)
REMARK    1  A    between atoms: C_2  and  O_3 
REMARK    2  A    between atoms: O_3  and  C_4 
REMARK    3  A    between atoms: C_5  and  N_6 
REMARK       I    between atoms: N_6  and  C_7 
REMARK    4  A    between atoms: C_7  and  C_8 
REMARK    5  A    between atoms: C_9  and  C_10 
ROOT
HETATM    1  N   UNL     1      -5.303   1.691 -32.423  1.00  0.00    -0.321 N 
HETATM    2  C   UNL     1      -5.227   1.936 -31.072  1.00  0.00     0.245 C 
HETATM    3  O   UNL     1      -5.342   1.125 -30.163  1.00  0.00    -0.268 OA
HETATM    4  H   UNL     1      -5.052   2.435 -33.064  1.00  0.00     0.169 HD
ENDROOT
BRANCH   1   5
HETATM    5  C   UNL     1      -5.649   0.478 -33.058  1.00  0.00     0.071 A 
HETATM    6  C   UNL     1      -7.002   0.318 -33.449  1.00  0.00     0.096 A 
HETATM    7  C   UNL     1      -7.477  -0.880 -33.988  1.00  0.00     0.049 A 
HETATM    8  C   UNL     1      -6.564  -1.896 -34.189  1.00  0.00    -0.020 A 
HETATM    9  C   UNL     1      -5.231  -1.731 -33.847  1.00  0.00     0.078 A 
HETATM   10  C   UNL     1      -6.779  -3.276 -34.681  1.00  0.00     0.073 C 
HETATM   11  C   UNL     1      -4.748  -0.566 -33.277  1.00  0.00     0.069 A 
HETATM   12  O   UNL     1      -4.464  -2.842 -34.089  1.00  0.00    -0.345 OA
HETATM   13  C   UNL     1      -5.316  -3.681 -34.913  1.00  0.00     0.129 C 
HETATM   14  C   UNL     1      -5.054  -5.139 -34.573  1.00  0.00     0.040 C 
BRANCH   6  15
HETATM   15  O   UNL     1      -7.900   1.345 -33.270  1.00  0.00    -0.349 OA
BRANCH  15  16
HETATM   16  C   UNL     1      -8.834   1.030 -32.224  1.00  0.00     0.171 C 
HETATM   17  C   UNL     1      -8.991   2.217 -31.291  1.00  0.00     0.034 C 
ENDBRANCH  15  16
ENDBRANCH   6  15
ENDBRANCH   1   5
BRANCH   2  18
HETATM   18  C   UNL     1      -4.915   3.362 -30.796  1.00  0.00     0.077 C 
HETATM   19  C   UNL     1      -3.948   3.973 -31.493  1.00  0.00     0.043 C 
BRANCH  19  20
HETATM   20  C   UNL     1      -3.620   5.331 -31.237  1.00  0.00     0.077 A 
HETATM   21  O   UNL     1      -4.070   6.038 -30.142  1.00  0.00    -0.310 OA
HETATM   22  C   UNL     1      -3.552   7.292 -30.197  1.00  0.00     0.086 A 
HETATM   23  C   UNL     1      -2.774   7.441 -31.333  1.00  0.00     0.000 A 
HETATM   24  C   UNL     1      -3.762   8.296 -29.255  1.00  0.00     0.038 A 
HETATM   25  C   UNL     1      -2.819   6.184 -31.988  1.00  0.00     0.051 A 
HETATM   26  C   UNL     1      -2.160   8.683 -31.572  1.00  0.00     0.014 A 
HETATM   27  C   UNL     1      -2.353   9.717 -30.642  1.00  0.00     0.001 A 
HETATM   28  C   UNL     1      -3.137   9.523 -29.502  1.00  0.00     0.003 A 
ENDBRANCH  19  20
ENDBRANCH   2  18
TORSDOF 5
ENDMDL
MODEL 9
REMARK VINA RESULT:      -7.9      2.385      3.567
REMARK  5 active torsions:
REMARK  status: ('A' for Active; 'I' for Inactive)
REMARK    1  A    between atoms: C_2  and  O_3 
REMARK    2  A    between atoms: O_3  and  C_4 
REMARK    3  A    between atoms: C_5  and  N_6 
REMARK       I    between atoms: N_6  and  C_7 
REMARK    4  A    between atoms: C_7  and  C_8 
REMARK    5  A    between atoms: C_9  and  C_10 
ROOT
HETATM    1  N   UNL     1      -3.000   5.579 -30.798  1.00  0.00    -0.321 N 
HETATM    2  C   UNL     1      -2.154   4.602 -31.268  1.00  0.00     0.245 C 
HETATM    3  O   UNL     1      -0.958   4.484 -31.042  1.00  0.00    -0.268 OA
HETATM    4  H   UNL     1      -3.996   5.474 -30.955  1.00  0.00     0.169 HD
ENDROOT
BRANCH   1   5
HETATM    5  C   UNL     1      -2.654   6.728 -30.053  1.00  0.00     0.071 A 
HETATM    6  C   UNL     1      -2.565   7.953 -30.761  1.00  0.00     0.096 A 
HETATM    7  C   UNL     1      -2.129   9.130 -30.147  1.00  0.00     0.049 A 
HETATM    8  C   UNL     1      -1.844   9.078 -28.797  1.00  0.00    -0.020 A 
HETATM    9  C   UNL     1      -1.969   7.892 -28.089  1.00  0.00     0.078 A 
HETATM   10  C   UNL     1      -1.314  10.131 -27.901  1.00  0.00     0.073 C 
HETATM   11  C   UNL     1      -2.363   6.707 -28.688  1.00  0.00     0.069 A 
HETATM   12  O   UNL     1      -1.625   8.007 -26.767  1.00  0.00    -0.345 OA
HETATM   13  C   UNL     1      -1.548   9.440 -26.549  1.00  0.00     0.129 C 
HETATM   14  C   UNL     1      -0.442   9.731 -25.549  1.00  0.00     0.040 C 
BRANCH   6  15
HETATM   15  O   UNL     1      -2.878   8.002 -32.100  1.00  0.00    -0.349 OA
BRANCH  15  16
HETATM   16  C   UNL     1      -1.694   7.871 -32.905  1.00  0.00     0.171 C 
HETATM   17  C   UNL     1      -1.956   6.932 -34.068  1.00  0.00     0.034 C 
ENDBRANCH  15  16
ENDBRANCH   6  15
ENDBRANCH   1   5
BRANCH   2  18
HETATM   18  C   UNL     1      -2.885   3.599 -32.084  1.00  0.00     0.077 C 
HETATM   19  C   UNL     1      -4.132   3.251 -31.740  1.00  0.00     0.043 C 
BRANCH  19  20
HETATM   20  C   UNL     1      -4.847   2.283 -32.496  1.00  0.00     0.077 A 
HETATM   21  O   UNL     1      -4.650   0.922 -32.385  1.00  0.00    -0.310 OA
HETATM   22  C   UNL     1      -5.508   0.294 -33.230  1.00  0.00     0.086 A 
HETATM   23  C   UNL     1      -6.266   1.222 -33.924  1.00  0.00     0.000 A 
HETATM   24  C   UNL     1      -5.624  -1.086 -33.386  1.00  0.00     0.038 A 
HETATM   25  C   UNL     1      -5.841   2.488 -33.446  1.00  0.00     0.051 A 
HETATM   26  C   UNL     1      -7.207   0.759 -34.860  1.00  0.00     0.014 A 
HETATM   27  C   UNL     1      -7.347  -0.625 -35.043  1.00  0.00     0.001 A 
HETATM   28  C   UNL     1      -6.570  -1.530 -34.315  1.00  0.00     0.003 A 
ENDBRANCH  19  20
ENDBRANCH   2  18
TORSDOF 5
ENDMDL
MODEL 10
REMARK VINA RESULT:      -7.6      3.616      9.956
REMARK  5 active torsions:
REMARK  status: ('A' for Active; 'I' for Inactive)
REMARK    1  A    between atoms: C_2  and  O_3 
REMARK    2  A    between atoms: O_3  and  C_4 
REMARK    3  A    between atoms: C_5  and  N_6 
REMARK       I    between atoms: N_6  and  C_7 
REMARK    4  A    between atoms: C_7  and  C_8 
REMARK    5  A    between atoms: C_9  and  C_10 
ROOT
HETATM    1  N   UNL     1      -6.942   3.249 -31.589  1.00  0.00    -0.321 N 
HETATM    2  C   UNL     1      -5.747   3.346 -32.261  1.00  0.00     0.245 C 
HETATM    3  O   UNL     1      -5.484   2.915 -33.375  1.00  0.00    -0.268 OA
HETATM    4  H   UNL     1      -7.058   3.773 -30.729  1.00  0.00     0.169 HD
ENDROOT
BRANCH   1   5
HETATM    5  C   UNL     1      -8.092   2.527 -31.982  1.00  0.00     0.071 A 
HETATM    6  C   UNL     1      -8.122   1.144 -31.672  1.00  0.00     0.096 A 
HETATM    7  C   UNL     1      -9.158   0.314 -32.105  1.00  0.00     0.049 A 
HETATM    8  C   UNL     1     -10.198   0.900 -32.798  1.00  0.00    -0.020 A 
HETATM    9  C   UNL     1     -10.195   2.260 -33.069  1.00  0.00     0.078 A 
HETATM   10  C   UNL     1     -11.387   0.277 -33.424  1.00  0.00     0.073 C 
HETATM   11  C   UNL     1      -9.159   3.092 -32.681  1.00  0.00     0.069 A 
HETATM   12  O   UNL     1     -11.288   2.676 -33.786  1.00  0.00    -0.345 OA
HETATM   13  C   UNL     1     -12.198   1.547 -33.722  1.00  0.00     0.129 C 
HETATM   14  C   UNL     1     -12.965   1.454 -35.030  1.00  0.00     0.040 C 
BRANCH   6  15
HETATM   15  O   UNL     1      -7.094   0.574 -30.956  1.00  0.00    -0.349 OA
BRANCH  15  16
HETATM   16  C   UNL     1      -6.374  -0.372 -31.765  1.00  0.00     0.171 C 
HETATM   17  C   UNL     1      -4.882  -0.229 -31.528  1.00  0.00     0.034 C 
ENDBRANCH  15  16
ENDBRANCH   6  15
ENDBRANCH   1   5
BRANCH   2  18
HETATM   18  C   UNL     1      -4.750   4.126 -31.484  1.00  0.00     0.077 C 
HETATM   19  C   UNL     1      -3.680   4.638 -32.107  1.00  0.00     0.043 C 
BRANCH  19  20
HETATM   20  C   UNL     1      -2.705   5.374 -31.383  1.00  0.00     0.077 A 
HETATM   21  O   UNL     1      -3.008   6.299 -30.407  1.00  0.00    -0.310 OA
HETATM   22  C   UNL     1      -1.846   6.796 -29.909  1.00  0.00     0.086 A 
HETATM   23  C   UNL     1      -0.763   6.227 -30.558  1.00  0.00     0.000 A 
HETATM   24  C   UNL     1      -1.740   7.741 -28.891  1.00  0.00     0.038 A 
HETATM   25  C   UNL     1      -1.319   5.318 -31.494  1.00  0.00     0.051 A 
HETATM   26  C   UNL     1       0.533   6.628 -30.187  1.00  0.00     0.014 A 
HETATM   27  C   UNL     1       0.674   7.580 -29.166  1.00  0.00     0.001 A 
HETATM   28  C   UNL     1      -0.445   8.123 -28.528  1.00  0.00     0.003 A 
ENDBRANCH  19  20
ENDBRANCH   2  18
TORSDOF 5
ENDMDL
