MODEL 1
REMARK VINA RESULT:      -9.0      0.000      0.000
REMARK  5 active torsions:
REMARK  status: ('A' for Active; 'I' for Inactive)
REMARK    1  A    between atoms: N_7  and  N_8 
REMARK       I    between atoms: N_8  and  C_9 
REMARK    2  A    between atoms: C_9  and  C_10 
REMARK    3  A    between atoms: C_13  and  O_14 
REMARK    4  A    between atoms: O_14  and  C_15 
REMARK    5  A    between atoms: C_15  and  C_16 
ROOT
HETATM    1  N   UNL     1      -5.951   3.770 -32.813  1.00  0.00    -0.242 N 
HETATM    2  C   UNL     1      -5.041   4.406 -33.646  1.00  0.00     0.271 C 
HETATM    3  O   UNL     1      -5.249   4.763 -34.801  1.00  0.00    -0.266 OA
HETATM    4  H   UNL     1      -5.617   3.301 -31.986  1.00  0.00     0.192 HD
ENDROOT
BRANCH   2   5
HETATM    5  C   UNL     1      -3.693   4.639 -33.063  1.00  0.00     0.033 A 
HETATM    6  C   UNL     1      -3.392   4.058 -31.826  1.00  0.00     0.020 A 
HETATM    7  C   UNL     1      -2.118   4.197 -31.267  1.00  0.00     0.038 A 
HETATM    8  C   UNL     1      -1.128   4.900 -31.955  1.00  0.00     0.069 A 
HETATM    9  C   UNL     1      -1.435   5.498 -33.182  1.00  0.00     0.038 A 
HETATM   10  C   UNL     1      -2.709   5.364 -33.743  1.00  0.00     0.020 A 
BRANCH   8  11
HETATM   11  O   UNL     1       0.165   5.068 -31.541  1.00  0.00    -0.347 OA
BRANCH  11  12
HETATM   12  C   UNL     1       0.567   6.402 -31.238  1.00  0.00     0.214 C 
BRANCH  12  13
HETATM   13  C   UNL     1       0.055   6.756 -29.861  1.00  0.00    -0.034 A 
HETATM   14  C   UNL     1       0.469   6.022 -28.739  1.00  0.00     0.011 A 
HETATM   15  C   UNL     1      -0.007   6.348 -27.466  1.00  0.00     0.024 A 
HETATM   16  C   UNL     1      -0.901   7.404 -27.309  1.00  0.00     0.034 A 
HETATM   17 CL   UNL     1      -1.486   7.805 -25.742  1.00  0.00    -0.084 Cl
HETATM   18  C   UNL     1      -1.327   8.137 -28.415  1.00  0.00     0.024 A 
HETATM   19  C   UNL     1      -0.853   7.812 -29.687  1.00  0.00     0.011 A 
ENDBRANCH  12  13
ENDBRANCH  11  12
ENDBRANCH   8  11
ENDBRANCH   2   5
BRANCH   1  20
HETATM   20  N   UNL     1      -7.184   3.474 -33.296  1.00  0.00    -0.166 NA
HETATM   21  C   UNL     1      -7.466   2.296 -33.752  1.00  0.00     0.157 A 
HETATM   22  C   UNL     1      -6.730   1.024 -33.841  1.00  0.00     0.027 A 
HETATM   23  C   UNL     1      -8.849   2.021 -34.385  1.00  0.00     0.277 A 
HETATM   24  C   UNL     1      -5.488   0.607 -33.394  1.00  0.00     0.016 A 
HETATM   25  C   UNL     1      -7.582   0.132 -34.502  1.00  0.00     0.048 A 
HETATM   26  C   UNL     1      -5.104  -0.713 -33.663  1.00  0.00     0.001 A 
HETATM   27  C   UNL     1      -5.960  -1.593 -34.349  1.00  0.00     0.002 A 
HETATM   28  C   UNL     1      -7.222  -1.173 -34.772  1.00  0.00     0.030 A 
HETATM   29  N   UNL     1      -8.802   0.716 -34.816  1.00  0.00    -0.321 N 
HETATM   30  H   UNL     1      -9.583   0.268 -35.270  1.00  0.00     0.169 HD
HETATM   31  O   UNL     1      -9.774   2.795 -34.484  1.00  0.00    -0.266 OA
ENDBRANCH   1  20
TORSDOF 5
ENDMDL
MODEL 2
REMARK VINA RESULT:      -8.8      7.372     10.386
REMARK  5 active torsions:
REMARK  status: ('A' for Active; 'I' for Inactive)
REMARK    1  A    between atoms: N_7  and  N_8 
REMARK       I    between atoms: N_8  and  C_9 
REMARK    2  A    between atoms: C_9  and  C_10 
REMARK    3  A    between atoms: C_13  and  O_14 
REMARK    4  A    between atoms: O_14  and  C_15 
REMARK    5  A    between atoms: C_15  and  C_16 
ROOT
HETATM    1  N   UNL     1     -13.842   1.548 -32.698  1.00  0.00    -0.242 N 
HETATM    2  C   UNL     1     -13.142   1.620 -33.894  1.00  0.00     0.271 C 
HETATM    3  O   UNL     1     -13.620   1.886 -34.993  1.00  0.00    -0.266 OA
HETATM    4  H   UNL     1     -13.419   1.087 -31.907  1.00  0.00     0.192 HD
ENDROOT
BRANCH   2   5
HETATM    5  C   UNL     1     -11.688   1.321 -33.805  1.00  0.00     0.033 A 
HETATM    6  C   UNL     1     -10.785   2.222 -34.380  1.00  0.00     0.020 A 
HETATM    7  C   UNL     1      -9.407   2.015 -34.267  1.00  0.00     0.038 A 
HETATM    8  C   UNL     1      -8.923   0.916 -33.556  1.00  0.00     0.069 A 
HETATM    9  C   UNL     1      -9.826   0.005 -32.998  1.00  0.00     0.038 A 
HETATM   10  C   UNL     1     -11.205   0.206 -33.112  1.00  0.00     0.020 A 
BRANCH   8  11
HETATM   11  O   UNL     1      -7.604   0.629 -33.334  1.00  0.00    -0.347 OA
BRANCH  11  12
HETATM   12  C   UNL     1      -6.791   0.437 -34.491  1.00  0.00     0.214 C 
BRANCH  12  13
HETATM   13  C   UNL     1      -6.143  -0.925 -34.401  1.00  0.00    -0.034 A 
HETATM   14  C   UNL     1      -6.829  -2.068 -34.836  1.00  0.00     0.011 A 
HETATM   15  C   UNL     1      -6.230  -3.328 -34.751  1.00  0.00     0.024 A 
HETATM   16  C   UNL     1      -4.946  -3.451 -34.225  1.00  0.00     0.034 A 
HETATM   17 CL   UNL     1      -4.208  -5.001 -34.120  1.00  0.00    -0.084 Cl
HETATM   18  C   UNL     1      -4.255  -2.325 -33.781  1.00  0.00     0.024 A 
HETATM   19  C   UNL     1      -4.853  -1.066 -33.866  1.00  0.00     0.011 A 
ENDBRANCH  12  13
ENDBRANCH  11  12
ENDBRANCH   8  11
ENDBRANCH   2   5
BRANCH   1  20
HETATM   20  N   UNL     1     -15.183   1.754 -32.711  1.00  0.00    -0.166 NA
HETATM   21  C   UNL     1     -15.701   2.861 -32.284  1.00  0.00     0.157 A 
HETATM   22  C   UNL     1     -15.148   4.129 -31.780  1.00  0.00     0.027 A 
HETATM   23  C   UNL     1     -17.237   3.024 -32.221  1.00  0.00     0.277 A 
HETATM   24  C   UNL     1     -13.862   4.626 -31.656  1.00  0.00     0.016 A 
HETATM   25  C   UNL     1     -16.249   4.913 -31.419  1.00  0.00     0.048 A 
HETATM   26  C   UNL     1     -13.705   5.911 -31.123  1.00  0.00     0.001 A 
HETATM   27  C   UNL     1     -14.819   6.680 -30.741  1.00  0.00     0.002 A 
HETATM   28  C   UNL     1     -16.113   6.183 -30.895  1.00  0.00     0.030 A 
HETATM   29  N   UNL     1     -17.451   4.267 -31.673  1.00  0.00    -0.321 N 
HETATM   30  H   UNL     1     -18.376   4.637 -31.519  1.00  0.00     0.169 HD
HETATM   31  O   UNL     1     -18.072   2.222 -32.575  1.00  0.00    -0.266 OA
ENDBRANCH   1  20
TORSDOF 5
ENDMDL
MODEL 3
REMARK VINA RESULT:      -8.8      4.213      9.077
REMARK  5 active torsions:
REMARK  status: ('A' for Active; 'I' for Inactive)
REMARK    1  A    between atoms: N_7  and  N_8 
REMARK       I    between atoms: N_8  and  C_9 
REMARK    2  A    between atoms: C_9  and  C_10 
REMARK    3  A    between atoms: C_13  and  O_14 
REMARK    4  A    between atoms: O_14  and  C_15 
REMARK    5  A    between atoms: C_15  and  C_16 
ROOT
HETATM    1  N   UNL     1      -5.976   5.330 -31.853  1.00  0.00    -0.242 N 
HETATM    2  C   UNL     1      -5.857   4.167 -31.106  1.00  0.00     0.271 C 
HETATM    3  O   UNL     1      -5.259   4.054 -30.040  1.00  0.00    -0.266 OA
HETATM    4  H   UNL     1      -6.265   5.269 -32.817  1.00  0.00     0.192 HD
ENDROOT
BRANCH   2   5
HETATM    5  C   UNL     1      -6.504   2.962 -31.689  1.00  0.00     0.033 A 
HETATM    6  C   UNL     1      -6.915   3.007 -33.026  1.00  0.00     0.020 A 
HETATM    7  C   UNL     1      -7.472   1.879 -33.636  1.00  0.00     0.038 A 
HETATM    8  C   UNL     1      -7.599   0.689 -32.917  1.00  0.00     0.069 A 
HETATM    9  C   UNL     1      -7.206   0.650 -31.575  1.00  0.00     0.038 A 
HETATM   10  C   UNL     1      -6.653   1.777 -30.960  1.00  0.00     0.020 A 
BRANCH   8  11
HETATM   11  O   UNL     1      -8.081  -0.492 -33.410  1.00  0.00    -0.347 OA
BRANCH  11  12
HETATM   12  C   UNL     1      -7.604  -0.888 -34.695  1.00  0.00     0.214 C 
BRANCH  12  13
HETATM   13  C   UNL     1      -6.509  -1.911 -34.506  1.00  0.00    -0.034 A 
HETATM   14  C   UNL     1      -5.254  -1.526 -34.013  1.00  0.00     0.011 A 
HETATM   15  C   UNL     1      -4.240  -2.473 -33.840  1.00  0.00     0.024 A 
HETATM   16  C   UNL     1      -4.475  -3.806 -34.163  1.00  0.00     0.034 A 
HETATM   17 CL   UNL     1      -3.228  -4.972 -33.950  1.00  0.00    -0.084 Cl
HETATM   18  C   UNL     1      -5.715  -4.204 -34.661  1.00  0.00     0.024 A 
HETATM   19  C   UNL     1      -6.728  -3.259 -34.834  1.00  0.00     0.011 A 
ENDBRANCH  12  13
ENDBRANCH  11  12
ENDBRANCH   8  11
ENDBRANCH   2   5
BRANCH   1  20
HETATM   20  N   UNL     1      -5.363   6.458 -31.411  1.00  0.00    -0.166 NA
HETATM   21  C   UNL     1      -4.208   6.822 -31.868  1.00  0.00     0.157 A 
HETATM   22  C   UNL     1      -3.303   6.305 -32.907  1.00  0.00     0.027 A 
HETATM   23  C   UNL     1      -3.493   8.057 -31.272  1.00  0.00     0.277 A 
HETATM   24  C   UNL     1      -3.398   5.279 -33.831  1.00  0.00     0.016 A 
HETATM   25  C   UNL     1      -2.169   7.125 -32.873  1.00  0.00     0.048 A 
HETATM   26  C   UNL     1      -2.314   5.068 -34.692  1.00  0.00     0.001 A 
HETATM   27  C   UNL     1      -1.169   5.884 -34.631  1.00  0.00     0.002 A 
HETATM   28  C   UNL     1      -1.092   6.934 -33.715  1.00  0.00     0.030 A 
HETATM   29  N   UNL     1      -2.285   8.131 -31.924  1.00  0.00    -0.321 N 
HETATM   30  H   UNL     1      -1.610   8.855 -31.731  1.00  0.00     0.169 HD
HETATM   31  O   UNL     1      -3.911   8.796 -30.409  1.00  0.00    -0.266 OA
ENDBRANCH   1  20
TORSDOF 5
ENDMDL
MODEL 4
REMARK VINA RESULT:      -8.8      6.630     10.441
REMARK  5 active torsions:
REMARK  status: ('A' for Active; 'I' for Inactive)
REMARK    1  A    between atoms: N_7  and  N_8 
REMARK       I    between atoms: N_8  and  C_9 
REMARK    2  A    between atoms: C_9  and  C_10 
REMARK    3  A    between atoms: C_13  and  O_14 
REMARK    4  A    between atoms: O_14  and  C_15 
REMARK    5  A    between atoms: C_15  and  C_16 
ROOT
HETATM    1  N   UNL     1      -7.057   0.649 -33.752  1.00  0.00    -0.242 N 
HETATM    2  C   UNL     1      -8.014   0.747 -32.751  1.00  0.00     0.271 C 
HETATM    3  O   UNL     1      -7.798   0.729 -31.543  1.00  0.00    -0.266 OA
HETATM    4  H   UNL     1      -7.348   0.426 -34.691  1.00  0.00     0.192 HD
ENDROOT
BRANCH   2   5
HETATM    5  C   UNL     1      -9.421   0.860 -33.220  1.00  0.00     0.033 A 
HETATM    6  C   UNL     1     -10.319  -0.160 -32.887  1.00  0.00     0.020 A 
HETATM    7  C   UNL     1     -11.665  -0.067 -33.251  1.00  0.00     0.038 A 
HETATM    8  C   UNL     1     -12.128   1.061 -33.932  1.00  0.00     0.069 A 
HETATM    9  C   UNL     1     -11.225   2.070 -34.282  1.00  0.00     0.038 A 
HETATM   10  C   UNL     1      -9.877   1.980 -33.923  1.00  0.00     0.020 A 
BRANCH   8  11
HETATM   11  O   UNL     1     -13.424   1.293 -34.302  1.00  0.00    -0.347 OA
BRANCH  11  12
HETATM   12  C   UNL     1     -14.432   0.878 -33.382  1.00  0.00     0.214 C 
BRANCH  12  13
HETATM   13  C   UNL     1     -15.074   2.109 -32.787  1.00  0.00    -0.034 A 
HETATM   14  C   UNL     1     -14.286   3.200 -32.391  1.00  0.00     0.011 A 
HETATM   15  C   UNL     1     -14.880   4.338 -31.839  1.00  0.00     0.024 A 
HETATM   16  C   UNL     1     -16.262   4.389 -31.675  1.00  0.00     0.034 A 
HETATM   17 CL   UNL     1     -16.994   5.790 -30.996  1.00  0.00    -0.084 Cl
HETATM   18  C   UNL     1     -17.058   3.311 -32.057  1.00  0.00     0.024 A 
HETATM   19  C   UNL     1     -16.465   2.173 -32.609  1.00  0.00     0.011 A 
ENDBRANCH  12  13
ENDBRANCH  11  12
ENDBRANCH   8  11
ENDBRANCH   2   5
BRANCH   1  20
HETATM   20  N   UNL     1      -5.756   0.487 -33.399  1.00  0.00    -0.166 NA
HETATM   21  C   UNL     1      -5.167  -0.661 -33.503  1.00  0.00     0.157 A 
HETATM   22  C   UNL     1      -5.567  -1.980 -34.019  1.00  0.00     0.027 A 
HETATM   23  C   UNL     1      -3.715  -0.834 -33.001  1.00  0.00     0.277 A 
HETATM   24  C   UNL     1      -6.702  -2.451 -34.656  1.00  0.00     0.016 A 
HETATM   25  C   UNL     1      -4.478  -2.830 -33.788  1.00  0.00     0.048 A 
HETATM   26  C   UNL     1      -6.736  -3.804 -35.018  1.00  0.00     0.001 A 
HETATM   27  C   UNL     1      -5.646  -4.653 -34.758  1.00  0.00     0.002 A 
HETATM   28  C   UNL     1      -4.494  -4.164 -34.141  1.00  0.00     0.030 A 
HETATM   29  N   UNL     1      -3.415  -2.161 -33.197  1.00  0.00    -0.321 N 
HETATM   30  H   UNL     1      -2.518  -2.554 -32.957  1.00  0.00     0.169 HD
HETATM   31  O   UNL     1      -2.999   0.021 -32.530  1.00  0.00    -0.266 OA
ENDBRANCH   1  20
TORSDOF 5
ENDMDL
MODEL 5
REMARK VINA RESULT:      -8.7      6.964     10.265
REMARK  5 active torsions:
REMARK  status: ('A' for Active; 'I' for Inactive)
REMARK    1  A    between atoms: N_7  and  N_8 
REMARK       I    between atoms: N_8  and  C_9 
REMARK    2  A    between atoms: C_9  and  C_10 
REMARK    3  A    between atoms: C_13  and  O_14 
REMARK    4  A    between atoms: O_14  and  C_15 
REMARK    5  A    between atoms: C_15  and  C_16 
ROOT
HETATM    1  N   UNL     1      -6.284   0.522 -32.813  1.00  0.00    -0.242 N 
HETATM    2  C   UNL     1      -7.271   0.476 -31.838  1.00  0.00     0.271 C 
HETATM    3  O   UNL     1      -7.134   0.053 -30.694  1.00  0.00    -0.266 OA
HETATM    4  H   UNL     1      -6.550   0.651 -33.777  1.00  0.00     0.192 HD
ENDROOT
BRANCH   2   5
HETATM    5  C   UNL     1      -8.609   0.972 -32.257  1.00  0.00     0.033 A 
HETATM    6  C   UNL     1      -8.945   2.301 -31.979  1.00  0.00     0.020 A 
HETATM    7  C   UNL     1     -10.166   2.830 -32.408  1.00  0.00     0.038 A 
HETATM    8  C   UNL     1     -11.050   2.037 -33.142  1.00  0.00     0.069 A 
HETATM    9  C   UNL     1     -10.722   0.702 -33.402  1.00  0.00     0.038 A 
HETATM   10  C   UNL     1      -9.504   0.168 -32.971  1.00  0.00     0.020 A 
BRANCH   8  11
HETATM   11  O   UNL     1     -12.248   2.446 -33.657  1.00  0.00    -0.347 OA
BRANCH  11  12
HETATM   12  C   UNL     1     -13.366   1.591 -33.423  1.00  0.00     0.214 C 
BRANCH  12  13
HETATM   13  C   UNL     1     -14.493   2.420 -32.855  1.00  0.00    -0.034 A 
HETATM   14  C   UNL     1     -15.786   1.886 -32.749  1.00  0.00     0.011 A 
HETATM   15  C   UNL     1     -16.829   2.654 -32.224  1.00  0.00     0.024 A 
HETATM   16  C   UNL     1     -16.586   3.961 -31.809  1.00  0.00     0.034 A 
HETATM   17 CL   UNL     1     -17.870   4.908 -31.164  1.00  0.00    -0.084 Cl
HETATM   18  C   UNL     1     -15.309   4.509 -31.915  1.00  0.00     0.024 A 
HETATM   19  C   UNL     1     -14.267   3.742 -32.439  1.00  0.00     0.011 A 
ENDBRANCH  12  13
ENDBRANCH  11  12
ENDBRANCH   8  11
ENDBRANCH   2   5
BRANCH   1  20
HETATM   20  N   UNL     1      -5.052   0.035 -32.519  1.00  0.00    -0.166 NA
HETATM   21  C   UNL     1      -4.691  -1.154 -32.885  1.00  0.00     0.157 A 
HETATM   22  C   UNL     1      -5.320  -2.221 -33.678  1.00  0.00     0.027 A 
HETATM   23  C   UNL     1      -3.317  -1.714 -32.449  1.00  0.00     0.277 A 
HETATM   24  C   UNL     1      -6.503  -2.309 -34.392  1.00  0.00     0.016 A 
HETATM   25  C   UNL     1      -4.424  -3.297 -33.655  1.00  0.00     0.048 A 
HETATM   26  C   UNL     1      -6.785  -3.513 -35.048  1.00  0.00     0.001 A 
HETATM   27  C   UNL     1      -5.888  -4.596 -34.997  1.00  0.00     0.002 A 
HETATM   28  C   UNL     1      -4.685  -4.491 -34.298  1.00  0.00     0.030 A 
HETATM   29  N   UNL     1      -3.273  -2.997 -32.941  1.00  0.00    -0.321 N 
HETATM   30  H   UNL     1      -2.477  -3.601 -32.805  1.00  0.00     0.169 HD
HETATM   31  O   UNL     1      -2.466  -1.142 -31.806  1.00  0.00    -0.266 OA
ENDBRANCH   1  20
TORSDOF 5
ENDMDL
MODEL 6
REMARK VINA RESULT:      -8.6      1.789      2.243
REMARK  5 active torsions:
REMARK  status: ('A' for Active; 'I' for Inactive)
REMARK    1  A    between atoms: N_7  and  N_8 
REMARK       I    between atoms: N_8  and  C_9 
REMARK    2  A    between atoms: C_9  and  C_10 
REMARK    3  A    between atoms: C_13  and  O_14 
REMARK    4  A    between atoms: O_14  and  C_15 
REMARK    5  A    between atoms: C_15  and  C_16 
ROOT
HETATM    1  N   UNL     1      -5.607   2.713 -32.983  1.00  0.00    -0.242 N 
HETATM    2  C   UNL     1      -5.109   3.896 -33.510  1.00  0.00     0.271 C 
HETATM    3  O   UNL     1      -5.381   4.365 -34.612  1.00  0.00    -0.266 OA
HETATM    4  H   UNL     1      -5.143   2.292 -32.192  1.00  0.00     0.192 HD
ENDROOT
BRANCH   2   5
HETATM    5  C   UNL     1      -4.144   4.627 -32.646  1.00  0.00     0.033 A 
HETATM    6  C   UNL     1      -2.926   4.011 -32.338  1.00  0.00     0.020 A 
HETATM    7  C   UNL     1      -1.963   4.684 -31.581  1.00  0.00     0.038 A 
HETATM    8  C   UNL     1      -2.202   5.988 -31.146  1.00  0.00     0.069 A 
HETATM    9  C   UNL     1      -3.429   6.595 -31.437  1.00  0.00     0.038 A 
HETATM   10  C   UNL     1      -4.397   5.925 -32.191  1.00  0.00     0.020 A 
BRANCH   8  11
HETATM   11  O   UNL     1      -1.327   6.768 -30.442  1.00  0.00    -0.347 OA
BRANCH  11  12
HETATM   12  C   UNL     1      -0.123   6.138 -30.007  1.00  0.00     0.214 C 
BRANCH  12  13
HETATM   13  C   UNL     1       0.346   6.822 -28.744  1.00  0.00    -0.034 A 
HETATM   14  C   UNL     1       1.104   8.000 -28.813  1.00  0.00     0.011 A 
HETATM   15  C   UNL     1       1.539   8.632 -27.645  1.00  0.00     0.024 A 
HETATM   16  C   UNL     1       1.224   8.085 -26.403  1.00  0.00     0.034 A 
HETATM   17 CL   UNL     1       1.759   8.862 -24.965  1.00  0.00    -0.084 Cl
HETATM   18  C   UNL     1       0.479   6.911 -26.318  1.00  0.00     0.024 A 
HETATM   19  C   UNL     1       0.043   6.280 -27.485  1.00  0.00     0.011 A 
ENDBRANCH  12  13
ENDBRANCH  11  12
ENDBRANCH   8  11
ENDBRANCH   2   5
BRANCH   1  20
HETATM   20  N   UNL     1      -6.450   1.963 -33.738  1.00  0.00    -0.166 NA
HETATM   21  C   UNL     1      -6.236   0.703 -33.939  1.00  0.00     0.157 A 
HETATM   22  C   UNL     1      -5.231  -0.260 -33.460  1.00  0.00     0.027 A 
HETATM   23  C   UNL     1      -7.161  -0.098 -34.885  1.00  0.00     0.277 A 
HETATM   24  C   UNL     1      -4.190  -0.179 -32.551  1.00  0.00     0.016 A 
HETATM   25  C   UNL     1      -5.519  -1.470 -34.103  1.00  0.00     0.048 A 
HETATM   26  C   UNL     1      -3.419  -1.328 -32.334  1.00  0.00     0.001 A 
HETATM   27  C   UNL     1      -3.704  -2.531 -33.005  1.00  0.00     0.002 A 
HETATM   28  C   UNL     1      -4.772  -2.612 -33.898  1.00  0.00     0.030 A 
HETATM   29  N   UNL     1      -6.632  -1.367 -34.926  1.00  0.00    -0.321 N 
HETATM   30  H   UNL     1      -7.045  -2.107 -35.472  1.00  0.00     0.169 HD
HETATM   31  O   UNL     1      -8.140   0.310 -35.467  1.00  0.00    -0.266 OA
ENDBRANCH   1  20
TORSDOF 5
ENDMDL
MODEL 7
REMARK VINA RESULT:      -8.4      6.053      9.025
REMARK  5 active torsions:
REMARK  status: ('A' for Active; 'I' for Inactive)
REMARK    1  A    between atoms: N_7  and  N_8 
REMARK       I    between atoms: N_8  and  C_9 
REMARK    2  A    between atoms: C_9  and  C_10 
REMARK    3  A    between atoms: C_13  and  O_14 
REMARK    4  A    between atoms: O_14  and  C_15 
REMARK    5  A    between atoms: C_15  and  C_16 
ROOT
HETATM    1  N   UNL     1      -6.374   1.309 -32.489  1.00  0.00    -0.242 N 
HETATM    2  C   UNL     1      -7.468   0.988 -31.699  1.00  0.00     0.271 C 
HETATM    3  O   UNL     1      -7.431   0.414 -30.615  1.00  0.00    -0.266 OA
HETATM    4  H   UNL     1      -6.519   1.551 -33.457  1.00  0.00     0.192 HD
ENDROOT
BRANCH   2   5
HETATM    5  C   UNL     1      -8.794   1.367 -32.256  1.00  0.00     0.033 A 
HETATM    6  C   UNL     1      -9.450   2.479 -31.717  1.00  0.00     0.020 A 
HETATM    7  C   UNL     1     -10.669   2.911 -32.249  1.00  0.00     0.038 A 
HETATM    8  C   UNL     1     -11.227   2.247 -33.343  1.00  0.00     0.069 A 
HETATM    9  C   UNL     1     -10.580   1.123 -33.868  1.00  0.00     0.038 A 
HETATM   10  C   UNL     1      -9.364   0.685 -33.336  1.00  0.00     0.020 A 
BRANCH   8  11
HETATM   11  O   UNL     1     -12.384   2.596 -33.982  1.00  0.00    -0.347 OA
BRANCH  11  12
HETATM   12  C   UNL     1     -12.266   2.962 -35.356  1.00  0.00     0.214 C 
BRANCH  12  13
HETATM   13  C   UNL     1     -11.913   4.429 -35.433  1.00  0.00    -0.034 A 
HETATM   14  C   UNL     1     -10.571   4.836 -35.469  1.00  0.00     0.011 A 
HETATM   15  C   UNL     1     -10.245   6.193 -35.538  1.00  0.00     0.024 A 
HETATM   16  C   UNL     1     -11.258   7.149 -35.566  1.00  0.00     0.034 A 
HETATM   17 CL   UNL     1     -10.857   8.820 -35.651  1.00  0.00    -0.084 Cl
HETATM   18  C   UNL     1     -12.595   6.761 -35.523  1.00  0.00     0.024 A 
HETATM   19  C   UNL     1     -12.922   5.405 -35.454  1.00  0.00     0.011 A 
ENDBRANCH  12  13
ENDBRANCH  11  12
ENDBRANCH   8  11
ENDBRANCH   2   5
BRANCH   1  20
HETATM   20  N   UNL     1      -5.135   0.944 -32.071  1.00  0.00    -0.166 NA
HETATM   21  C   UNL     1      -4.618  -0.194 -32.406  1.00  0.00     0.157 A 
HETATM   22  C   UNL     1      -5.047  -1.305 -33.272  1.00  0.00     0.027 A 
HETATM   23  C   UNL     1      -3.247  -0.621 -31.832  1.00  0.00     0.277 A 
HETATM   24  C   UNL     1      -6.133  -1.497 -34.108  1.00  0.00     0.016 A 
HETATM   25  C   UNL     1      -4.052  -2.284 -33.163  1.00  0.00     0.048 A 
HETATM   26  C   UNL     1      -6.219  -2.711 -34.801  1.00  0.00     0.001 A 
HETATM   27  C   UNL     1      -5.226  -3.698 -34.665  1.00  0.00     0.002 A 
HETATM   28  C   UNL     1      -4.120  -3.485 -33.841  1.00  0.00     0.030 A 
HETATM   29  N   UNL     1      -3.019  -1.883 -32.328  1.00  0.00    -0.321 N 
HETATM   30  H   UNL     1      -2.184  -2.405 -32.113  1.00  0.00     0.169 HD
HETATM   31  O   UNL     1      -2.531   0.021 -31.097  1.00  0.00    -0.266 OA
ENDBRANCH   1  20
TORSDOF 5
ENDMDL
MODEL 8
REMARK VINA RESULT:      -8.4      4.923     10.005
REMARK  5 active torsions:
REMARK  status: ('A' for Active; 'I' for Inactive)
REMARK    1  A    between atoms: N_7  and  N_8 
REMARK       I    between atoms: N_8  and  C_9 
REMARK    2  A    between atoms: C_9  and  C_10 
REMARK    3  A    between atoms: C_13  and  O_14 
REMARK    4  A    between atoms: O_14  and  C_15 
REMARK    5  A    between atoms: C_15  and  C_16 
ROOT
HETATM    1  N   UNL     1      -5.296   5.273 -27.637  1.00  0.00    -0.242 N 
HETATM    2  C   UNL     1      -6.157   5.428 -28.714  1.00  0.00     0.271 C 
HETATM    3  O   UNL     1      -6.861   6.409 -28.938  1.00  0.00    -0.266 OA
HETATM    4  H   UNL     1      -4.956   4.352 -27.407  1.00  0.00     0.192 HD
ENDROOT
BRANCH   2   5
HETATM    5  C   UNL     1      -6.226   4.275 -29.651  1.00  0.00     0.033 A 
HETATM    6  C   UNL     1      -5.105   3.987 -30.437  1.00  0.00     0.020 A 
HETATM    7  C   UNL     1      -5.101   2.876 -31.286  1.00  0.00     0.038 A 
HETATM    8  C   UNL     1      -6.211   2.031 -31.335  1.00  0.00     0.069 A 
HETATM    9  C   UNL     1      -7.338   2.332 -30.564  1.00  0.00     0.038 A 
HETATM   10  C   UNL     1      -7.349   3.444 -29.717  1.00  0.00     0.020 A 
BRANCH   8  11
HETATM   11  O   UNL     1      -6.313   0.892 -32.085  1.00  0.00    -0.347 OA
BRANCH  11  12
HETATM   12  C   UNL     1      -5.259   0.646 -33.015  1.00  0.00     0.214 C 
BRANCH  12  13
HETATM   13  C   UNL     1      -5.475  -0.714 -33.636  1.00  0.00    -0.034 A 
HETATM   14  C   UNL     1      -6.747  -1.093 -34.091  1.00  0.00     0.011 A 
HETATM   15  C   UNL     1      -6.947  -2.353 -34.663  1.00  0.00     0.024 A 
HETATM   16  C   UNL     1      -5.879  -3.240 -34.777  1.00  0.00     0.034 A 
HETATM   17 CL   UNL     1      -6.125  -4.790 -35.482  1.00  0.00    -0.084 Cl
HETATM   18  C   UNL     1      -4.612  -2.881 -34.322  1.00  0.00     0.024 A 
HETATM   19  C   UNL     1      -4.411  -1.622 -33.751  1.00  0.00     0.011 A 
ENDBRANCH  12  13
ENDBRANCH  11  12
ENDBRANCH   8  11
ENDBRANCH   2   5
BRANCH   1  20
HETATM   20  N   UNL     1      -5.223   6.262 -26.710  1.00  0.00    -0.166 NA
HETATM   21  C   UNL     1      -4.314   7.182 -26.775  1.00  0.00     0.157 A 
HETATM   22  C   UNL     1      -3.249   7.510 -27.735  1.00  0.00     0.027 A 
HETATM   23  C   UNL     1      -4.198   8.235 -25.649  1.00  0.00     0.277 A 
HETATM   24  C   UNL     1      -2.882   6.994 -28.966  1.00  0.00     0.016 A 
HETATM   25  C   UNL     1      -2.563   8.602 -27.191  1.00  0.00     0.048 A 
HETATM   26  C   UNL     1      -1.786   7.572 -29.620  1.00  0.00     0.001 A 
HETATM   27  C   UNL     1      -1.090   8.654 -29.051  1.00  0.00     0.002 A 
HETATM   28  C   UNL     1      -1.483   9.186 -27.822  1.00  0.00     0.030 A 
HETATM   29  N   UNL     1      -3.115   9.012 -25.985  1.00  0.00    -0.321 N 
HETATM   30  H   UNL     1      -2.810   9.789 -25.419  1.00  0.00     0.169 HD
HETATM   31  O   UNL     1      -4.909   8.345 -24.676  1.00  0.00    -0.266 OA
ENDBRANCH   1  20
TORSDOF 5
ENDMDL
MODEL 9
REMARK VINA RESULT:      -8.3      4.450      9.813
REMARK  5 active torsions:
REMARK  status: ('A' for Active; 'I' for Inactive)
REMARK    1  A    between atoms: N_7  and  N_8 
REMARK       I    between atoms: N_8  and  C_9 
REMARK    2  A    between atoms: C_9  and  C_10 
REMARK    3  A    between atoms: C_13  and  O_14 
REMARK    4  A    between atoms: O_14  and  C_15 
REMARK    5  A    between atoms: C_15  and  C_16 
ROOT
HETATM    1  N   UNL     1      -3.754   6.509 -29.894  1.00  0.00    -0.242 N 
HETATM    2  C   UNL     1      -3.631   5.967 -31.166  1.00  0.00     0.271 C 
HETATM    3  O   UNL     1      -3.339   6.583 -32.186  1.00  0.00    -0.266 OA
HETATM    4  H   UNL     1      -4.232   5.983 -29.179  1.00  0.00     0.192 HD
ENDROOT
BRANCH   2   5
HETATM    5  C   UNL     1      -3.906   4.509 -31.270  1.00  0.00     0.033 A 
HETATM    6  C   UNL     1      -5.098   4.015 -30.729  1.00  0.00     0.020 A 
HETATM    7  C   UNL     1      -5.429   2.663 -30.857  1.00  0.00     0.038 A 
HETATM    8  C   UNL     1      -4.579   1.799 -31.550  1.00  0.00     0.069 A 
HETATM    9  C   UNL     1      -3.378   2.290 -32.073  1.00  0.00     0.038 A 
HETATM   10  C   UNL     1      -3.040   3.640 -31.943  1.00  0.00     0.020 A 
BRANCH   8  11
HETATM   11  O   UNL     1      -4.809   0.472 -31.785  1.00  0.00    -0.347 OA
BRANCH  11  12
HETATM   12  C   UNL     1      -3.880  -0.194 -32.639  1.00  0.00     0.214 C 
BRANCH  12  13
HETATM   13  C   UNL     1      -4.607  -1.296 -33.373  1.00  0.00    -0.034 A 
HETATM   14  C   UNL     1      -3.949  -2.493 -33.689  1.00  0.00     0.011 A 
HETATM   15  C   UNL     1      -4.622  -3.512 -34.370  1.00  0.00     0.024 A 
HETATM   16  C   UNL     1      -5.953  -3.335 -34.742  1.00  0.00     0.034 A 
HETATM   17 CL   UNL     1      -6.781  -4.589 -35.580  1.00  0.00    -0.084 Cl
HETATM   18  C   UNL     1      -6.618  -2.148 -34.442  1.00  0.00     0.024 A 
HETATM   19  C   UNL     1      -5.946  -1.130 -33.761  1.00  0.00     0.011 A 
ENDBRANCH  12  13
ENDBRANCH  11  12
ENDBRANCH   8  11
ENDBRANCH   2   5
BRANCH   1  20
HETATM   20  N   UNL     1      -3.573   7.844 -29.732  1.00  0.00    -0.166 NA
HETATM   21  C   UNL     1      -2.496   8.318 -29.191  1.00  0.00     0.157 A 
HETATM   22  C   UNL     1      -1.243   7.723 -28.701  1.00  0.00     0.027 A 
HETATM   23  C   UNL     1      -2.365   9.837 -28.932  1.00  0.00     0.277 A 
HETATM   24  C   UNL     1      -0.728   6.438 -28.713  1.00  0.00     0.016 A 
HETATM   25  C   UNL     1      -0.496   8.781 -28.169  1.00  0.00     0.048 A 
HETATM   26  C   UNL     1       0.534   6.232 -28.143  1.00  0.00     0.001 A 
HETATM   27  C   UNL     1       1.265   7.300 -27.590  1.00  0.00     0.002 A 
HETATM   28  C   UNL     1       0.751   8.597 -27.606  1.00  0.00     0.030 A 
HETATM   29  N   UNL     1      -1.152   9.997 -28.303  1.00  0.00    -0.321 N 
HETATM   30  H   UNL     1      -0.806  10.900 -28.019  1.00  0.00     0.169 HD
HETATM   31  O   UNL     1      -3.165  10.699 -29.218  1.00  0.00    -0.266 OA
ENDBRANCH   1  20
TORSDOF 5
ENDMDL
MODEL 10
REMARK VINA RESULT:      -8.2      4.061      9.290
REMARK  5 active torsions:
REMARK  status: ('A' for Active; 'I' for Inactive)
REMARK    1  A    between atoms: N_7  and  N_8 
REMARK       I    between atoms: N_8  and  C_9 
REMARK    2  A    between atoms: C_9  and  C_10 
REMARK    3  A    between atoms: C_13  and  O_14 
REMARK    4  A    between atoms: O_14  and  C_15 
REMARK    5  A    between atoms: C_15  and  C_16 
ROOT
HETATM    1  N   UNL     1      -4.976   5.414 -30.447  1.00  0.00    -0.242 N 
HETATM    2  C   UNL     1      -6.013   4.624 -29.971  1.00  0.00     0.271 C 
HETATM    3  O   UNL     1      -6.620   4.791 -28.918  1.00  0.00    -0.266 OA
HETATM    4  H   UNL     1      -4.385   5.060 -31.184  1.00  0.00     0.192 HD
ENDROOT
BRANCH   2   5
HETATM    5  C   UNL     1      -6.381   3.466 -30.829  1.00  0.00     0.033 A 
HETATM    6  C   UNL     1      -6.462   2.200 -30.240  1.00  0.00     0.020 A 
HETATM    7  C   UNL     1      -6.866   1.092 -30.992  1.00  0.00     0.038 A 
HETATM    8  C   UNL     1      -7.215   1.250 -32.334  1.00  0.00     0.069 A 
HETATM    9  C   UNL     1      -7.114   2.513 -32.927  1.00  0.00     0.038 A 
HETATM   10  C   UNL     1      -6.707   3.623 -32.180  1.00  0.00     0.020 A 
BRANCH   8  11
HETATM   11  O   UNL     1      -7.667   0.260 -33.162  1.00  0.00    -0.347 OA
BRANCH  11  12
HETATM   12  C   UNL     1      -6.966   0.090 -34.393  1.00  0.00     0.214 C 
BRANCH  12  13
HETATM   13  C   UNL     1      -6.071  -1.120 -34.272  1.00  0.00    -0.034 A 
HETATM   14  C   UNL     1      -6.465  -2.352 -34.814  1.00  0.00     0.011 A 
HETATM   15  C   UNL     1      -5.637  -3.473 -34.700  1.00  0.00     0.024 A 
HETATM   16  C   UNL     1      -4.416  -3.368 -34.040  1.00  0.00     0.034 A 
HETATM   17 CL   UNL     1      -3.397  -4.747 -33.899  1.00  0.00    -0.084 Cl
HETATM   18  C   UNL     1      -4.014  -2.153 -33.489  1.00  0.00     0.024 A 
HETATM   19  C   UNL     1      -4.840  -1.033 -33.603  1.00  0.00     0.011 A 
ENDBRANCH  12  13
ENDBRANCH  11  12
ENDBRANCH   8  11
ENDBRANCH   2   5
BRANCH   1  20
HETATM   20  N   UNL     1      -4.547   6.457 -29.691  1.00  0.00    -0.166 NA
HETATM   21  C   UNL     1      -3.300   6.804 -29.665  1.00  0.00     0.157 A 
HETATM   22  C   UNL     1      -2.090   6.348 -30.367  1.00  0.00     0.027 A 
HETATM   23  C   UNL     1      -2.831   7.932 -28.717  1.00  0.00     0.277 A 
HETATM   24  C   UNL     1      -1.862   5.428 -31.376  1.00  0.00     0.016 A 
HETATM   25  C   UNL     1      -1.033   7.099 -29.840  1.00  0.00     0.048 A 
HETATM   26  C   UNL     1      -0.544   5.248 -31.814  1.00  0.00     0.001 A 
HETATM   27  C   UNL     1       0.514   5.992 -31.259  1.00  0.00     0.002 A 
HETATM   28  C   UNL     1       0.272   6.938 -30.262  1.00  0.00     0.030 A 
HETATM   29  N   UNL     1      -1.468   8.008 -28.886  1.00  0.00    -0.321 N 
HETATM   30  H   UNL     1      -0.898   8.672 -28.385  1.00  0.00     0.169 HD
HETATM   31  O   UNL     1      -3.520   8.601 -27.981  1.00  0.00    -0.266 OA
ENDBRANCH   1  20
TORSDOF 5
ENDMDL
