MODEL 1
REMARK VINA RESULT:      -7.8      0.000      0.000
REMARK  3 active torsions:
REMARK  status: ('A' for Active; 'I' for Inactive)
REMARK    1  A    between atoms: C_11  and  N_12 
REMARK       I    between atoms: N_12  and  C_13 
REMARK    2  A    between atoms: C_13  and  C_14 
REMARK    3  A    between atoms: C_15  and  O_16 
ROOT
HETATM    1  N   UNL     1      -5.447  -0.003 -33.365  1.00  0.00    -0.352 N 
HETATM    2  C   UNL     1      -4.217  -0.636 -33.293  1.00  0.00     0.254 C 
HETATM    3  O   UNL     1      -3.176  -0.067 -32.988  1.00  0.00    -0.268 OA
HETATM    4  H   UNL     1      -6.200  -0.544 -33.774  1.00  0.00     0.163 HD
ENDROOT
BRANCH   1   5
HETATM    5  C   UNL     1      -5.616   1.446 -33.324  1.00  0.00     0.089 C 
HETATM    6  C   UNL     1      -5.659   2.102 -31.937  1.00  0.00     0.063 C 
HETATM    7  C   UNL     1      -6.914   1.807 -31.110  1.00  0.00     0.121 C 
HETATM    8  N   UNL     1      -8.144   2.083 -31.953  1.00  0.00    -0.059 N 
HETATM    9  C   UNL     1      -6.981   0.392 -30.524  1.00  0.00     0.046 C 
HETATM   10  C   UNL     1      -6.979   2.795 -29.925  1.00  0.00     0.046 C 
HETATM   11  C   UNL     1      -8.207   1.620 -33.393  1.00  0.00     0.121 C 
HETATM   12  H   UNL     1      -8.277   3.105 -31.956  1.00  0.00     0.279 HD
HETATM   13  H   UNL     1      -8.970   1.727 -31.450  1.00  0.00     0.279 HD
HETATM   14  C   UNL     1      -8.664   0.157 -33.456  1.00  0.00     0.046 C 
HETATM   15  C   UNL     1      -9.305   2.472 -34.066  1.00  0.00     0.046 C 
HETATM   16  C   UNL     1      -6.865   1.878 -34.105  1.00  0.00     0.063 C 
ENDBRANCH   1   5
BRANCH   2  17
HETATM   17  C   UNL     1      -4.203  -2.110 -33.471  1.00  0.00     0.066 A 
HETATM   18  C   UNL     1      -3.398  -2.885 -32.621  1.00  0.00     0.081 A 
HETATM   19  C   UNL     1      -3.417  -4.276 -32.695  1.00  0.00     0.039 A 
HETATM   20  C   UNL     1      -4.223  -4.906 -33.642  1.00  0.00     0.026 A 
HETATM   21  C   UNL     1      -4.996  -4.139 -34.513  1.00  0.00     0.035 A 
HETATM   22 CL   UNL     1      -5.982  -4.915 -35.690  1.00  0.00    -0.084 Cl
HETATM   23  C   UNL     1      -4.990  -2.745 -34.438  1.00  0.00     0.043 A 
BRANCH  18  24
HETATM   24  O   UNL     1      -2.573  -2.336 -31.676  1.00  0.00    -0.360 OA
HETATM   25  H   UNL     1      -3.038  -2.367 -30.811  1.00  0.00     0.217 HD
ENDBRANCH  18  24
ENDBRANCH   2  17
TORSDOF 3
ENDMDL
MODEL 2
REMARK VINA RESULT:      -7.3      1.949      2.613
REMARK  3 active torsions:
REMARK  status: ('A' for Active; 'I' for Inactive)
REMARK    1  A    between atoms: C_11  and  N_12 
REMARK       I    between atoms: N_12  and  C_13 
REMARK    2  A    between atoms: C_13  and  C_14 
REMARK    3  A    between atoms: C_15  and  O_16 
ROOT
HETATM    1  N   UNL     1      -7.197   1.301 -33.705  1.00  0.00    -0.352 N 
HETATM    2  C   UNL     1      -6.786   0.475 -34.738  1.00  0.00     0.254 C 
HETATM    3  O   UNL     1      -6.983   0.717 -35.923  1.00  0.00    -0.268 OA
HETATM    4  H   UNL     1      -7.110   0.919 -32.771  1.00  0.00     0.163 HD
ENDROOT
BRANCH   1   5
HETATM    5  C   UNL     1      -8.112   2.424 -33.881  1.00  0.00     0.089 C 
HETATM    6  C   UNL     1      -8.255   3.397 -32.702  1.00  0.00     0.063 C 
HETATM    7  C   UNL     1      -8.980   2.837 -31.475  1.00  0.00     0.121 C 
HETATM    8  N   UNL     1     -10.291   2.212 -31.912  1.00  0.00    -0.059 N 
HETATM    9  C   UNL     1      -8.167   1.837 -30.647  1.00  0.00     0.046 C 
HETATM   10  C   UNL     1      -9.358   4.006 -30.538  1.00  0.00     0.046 C 
HETATM   11  C   UNL     1     -10.349   1.331 -33.142  1.00  0.00     0.121 C 
HETATM   12  H   UNL     1     -10.954   2.987 -32.061  1.00  0.00     0.279 HD
HETATM   13  H   UNL     1     -10.689   1.697 -31.112  1.00  0.00     0.279 HD
HETATM   14  C   UNL     1      -9.945  -0.104 -32.781  1.00  0.00     0.046 C 
HETATM   15  C   UNL     1     -11.831   1.295 -33.570  1.00  0.00     0.046 C 
HETATM   16  C   UNL     1      -9.512   1.939 -34.284  1.00  0.00     0.063 C 
ENDBRANCH   1   5
BRANCH   2  17
HETATM   17  C   UNL     1      -5.949  -0.697 -34.376  1.00  0.00     0.066 A 
HETATM   18  C   UNL     1      -4.891  -0.517 -33.470  1.00  0.00     0.081 A 
HETATM   19  C   UNL     1      -4.134  -1.602 -33.036  1.00  0.00     0.039 A 
HETATM   20  C   UNL     1      -4.410  -2.877 -33.527  1.00  0.00     0.026 A 
HETATM   21  C   UNL     1      -5.435  -3.055 -34.455  1.00  0.00     0.035 A 
HETATM   22 CL   UNL     1      -5.769  -4.626 -35.070  1.00  0.00    -0.084 Cl
HETATM   23  C   UNL     1      -6.206  -1.974 -34.886  1.00  0.00     0.043 A 
BRANCH  18  24
HETATM   24  O   UNL     1      -4.554   0.707 -32.956  1.00  0.00    -0.360 OA
HETATM   25  H   UNL     1      -3.618   0.666 -32.662  1.00  0.00     0.217 HD
ENDBRANCH  18  24
ENDBRANCH   2  17
TORSDOF 3
ENDMDL
MODEL 3
REMARK VINA RESULT:      -7.1      3.678      6.906
REMARK  3 active torsions:
REMARK  status: ('A' for Active; 'I' for Inactive)
REMARK    1  A    between atoms: C_11  and  N_12 
REMARK       I    between atoms: N_12  and  C_13 
REMARK    2  A    between atoms: C_13  and  C_14 
REMARK    3  A    between atoms: C_15  and  O_16 
ROOT
HETATM    1  N   UNL     1      -8.192   1.564 -34.142  1.00  0.00    -0.352 N 
HETATM    2  C   UNL     1      -9.080   2.619 -34.014  1.00  0.00     0.254 C 
HETATM    3  O   UNL     1      -8.736   3.775 -33.800  1.00  0.00    -0.268 OA
HETATM    4  H   UNL     1      -8.604   0.638 -34.164  1.00  0.00     0.163 HD
ENDROOT
BRANCH   1   5
HETATM    5  C   UNL     1      -6.775   1.652 -33.806  1.00  0.00     0.089 C 
HETATM    6  C   UNL     1      -5.878   0.493 -34.264  1.00  0.00     0.063 C 
HETATM    7  C   UNL     1      -6.096  -0.834 -33.533  1.00  0.00     0.121 C 
HETATM    8  N   UNL     1      -6.061  -0.591 -32.036  1.00  0.00    -0.059 N 
HETATM    9  C   UNL     1      -7.379  -1.578 -33.917  1.00  0.00     0.046 C 
HETATM   10  C   UNL     1      -4.912  -1.777 -33.838  1.00  0.00     0.046 C 
HETATM   11  C   UNL     1      -6.785   0.594 -31.433  1.00  0.00     0.121 C 
HETATM   12  H   UNL     1      -5.068  -0.506 -31.773  1.00  0.00     0.279 HD
HETATM   13  H   UNL     1      -6.371  -1.451 -31.559  1.00  0.00     0.279 HD
HETATM   14  C   UNL     1      -8.261   0.247 -31.202  1.00  0.00     0.046 C 
HETATM   15  C   UNL     1      -6.145   0.824 -30.048  1.00  0.00     0.046 C 
HETATM   16  C   UNL     1      -6.576   1.853 -32.297  1.00  0.00     0.063 C 
ENDBRANCH   1   5
BRANCH   2  17
HETATM   17  C   UNL     1     -10.513   2.335 -34.281  1.00  0.00     0.066 A 
HETATM   18  C   UNL     1     -11.236   3.221 -35.095  1.00  0.00     0.081 A 
HETATM   19  C   UNL     1     -12.557   2.950 -35.443  1.00  0.00     0.039 A 
HETATM   20  C   UNL     1     -13.179   1.801 -34.955  1.00  0.00     0.026 A 
HETATM   21  C   UNL     1     -12.476   0.937 -34.116  1.00  0.00     0.035 A 
HETATM   22 CL   UNL     1     -13.245  -0.473 -33.504  1.00  0.00    -0.084 Cl
HETATM   23  C   UNL     1     -11.148   1.197 -33.772  1.00  0.00     0.043 A 
BRANCH  18  24
HETATM   24  O   UNL     1     -10.696   4.373 -35.601  1.00  0.00    -0.360 OA
HETATM   25  H   UNL     1     -11.433   4.991 -35.802  1.00  0.00     0.217 HD
ENDBRANCH  18  24
ENDBRANCH   2  17
TORSDOF 3
ENDMDL
MODEL 4
REMARK VINA RESULT:      -7.1      3.813      5.402
REMARK  3 active torsions:
REMARK  status: ('A' for Active; 'I' for Inactive)
REMARK    1  A    between atoms: C_11  and  N_12 
REMARK       I    between atoms: N_12  and  C_13 
REMARK    2  A    between atoms: C_13  and  C_14 
REMARK    3  A    between atoms: C_15  and  O_16 
ROOT
HETATM    1  N   UNL     1      -4.159   3.057 -32.731  1.00  0.00    -0.352 N 
HETATM    2  C   UNL     1      -4.862   1.982 -32.214  1.00  0.00     0.254 C 
HETATM    3  O   UNL     1      -4.987   1.763 -31.015  1.00  0.00    -0.268 OA
HETATM    4  H   UNL     1      -4.000   3.044 -33.732  1.00  0.00     0.163 HD
ENDROOT
BRANCH   1   5
HETATM    5  C   UNL     1      -3.291   3.917 -31.932  1.00  0.00     0.089 C 
HETATM    6  C   UNL     1      -3.956   5.092 -31.201  1.00  0.00     0.063 C 
HETATM    7  C   UNL     1      -4.458   6.225 -32.101  1.00  0.00     0.121 C 
HETATM    8  N   UNL     1      -3.346   6.644 -33.044  1.00  0.00    -0.059 N 
HETATM    9  C   UNL     1      -5.729   5.902 -32.894  1.00  0.00     0.046 C 
HETATM   10  C   UNL     1      -4.765   7.461 -31.229  1.00  0.00     0.046 C 
HETATM   11  C   UNL     1      -2.499   5.602 -33.744  1.00  0.00     0.121 C 
HETATM   12  H   UNL     1      -2.705   7.240 -32.499  1.00  0.00     0.279 HD
HETATM   13  H   UNL     1      -3.740   7.284 -33.749  1.00  0.00     0.279 HD
HETATM   14  C   UNL     1      -3.206   5.119 -35.017  1.00  0.00     0.046 C 
HETATM   15  C   UNL     1      -1.210   6.327 -34.184  1.00  0.00     0.046 C 
HETATM   16  C   UNL     1      -2.129   4.463 -32.774  1.00  0.00     0.063 C 
ENDBRANCH   1   5
BRANCH   2  17
HETATM   17  C   UNL     1      -5.606   1.133 -33.179  1.00  0.00     0.066 A 
HETATM   18  C   UNL     1      -6.646   1.710 -33.924  1.00  0.00     0.081 A 
HETATM   19  C   UNL     1      -7.315   0.975 -34.900  1.00  0.00     0.039 A 
HETATM   20  C   UNL     1      -6.966  -0.357 -35.122  1.00  0.00     0.026 A 
HETATM   21  C   UNL     1      -5.958  -0.945 -34.359  1.00  0.00     0.035 A 
HETATM   22 CL   UNL     1      -5.536  -2.591 -34.624  1.00  0.00    -0.084 Cl
HETATM   23  C   UNL     1      -5.277  -0.211 -33.386  1.00  0.00     0.043 A 
BRANCH  18  24
HETATM   24  O   UNL     1      -7.051   3.006 -33.753  1.00  0.00    -0.360 OA
HETATM   25  H   UNL     1      -8.034   3.022 -33.761  1.00  0.00     0.217 HD
ENDBRANCH  18  24
ENDBRANCH   2  17
TORSDOF 3
ENDMDL
MODEL 5
REMARK VINA RESULT:      -7.1      1.959      3.134
REMARK  3 active torsions:
REMARK  status: ('A' for Active; 'I' for Inactive)
REMARK    1  A    between atoms: C_11  and  N_12 
REMARK       I    between atoms: N_12  and  C_13 
REMARK    2  A    between atoms: C_13  and  C_14 
REMARK    3  A    between atoms: C_15  and  O_16 
ROOT
HETATM    1  N   UNL     1      -6.883   1.076 -33.238  1.00  0.00    -0.352 N 
HETATM    2  C   UNL     1      -6.753   0.347 -34.408  1.00  0.00     0.254 C 
HETATM    3  O   UNL     1      -7.124   0.749 -35.505  1.00  0.00    -0.268 OA
HETATM    4  H   UNL     1      -6.681   0.577 -32.380  1.00  0.00     0.163 HD
ENDROOT
BRANCH   1   5
HETATM    5  C   UNL     1      -7.681   2.293 -33.126  1.00  0.00     0.089 C 
HETATM    6  C   UNL     1      -7.060   3.586 -33.670  1.00  0.00     0.063 C 
HETATM    7  C   UNL     1      -5.880   4.137 -32.864  1.00  0.00     0.121 C 
HETATM    8  N   UNL     1      -6.270   4.217 -31.400  1.00  0.00    -0.059 N 
HETATM    9  C   UNL     1      -4.572   3.355 -33.020  1.00  0.00     0.046 C 
HETATM   10  C   UNL     1      -5.601   5.589 -33.310  1.00  0.00     0.046 C 
HETATM   11  C   UNL     1      -7.014   3.076 -30.740  1.00  0.00     0.121 C 
HETATM   12  H   UNL     1      -6.852   5.061 -31.295  1.00  0.00     0.279 HD
HETATM   13  H   UNL     1      -5.425   4.429 -30.849  1.00  0.00     0.279 HD
HETATM   14  C   UNL     1      -6.024   2.002 -30.274  1.00  0.00     0.046 C 
HETATM   15  C   UNL     1      -7.673   3.672 -29.478  1.00  0.00     0.046 C 
HETATM   16  C   UNL     1      -8.116   2.536 -31.673  1.00  0.00     0.063 C 
ENDBRANCH   1   5
BRANCH   2  17
HETATM   17  C   UNL     1      -6.005  -0.933 -34.329  1.00  0.00     0.066 A 
HETATM   18  C   UNL     1      -4.800  -0.967 -33.609  1.00  0.00     0.081 A 
HETATM   19  C   UNL     1      -4.108  -2.164 -33.437  1.00  0.00     0.039 A 
HETATM   20  C   UNL     1      -4.602  -3.336 -34.008  1.00  0.00     0.026 A 
HETATM   21  C   UNL     1      -5.779  -3.300 -34.754  1.00  0.00     0.035 A 
HETATM   22 CL   UNL     1      -6.383  -4.743 -35.469  1.00  0.00    -0.084 Cl
HETATM   23  C   UNL     1      -6.483  -2.106 -34.923  1.00  0.00     0.043 A 
BRANCH  18  24
HETATM   24  O   UNL     1      -4.248   0.145 -33.032  1.00  0.00    -0.360 OA
HETATM   25  H   UNL     1      -4.977   0.764 -32.807  1.00  0.00     0.217 HD
ENDBRANCH  18  24
ENDBRANCH   2  17
TORSDOF 3
ENDMDL
MODEL 6
REMARK VINA RESULT:      -7.1      2.068      3.032
REMARK  3 active torsions:
REMARK  status: ('A' for Active; 'I' for Inactive)
REMARK    1  A    between atoms: C_11  and  N_12 
REMARK       I    between atoms: N_12  and  C_13 
REMARK    2  A    between atoms: C_13  and  C_14 
REMARK    3  A    between atoms: C_15  and  O_16 
ROOT
HETATM    1  N   UNL     1      -4.600   1.237 -32.315  1.00  0.00    -0.352 N 
HETATM    2  C   UNL     1      -4.314  -0.062 -31.930  1.00  0.00     0.254 C 
HETATM    3  O   UNL     1      -3.866  -0.363 -30.830  1.00  0.00    -0.268 OA
HETATM    4  H   UNL     1      -4.819   1.371 -33.296  1.00  0.00     0.163 HD
ENDROOT
BRANCH   1   5
HETATM    5  C   UNL     1      -4.186   2.415 -31.561  1.00  0.00     0.089 C 
HETATM    6  C   UNL     1      -5.078   2.839 -30.386  1.00  0.00     0.063 C 
HETATM    7  C   UNL     1      -6.444   3.413 -30.773  1.00  0.00     0.121 C 
HETATM    8  N   UNL     1      -6.252   4.499 -31.815  1.00  0.00    -0.059 N 
HETATM    9  C   UNL     1      -7.460   2.379 -31.268  1.00  0.00     0.046 C 
HETATM   10  C   UNL     1      -7.064   4.109 -29.542  1.00  0.00     0.046 C 
HETATM   11  C   UNL     1      -5.297   4.293 -32.972  1.00  0.00     0.121 C 
HETATM   12  H   UNL     1      -5.940   5.341 -31.310  1.00  0.00     0.279 HD
HETATM   13  H   UNL     1      -7.177   4.761 -32.187  1.00  0.00     0.279 HD
HETATM   14  C   UNL     1      -5.997   3.527 -34.101  1.00  0.00     0.046 C 
HETATM   15  C   UNL     1      -4.969   5.702 -33.508  1.00  0.00     0.046 C 
HETATM   16  C   UNL     1      -3.995   3.625 -32.487  1.00  0.00     0.063 C 
ENDBRANCH   1   5
BRANCH   2  17
HETATM   17  C   UNL     1      -4.700  -1.147 -32.868  1.00  0.00     0.066 A 
HETATM   18  C   UNL     1      -5.833  -0.969 -33.677  1.00  0.00     0.081 A 
HETATM   19  C   UNL     1      -6.183  -1.922 -34.631  1.00  0.00     0.039 A 
HETATM   20  C   UNL     1      -5.417  -3.079 -34.765  1.00  0.00     0.026 A 
HETATM   21  C   UNL     1      -4.312  -3.277 -33.939  1.00  0.00     0.035 A 
HETATM   22 CL   UNL     1      -3.373  -4.709 -34.096  1.00  0.00    -0.084 Cl
HETATM   23  C   UNL     1      -3.949  -2.322 -32.988  1.00  0.00     0.043 A 
BRANCH  18  24
HETATM   24  O   UNL     1      -6.639   0.134 -33.593  1.00  0.00    -0.360 OA
HETATM   25  H   UNL     1      -7.361  -0.064 -32.957  1.00  0.00     0.217 HD
ENDBRANCH  18  24
ENDBRANCH   2  17
TORSDOF 3
ENDMDL
MODEL 7
REMARK VINA RESULT:      -7.1      3.792      4.985
REMARK  3 active torsions:
REMARK  status: ('A' for Active; 'I' for Inactive)
REMARK    1  A    between atoms: C_11  and  N_12 
REMARK       I    between atoms: N_12  and  C_13 
REMARK    2  A    between atoms: C_13  and  C_14 
REMARK    3  A    between atoms: C_15  and  O_16 
ROOT
HETATM    1  N   UNL     1      -3.345   3.041 -31.854  1.00  0.00    -0.352 N 
HETATM    2  C   UNL     1      -4.184   2.054 -31.365  1.00  0.00     0.254 C 
HETATM    3  O   UNL     1      -4.962   2.223 -30.433  1.00  0.00    -0.268 OA
HETATM    4  H   UNL     1      -2.645   2.737 -32.521  1.00  0.00     0.163 HD
ENDROOT
BRANCH   1   5
HETATM    5  C   UNL     1      -3.111   4.314 -31.180  1.00  0.00     0.089 C 
HETATM    6  C   UNL     1      -4.297   5.285 -31.096  1.00  0.00     0.063 C 
HETATM    7  C   UNL     1      -4.718   5.923 -32.423  1.00  0.00     0.121 C 
HETATM    8  N   UNL     1      -3.496   6.510 -33.104  1.00  0.00    -0.059 N 
HETATM    9  C   UNL     1      -5.458   4.986 -33.382  1.00  0.00     0.046 C 
HETATM   10  C   UNL     1      -5.656   7.115 -32.133  1.00  0.00     0.046 C 
HETATM   11  C   UNL     1      -2.197   5.733 -33.155  1.00  0.00     0.121 C 
HETATM   12  H   UNL     1      -3.296   7.405 -32.634  1.00  0.00     0.279 HD
HETATM   13  H   UNL     1      -3.758   6.786 -34.062  1.00  0.00     0.279 HD
HETATM   14  C   UNL     1      -2.215   4.756 -34.337  1.00  0.00     0.046 C 
HETATM   15  C   UNL     1      -1.091   6.771 -33.435  1.00  0.00     0.046 C 
HETATM   16  C   UNL     1      -1.918   5.055 -31.799  1.00  0.00     0.063 C 
ENDBRANCH   1   5
BRANCH   2  17
HETATM   17  C   UNL     1      -4.222   0.767 -32.105  1.00  0.00     0.066 A 
HETATM   18  C   UNL     1      -3.272  -0.218 -31.794  1.00  0.00     0.081 A 
HETATM   19  C   UNL     1      -3.321  -1.470 -32.402  1.00  0.00     0.039 A 
HETATM   20  C   UNL     1      -4.307  -1.740 -33.350  1.00  0.00     0.026 A 
HETATM   21  C   UNL     1      -5.230  -0.752 -33.690  1.00  0.00     0.035 A 
HETATM   22 CL   UNL     1      -6.438  -1.079 -34.868  1.00  0.00    -0.084 Cl
HETATM   23  C   UNL     1      -5.193   0.502 -33.077  1.00  0.00     0.043 A 
BRANCH  18  24
HETATM   24  O   UNL     1      -2.269  -0.021 -30.883  1.00  0.00    -0.360 OA
HETATM   25  H   UNL     1      -1.440  -0.393 -31.258  1.00  0.00     0.217 HD
ENDBRANCH  18  24
ENDBRANCH   2  17
TORSDOF 3
ENDMDL
MODEL 8
REMARK VINA RESULT:      -7.1      4.017      6.046
REMARK  3 active torsions:
REMARK  status: ('A' for Active; 'I' for Inactive)
REMARK    1  A    between atoms: C_11  and  N_12 
REMARK       I    between atoms: N_12  and  C_13 
REMARK    2  A    between atoms: C_13  and  C_14 
REMARK    3  A    between atoms: C_15  and  O_16 
ROOT
HETATM    1  N   UNL     1      -5.860   2.628 -33.740  1.00  0.00    -0.352 N 
HETATM    2  C   UNL     1      -5.490   3.955 -33.881  1.00  0.00     0.254 C 
HETATM    3  O   UNL     1      -6.244   4.833 -34.285  1.00  0.00    -0.268 OA
HETATM    4  H   UNL     1      -5.109   1.977 -33.545  1.00  0.00     0.163 HD
ENDROOT
BRANCH   1   5
HETATM    5  C   UNL     1      -7.099   2.072 -34.273  1.00  0.00     0.089 C 
HETATM    6  C   UNL     1      -8.243   1.839 -33.276  1.00  0.00     0.063 C 
HETATM    7  C   UNL     1      -8.018   0.704 -32.273  1.00  0.00     0.121 C 
HETATM    8  N   UNL     1      -7.598  -0.547 -33.021  1.00  0.00    -0.059 N 
HETATM    9  C   UNL     1      -7.013   1.017 -31.160  1.00  0.00     0.046 C 
HETATM   10  C   UNL     1      -9.361   0.361 -31.592  1.00  0.00     0.046 C 
HETATM   11  C   UNL     1      -6.574  -0.469 -34.133  1.00  0.00     0.121 C 
HETATM   12  H   UNL     1      -8.454  -0.953 -33.425  1.00  0.00     0.279 HD
HETATM   13  H   UNL     1      -7.291  -1.251 -32.333  1.00  0.00     0.279 HD
HETATM   14  C   UNL     1      -5.156  -0.510 -33.548  1.00  0.00     0.046 C 
HETATM   15  C   UNL     1      -6.760  -1.750 -34.974  1.00  0.00     0.046 C 
HETATM   16  C   UNL     1      -6.837   0.760 -35.026  1.00  0.00     0.063 C 
ENDBRANCH   1   5
BRANCH   2  17
HETATM   17  C   UNL     1      -4.143   4.339 -33.388  1.00  0.00     0.066 A 
HETATM   18  C   UNL     1      -3.819   4.089 -32.045  1.00  0.00     0.081 A 
HETATM   19  C   UNL     1      -2.540   4.354 -31.561  1.00  0.00     0.039 A 
HETATM   20  C   UNL     1      -1.578   4.898 -32.411  1.00  0.00     0.026 A 
HETATM   21  C   UNL     1      -1.906   5.182 -33.736  1.00  0.00     0.035 A 
HETATM   22 CL   UNL     1      -0.724   5.865 -34.782  1.00  0.00    -0.084 Cl
HETATM   23  C   UNL     1      -3.183   4.910 -34.231  1.00  0.00     0.043 A 
BRANCH  18  24
HETATM   24  O   UNL     1      -4.714   3.568 -31.150  1.00  0.00    -0.360 OA
HETATM   25  H   UNL     1      -5.216   2.855 -31.603  1.00  0.00     0.217 HD
ENDBRANCH  18  24
ENDBRANCH   2  17
TORSDOF 3
ENDMDL
MODEL 9
REMARK VINA RESULT:      -7.0      3.341      4.744
REMARK  3 active torsions:
REMARK  status: ('A' for Active; 'I' for Inactive)
REMARK    1  A    between atoms: C_11  and  N_12 
REMARK       I    between atoms: N_12  and  C_13 
REMARK    2  A    between atoms: C_13  and  C_14 
REMARK    3  A    between atoms: C_15  and  O_16 
ROOT
HETATM    1  N   UNL     1      -5.809   2.893 -33.646  1.00  0.00    -0.352 N 
HETATM    2  C   UNL     1      -6.808   1.937 -33.719  1.00  0.00     0.254 C 
HETATM    3  O   UNL     1      -8.003   2.204 -33.771  1.00  0.00    -0.268 OA
HETATM    4  H   UNL     1      -4.876   2.547 -33.454  1.00  0.00     0.163 HD
ENDROOT
BRANCH   1   5
HETATM    5  C   UNL     1      -6.058   4.307 -33.385  1.00  0.00     0.089 C 
HETATM    6  C   UNL     1      -4.930   5.289 -33.733  1.00  0.00     0.063 C 
HETATM    7  C   UNL     1      -3.693   5.213 -32.834  1.00  0.00     0.121 C 
HETATM    8  N   UNL     1      -4.127   5.274 -31.382  1.00  0.00    -0.059 N 
HETATM    9  C   UNL     1      -2.801   3.990 -33.068  1.00  0.00     0.046 C 
HETATM   10  C   UNL     1      -2.822   6.466 -33.071  1.00  0.00     0.046 C 
HETATM   11  C   UNL     1      -5.314   4.466 -30.901  1.00  0.00     0.121 C 
HETATM   12  H   UNL     1      -4.328   6.263 -31.174  1.00  0.00     0.279 HD
HETATM   13  H   UNL     1      -3.312   5.056 -30.789  1.00  0.00     0.279 HD
HETATM   14  C   UNL     1      -4.876   3.035 -30.565  1.00  0.00     0.046 C 
HETATM   15  C   UNL     1      -5.771   5.127 -29.583  1.00  0.00     0.046 C 
HETATM   16  C   UNL     1      -6.466   4.535 -31.922  1.00  0.00     0.063 C 
ENDBRANCH   1   5
BRANCH   2  17
HETATM   17  C   UNL     1      -6.382   0.523 -33.871  1.00  0.00     0.066 A 
HETATM   18  C   UNL     1      -7.057  -0.290 -34.796  1.00  0.00     0.081 A 
HETATM   19  C   UNL     1      -6.637  -1.596 -35.034  1.00  0.00     0.039 A 
HETATM   20  C   UNL     1      -5.553  -2.114 -34.326  1.00  0.00     0.026 A 
HETATM   21  C   UNL     1      -4.903  -1.323 -33.380  1.00  0.00     0.035 A 
HETATM   22 CL   UNL     1      -3.573  -1.964 -32.498  1.00  0.00    -0.084 Cl
HETATM   23  C   UNL     1      -5.311  -0.008 -33.144  1.00  0.00     0.043 A 
BRANCH  18  24
HETATM   24  O   UNL     1      -8.136   0.146 -35.517  1.00  0.00    -0.360 OA
HETATM   25  H   UNL     1      -8.641  -0.643 -35.815  1.00  0.00     0.217 HD
ENDBRANCH  18  24
ENDBRANCH   2  17
TORSDOF 3
ENDMDL
MODEL 10
REMARK VINA RESULT:      -6.9     13.646     14.880
REMARK  3 active torsions:
REMARK  status: ('A' for Active; 'I' for Inactive)
REMARK    1  A    between atoms: C_11  and  N_12 
REMARK       I    between atoms: N_12  and  C_13 
REMARK    2  A    between atoms: C_13  and  C_14 
REMARK    3  A    between atoms: C_15  and  O_16 
ROOT
HETATM    1  N   UNL     1      -5.635 -13.656 -37.734  1.00  0.00    -0.352 N 
HETATM    2  C   UNL     1      -4.605 -13.564 -36.814  1.00  0.00     0.254 C 
HETATM    3  O   UNL     1      -4.774 -13.580 -35.600  1.00  0.00    -0.268 OA
HETATM    4  H   UNL     1      -5.384 -13.478 -38.700  1.00  0.00     0.163 HD
ENDROOT
BRANCH   1   5
HETATM    5  C   UNL     1      -7.048 -13.543 -37.385  1.00  0.00     0.089 C 
HETATM    6  C   UNL     1      -7.876 -14.835 -37.408  1.00  0.00     0.063 C 
HETATM    7  C   UNL     1      -8.139 -15.421 -38.799  1.00  0.00     0.121 C 
HETATM    8  N   UNL     1      -8.682 -14.332 -39.704  1.00  0.00    -0.059 N 
HETATM    9  C   UNL     1      -6.929 -16.097 -39.452  1.00  0.00     0.046 C 
HETATM   10  C   UNL     1      -9.255 -16.483 -38.694  1.00  0.00     0.046 C 
HETATM   11  C   UNL     1      -8.062 -12.951 -39.702  1.00  0.00     0.121 C 
HETATM   12  H   UNL     1      -9.678 -14.218 -39.466  1.00  0.00     0.279 HD
HETATM   13  H   UNL     1      -8.699 -14.690 -40.671  1.00  0.00     0.279 HD
HETATM   14  C   UNL     1      -6.841 -12.921 -40.631  1.00  0.00     0.046 C 
HETATM   15  C   UNL     1      -9.122 -12.008 -40.309  1.00  0.00     0.046 C 
HETATM   16  C   UNL     1      -7.752 -12.498 -38.262  1.00  0.00     0.063 C 
ENDBRANCH   1   5
BRANCH   2  17
HETATM   17  C   UNL     1      -3.219 -13.578 -37.344  1.00  0.00     0.066 A 
HETATM   18  C   UNL     1      -2.829 -12.571 -38.241  1.00  0.00     0.081 A 
HETATM   19  C   UNL     1      -1.516 -12.495 -38.699  1.00  0.00     0.039 A 
HETATM   20  C   UNL     1      -0.583 -13.445 -38.283  1.00  0.00     0.026 A 
HETATM   21  C   UNL     1      -0.975 -14.469 -37.422  1.00  0.00     0.035 A 
HETATM   22 CL   UNL     1       0.171 -15.648 -36.919  1.00  0.00    -0.084 Cl
HETATM   23  C   UNL     1      -2.287 -14.545 -36.951  1.00  0.00     0.043 A 
BRANCH  18  24
HETATM   24  O   UNL     1      -3.691 -11.613 -38.702  1.00  0.00    -0.360 OA
HETATM   25  H   UNL     1      -4.124 -11.194 -37.925  1.00  0.00     0.217 HD
ENDBRANCH  18  24
ENDBRANCH   2  17
TORSDOF 3
ENDMDL
