MODEL 1
REMARK VINA RESULT:      -7.8      0.000      0.000
REMARK  9 active torsions:
REMARK  status: ('A' for Active; 'I' for Inactive)
REMARK    1  A    between atoms: C_2  and  N_3 
REMARK    2  A    between atoms: N_3  and  C_5 
REMARK    3  A    between atoms: N_3  and  C_30 
REMARK    4  A    between atoms: C_5  and  C_6 
REMARK    5  A    between atoms: C_5  and  C_14 
REMARK    6  A    between atoms: C_8  and  O_9 
REMARK    7  A    between atoms: C_14  and  N_15 
REMARK       I    between atoms: N_15  and  C_16 
REMARK    8  A    between atoms: C_16  and  C_17 
REMARK    9  A    between atoms: C_18  and  N_19 
ROOT
HETATM    1  C   UNL     1      -3.341   2.083 -31.714  1.00  0.00     0.161 C 
ENDROOT
BRANCH   1   2
HETATM    2  C   UNL     1      -3.962   3.250 -32.558  1.00  0.00     0.238 C 
BRANCH   2   3
HETATM    3  N   UNL     1      -5.260   3.794 -31.930  1.00  0.00    -0.062 N 
HETATM    4  H   UNL     1      -5.970   3.348 -32.543  1.00  0.00     0.280 HD
BRANCH   3   5
HETATM    5  C   UNL     1      -5.442   5.290 -32.101  1.00  0.00     0.231 C 
HETATM    6  C   UNL     1      -6.483   5.620 -33.154  1.00  0.00     0.034 C 
ENDBRANCH   3   5
BRANCH   3   7
HETATM    7  C   UNL     1      -5.518   3.354 -30.512  1.00  0.00     0.231 C 
HETATM    8  C   UNL     1      -6.841   2.616 -30.405  1.00  0.00     0.034 C 
ENDBRANCH   3   7
ENDBRANCH   2   3
BRANCH   2   9
HETATM    9  C   UNL     1      -2.934   4.310 -32.927  1.00  0.00    -0.023 A 
HETATM   10  C   UNL     1      -1.944   4.663 -31.985  1.00  0.00     0.046 A 
HETATM   11  C   UNL     1      -0.977   5.625 -32.283  1.00  0.00     0.068 A 
HETATM   12  C   UNL     1      -0.976   6.225 -33.542  1.00  0.00     0.037 A 
HETATM   13  C   UNL     1      -1.950   5.899 -34.481  1.00  0.00     0.003 A 
HETATM   14  C   UNL     1      -2.928   4.953 -34.175  1.00  0.00     0.009 A 
BRANCH  11  15
HETATM   15  O   UNL     1       0.022   6.035 -31.449  1.00  0.00    -0.356 OA
HETATM   16  C   UNL     1      -0.185   5.848 -30.054  1.00  0.00     0.210 C 
ENDBRANCH  11  15
ENDBRANCH   2   9
ENDBRANCH   1   2
BRANCH   1  17
HETATM   17  N   UNL     1      -3.409   0.718 -32.248  1.00  0.00    -0.354 N 
HETATM   18  C   UNL     1      -4.327  -0.208 -31.774  1.00  0.00     0.253 C 
HETATM   19  O   UNL     1      -4.676  -0.182 -30.600  1.00  0.00    -0.268 OA
HETATM   20  H   UNL     1      -3.157   0.622 -33.228  1.00  0.00     0.162 HD
BRANCH  18  21
HETATM   21  C   UNL     1      -4.855  -1.182 -32.776  1.00  0.00     0.059 A 
HETATM   22  C   UNL     1      -5.973  -0.932 -33.607  1.00  0.00     0.046 A 
HETATM   23  C   UNL     1      -6.213  -1.903 -34.605  1.00  0.00     0.031 A 
HETATM   24  C   UNL     1      -5.441  -3.064 -34.749  1.00  0.00     0.009 A 
HETATM   25  C   UNL     1      -4.366  -3.304 -33.906  1.00  0.00    -0.061 A 
HETATM   26  C   UNL     1      -3.503  -4.517 -34.090  1.00  0.00     0.048 C 
HETATM   27  C   UNL     1      -4.062  -2.345 -32.941  1.00  0.00     0.026 A 
BRANCH  22  28
HETATM   28  N   UNL     1      -6.809   0.172 -33.514  1.00  0.00    -0.380 N 
HETATM   29  C   UNL     1      -8.180   0.084 -33.014  1.00  0.00     0.123 C 
HETATM   30  C   UNL     1      -8.927   1.219 -33.713  1.00  0.00     0.021 C 
HETATM   31  C   UNL     1      -7.834   2.241 -33.969  1.00  0.00     0.021 C 
HETATM   32  C   UNL     1      -6.664   1.354 -34.376  1.00  0.00     0.123 C 
ENDBRANCH  22  28
ENDBRANCH  18  21
ENDBRANCH   1  17
TORSDOF 9
ENDMDL
MODEL 2
REMARK VINA RESULT:      -7.8      0.978      1.599
REMARK  9 active torsions:
REMARK  status: ('A' for Active; 'I' for Inactive)
REMARK    1  A    between atoms: C_2  and  N_3 
REMARK    2  A    between atoms: N_3  and  C_5 
REMARK    3  A    between atoms: N_3  and  C_30 
REMARK    4  A    between atoms: C_5  and  C_6 
REMARK    5  A    between atoms: C_5  and  C_14 
REMARK    6  A    between atoms: C_8  and  O_9 
REMARK    7  A    between atoms: C_14  and  N_15 
REMARK       I    between atoms: N_15  and  C_16 
REMARK    8  A    between atoms: C_16  and  C_17 
REMARK    9  A    between atoms: C_18  and  N_19 
ROOT
HETATM    1  C   UNL     1      -4.294   2.216 -31.231  1.00  0.00     0.161 C 
ENDROOT
BRANCH   1   2
HETATM    2  C   UNL     1      -4.676   3.438 -32.138  1.00  0.00     0.238 C 
BRANCH   2   3
HETATM    3  N   UNL     1      -5.761   4.321 -31.493  1.00  0.00    -0.062 N 
HETATM    4  H   UNL     1      -5.188   5.126 -31.174  1.00  0.00     0.280 HD
BRANCH   3   5
HETATM    5  C   UNL     1      -6.373   3.722 -30.240  1.00  0.00     0.231 C 
HETATM    6  C   UNL     1      -7.798   3.255 -30.470  1.00  0.00     0.034 C 
ENDBRANCH   3   5
BRANCH   3   7
HETATM    7  C   UNL     1      -6.814   4.837 -32.441  1.00  0.00     0.231 C 
HETATM    8  C   UNL     1      -6.618   6.318 -32.714  1.00  0.00     0.034 C 
ENDBRANCH   3   7
ENDBRANCH   2   3
BRANCH   2   9
HETATM    9  C   UNL     1      -3.453   4.190 -32.644  1.00  0.00    -0.023 A 
HETATM   10  C   UNL     1      -2.286   4.215 -31.851  1.00  0.00     0.046 A 
HETATM   11  C   UNL     1      -1.139   4.885 -32.279  1.00  0.00     0.068 A 
HETATM   12  C   UNL     1      -1.141   5.517 -33.522  1.00  0.00     0.037 A 
HETATM   13  C   UNL     1      -2.286   5.515 -34.314  1.00  0.00     0.003 A 
HETATM   14  C   UNL     1      -3.437   4.861 -33.877  1.00  0.00     0.009 A 
BRANCH  11  15
HETATM   15  O   UNL     1       0.039   4.968 -31.594  1.00  0.00    -0.356 OA
HETATM   16  C   UNL     1      -0.045   5.207 -30.194  1.00  0.00     0.210 C 
ENDBRANCH  11  15
ENDBRANCH   2   9
ENDBRANCH   1   2
BRANCH   1  17
HETATM   17  N   UNL     1      -4.399   0.864 -31.794  1.00  0.00    -0.354 N 
HETATM   18  C   UNL     1      -5.523   0.076 -31.596  1.00  0.00     0.253 C 
HETATM   19  O   UNL     1      -6.160   0.164 -30.553  1.00  0.00    -0.268 OA
HETATM   20  H   UNL     1      -3.916   0.723 -32.677  1.00  0.00     0.162 HD
BRANCH  18  21
HETATM   21  C   UNL     1      -5.896  -0.832 -32.721  1.00  0.00     0.059 A 
HETATM   22  C   UNL     1      -7.029  -0.641 -33.548  1.00  0.00     0.046 A 
HETATM   23  C   UNL     1      -7.117  -1.507 -34.661  1.00  0.00     0.031 A 
HETATM   24  C   UNL     1      -6.186  -2.522 -34.922  1.00  0.00     0.009 A 
HETATM   25  C   UNL     1      -5.098  -2.711 -34.082  1.00  0.00    -0.061 A 
HETATM   26  C   UNL     1      -4.069  -3.760 -34.385  1.00  0.00     0.048 C 
HETATM   27  C   UNL     1      -4.944  -1.844 -33.002  1.00  0.00     0.026 A 
BRANCH  22  28
HETATM   28  N   UNL     1      -8.014   0.315 -33.347  1.00  0.00    -0.380 N 
HETATM   29  C   UNL     1      -9.277   0.018 -32.674  1.00  0.00     0.123 C 
HETATM   30  C   UNL     1     -10.282   1.002 -33.271  1.00  0.00     0.021 C 
HETATM   31  C   UNL     1      -9.412   2.181 -33.666  1.00  0.00     0.021 C 
HETATM   32  C   UNL     1      -8.175   1.486 -34.221  1.00  0.00     0.123 C 
ENDBRANCH  22  28
ENDBRANCH  18  21
ENDBRANCH   1  17
TORSDOF 9
ENDMDL
MODEL 3
REMARK VINA RESULT:      -7.8      3.474      6.700
REMARK  9 active torsions:
REMARK  status: ('A' for Active; 'I' for Inactive)
REMARK    1  A    between atoms: C_2  and  N_3 
REMARK    2  A    between atoms: N_3  and  C_5 
REMARK    3  A    between atoms: N_3  and  C_30 
REMARK    4  A    between atoms: C_5  and  C_6 
REMARK    5  A    between atoms: C_5  and  C_14 
REMARK    6  A    between atoms: C_8  and  O_9 
REMARK    7  A    between atoms: C_14  and  N_15 
REMARK       I    between atoms: N_15  and  C_16 
REMARK    8  A    between atoms: C_16  and  C_17 
REMARK    9  A    between atoms: C_18  and  N_19 
ROOT
HETATM    1  C   UNL     1     -10.388   0.416 -33.216  1.00  0.00     0.161 C 
ENDROOT
BRANCH   1   2
HETATM    2  C   UNL     1     -11.303   1.581 -33.735  1.00  0.00     0.238 C 
BRANCH   2   3
HETATM    3  N   UNL     1     -12.735   1.488 -33.175  1.00  0.00    -0.062 N 
HETATM    4  H   UNL     1     -12.536   1.330 -32.168  1.00  0.00     0.280 HD
BRANCH   3   5
HETATM    5  C   UNL     1     -13.497   0.264 -33.647  1.00  0.00     0.231 C 
HETATM    6  C   UNL     1     -14.797   0.635 -34.336  1.00  0.00     0.034 C 
ENDBRANCH   3   5
BRANCH   3   7
HETATM    7  C   UNL     1     -13.556   2.746 -33.302  1.00  0.00     0.231 C 
HETATM    8  C   UNL     1     -13.949   3.277 -31.936  1.00  0.00     0.034 C 
ENDBRANCH   3   7
ENDBRANCH   2   3
BRANCH   2   9
HETATM    9  C   UNL     1     -10.643   2.945 -33.589  1.00  0.00    -0.023 A 
HETATM   10  C   UNL     1     -10.480   3.755 -34.734  1.00  0.00     0.046 A 
HETATM   11  C   UNL     1      -9.888   5.016 -34.644  1.00  0.00     0.068 A 
HETATM   12  C   UNL     1      -9.476   5.491 -33.400  1.00  0.00     0.037 A 
HETATM   13  C   UNL     1      -9.616   4.703 -32.261  1.00  0.00     0.003 A 
HETATM   14  C   UNL     1     -10.190   3.435 -32.354  1.00  0.00     0.009 A 
BRANCH  11  15
HETATM   15  O   UNL     1      -9.687   5.877 -35.685  1.00  0.00    -0.356 OA
HETATM   16  C   UNL     1     -10.502   7.042 -35.724  1.00  0.00     0.210 C 
ENDBRANCH  11  15
ENDBRANCH   2   9
ENDBRANCH   1   2
BRANCH   1  17
HETATM   17  N   UNL     1      -8.989   0.374 -33.655  1.00  0.00    -0.354 N 
HETATM   18  C   UNL     1      -7.957   0.066 -32.780  1.00  0.00     0.253 C 
HETATM   19  O   UNL     1      -8.034   0.390 -31.601  1.00  0.00    -0.268 OA
HETATM   20  H   UNL     1      -8.845   0.087 -34.619  1.00  0.00     0.162 HD
BRANCH  18  21
HETATM   21  C   UNL     1      -6.804  -0.685 -33.361  1.00  0.00     0.059 A 
HETATM   22  C   UNL     1      -5.449  -0.325 -33.167  1.00  0.00     0.046 A 
HETATM   23  C   UNL     1      -4.502  -1.255 -33.653  1.00  0.00     0.031 A 
HETATM   24  C   UNL     1      -4.856  -2.433 -34.325  1.00  0.00     0.009 A 
HETATM   25  C   UNL     1      -6.190  -2.753 -34.529  1.00  0.00    -0.061 A 
HETATM   26  C   UNL     1      -6.576  -4.039 -35.198  1.00  0.00     0.048 C 
HETATM   27  C   UNL     1      -7.158  -1.890 -34.018  1.00  0.00     0.026 A 
BRANCH  22  28
HETATM   28  N   UNL     1      -5.010   0.834 -32.544  1.00  0.00    -0.380 N 
HETATM   29  C   UNL     1      -5.328   2.170 -33.046  1.00  0.00     0.123 C 
HETATM   30  C   UNL     1      -4.162   3.048 -32.595  1.00  0.00     0.021 C 
HETATM   31  C   UNL     1      -3.678   2.352 -31.336  1.00  0.00     0.021 C 
HETATM   32  C   UNL     1      -3.790   0.883 -31.726  1.00  0.00     0.123 C 
ENDBRANCH  22  28
ENDBRANCH  18  21
ENDBRANCH   1  17
TORSDOF 9
ENDMDL
MODEL 4
REMARK VINA RESULT:      -7.5      2.762      5.764
REMARK  9 active torsions:
REMARK  status: ('A' for Active; 'I' for Inactive)
REMARK    1  A    between atoms: C_2  and  N_3 
REMARK    2  A    between atoms: N_3  and  C_5 
REMARK    3  A    between atoms: N_3  and  C_30 
REMARK    4  A    between atoms: C_5  and  C_6 
REMARK    5  A    between atoms: C_5  and  C_14 
REMARK    6  A    between atoms: C_8  and  O_9 
REMARK    7  A    between atoms: C_14  and  N_15 
REMARK       I    between atoms: N_15  and  C_16 
REMARK    8  A    between atoms: C_16  and  C_17 
REMARK    9  A    between atoms: C_18  and  N_19 
ROOT
HETATM    1  C   UNL     1      -7.264   1.159 -34.473  1.00  0.00     0.161 C 
ENDROOT
BRANCH   1   2
HETATM    2  C   UNL     1      -6.551   1.529 -33.125  1.00  0.00     0.238 C 
BRANCH   2   3
HETATM    3  N   UNL     1      -5.965   0.291 -32.420  1.00  0.00    -0.062 N 
HETATM    4  H   UNL     1      -5.001   0.623 -32.220  1.00  0.00     0.280 HD
BRANCH   3   5
HETATM    5  C   UNL     1      -5.810  -0.915 -33.329  1.00  0.00     0.231 C 
HETATM    6  C   UNL     1      -4.424  -1.523 -33.235  1.00  0.00     0.034 C 
ENDBRANCH   3   5
BRANCH   3   7
HETATM    7  C   UNL     1      -6.621  -0.072 -31.112  1.00  0.00     0.231 C 
HETATM    8  C   UNL     1      -6.064   0.768 -29.976  1.00  0.00     0.034 C 
ENDBRANCH   3   7
ENDBRANCH   2   3
BRANCH   2   9
HETATM    9  C   UNL     1      -5.585   2.696 -33.281  1.00  0.00    -0.023 A 
HETATM   10  C   UNL     1      -4.372   2.684 -32.560  1.00  0.00     0.046 A 
HETATM   11  C   UNL     1      -3.454   3.729 -32.679  1.00  0.00     0.068 A 
HETATM   12  C   UNL     1      -3.731   4.787 -33.543  1.00  0.00     0.037 A 
HETATM   13  C   UNL     1      -4.928   4.824 -34.254  1.00  0.00     0.003 A 
HETATM   14  C   UNL     1      -5.853   3.789 -34.120  1.00  0.00     0.009 A 
BRANCH  11  15
HETATM   15  O   UNL     1      -2.255   3.813 -32.032  1.00  0.00    -0.356 OA
HETATM   16  C   UNL     1      -1.445   4.946 -32.320  1.00  0.00     0.210 C 
ENDBRANCH  11  15
ENDBRANCH   2   9
ENDBRANCH   1   2
BRANCH   1  17
HETATM   17  N   UNL     1      -8.721   1.314 -34.560  1.00  0.00    -0.354 N 
HETATM   18  C   UNL     1      -9.576   0.719 -33.644  1.00  0.00     0.253 C 
HETATM   19  O   UNL     1      -9.282  -0.358 -33.139  1.00  0.00    -0.268 OA
HETATM   20  H   UNL     1      -9.041   2.198 -34.947  1.00  0.00     0.162 HD
BRANCH  18  21
HETATM   21  C   UNL     1     -10.819   1.478 -33.316  1.00  0.00     0.059 A 
HETATM   22  C   UNL     1     -10.830   2.721 -32.638  1.00  0.00     0.046 A 
HETATM   23  C   UNL     1     -12.088   3.362 -32.572  1.00  0.00     0.031 A 
HETATM   24  C   UNL     1     -13.263   2.804 -33.092  1.00  0.00     0.009 A 
HETATM   25  C   UNL     1     -13.236   1.571 -33.728  1.00  0.00    -0.061 A 
HETATM   26  C   UNL     1     -14.480   0.994 -34.335  1.00  0.00     0.048 C 
HETATM   27  C   UNL     1     -12.006   0.929 -33.862  1.00  0.00     0.026 A 
BRANCH  22  28
HETATM   28  N   UNL     1      -9.722   3.330 -32.066  1.00  0.00    -0.380 N 
HETATM   29  C   UNL     1      -9.175   2.920 -30.773  1.00  0.00     0.123 C 
HETATM   30  C   UNL     1      -8.528   4.182 -30.202  1.00  0.00     0.021 C 
HETATM   31  C   UNL     1      -8.142   4.960 -31.447  1.00  0.00     0.021 C 
HETATM   32  C   UNL     1      -9.344   4.721 -32.352  1.00  0.00     0.123 C 
ENDBRANCH  22  28
ENDBRANCH  18  21
ENDBRANCH   1  17
TORSDOF 9
ENDMDL
MODEL 5
REMARK VINA RESULT:      -7.5      1.727      3.165
REMARK  9 active torsions:
REMARK  status: ('A' for Active; 'I' for Inactive)
REMARK    1  A    between atoms: C_2  and  N_3 
REMARK    2  A    between atoms: N_3  and  C_5 
REMARK    3  A    between atoms: N_3  and  C_30 
REMARK    4  A    between atoms: C_5  and  C_6 
REMARK    5  A    between atoms: C_5  and  C_14 
REMARK    6  A    between atoms: C_8  and  O_9 
REMARK    7  A    between atoms: C_14  and  N_15 
REMARK       I    between atoms: N_15  and  C_16 
REMARK    8  A    between atoms: C_16  and  C_17 
REMARK    9  A    between atoms: C_18  and  N_19 
ROOT
HETATM    1  C   UNL     1      -2.962   3.394 -31.630  1.00  0.00     0.161 C 
ENDROOT
BRANCH   1   2
HETATM    2  C   UNL     1      -2.135   4.548 -32.298  1.00  0.00     0.238 C 
BRANCH   2   3
HETATM    3  N   UNL     1      -2.990   5.390 -33.264  1.00  0.00    -0.062 N 
HETATM    4  H   UNL     1      -2.708   6.349 -32.983  1.00  0.00     0.280 HD
BRANCH   3   5
HETATM    5  C   UNL     1      -4.481   5.299 -32.999  1.00  0.00     0.231 C 
HETATM    6  C   UNL     1      -5.248   4.831 -34.221  1.00  0.00     0.034 C 
ENDBRANCH   3   5
BRANCH   3   7
HETATM    7  C   UNL     1      -2.666   5.212 -34.726  1.00  0.00     0.231 C 
HETATM    8  C   UNL     1      -1.174   5.345 -34.971  1.00  0.00     0.034 C 
ENDBRANCH   3   7
ENDBRANCH   2   3
BRANCH   2   9
HETATM    9  C   UNL     1      -1.335   5.351 -31.282  1.00  0.00    -0.023 A 
HETATM   10  C   UNL     1      -2.021   6.174 -30.363  1.00  0.00     0.046 A 
HETATM   11  C   UNL     1      -1.328   6.922 -29.410  1.00  0.00     0.068 A 
HETATM   12  C   UNL     1       0.061   6.833 -29.350  1.00  0.00     0.037 A 
HETATM   13  C   UNL     1       0.759   6.037 -30.255  1.00  0.00     0.003 A 
HETATM   14  C   UNL     1       0.067   5.305 -31.220  1.00  0.00     0.009 A 
BRANCH  11  15
HETATM   15  O   UNL     1      -1.893   7.743 -28.476  1.00  0.00    -0.356 OA
HETATM   16  C   UNL     1      -3.234   7.460 -28.096  1.00  0.00     0.210 C 
ENDBRANCH  11  15
ENDBRANCH   2   9
ENDBRANCH   1   2
BRANCH   1  17
HETATM   17  N   UNL     1      -3.388   2.263 -32.462  1.00  0.00    -0.354 N 
HETATM   18  C   UNL     1      -3.480   0.976 -31.955  1.00  0.00     0.253 C 
HETATM   19  O   UNL     1      -2.710   0.604 -31.078  1.00  0.00    -0.268 OA
HETATM   20  H   UNL     1      -4.051   2.492 -33.198  1.00  0.00     0.162 HD
BRANCH  18  21
HETATM   21  C   UNL     1      -4.567   0.122 -32.521  1.00  0.00     0.059 A 
HETATM   22  C   UNL     1      -5.933   0.493 -32.542  1.00  0.00     0.046 A 
HETATM   23  C   UNL     1      -6.781  -0.371 -33.271  1.00  0.00     0.031 A 
HETATM   24  C   UNL     1      -6.333  -1.542 -33.896  1.00  0.00     0.009 A 
HETATM   25  C   UNL     1      -4.995  -1.903 -33.839  1.00  0.00    -0.061 A 
HETATM   26  C   UNL     1      -4.499  -3.126 -34.552  1.00  0.00     0.048 C 
HETATM   27  C   UNL     1      -4.113  -1.051 -33.176  1.00  0.00     0.026 A 
BRANCH  22  28
HETATM   28  N   UNL     1      -6.467   1.615 -31.925  1.00  0.00    -0.380 N 
HETATM   29  C   UNL     1      -6.567   1.744 -30.473  1.00  0.00     0.123 C 
HETATM   30  C   UNL     1      -7.769   2.659 -30.241  1.00  0.00     0.021 C 
HETATM   31  C   UNL     1      -7.800   3.507 -31.500  1.00  0.00     0.021 C 
HETATM   32  C   UNL     1      -7.458   2.484 -32.576  1.00  0.00     0.123 C 
ENDBRANCH  22  28
ENDBRANCH  18  21
ENDBRANCH   1  17
TORSDOF 9
ENDMDL
MODEL 6
REMARK VINA RESULT:      -7.5      2.784      5.577
REMARK  9 active torsions:
REMARK  status: ('A' for Active; 'I' for Inactive)
REMARK    1  A    between atoms: C_2  and  N_3 
REMARK    2  A    between atoms: N_3  and  C_5 
REMARK    3  A    between atoms: N_3  and  C_30 
REMARK    4  A    between atoms: C_5  and  C_6 
REMARK    5  A    between atoms: C_5  and  C_14 
REMARK    6  A    between atoms: C_8  and  O_9 
REMARK    7  A    between atoms: C_14  and  N_15 
REMARK       I    between atoms: N_15  and  C_16 
REMARK    8  A    between atoms: C_16  and  C_17 
REMARK    9  A    between atoms: C_18  and  N_19 
ROOT
HETATM    1  C   UNL     1      -9.820   1.044 -34.311  1.00  0.00     0.161 C 
ENDROOT
BRANCH   1   2
HETATM    2  C   UNL     1     -10.308   2.519 -34.093  1.00  0.00     0.238 C 
BRANCH   2   3
HETATM    3  N   UNL     1     -11.792   2.585 -33.686  1.00  0.00    -0.062 N 
HETATM    4  H   UNL     1     -11.713   3.015 -32.744  1.00  0.00     0.280 HD
BRANCH   3   5
HETATM    5  C   UNL     1     -12.428   1.224 -33.471  1.00  0.00     0.231 C 
HETATM    6  C   UNL     1     -13.500   0.928 -34.503  1.00  0.00     0.034 C 
ENDBRANCH   3   5
BRANCH   3   7
HETATM    7  C   UNL     1     -12.653   3.478 -34.542  1.00  0.00     0.231 C 
HETATM    8  C   UNL     1     -11.866   4.019 -35.723  1.00  0.00     0.034 C 
ENDBRANCH   3   7
ENDBRANCH   2   3
BRANCH   2   9
HETATM    9  C   UNL     1      -9.363   3.318 -33.207  1.00  0.00    -0.023 A 
HETATM   10  C   UNL     1      -8.327   4.067 -33.807  1.00  0.00     0.046 A 
HETATM   11  C   UNL     1      -7.443   4.820 -33.033  1.00  0.00     0.068 A 
HETATM   12  C   UNL     1      -7.603   4.852 -31.648  1.00  0.00     0.037 A 
HETATM   13  C   UNL     1      -8.610   4.111 -31.036  1.00  0.00     0.003 A 
HETATM   14  C   UNL     1      -9.481   3.343 -31.808  1.00  0.00     0.009 A 
BRANCH  11  15
HETATM   15  O   UNL     1      -6.414   5.579 -33.511  1.00  0.00    -0.356 OA
HETATM   16  C   UNL     1      -5.605   6.247 -32.550  1.00  0.00     0.210 C 
ENDBRANCH  11  15
ENDBRANCH   2   9
ENDBRANCH   1   2
BRANCH   1  17
HETATM   17  N   UNL     1      -8.385   0.756 -34.198  1.00  0.00    -0.354 N 
HETATM   18  C   UNL     1      -7.876  -0.033 -33.177  1.00  0.00     0.253 C 
HETATM   19  O   UNL     1      -8.407  -0.027 -32.073  1.00  0.00    -0.268 OA
HETATM   20  H   UNL     1      -7.881   0.709 -35.079  1.00  0.00     0.162 HD
BRANCH  18  21
HETATM   21  C   UNL     1      -6.694  -0.876 -33.524  1.00  0.00     0.059 A 
HETATM   22  C   UNL     1      -5.384  -0.638 -33.042  1.00  0.00     0.046 A 
HETATM   23  C   UNL     1      -4.437  -1.642 -33.344  1.00  0.00     0.031 A 
HETATM   24  C   UNL     1      -4.739  -2.779 -34.107  1.00  0.00     0.009 A 
HETATM   25  C   UNL     1      -6.022  -2.979 -34.595  1.00  0.00    -0.061 A 
HETATM   26  C   UNL     1      -6.364  -4.220 -35.365  1.00  0.00     0.048 C 
HETATM   27  C   UNL     1      -7.001  -2.039 -34.274  1.00  0.00     0.026 A 
BRANCH  22  28
HETATM   28  N   UNL     1      -4.991   0.472 -32.308  1.00  0.00    -0.380 N 
HETATM   29  C   UNL     1      -5.062   0.520 -30.849  1.00  0.00     0.123 C 
HETATM   30  C   UNL     1      -5.257   1.998 -30.512  1.00  0.00     0.021 C 
HETATM   31  C   UNL     1      -4.590   2.704 -31.679  1.00  0.00     0.021 C 
HETATM   32  C   UNL     1      -5.016   1.836 -32.856  1.00  0.00     0.123 C 
ENDBRANCH  22  28
ENDBRANCH  18  21
ENDBRANCH   1  17
TORSDOF 9
ENDMDL
MODEL 7
REMARK VINA RESULT:      -7.4      3.894      7.763
REMARK  9 active torsions:
REMARK  status: ('A' for Active; 'I' for Inactive)
REMARK    1  A    between atoms: C_2  and  N_3 
REMARK    2  A    between atoms: N_3  and  C_5 
REMARK    3  A    between atoms: N_3  and  C_30 
REMARK    4  A    between atoms: C_5  and  C_6 
REMARK    5  A    between atoms: C_5  and  C_14 
REMARK    6  A    between atoms: C_8  and  O_9 
REMARK    7  A    between atoms: C_14  and  N_15 
REMARK       I    between atoms: N_15  and  C_16 
REMARK    8  A    between atoms: C_16  and  C_17 
REMARK    9  A    between atoms: C_18  and  N_19 
ROOT
HETATM    1  C   UNL     1      -9.711   1.714 -34.417  1.00  0.00     0.161 C 
ENDROOT
BRANCH   1   2
HETATM    2  C   UNL     1     -10.580   2.494 -33.369  1.00  0.00     0.238 C 
BRANCH   2   3
HETATM    3  N   UNL     1     -10.436   4.020 -33.518  1.00  0.00    -0.062 N 
HETATM    4  H   UNL     1     -11.351   4.336 -33.140  1.00  0.00     0.280 HD
BRANCH   3   5
HETATM    5  C   UNL     1     -10.394   4.494 -34.959  1.00  0.00     0.231 C 
HETATM    6  C   UNL     1     -11.633   5.287 -35.332  1.00  0.00     0.034 C 
ENDBRANCH   3   5
BRANCH   3   7
HETATM    7  C   UNL     1      -9.342   4.644 -32.689  1.00  0.00     0.231 C 
HETATM    8  C   UNL     1      -9.119   3.861 -31.408  1.00  0.00     0.034 C 
ENDBRANCH   3   7
ENDBRANCH   2   3
BRANCH   2   9
HETATM    9  C   UNL     1     -12.014   1.987 -33.313  1.00  0.00    -0.023 A 
HETATM   10  C   UNL     1     -13.005   2.794 -32.714  1.00  0.00     0.046 A 
HETATM   11  C   UNL     1     -14.334   2.372 -32.647  1.00  0.00     0.068 A 
HETATM   12  C   UNL     1     -14.690   1.145 -33.204  1.00  0.00     0.037 A 
HETATM   13  C   UNL     1     -13.726   0.328 -33.789  1.00  0.00     0.003 A 
HETATM   14  C   UNL     1     -12.395   0.741 -33.838  1.00  0.00     0.009 A 
BRANCH  11  15
HETATM   15  O   UNL     1     -15.366   3.075 -32.096  1.00  0.00    -0.356 OA
HETATM   16  C   UNL     1     -16.675   2.549 -32.279  1.00  0.00     0.210 C 
ENDBRANCH  11  15
ENDBRANCH   2   9
ENDBRANCH   1   2
BRANCH   1  17
HETATM   17  N   UNL     1      -8.343   1.331 -34.048  1.00  0.00    -0.354 N 
HETATM   18  C   UNL     1      -8.089   0.292 -33.164  1.00  0.00     0.253 C 
HETATM   19  O   UNL     1      -8.869   0.059 -32.248  1.00  0.00    -0.268 OA
HETATM   20  H   UNL     1      -7.643   1.471 -34.771  1.00  0.00     0.162 HD
BRANCH  18  21
HETATM   21  C   UNL     1      -6.853  -0.505 -33.424  1.00  0.00     0.059 A 
HETATM   22  C   UNL     1      -5.591  -0.214 -32.853  1.00  0.00     0.046 A 
HETATM   23  C   UNL     1      -4.586  -1.180 -33.084  1.00  0.00     0.031 A 
HETATM   24  C   UNL     1      -4.788  -2.329 -33.860  1.00  0.00     0.009 A 
HETATM   25  C   UNL     1      -6.026  -2.582 -34.435  1.00  0.00    -0.061 A 
HETATM   26  C   UNL     1      -6.264  -3.837 -35.221  1.00  0.00     0.048 C 
HETATM   27  C   UNL     1      -7.061  -1.681 -34.187  1.00  0.00     0.026 A 
BRANCH  22  28
HETATM   28  N   UNL     1      -5.294   0.913 -32.099  1.00  0.00    -0.380 N 
HETATM   29  C   UNL     1      -5.640   1.030 -30.684  1.00  0.00     0.123 C 
HETATM   30  C   UNL     1      -5.827   2.528 -30.446  1.00  0.00     0.021 C 
HETATM   31  C   UNL     1      -4.918   3.154 -31.488  1.00  0.00     0.021 C 
HETATM   32  C   UNL     1      -5.150   2.250 -32.692  1.00  0.00     0.123 C 
ENDBRANCH  22  28
ENDBRANCH  18  21
ENDBRANCH   1  17
TORSDOF 9
ENDMDL
MODEL 8
REMARK VINA RESULT:      -7.4      3.429      7.377
REMARK  9 active torsions:
REMARK  status: ('A' for Active; 'I' for Inactive)
REMARK    1  A    between atoms: C_2  and  N_3 
REMARK    2  A    between atoms: N_3  and  C_5 
REMARK    3  A    between atoms: N_3  and  C_30 
REMARK    4  A    between atoms: C_5  and  C_6 
REMARK    5  A    between atoms: C_5  and  C_14 
REMARK    6  A    between atoms: C_8  and  O_9 
REMARK    7  A    between atoms: C_14  and  N_15 
REMARK       I    between atoms: N_15  and  C_16 
REMARK    8  A    between atoms: C_16  and  C_17 
REMARK    9  A    between atoms: C_18  and  N_19 
ROOT
HETATM    1  C   UNL     1      -7.450   1.403 -34.555  1.00  0.00     0.161 C 
ENDROOT
BRANCH   1   2
HETATM    2  C   UNL     1      -6.233   1.091 -33.615  1.00  0.00     0.238 C 
BRANCH   2   3
HETATM    3  N   UNL     1      -6.501   1.515 -32.158  1.00  0.00    -0.062 N 
HETATM    4  H   UNL     1      -7.367   2.077 -32.279  1.00  0.00     0.280 HD
BRANCH   3   5
HETATM    5  C   UNL     1      -5.462   2.468 -31.598  1.00  0.00     0.231 C 
HETATM    6  C   UNL     1      -4.621   3.099 -32.691  1.00  0.00     0.034 C 
ENDBRANCH   3   5
BRANCH   3   7
HETATM    7  C   UNL     1      -6.801   0.386 -31.206  1.00  0.00     0.231 C 
HETATM    8  C   UNL     1      -5.973   0.511 -29.940  1.00  0.00     0.034 C 
ENDBRANCH   3   7
ENDBRANCH   2   3
BRANCH   2   9
HETATM    9  C   UNL     1      -5.720  -0.332 -33.784  1.00  0.00    -0.023 A 
HETATM   10  C   UNL     1      -6.577  -1.311 -34.333  1.00  0.00     0.046 A 
HETATM   11  C   UNL     1      -6.145  -2.626 -34.514  1.00  0.00     0.068 A 
HETATM   12  C   UNL     1      -4.839  -2.969 -34.171  1.00  0.00     0.037 A 
HETATM   13  C   UNL     1      -3.981  -2.023 -33.616  1.00  0.00     0.003 A 
HETATM   14  C   UNL     1      -4.419  -0.714 -33.418  1.00  0.00     0.009 A 
BRANCH  11  15
HETATM   15  O   UNL     1      -6.890  -3.644 -35.038  1.00  0.00    -0.356 OA
HETATM   16  C   UNL     1      -6.195  -4.831 -35.397  1.00  0.00     0.210 C 
ENDBRANCH  11  15
ENDBRANCH   2   9
ENDBRANCH   1   2
BRANCH   1  17
HETATM   17  N   UNL     1      -8.808   1.209 -34.032  1.00  0.00    -0.354 N 
HETATM   18  C   UNL     1      -9.536   2.253 -33.480  1.00  0.00     0.253 C 
HETATM   19  O   UNL     1      -8.961   3.149 -32.874  1.00  0.00    -0.268 OA
HETATM   20  H   UNL     1      -9.357   0.495 -34.505  1.00  0.00     0.162 HD
BRANCH  18  21
HETATM   21  C   UNL     1     -11.012   2.212 -33.696  1.00  0.00     0.059 A 
HETATM   22  C   UNL     1     -11.773   3.313 -34.159  1.00  0.00     0.046 A 
HETATM   23  C   UNL     1     -13.124   3.028 -34.462  1.00  0.00     0.031 A 
HETATM   24  C   UNL     1     -13.703   1.765 -34.281  1.00  0.00     0.009 A 
HETATM   25  C   UNL     1     -12.947   0.706 -33.800  1.00  0.00    -0.061 A 
HETATM   26  C   UNL     1     -13.546  -0.661 -33.656  1.00  0.00     0.048 C 
HETATM   27  C   UNL     1     -11.595   0.930 -33.539  1.00  0.00     0.026 A 
BRANCH  22  28
HETATM   28  N   UNL     1     -11.290   4.602 -34.336  1.00  0.00    -0.380 N 
HETATM   29  C   UNL     1     -11.875   5.763 -33.668  1.00  0.00     0.123 C 
HETATM   30  C   UNL     1     -11.601   6.937 -34.607  1.00  0.00     0.021 C 
HETATM   31  C   UNL     1     -10.333   6.510 -35.325  1.00  0.00     0.021 C 
HETATM   32  C   UNL     1     -10.586   5.026 -35.555  1.00  0.00     0.123 C 
ENDBRANCH  22  28
ENDBRANCH  18  21
ENDBRANCH   1  17
TORSDOF 9
ENDMDL
MODEL 9
REMARK VINA RESULT:      -7.2     15.783     17.873
REMARK  9 active torsions:
REMARK  status: ('A' for Active; 'I' for Inactive)
REMARK    1  A    between atoms: C_2  and  N_3 
REMARK    2  A    between atoms: N_3  and  C_5 
REMARK    3  A    between atoms: N_3  and  C_30 
REMARK    4  A    between atoms: C_5  and  C_6 
REMARK    5  A    between atoms: C_5  and  C_14 
REMARK    6  A    between atoms: C_8  and  O_9 
REMARK    7  A    between atoms: C_14  and  N_15 
REMARK       I    between atoms: N_15  and  C_16 
REMARK    8  A    between atoms: C_16  and  C_17 
REMARK    9  A    between atoms: C_18  and  N_19 
ROOT
HETATM    1  C   UNL     1      -4.960 -14.038 -36.074  1.00  0.00     0.161 C 
ENDROOT
BRANCH   1   2
HETATM    2  C   UNL     1      -6.354 -14.650 -35.694  1.00  0.00     0.238 C 
BRANCH   2   3
HETATM    3  N   UNL     1      -6.892 -14.086 -34.365  1.00  0.00    -0.062 N 
HETATM    4  H   UNL     1      -7.692 -13.519 -34.708  1.00  0.00     0.280 HD
BRANCH   3   5
HETATM    5  C   UNL     1      -5.948 -13.110 -33.688  1.00  0.00     0.231 C 
HETATM    6  C   UNL     1      -5.576 -13.558 -32.287  1.00  0.00     0.034 C 
ENDBRANCH   3   5
BRANCH   3   7
HETATM    7  C   UNL     1      -7.423 -15.116 -33.400  1.00  0.00     0.231 C 
HETATM    8  C   UNL     1      -7.019 -16.516 -33.825  1.00  0.00     0.034 C 
ENDBRANCH   3   7
ENDBRANCH   2   3
BRANCH   2   9
HETATM    9  C   UNL     1      -7.340 -14.612 -36.853  1.00  0.00    -0.023 A 
HETATM   10  C   UNL     1      -7.747 -13.362 -37.367  1.00  0.00     0.046 A 
HETATM   11  C   UNL     1      -8.643 -13.281 -38.435  1.00  0.00     0.068 A 
HETATM   12  C   UNL     1      -9.121 -14.454 -39.017  1.00  0.00     0.037 A 
HETATM   13  C   UNL     1      -8.741 -15.697 -38.517  1.00  0.00     0.003 A 
HETATM   14  C   UNL     1      -7.861 -15.777 -37.438  1.00  0.00     0.009 A 
BRANCH  11  15
HETATM   15  O   UNL     1      -9.097 -12.128 -39.008  1.00  0.00    -0.356 OA
HETATM   16  C   UNL     1      -9.830 -12.255 -40.220  1.00  0.00     0.210 C 
ENDBRANCH  11  15
ENDBRANCH   2   9
ENDBRANCH   1   2
BRANCH   1  17
HETATM   17  N   UNL     1      -4.462 -14.224 -37.441  1.00  0.00    -0.354 N 
HETATM   18  C   UNL     1      -3.609 -13.308 -38.040  1.00  0.00     0.253 C 
HETATM   19  O   UNL     1      -3.698 -12.117 -37.767  1.00  0.00    -0.268 OA
HETATM   20  H   UNL     1      -4.338 -15.191 -37.730  1.00  0.00     0.162 HD
BRANCH  18  21
HETATM   21  C   UNL     1      -2.598 -13.870 -38.984  1.00  0.00     0.059 A 
HETATM   22  C   UNL     1      -2.874 -14.200 -40.333  1.00  0.00     0.046 A 
HETATM   23  C   UNL     1      -1.748 -14.556 -41.109  1.00  0.00     0.031 A 
HETATM   24  C   UNL     1      -0.449 -14.631 -40.591  1.00  0.00     0.009 A 
HETATM   25  C   UNL     1      -0.204 -14.331 -39.258  1.00  0.00    -0.061 A 
HETATM   26  C   UNL     1       1.192 -14.356 -38.711  1.00  0.00     0.048 C 
HETATM   27  C   UNL     1      -1.278 -13.922 -38.469  1.00  0.00     0.026 A 
BRANCH  22  28
HETATM   28  N   UNL     1      -4.131 -14.184 -40.919  1.00  0.00    -0.380 N 
HETATM   29  C   UNL     1      -4.867 -12.947 -41.175  1.00  0.00     0.123 C 
HETATM   30  C   UNL     1      -6.341 -13.346 -41.115  1.00  0.00     0.021 C 
HETATM   31  C   UNL     1      -6.316 -14.805 -41.533  1.00  0.00     0.021 C 
HETATM   32  C   UNL     1      -5.066 -15.314 -40.825  1.00  0.00     0.123 C 
ENDBRANCH  22  28
ENDBRANCH  18  21
ENDBRANCH   1  17
TORSDOF 9
ENDMDL
MODEL 10
REMARK VINA RESULT:      -7.2      2.141      7.769
REMARK  9 active torsions:
REMARK  status: ('A' for Active; 'I' for Inactive)
REMARK    1  A    between atoms: C_2  and  N_3 
REMARK    2  A    between atoms: N_3  and  C_5 
REMARK    3  A    between atoms: N_3  and  C_30 
REMARK    4  A    between atoms: C_5  and  C_6 
REMARK    5  A    between atoms: C_5  and  C_14 
REMARK    6  A    between atoms: C_8  and  O_9 
REMARK    7  A    between atoms: C_14  and  N_15 
REMARK       I    between atoms: N_15  and  C_16 
REMARK    8  A    between atoms: C_16  and  C_17 
REMARK    9  A    between atoms: C_18  and  N_19 
ROOT
HETATM    1  C   UNL     1      -3.547   0.981 -32.348  1.00  0.00     0.161 C 
ENDROOT
BRANCH   1   2
HETATM    2  C   UNL     1      -4.664  -0.071 -32.018  1.00  0.00     0.238 C 
BRANCH   2   3
HETATM    3  N   UNL     1      -6.068   0.437 -32.398  1.00  0.00    -0.062 N 
HETATM    4  H   UNL     1      -6.487  -0.431 -32.786  1.00  0.00     0.280 HD
BRANCH   3   5
HETATM    5  C   UNL     1      -6.068   1.443 -33.533  1.00  0.00     0.231 C 
HETATM    6  C   UNL     1      -7.097   2.538 -33.322  1.00  0.00     0.034 C 
ENDBRANCH   3   5
BRANCH   3   7
HETATM    7  C   UNL     1      -6.919   0.895 -31.240  1.00  0.00     0.231 C 
HETATM    8  C   UNL     1      -6.296   0.489 -29.917  1.00  0.00     0.034 C 
ENDBRANCH   3   7
ENDBRANCH   2   3
BRANCH   2   9
HETATM    9  C   UNL     1      -4.322  -1.461 -32.534  1.00  0.00    -0.023 A 
HETATM   10  C   UNL     1      -4.960  -1.937 -33.700  1.00  0.00     0.046 A 
HETATM   11  C   UNL     1      -4.671  -3.202 -34.213  1.00  0.00     0.068 A 
HETATM   12  C   UNL     1      -3.719  -3.996 -33.577  1.00  0.00     0.037 A 
HETATM   13  C   UNL     1      -3.087  -3.551 -32.419  1.00  0.00     0.003 A 
HETATM   14  C   UNL     1      -3.390  -2.295 -31.896  1.00  0.00     0.009 A 
BRANCH  11  15
HETATM   15  O   UNL     1      -5.227  -3.754 -35.332  1.00  0.00    -0.356 OA
HETATM   16  C   UNL     1      -6.479  -4.409 -35.174  1.00  0.00     0.210 C 
ENDBRANCH  11  15
ENDBRANCH   2   9
ENDBRANCH   1   2
BRANCH   1  17
HETATM   17  N   UNL     1      -3.401   2.148 -31.470  1.00  0.00    -0.354 N 
HETATM   18  C   UNL     1      -3.565   3.442 -31.941  1.00  0.00     0.253 C 
HETATM   19  O   UNL     1      -3.251   3.721 -33.092  1.00  0.00    -0.268 OA
HETATM   20  H   UNL     1      -3.669   1.998 -30.501  1.00  0.00     0.162 HD
BRANCH  18  21
HETATM   21  C   UNL     1      -4.155   4.422 -30.981  1.00  0.00     0.059 A 
HETATM   22  C   UNL     1      -3.598   5.695 -30.709  1.00  0.00     0.046 A 
HETATM   23  C   UNL     1      -4.393   6.542 -29.904  1.00  0.00     0.031 A 
HETATM   24  C   UNL     1      -5.626   6.154 -29.363  1.00  0.00     0.009 A 
HETATM   25  C   UNL     1      -6.141   4.891 -29.619  1.00  0.00    -0.061 A 
HETATM   26  C   UNL     1      -7.486   4.489 -29.089  1.00  0.00     0.048 C 
HETATM   27  C   UNL     1      -5.415   4.042 -30.453  1.00  0.00     0.026 A 
BRANCH  22  28
HETATM   28  N   UNL     1      -2.373   6.148 -31.175  1.00  0.00    -0.380 N 
HETATM   29  C   UNL     1      -2.234   6.916 -32.412  1.00  0.00     0.123 C 
HETATM   30  C   UNL     1      -0.829   6.592 -32.919  1.00  0.00     0.021 C 
HETATM   31  C   UNL     1      -0.070   6.273 -31.644  1.00  0.00     0.021 C 
HETATM   32  C   UNL     1      -1.104   5.480 -30.854  1.00  0.00     0.123 C 
ENDBRANCH  22  28
ENDBRANCH  18  21
ENDBRANCH   1  17
TORSDOF 9
ENDMDL
