MODEL 1
REMARK VINA RESULT:      -9.2      0.000      0.000
REMARK  7 active torsions:
REMARK  status: ('A' for Active; 'I' for Inactive)
REMARK    1  A    between atoms: C_3  and  O_4 
REMARK    2  A    between atoms: O_4  and  C_5 
REMARK    3  A    between atoms: C_5  and  C_6 
REMARK       I    between atoms: C_6  and  N_7 
REMARK    4  A    between atoms: N_7  and  C_8 
REMARK    5  A    between atoms: C_11  and  N_12 
REMARK    6  A    between atoms: N_15  and  C_17 
REMARK    7  A    between atoms: C_17  and  C_18 
ROOT
HETATM    1  C   UNL     1      -4.063   2.214 -31.736  1.00  0.00     0.034 A 
HETATM    2  C   UNL     1      -5.013   2.733 -30.861  1.00  0.00     0.032 A 
HETATM    3  C   UNL     1      -4.974   4.084 -30.478  1.00  0.00     0.031 A 
HETATM    4  C   UNL     1      -3.977   4.954 -30.936  1.00  0.00     0.030 A 
HETATM    5  C   UNL     1      -3.035   4.412 -31.823  1.00  0.00     0.031 A 
HETATM    6  C   UNL     1      -3.075   3.069 -32.221  1.00  0.00     0.032 A 
ENDROOT
BRANCH   4   7
HETATM    7  N   UNL     1      -3.916   6.302 -30.591  1.00  0.00    -0.378 N 
HETATM    8  C   UNL     1      -2.592   6.956 -30.640  1.00  0.00     0.150 C 
HETATM    9  C   UNL     1      -1.971   7.040 -29.228  1.00  0.00     0.255 C 
HETATM   10  N   UNL     1      -2.940   7.736 -28.267  1.00  0.00    -0.064 N 
HETATM   11  H   UNL     1      -3.122   8.666 -28.659  1.00  0.00     0.280 HD
HETATM   12  C   UNL     1      -4.273   6.991 -28.223  1.00  0.00     0.255 C 
HETATM   13  C   UNL     1      -4.874   6.885 -29.639  1.00  0.00     0.150 C 
BRANCH  10  14
HETATM   14  C   UNL     1      -2.365   7.943 -26.888  1.00  0.00     0.273 C 
BRANCH  14  15
HETATM   15  C   UNL     1      -0.882   8.196 -26.902  1.00  0.00    -0.033 A 
HETATM   16  C   UNL     1       0.027   7.154 -26.651  1.00  0.00     0.009 A 
HETATM   17  C   UNL     1       1.400   7.403 -26.632  1.00  0.00     0.001 A 
HETATM   18  C   UNL     1       1.880   8.688 -26.871  1.00  0.00     0.000 A 
HETATM   19  C   UNL     1       0.990   9.727 -27.135  1.00  0.00     0.001 A 
HETATM   20  C   UNL     1      -0.385   9.484 -27.151  1.00  0.00     0.009 A 
ENDBRANCH  14  15
ENDBRANCH  10  14
ENDBRANCH   4   7
BRANCH   1  21
HETATM   21  N   UNL     1      -4.049   0.880 -32.192  1.00  0.00    -0.325 N 
HETATM   22  C   UNL     1      -3.210  -0.148 -31.770  1.00  0.00     0.246 C 
HETATM   23  O   UNL     1      -2.295  -0.033 -30.963  1.00  0.00    -0.271 OA
HETATM   24  H   UNL     1      -4.705   0.658 -32.930  1.00  0.00     0.169 HD
BRANCH  22  25
HETATM   25  C   UNL     1      -3.562  -1.480 -32.448  1.00  0.00     0.278 C 
BRANCH  25  26
HETATM   26  O   UNL     1      -4.151  -1.297 -33.733  1.00  0.00    -0.342 OA
BRANCH  26  27
HETATM   27  C   UNL     1      -4.820  -2.427 -34.120  1.00  0.00     0.075 A 
HETATM   28  C   UNL     1      -6.136  -2.359 -34.594  1.00  0.00    -0.029 A 
HETATM   29  C   UNL     1      -6.866  -1.052 -34.709  1.00  0.00     0.051 C 
HETATM   30  C   UNL     1      -6.761  -3.546 -35.000  1.00  0.00     0.009 A 
HETATM   31  C   UNL     1      -6.098  -4.771 -34.893  1.00  0.00     0.001 A 
HETATM   32  C   UNL     1      -4.803  -4.825 -34.379  1.00  0.00     0.003 A 
HETATM   33  C   UNL     1      -4.164  -3.652 -33.986  1.00  0.00     0.037 A 
ENDBRANCH  26  27
ENDBRANCH  25  26
ENDBRANCH  22  25
ENDBRANCH   1  21
TORSDOF 7
ENDMDL
MODEL 2
REMARK VINA RESULT:      -9.1      2.872     10.534
REMARK  7 active torsions:
REMARK  status: ('A' for Active; 'I' for Inactive)
REMARK    1  A    between atoms: C_3  and  O_4 
REMARK    2  A    between atoms: O_4  and  C_5 
REMARK    3  A    between atoms: C_5  and  C_6 
REMARK       I    between atoms: C_6  and  N_7 
REMARK    4  A    between atoms: N_7  and  C_8 
REMARK    5  A    between atoms: C_11  and  N_12 
REMARK    6  A    between atoms: N_15  and  C_17 
REMARK    7  A    between atoms: C_17  and  C_18 
ROOT
HETATM    1  C   UNL     1      -5.033   4.771 -30.075  1.00  0.00     0.034 A 
HETATM    2  C   UNL     1      -6.293   4.534 -29.535  1.00  0.00     0.032 A 
HETATM    3  C   UNL     1      -7.062   3.437 -29.959  1.00  0.00     0.031 A 
HETATM    4  C   UNL     1      -6.609   2.555 -30.947  1.00  0.00     0.030 A 
HETATM    5  C   UNL     1      -5.332   2.808 -31.473  1.00  0.00     0.031 A 
HETATM    6  C   UNL     1      -4.554   3.892 -31.046  1.00  0.00     0.032 A 
ENDROOT
BRANCH   4   7
HETATM    7  N   UNL     1      -7.335   1.448 -31.381  1.00  0.00    -0.378 N 
HETATM    8  C   UNL     1      -6.740   0.115 -31.158  1.00  0.00     0.150 C 
HETATM    9  C   UNL     1      -6.060  -0.404 -32.444  1.00  0.00     0.255 C 
HETATM   10  N   UNL     1      -7.056  -0.387 -33.609  1.00  0.00    -0.064 N 
HETATM   11  H   UNL     1      -7.843  -0.982 -33.328  1.00  0.00     0.280 HD
HETATM   12  C   UNL     1      -7.603   1.022 -33.822  1.00  0.00     0.255 C 
HETATM   13  C   UNL     1      -8.253   1.546 -32.526  1.00  0.00     0.150 C 
BRANCH  10  14
HETATM   14  C   UNL     1      -6.494  -0.972 -34.880  1.00  0.00     0.273 C 
BRANCH  14  15
HETATM   15  C   UNL     1      -5.950  -2.363 -34.697  1.00  0.00    -0.033 A 
HETATM   16  C   UNL     1      -4.615  -2.568 -34.309  1.00  0.00     0.009 A 
HETATM   17  C   UNL     1      -4.109  -3.861 -34.174  1.00  0.00     0.001 A 
HETATM   18  C   UNL     1      -4.928  -4.961 -34.417  1.00  0.00     0.000 A 
HETATM   19  C   UNL     1      -6.258  -4.772 -34.788  1.00  0.00     0.001 A 
HETATM   20  C   UNL     1      -6.768  -3.480 -34.929  1.00  0.00     0.009 A 
ENDBRANCH  14  15
ENDBRANCH  10  14
ENDBRANCH   4   7
BRANCH   1  21
HETATM   21  N   UNL     1      -4.188   5.830 -29.686  1.00  0.00    -0.325 N 
HETATM   22  C   UNL     1      -3.961   7.024 -30.364  1.00  0.00     0.246 C 
HETATM   23  O   UNL     1      -4.426   7.318 -31.460  1.00  0.00    -0.271 OA
HETATM   24  H   UNL     1      -3.667   5.687 -28.829  1.00  0.00     0.169 HD
BRANCH  22  25
HETATM   25  C   UNL     1      -3.036   7.959 -29.572  1.00  0.00     0.278 C 
BRANCH  25  26
HETATM   26  O   UNL     1      -1.822   8.236 -30.265  1.00  0.00    -0.342 OA
BRANCH  26  27
HETATM   27  C   UNL     1      -0.932   7.208 -30.107  1.00  0.00     0.075 A 
HETATM   28  C   UNL     1      -0.472   6.477 -31.210  1.00  0.00    -0.029 A 
HETATM   29  C   UNL     1      -0.923   6.790 -32.607  1.00  0.00     0.051 C 
HETATM   30  C   UNL     1       0.458   5.452 -30.989  1.00  0.00     0.009 A 
HETATM   31  C   UNL     1       0.882   5.144 -29.693  1.00  0.00     0.001 A 
HETATM   32  C   UNL     1       0.381   5.854 -28.603  1.00  0.00     0.003 A 
HETATM   33  C   UNL     1      -0.532   6.886 -28.809  1.00  0.00     0.037 A 
ENDBRANCH  26  27
ENDBRANCH  25  26
ENDBRANCH  22  25
ENDBRANCH   1  21
TORSDOF 7
ENDMDL
MODEL 3
REMARK VINA RESULT:      -9.1      1.831      2.794
REMARK  7 active torsions:
REMARK  status: ('A' for Active; 'I' for Inactive)
REMARK    1  A    between atoms: C_3  and  O_4 
REMARK    2  A    between atoms: O_4  and  C_5 
REMARK    3  A    between atoms: C_5  and  C_6 
REMARK       I    between atoms: C_6  and  N_7 
REMARK    4  A    between atoms: N_7  and  C_8 
REMARK    5  A    between atoms: C_11  and  N_12 
REMARK    6  A    between atoms: N_15  and  C_17 
REMARK    7  A    between atoms: C_17  and  C_18 
ROOT
HETATM    1  C   UNL     1      -4.349   3.334 -32.271  1.00  0.00     0.034 A 
HETATM    2  C   UNL     1      -3.054   3.451 -32.768  1.00  0.00     0.032 A 
HETATM    3  C   UNL     1      -2.244   4.543 -32.414  1.00  0.00     0.031 A 
HETATM    4  C   UNL     1      -2.704   5.562 -31.570  1.00  0.00     0.030 A 
HETATM    5  C   UNL     1      -4.009   5.420 -31.074  1.00  0.00     0.031 A 
HETATM    6  C   UNL     1      -4.818   4.328 -31.413  1.00  0.00     0.032 A 
ENDROOT
BRANCH   4   7
HETATM    7  N   UNL     1      -1.926   6.650 -31.184  1.00  0.00    -0.378 N 
HETATM    8  C   UNL     1      -0.486   6.606 -31.512  1.00  0.00     0.150 C 
HETATM    9  C   UNL     1       0.342   6.164 -30.285  1.00  0.00     0.255 C 
HETATM   10  N   UNL     1       0.035   7.071 -29.089  1.00  0.00    -0.064 N 
HETATM   11  H   UNL     1       0.267   8.027 -29.381  1.00  0.00     0.280 HD
HETATM   12  C   UNL     1      -1.458   7.042 -28.767  1.00  0.00     0.255 C 
HETATM   13  C   UNL     1      -2.280   7.455 -30.005  1.00  0.00     0.150 C 
BRANCH  10  14
HETATM   14  C   UNL     1       0.878   6.764 -27.877  1.00  0.00     0.273 C 
BRANCH  14  15
HETATM   15  C   UNL     1       1.185   7.982 -27.050  1.00  0.00    -0.033 A 
HETATM   16  C   UNL     1       1.943   7.878 -25.871  1.00  0.00     0.009 A 
HETATM   17  C   UNL     1       2.195   9.008 -25.091  1.00  0.00     0.001 A 
HETATM   18  C   UNL     1       1.702  10.251 -25.481  1.00  0.00     0.000 A 
HETATM   19  C   UNL     1       0.961  10.369 -26.655  1.00  0.00     0.001 A 
HETATM   20  C   UNL     1       0.702   9.242 -27.437  1.00  0.00     0.009 A 
ENDBRANCH  14  15
ENDBRANCH  10  14
ENDBRANCH   4   7
BRANCH   1  21
HETATM   21  N   UNL     1      -5.214   2.259 -32.554  1.00  0.00    -0.325 N 
HETATM   22  C   UNL     1      -6.295   2.251 -33.431  1.00  0.00     0.246 C 
HETATM   23  O   UNL     1      -6.707   3.220 -34.059  1.00  0.00    -0.271 OA
HETATM   24  H   UNL     1      -5.042   1.405 -32.037  1.00  0.00     0.169 HD
BRANCH  22  25
HETATM   25  C   UNL     1      -6.940   0.861 -33.525  1.00  0.00     0.278 C 
BRANCH  25  26
HETATM   26  O   UNL     1      -6.285  -0.099 -32.700  1.00  0.00    -0.342 OA
BRANCH  26  27
HETATM   27  C   UNL     1      -5.972  -1.220 -33.422  1.00  0.00     0.075 A 
HETATM   28  C   UNL     1      -4.641  -1.628 -33.579  1.00  0.00    -0.029 A 
HETATM   29  C   UNL     1      -3.505  -0.868 -32.960  1.00  0.00     0.051 C 
HETATM   30  C   UNL     1      -4.385  -2.798 -34.307  1.00  0.00     0.009 A 
HETATM   31  C   UNL     1      -5.432  -3.514 -34.895  1.00  0.00     0.001 A 
HETATM   32  C   UNL     1      -6.746  -3.068 -34.764  1.00  0.00     0.003 A 
HETATM   33  C   UNL     1      -7.018  -1.916 -34.030  1.00  0.00     0.037 A 
ENDBRANCH  26  27
ENDBRANCH  25  26
ENDBRANCH  22  25
ENDBRANCH   1  21
TORSDOF 7
ENDMDL
MODEL 4
REMARK VINA RESULT:      -9.1      1.627      2.307
REMARK  7 active torsions:
REMARK  status: ('A' for Active; 'I' for Inactive)
REMARK    1  A    between atoms: C_3  and  O_4 
REMARK    2  A    between atoms: O_4  and  C_5 
REMARK    3  A    between atoms: C_5  and  C_6 
REMARK       I    between atoms: C_6  and  N_7 
REMARK    4  A    between atoms: N_7  and  C_8 
REMARK    5  A    between atoms: C_11  and  N_12 
REMARK    6  A    between atoms: N_15  and  C_17 
REMARK    7  A    between atoms: C_17  and  C_18 
ROOT
HETATM    1  C   UNL     1      -4.928   1.741 -31.310  1.00  0.00     0.034 A 
HETATM    2  C   UNL     1      -5.898   1.958 -30.337  1.00  0.00     0.032 A 
HETATM    3  C   UNL     1      -6.176   3.255 -29.875  1.00  0.00     0.031 A 
HETATM    4  C   UNL     1      -5.483   4.374 -30.353  1.00  0.00     0.030 A 
HETATM    5  C   UNL     1      -4.515   4.134 -31.340  1.00  0.00     0.031 A 
HETATM    6  C   UNL     1      -4.241   2.845 -31.814  1.00  0.00     0.032 A 
ENDROOT
BRANCH   4   7
HETATM    7  N   UNL     1      -5.742   5.676 -29.932  1.00  0.00    -0.378 N 
HETATM    8  C   UNL     1      -5.915   6.707 -30.976  1.00  0.00     0.150 C 
HETATM    9  C   UNL     1      -4.614   7.517 -31.166  1.00  0.00     0.255 C 
HETATM   10  N   UNL     1      -4.159   8.103 -29.825  1.00  0.00    -0.064 N 
HETATM   11  H   UNL     1      -4.928   8.692 -29.489  1.00  0.00     0.280 HD
HETATM   12  C   UNL     1      -3.953   6.991 -28.800  1.00  0.00     0.255 C 
HETATM   13  C   UNL     1      -5.245   6.166 -28.637  1.00  0.00     0.150 C 
BRANCH  10  14
HETATM   14  C   UNL     1      -2.946   8.991 -29.946  1.00  0.00     0.273 C 
BRANCH  14  15
HETATM   15  C   UNL     1      -1.687   8.227 -30.258  1.00  0.00    -0.033 A 
HETATM   16  C   UNL     1      -1.462   7.709 -31.545  1.00  0.00     0.009 A 
HETATM   17  C   UNL     1      -0.308   6.973 -31.818  1.00  0.00     0.001 A 
HETATM   18  C   UNL     1       0.634   6.752 -30.816  1.00  0.00     0.000 A 
HETATM   19  C   UNL     1       0.428   7.272 -29.539  1.00  0.00     0.001 A 
HETATM   20  C   UNL     1      -0.726   8.006 -29.260  1.00  0.00     0.009 A 
ENDBRANCH  14  15
ENDBRANCH  10  14
ENDBRANCH   4   7
BRANCH   1  21
HETATM   21  N   UNL     1      -4.608   0.478 -31.847  1.00  0.00    -0.325 N 
HETATM   22  C   UNL     1      -3.454  -0.268 -31.626  1.00  0.00     0.246 C 
HETATM   23  O   UNL     1      -2.488   0.098 -30.963  1.00  0.00    -0.271 OA
HETATM   24  H   UNL     1      -5.287   0.085 -32.488  1.00  0.00     0.169 HD
BRANCH  22  25
HETATM   25  C   UNL     1      -3.518  -1.633 -32.325  1.00  0.00     0.278 C 
BRANCH  25  26
HETATM   26  O   UNL     1      -3.845  -1.521 -33.707  1.00  0.00    -0.342 OA
BRANCH  26  27
HETATM   27  C   UNL     1      -4.660  -2.551 -34.093  1.00  0.00     0.075 A 
HETATM   28  C   UNL     1      -5.984  -2.314 -34.484  1.00  0.00    -0.029 A 
HETATM   29  C   UNL     1      -6.564  -0.930 -34.508  1.00  0.00     0.051 C 
HETATM   30  C   UNL     1      -6.763  -3.405 -34.893  1.00  0.00     0.009 A 
HETATM   31  C   UNL     1      -6.241  -4.701 -34.870  1.00  0.00     0.001 A 
HETATM   32  C   UNL     1      -4.934  -4.922 -34.437  1.00  0.00     0.003 A 
HETATM   33  C   UNL     1      -4.143  -3.847 -34.042  1.00  0.00     0.037 A 
ENDBRANCH  26  27
ENDBRANCH  25  26
ENDBRANCH  22  25
ENDBRANCH   1  21
TORSDOF 7
ENDMDL
MODEL 5
REMARK VINA RESULT:      -8.9      1.935      2.691
REMARK  7 active torsions:
REMARK  status: ('A' for Active; 'I' for Inactive)
REMARK    1  A    between atoms: C_3  and  O_4 
REMARK    2  A    between atoms: O_4  and  C_5 
REMARK    3  A    between atoms: C_5  and  C_6 
REMARK       I    between atoms: C_6  and  N_7 
REMARK    4  A    between atoms: N_7  and  C_8 
REMARK    5  A    between atoms: C_11  and  N_12 
REMARK    6  A    between atoms: N_15  and  C_17 
REMARK    7  A    between atoms: C_17  and  C_18 
ROOT
HETATM    1  C   UNL     1      -5.453   2.615 -33.136  1.00  0.00     0.034 A 
HETATM    2  C   UNL     1      -5.903   3.813 -33.683  1.00  0.00     0.032 A 
HETATM    3  C   UNL     1      -5.290   5.031 -33.347  1.00  0.00     0.031 A 
HETATM    4  C   UNL     1      -4.224   5.097 -32.442  1.00  0.00     0.030 A 
HETATM    5  C   UNL     1      -3.781   3.877 -31.909  1.00  0.00     0.031 A 
HETATM    6  C   UNL     1      -4.378   2.657 -32.249  1.00  0.00     0.032 A 
ENDROOT
BRANCH   4   7
HETATM    7  N   UNL     1      -3.581   6.284 -32.098  1.00  0.00    -0.378 N 
HETATM    8  C   UNL     1      -2.532   6.778 -33.012  1.00  0.00     0.150 C 
HETATM    9  C   UNL     1      -1.127   6.403 -32.489  1.00  0.00     0.255 C 
HETATM   10  N   UNL     1      -0.948   6.909 -31.054  1.00  0.00    -0.064 N 
HETATM   11  H   UNL     1      -1.084   7.925 -31.085  1.00  0.00     0.280 HD
HETATM   12  C   UNL     1      -2.031   6.331 -30.146  1.00  0.00     0.255 C 
HETATM   13  C   UNL     1      -3.430   6.683 -30.690  1.00  0.00     0.150 C 
BRANCH  10  14
HETATM   14  C   UNL     1       0.436   6.666 -30.507  1.00  0.00     0.273 C 
BRANCH  14  15
HETATM   15  C   UNL     1       0.557   7.002 -29.045  1.00  0.00    -0.033 A 
HETATM   16  C   UNL     1       0.189   6.069 -28.060  1.00  0.00     0.009 A 
HETATM   17  C   UNL     1       0.273   6.400 -26.708  1.00  0.00     0.001 A 
HETATM   18  C   UNL     1       0.730   7.658 -26.323  1.00  0.00     0.000 A 
HETATM   19  C   UNL     1       1.111   8.587 -27.289  1.00  0.00     0.001 A 
HETATM   20  C   UNL     1       1.025   8.263 -28.644  1.00  0.00     0.009 A 
ENDBRANCH  14  15
ENDBRANCH  10  14
ENDBRANCH   4   7
BRANCH   1  21
HETATM   21  N   UNL     1      -5.994   1.350 -33.442  1.00  0.00    -0.325 N 
HETATM   22  C   UNL     1      -6.956   0.645 -32.724  1.00  0.00     0.246 C 
HETATM   23  O   UNL     1      -7.447   0.999 -31.658  1.00  0.00    -0.271 OA
HETATM   24  H   UNL     1      -5.614   0.893 -34.263  1.00  0.00     0.169 HD
BRANCH  22  25
HETATM   25  C   UNL     1      -7.343  -0.663 -33.428  1.00  0.00     0.278 C 
BRANCH  25  26
HETATM   26  O   UNL     1      -6.532  -0.928 -34.568  1.00  0.00    -0.342 OA
BRANCH  26  27
HETATM   27  C   UNL     1      -5.992  -2.184 -34.494  1.00  0.00     0.075 A 
HETATM   28  C   UNL     1      -4.677  -2.378 -34.055  1.00  0.00    -0.029 A 
HETATM   29  C   UNL     1      -3.806  -1.229 -33.639  1.00  0.00     0.051 C 
HETATM   30  C   UNL     1      -4.188  -3.690 -33.975  1.00  0.00     0.009 A 
HETATM   31  C   UNL     1      -4.984  -4.770 -34.365  1.00  0.00     0.001 A 
HETATM   32  C   UNL     1      -6.276  -4.554 -34.840  1.00  0.00     0.003 A 
HETATM   33  C   UNL     1      -6.781  -3.258 -34.910  1.00  0.00     0.037 A 
ENDBRANCH  26  27
ENDBRANCH  25  26
ENDBRANCH  22  25
ENDBRANCH   1  21
TORSDOF 7
ENDMDL
MODEL 6
REMARK VINA RESULT:      -8.6      2.289     11.003
REMARK  7 active torsions:
REMARK  status: ('A' for Active; 'I' for Inactive)
REMARK    1  A    between atoms: C_3  and  O_4 
REMARK    2  A    between atoms: O_4  and  C_5 
REMARK    3  A    between atoms: C_5  and  C_6 
REMARK       I    between atoms: C_6  and  N_7 
REMARK    4  A    between atoms: N_7  and  C_8 
REMARK    5  A    between atoms: C_11  and  N_12 
REMARK    6  A    between atoms: N_15  and  C_17 
REMARK    7  A    between atoms: C_17  and  C_18 
ROOT
HETATM    1  C   UNL     1      -3.339   4.553 -31.153  1.00  0.00     0.034 A 
HETATM    2  C   UNL     1      -3.051   3.330 -31.754  1.00  0.00     0.032 A 
HETATM    3  C   UNL     1      -4.037   2.336 -31.867  1.00  0.00     0.031 A 
HETATM    4  C   UNL     1      -5.332   2.519 -31.369  1.00  0.00     0.030 A 
HETATM    5  C   UNL     1      -5.604   3.761 -30.775  1.00  0.00     0.031 A 
HETATM    6  C   UNL     1      -4.630   4.762 -30.669  1.00  0.00     0.032 A 
ENDROOT
BRANCH   4   7
HETATM    7  N   UNL     1      -6.339   1.563 -31.478  1.00  0.00    -0.378 N 
HETATM    8  C   UNL     1      -5.960   0.150 -31.277  1.00  0.00     0.150 C 
HETATM    9  C   UNL     1      -5.770  -0.564 -32.633  1.00  0.00     0.255 C 
HETATM   10  N   UNL     1      -7.028  -0.406 -33.492  1.00  0.00    -0.064 N 
HETATM   11  H   UNL     1      -7.801  -0.811 -32.954  1.00  0.00     0.280 HD
HETATM   12  C   UNL     1      -7.346   1.073 -33.704  1.00  0.00     0.255 C 
HETATM   13  C   UNL     1      -7.505   1.786 -32.347  1.00  0.00     0.150 C 
BRANCH  10  14
HETATM   14  C   UNL     1      -6.957  -1.159 -34.797  1.00  0.00     0.273 C 
BRANCH  14  15
HETATM   15  C   UNL     1      -6.216  -2.464 -34.682  1.00  0.00    -0.033 A 
HETATM   16  C   UNL     1      -6.887  -3.688 -34.843  1.00  0.00     0.009 A 
HETATM   17  C   UNL     1      -6.200  -4.894 -34.702  1.00  0.00     0.001 A 
HETATM   18  C   UNL     1      -4.839  -4.893 -34.406  1.00  0.00     0.000 A 
HETATM   19  C   UNL     1      -4.159  -3.686 -34.257  1.00  0.00     0.001 A 
HETATM   20  C   UNL     1      -4.842  -2.476 -34.394  1.00  0.00     0.009 A 
ENDBRANCH  14  15
ENDBRANCH  10  14
ENDBRANCH   4   7
BRANCH   1  21
HETATM   21  N   UNL     1      -2.418   5.611 -31.025  1.00  0.00    -0.325 N 
HETATM   22  C   UNL     1      -1.040   5.517 -30.853  1.00  0.00     0.246 C 
HETATM   23  O   UNL     1      -0.410   4.473 -30.721  1.00  0.00    -0.271 OA
HETATM   24  H   UNL     1      -2.812   6.544 -31.031  1.00  0.00     0.169 HD
BRANCH  22  25
HETATM   25  C   UNL     1      -0.374   6.900 -30.838  1.00  0.00     0.278 C 
BRANCH  25  26
HETATM   26  O   UNL     1      -1.050   7.820 -29.986  1.00  0.00    -0.342 OA
BRANCH  26  27
HETATM   27  C   UNL     1      -0.539   7.764 -28.717  1.00  0.00     0.075 A 
HETATM   28  C   UNL     1      -1.371   7.533 -27.614  1.00  0.00    -0.029 A 
HETATM   29  C   UNL     1      -2.849   7.326 -27.771  1.00  0.00     0.051 C 
HETATM   30  C   UNL     1      -0.787   7.460 -26.342  1.00  0.00     0.009 A 
HETATM   31  C   UNL     1       0.587   7.657 -26.178  1.00  0.00     0.001 A 
HETATM   32  C   UNL     1       1.393   7.930 -27.283  1.00  0.00     0.003 A 
HETATM   33  C   UNL     1       0.830   7.988 -28.555  1.00  0.00     0.037 A 
ENDBRANCH  26  27
ENDBRANCH  25  26
ENDBRANCH  22  25
ENDBRANCH   1  21
TORSDOF 7
ENDMDL
MODEL 7
REMARK VINA RESULT:      -8.5      7.062     10.743
REMARK  7 active torsions:
REMARK  status: ('A' for Active; 'I' for Inactive)
REMARK    1  A    between atoms: C_3  and  O_4 
REMARK    2  A    between atoms: O_4  and  C_5 
REMARK    3  A    between atoms: C_5  and  C_6 
REMARK       I    between atoms: C_6  and  N_7 
REMARK    4  A    between atoms: N_7  and  C_8 
REMARK    5  A    between atoms: C_11  and  N_12 
REMARK    6  A    between atoms: N_15  and  C_17 
REMARK    7  A    between atoms: C_17  and  C_18 
ROOT
HETATM    1  C   UNL     1      -7.896   1.238 -33.484  1.00  0.00     0.034 A 
HETATM    2  C   UNL     1      -8.052   2.607 -33.287  1.00  0.00     0.032 A 
HETATM    3  C   UNL     1      -9.280   3.235 -33.552  1.00  0.00     0.031 A 
HETATM    4  C   UNL     1     -10.384   2.525 -34.038  1.00  0.00     0.030 A 
HETATM    5  C   UNL     1     -10.208   1.145 -34.220  1.00  0.00     0.031 A 
HETATM    6  C   UNL     1      -8.991   0.509 -33.947  1.00  0.00     0.032 A 
ENDROOT
BRANCH   4   7
HETATM    7  N   UNL     1     -11.621   3.111 -34.295  1.00  0.00    -0.378 N 
HETATM    8  C   UNL     1     -12.033   4.237 -33.432  1.00  0.00     0.150 C 
HETATM    9  C   UNL     1     -13.005   3.756 -32.332  1.00  0.00     0.255 C 
HETATM   10  N   UNL     1     -14.196   3.028 -32.963  1.00  0.00    -0.064 N 
HETATM   11  H   UNL     1     -14.642   3.697 -33.600  1.00  0.00     0.280 HD
HETATM   12  C   UNL     1     -13.714   1.849 -33.806  1.00  0.00     0.255 C 
HETATM   13  C   UNL     1     -12.721   2.331 -34.882  1.00  0.00     0.150 C 
BRANCH  10  14
HETATM   14  C   UNL     1     -15.241   2.613 -31.958  1.00  0.00     0.273 C 
BRANCH  14  15
HETATM   15  C   UNL     1     -16.520   3.394 -32.083  1.00  0.00    -0.033 A 
HETATM   16  C   UNL     1     -16.583   4.740 -31.683  1.00  0.00     0.009 A 
HETATM   17  C   UNL     1     -17.782   5.448 -31.771  1.00  0.00     0.001 A 
HETATM   18  C   UNL     1     -18.926   4.826 -32.264  1.00  0.00     0.000 A 
HETATM   19  C   UNL     1     -18.874   3.497 -32.676  1.00  0.00     0.001 A 
HETATM   20  C   UNL     1     -17.678   2.782 -32.587  1.00  0.00     0.009 A 
ENDBRANCH  14  15
ENDBRANCH  10  14
ENDBRANCH   4   7
BRANCH   1  21
HETATM   21  N   UNL     1      -6.709   0.527 -33.217  1.00  0.00    -0.325 N 
HETATM   22  C   UNL     1      -6.325  -0.057 -32.013  1.00  0.00     0.246 C 
HETATM   23  O   UNL     1      -6.949   0.012 -30.959  1.00  0.00    -0.271 OA
HETATM   24  H   UNL     1      -6.050   0.461 -33.984  1.00  0.00     0.169 HD
BRANCH  22  25
HETATM   25  C   UNL     1      -4.997  -0.815 -32.147  1.00  0.00     0.278 C 
BRANCH  25  26
HETATM   26  O   UNL     1      -4.660  -1.085 -33.505  1.00  0.00    -0.342 OA
BRANCH  26  27
HETATM   27  C   UNL     1      -4.630  -2.434 -33.734  1.00  0.00     0.075 A 
HETATM   28  C   UNL     1      -5.629  -3.060 -34.490  1.00  0.00    -0.029 A 
HETATM   29  C   UNL     1      -6.766  -2.285 -35.089  1.00  0.00     0.051 C 
HETATM   30  C   UNL     1      -5.530  -4.440 -34.713  1.00  0.00     0.009 A 
HETATM   31  C   UNL     1      -4.481  -5.177 -34.156  1.00  0.00     0.001 A 
HETATM   32  C   UNL     1      -3.519  -4.544 -33.370  1.00  0.00     0.003 A 
HETATM   33  C   UNL     1      -3.595  -3.171 -33.154  1.00  0.00     0.037 A 
ENDBRANCH  26  27
ENDBRANCH  25  26
ENDBRANCH  22  25
ENDBRANCH   1  21
TORSDOF 7
ENDMDL
MODEL 8
REMARK VINA RESULT:      -8.4      2.714     10.780
REMARK  7 active torsions:
REMARK  status: ('A' for Active; 'I' for Inactive)
REMARK    1  A    between atoms: C_3  and  O_4 
REMARK    2  A    between atoms: O_4  and  C_5 
REMARK    3  A    between atoms: C_5  and  C_6 
REMARK       I    between atoms: C_6  and  N_7 
REMARK    4  A    between atoms: N_7  and  C_8 
REMARK    5  A    between atoms: C_11  and  N_12 
REMARK    6  A    between atoms: N_15  and  C_17 
REMARK    7  A    between atoms: C_17  and  C_18 
ROOT
HETATM    1  C   UNL     1      -2.752   5.010 -31.144  1.00  0.00     0.034 A 
HETATM    2  C   UNL     1      -2.737   4.062 -32.162  1.00  0.00     0.032 A 
HETATM    3  C   UNL     1      -3.931   3.647 -32.776  1.00  0.00     0.031 A 
HETATM    4  C   UNL     1      -5.177   4.148 -32.381  1.00  0.00     0.030 A 
HETATM    5  C   UNL     1      -5.169   5.109 -31.359  1.00  0.00     0.031 A 
HETATM    6  C   UNL     1      -3.983   5.537 -30.751  1.00  0.00     0.032 A 
ENDROOT
BRANCH   4   7
HETATM    7  N   UNL     1      -6.379   3.773 -32.977  1.00  0.00    -0.378 N 
HETATM    8  C   UNL     1      -7.514   3.466 -32.083  1.00  0.00     0.150 C 
HETATM    9  C   UNL     1      -7.663   1.940 -31.893  1.00  0.00     0.255 C 
HETATM   10  N   UNL     1      -7.779   1.249 -33.255  1.00  0.00    -0.064 N 
HETATM   11  H   UNL     1      -8.598   1.657 -33.720  1.00  0.00     0.280 HD
HETATM   12  C   UNL     1      -6.560   1.565 -34.119  1.00  0.00     0.255 C 
HETATM   13  C   UNL     1      -6.399   3.090 -34.280  1.00  0.00     0.150 C 
BRANCH  10  14
HETATM   14  C   UNL     1      -8.026  -0.235 -33.150  1.00  0.00     0.273 C 
BRANCH  14  15
HETATM   15  C   UNL     1      -6.817  -1.058 -33.504  1.00  0.00    -0.033 A 
HETATM   16  C   UNL     1      -5.656  -1.005 -32.714  1.00  0.00     0.009 A 
HETATM   17  C   UNL     1      -4.527  -1.746 -33.067  1.00  0.00     0.001 A 
HETATM   18  C   UNL     1      -4.547  -2.551 -34.204  1.00  0.00     0.000 A 
HETATM   19  C   UNL     1      -5.697  -2.623 -34.987  1.00  0.00     0.001 A 
HETATM   20  C   UNL     1      -6.827  -1.881 -34.641  1.00  0.00     0.009 A 
ENDBRANCH  14  15
ENDBRANCH  10  14
ENDBRANCH   4   7
BRANCH   1  21
HETATM   21  N   UNL     1      -1.600   5.500 -30.497  1.00  0.00    -0.325 N 
HETATM   22  C   UNL     1      -0.644   6.369 -31.015  1.00  0.00     0.246 C 
HETATM   23  O   UNL     1      -0.626   6.803 -32.162  1.00  0.00    -0.271 OA
HETATM   24  H   UNL     1      -1.439   5.155 -29.558  1.00  0.00     0.169 HD
BRANCH  22  25
HETATM   25  C   UNL     1       0.419   6.733 -29.969  1.00  0.00     0.278 C 
BRANCH  25  26
HETATM   26  O   UNL     1       0.038   6.348 -28.651  1.00  0.00    -0.342 OA
BRANCH  26  27
HETATM   27  C   UNL     1       0.252   7.374 -27.770  1.00  0.00     0.075 A 
HETATM   28  C   UNL     1      -0.590   7.563 -26.667  1.00  0.00    -0.029 A 
HETATM   29  C   UNL     1      -1.751   6.653 -26.395  1.00  0.00     0.051 C 
HETATM   30  C   UNL     1      -0.306   8.615 -25.785  1.00  0.00     0.009 A 
HETATM   31  C   UNL     1       0.768   9.477 -26.028  1.00  0.00     0.001 A 
HETATM   32  C   UNL     1       1.569   9.298 -27.154  1.00  0.00     0.003 A 
HETATM   33  C   UNL     1       1.309   8.248 -28.031  1.00  0.00     0.037 A 
ENDBRANCH  26  27
ENDBRANCH  25  26
ENDBRANCH  22  25
ENDBRANCH   1  21
TORSDOF 7
ENDMDL
MODEL 9
REMARK VINA RESULT:      -8.4      4.153     11.190
REMARK  7 active torsions:
REMARK  status: ('A' for Active; 'I' for Inactive)
REMARK    1  A    between atoms: C_3  and  O_4 
REMARK    2  A    between atoms: O_4  and  C_5 
REMARK    3  A    between atoms: C_5  and  C_6 
REMARK       I    between atoms: C_6  and  N_7 
REMARK    4  A    between atoms: N_7  and  C_8 
REMARK    5  A    between atoms: C_11  and  N_12 
REMARK    6  A    between atoms: N_15  and  C_17 
REMARK    7  A    between atoms: C_17  and  C_18 
ROOT
HETATM    1  C   UNL     1      -3.518   3.224 -31.580  1.00  0.00     0.034 A 
HETATM    2  C   UNL     1      -3.391   1.896 -31.977  1.00  0.00     0.032 A 
HETATM    3  C   UNL     1      -4.521   1.142 -32.333  1.00  0.00     0.031 A 
HETATM    4  C   UNL     1      -5.813   1.679 -32.287  1.00  0.00     0.030 A 
HETATM    5  C   UNL     1      -5.917   3.022 -31.892  1.00  0.00     0.031 A 
HETATM    6  C   UNL     1      -4.794   3.784 -31.547  1.00  0.00     0.032 A 
ENDROOT
BRANCH   4   7
HETATM    7  N   UNL     1      -6.954   0.968 -32.649  1.00  0.00    -0.378 N 
HETATM    8  C   UNL     1      -7.415   1.087 -34.047  1.00  0.00     0.150 C 
HETATM    9  C   UNL     1      -8.573   2.104 -34.157  1.00  0.00     0.255 C 
HETATM   10  N   UNL     1      -9.701   1.723 -33.193  1.00  0.00    -0.064 N 
HETATM   11  H   UNL     1      -9.999   0.777 -33.453  1.00  0.00     0.280 HD
HETATM   12  C   UNL     1      -9.178   1.659 -31.760  1.00  0.00     0.255 C 
HETATM   13  C   UNL     1      -8.003   0.665 -31.662  1.00  0.00     0.150 C 
BRANCH  10  14
HETATM   14  C   UNL     1     -10.911   2.614 -33.313  1.00  0.00     0.273 C 
BRANCH  14  15
HETATM   15  C   UNL     1     -12.199   1.845 -33.425  1.00  0.00    -0.033 A 
HETATM   16  C   UNL     1     -12.190   0.458 -33.654  1.00  0.00     0.009 A 
HETATM   17  C   UNL     1     -13.389  -0.243 -33.791  1.00  0.00     0.001 A 
HETATM   18  C   UNL     1     -14.606   0.427 -33.693  1.00  0.00     0.000 A 
HETATM   19  C   UNL     1     -14.628   1.800 -33.452  1.00  0.00     0.001 A 
HETATM   20  C   UNL     1     -13.432   2.507 -33.318  1.00  0.00     0.009 A 
ENDBRANCH  14  15
ENDBRANCH  10  14
ENDBRANCH   4   7
BRANCH   1  21
HETATM   21  N   UNL     1      -2.435   4.057 -31.234  1.00  0.00    -0.325 N 
HETATM   22  C   UNL     1      -1.642   4.814 -32.092  1.00  0.00     0.246 C 
HETATM   23  O   UNL     1      -1.728   4.824 -33.315  1.00  0.00    -0.271 OA
HETATM   24  H   UNL     1      -2.192   4.081 -30.250  1.00  0.00     0.169 HD
BRANCH  22  25
HETATM   25  C   UNL     1      -0.614   5.655 -31.321  1.00  0.00     0.278 C 
BRANCH  25  26
HETATM   26  O   UNL     1      -0.689   5.447 -29.913  1.00  0.00    -0.342 OA
BRANCH  26  27
HETATM   27  C   UNL     1      -0.510   6.628 -29.243  1.00  0.00     0.075 A 
HETATM   28  C   UNL     1      -1.599   7.452 -28.932  1.00  0.00    -0.029 A 
HETATM   29  C   UNL     1      -3.003   7.078 -29.307  1.00  0.00     0.051 C 
HETATM   30  C   UNL     1      -1.357   8.636 -28.222  1.00  0.00     0.009 A 
HETATM   31  C   UNL     1      -0.055   9.002 -27.872  1.00  0.00     0.001 A 
HETATM   32  C   UNL     1       1.021   8.190 -28.228  1.00  0.00     0.003 A 
HETATM   33  C   UNL     1       0.795   7.003 -28.919  1.00  0.00     0.037 A 
ENDBRANCH  26  27
ENDBRANCH  25  26
ENDBRANCH  22  25
ENDBRANCH   1  21
TORSDOF 7
ENDMDL
MODEL 10
REMARK VINA RESULT:      -8.3      3.918     11.378
REMARK  7 active torsions:
REMARK  status: ('A' for Active; 'I' for Inactive)
REMARK    1  A    between atoms: C_3  and  O_4 
REMARK    2  A    between atoms: O_4  and  C_5 
REMARK    3  A    between atoms: C_5  and  C_6 
REMARK       I    between atoms: C_6  and  N_7 
REMARK    4  A    between atoms: N_7  and  C_8 
REMARK    5  A    between atoms: C_11  and  N_12 
REMARK    6  A    between atoms: N_15  and  C_17 
REMARK    7  A    between atoms: C_17  and  C_18 
ROOT
HETATM    1  C   UNL     1      -3.048   4.486 -31.432  1.00  0.00     0.034 A 
HETATM    2  C   UNL     1      -3.317   3.145 -31.694  1.00  0.00     0.032 A 
HETATM    3  C   UNL     1      -4.382   2.776 -32.531  1.00  0.00     0.031 A 
HETATM    4  C   UNL     1      -5.225   3.728 -33.118  1.00  0.00     0.030 A 
HETATM    5  C   UNL     1      -4.932   5.073 -32.848  1.00  0.00     0.031 A 
HETATM    6  C   UNL     1      -3.863   5.450 -32.024  1.00  0.00     0.032 A 
ENDROOT
BRANCH   4   7
HETATM    7  N   UNL     1      -6.280   3.400 -33.966  1.00  0.00    -0.378 N 
HETATM    8  C   UNL     1      -7.516   4.201 -33.855  1.00  0.00     0.150 C 
HETATM    9  C   UNL     1      -8.573   3.461 -33.006  1.00  0.00     0.255 C 
HETATM   10  N   UNL     1      -8.824   2.063 -33.581  1.00  0.00    -0.064 N 
HETATM   11  H   UNL     1      -9.138   2.198 -34.548  1.00  0.00     0.280 HD
HETATM   12  C   UNL     1      -7.523   1.266 -33.631  1.00  0.00     0.255 C 
HETATM   13  C   UNL     1      -6.462   2.024 -34.454  1.00  0.00     0.150 C 
BRANCH  10  14
HETATM   14  C   UNL     1      -9.918   1.313 -32.864  1.00  0.00     0.273 C 
BRANCH  14  15
HETATM   15  C   UNL     1     -11.243   1.384 -33.572  1.00  0.00    -0.033 A 
HETATM   16  C   UNL     1     -12.181   0.344 -33.450  1.00  0.00     0.009 A 
HETATM   17  C   UNL     1     -13.393   0.403 -34.137  1.00  0.00     0.001 A 
HETATM   18  C   UNL     1     -13.687   1.498 -34.945  1.00  0.00     0.000 A 
HETATM   19  C   UNL     1     -12.772   2.542 -35.064  1.00  0.00     0.001 A 
HETATM   20  C   UNL     1     -11.555   2.487 -34.382  1.00  0.00     0.009 A 
ENDBRANCH  14  15
ENDBRANCH  10  14
ENDBRANCH   4   7
BRANCH   1  21
HETATM   21  N   UNL     1      -1.984   4.940 -30.628  1.00  0.00    -0.325 N 
HETATM   22  C   UNL     1      -0.719   5.343 -31.047  1.00  0.00     0.246 C 
HETATM   23  O   UNL     1      -0.308   5.304 -32.202  1.00  0.00    -0.271 OA
HETATM   24  H   UNL     1      -2.155   4.946 -29.629  1.00  0.00     0.169 HD
BRANCH  22  25
HETATM   25  C   UNL     1       0.132   5.850 -29.874  1.00  0.00     0.278 C 
BRANCH  25  26
HETATM   26  O   UNL     1      -0.627   6.617 -28.943  1.00  0.00    -0.342 OA
BRANCH  26  27
HETATM   27  C   UNL     1       0.201   7.254 -28.058  1.00  0.00     0.075 A 
HETATM   28  C   UNL     1       0.191   6.925 -26.697  1.00  0.00    -0.029 A 
HETATM   29  C   UNL     1      -0.713   5.858 -26.150  1.00  0.00     0.051 C 
HETATM   30  C   UNL     1       1.079   7.593 -25.843  1.00  0.00     0.009 A 
HETATM   31  C   UNL     1       1.922   8.594 -26.335  1.00  0.00     0.001 A 
HETATM   32  C   UNL     1       1.887   8.938 -27.686  1.00  0.00     0.003 A 
HETATM   33  C   UNL     1       1.022   8.271 -28.549  1.00  0.00     0.037 A 
ENDBRANCH  26  27
ENDBRANCH  25  26
ENDBRANCH  22  25
ENDBRANCH   1  21
TORSDOF 7
ENDMDL
