MODEL 1
REMARK VINA RESULT:      -9.0      0.000      0.000
REMARK  8 active torsions:
REMARK  status: ('A' for Active; 'I' for Inactive)
REMARK    1  A    between atoms: C_7  and  N_8 
REMARK    2  A    between atoms: C_9  and  S_10 
REMARK    3  A    between atoms: S_10  and  C_11 
REMARK    4  A    between atoms: C_11  and  C_12 
REMARK       I    between atoms: C_12  and  N_13 
REMARK    5  A    between atoms: N_13  and  C_14 
REMARK    6  A    between atoms: C_14  and  C_15 
REMARK    7  A    between atoms: C_15  and  C_16 
REMARK    8  A    between atoms: C_26  and  N_27 
ROOT
HETATM    1  N   UNL     1      -5.550   3.754 -32.722  1.00  0.00    -0.276 N 
HETATM    2  C   UNL     1      -5.265   3.438 -31.366  1.00  0.00     0.177 A 
HETATM    3  N   UNL     1      -4.105   3.579 -30.773  1.00  0.00    -0.204 NA
HETATM    4  C   UNL     1      -3.137   4.080 -31.568  1.00  0.00     0.162 A 
HETATM    5  C   UNL     1      -3.202   4.450 -32.883  1.00  0.00     0.081 A 
HETATM    6  C   UNL     1      -4.458   4.269 -33.546  1.00  0.00     0.124 A 
HETATM    7  N   UNL     1      -1.855   4.338 -31.184  1.00  0.00    -0.260 N 
HETATM    8  H   UNL     1      -1.436   4.187 -30.272  1.00  0.00     0.191 HD
HETATM    9  N   UNL     1      -1.103   4.865 -32.175  1.00  0.00    -0.177 NA
HETATM   10  C   UNL     1      -1.935   4.942 -33.227  1.00  0.00     0.068 A 
HETATM   11  C   UNL     1      -1.437   5.501 -34.507  1.00  0.00     0.073 C 
ENDROOT
BRANCH   2  12
HETATM   12  S   UNL     1      -6.559   2.847 -30.293  1.00  0.00    -0.082 SA
BRANCH  12  13
HETATM   13  C   UNL     1      -5.886   1.204 -29.894  1.00  0.00     0.185 C 
BRANCH  13  14
HETATM   14  C   UNL     1      -5.787   0.298 -31.106  1.00  0.00     0.227 C 
HETATM   15  N   UNL     1      -4.606   0.378 -31.816  1.00  0.00    -0.360 N 
HETATM   16  H   UNL     1      -3.915   1.049 -31.504  1.00  0.00     0.162 HD
HETATM   17  O   UNL     1      -6.745  -0.379 -31.472  1.00  0.00    -0.273 OA
BRANCH  15  18
HETATM   18  C   UNL     1      -4.485  -0.174 -33.155  1.00  0.00     0.127 C 
BRANCH  18  19
HETATM   19  C   UNL     1      -3.805  -1.542 -33.157  1.00  0.00     0.058 C 
BRANCH  19  20
HETATM   20  C   UNL     1      -4.668  -2.583 -33.828  1.00  0.00    -0.057 A 
HETATM   21  C   UNL     1      -5.961  -2.261 -34.261  1.00  0.00     0.007 A 
HETATM   22  C   UNL     1      -6.775  -3.234 -34.844  1.00  0.00     0.001 A 
HETATM   23  C   UNL     1      -6.306  -4.536 -34.996  1.00  0.00     0.000 A 
HETATM   24  C   UNL     1      -5.023  -4.868 -34.567  1.00  0.00     0.001 A 
HETATM   25  C   UNL     1      -4.206  -3.897 -33.984  1.00  0.00     0.007 A 
ENDBRANCH  19  20
ENDBRANCH  18  19
ENDBRANCH  15  18
ENDBRANCH  13  14
ENDBRANCH  12  13
ENDBRANCH   2  12
BRANCH   1  26
HETATM   26  C   UNL     1      -6.855   3.606 -33.277  1.00  0.00     0.043 A 
HETATM   27  C   UNL     1      -7.736   4.691 -33.363  1.00  0.00     0.032 A 
HETATM   28  C   UNL     1      -9.039   4.505 -33.831  1.00  0.00     0.026 A 
HETATM   29  C   UNL     1      -9.481   3.235 -34.205  1.00  0.00     0.040 A 
HETATM   30  C   UNL     1      -8.622   2.129 -34.123  1.00  0.00    -0.038 A 
HETATM   31 CL   UNL     1     -11.111   3.073 -34.750  1.00  0.00    -0.084 Cl
HETATM   32  C   UNL     1      -9.070   0.745 -34.505  1.00  0.00     0.050 C 
HETATM   33  C   UNL     1      -7.309   2.331 -33.660  1.00  0.00     0.038 A 
ENDBRANCH   1  26
BRANCH   6  34
HETATM   34  N   UNL     1      -4.588   4.520 -34.835  1.00  0.00    -0.384 N 
HETATM   35  H   UNL     1      -4.496   5.453 -35.208  1.00  0.00     0.157 HD
HETATM   36  H   UNL     1      -4.746   3.761 -35.488  1.00  0.00     0.157 HD
ENDBRANCH   6  34
TORSDOF 8
ENDMDL
MODEL 2
REMARK VINA RESULT:      -8.6      2.761      5.063
REMARK  8 active torsions:
REMARK  status: ('A' for Active; 'I' for Inactive)
REMARK    1  A    between atoms: C_7  and  N_8 
REMARK    2  A    between atoms: C_9  and  S_10 
REMARK    3  A    between atoms: S_10  and  C_11 
REMARK    4  A    between atoms: C_11  and  C_12 
REMARK       I    between atoms: C_12  and  N_13 
REMARK    5  A    between atoms: N_13  and  C_14 
REMARK    6  A    between atoms: C_14  and  C_15 
REMARK    7  A    between atoms: C_15  and  C_16 
REMARK    8  A    between atoms: C_26  and  N_27 
ROOT
HETATM    1  N   UNL     1      -6.568   4.267 -32.226  1.00  0.00    -0.276 N 
HETATM    2  C   UNL     1      -6.650   3.176 -31.317  1.00  0.00     0.177 A 
HETATM    3  N   UNL     1      -7.691   2.401 -31.142  1.00  0.00    -0.204 NA
HETATM    4  C   UNL     1      -8.745   2.708 -31.926  1.00  0.00     0.162 A 
HETATM    5  C   UNL     1      -8.871   3.701 -32.858  1.00  0.00     0.081 A 
HETATM    6  C   UNL     1      -7.748   4.572 -33.032  1.00  0.00     0.124 A 
HETATM    7  N   UNL     1      -9.934   2.041 -31.946  1.00  0.00    -0.260 N 
HETATM    8  H   UNL     1     -10.210   1.242 -31.385  1.00  0.00     0.191 HD
HETATM    9  N   UNL     1     -10.805   2.544 -32.849  1.00  0.00    -0.177 NA
HETATM   10  C   UNL     1     -10.149   3.567 -33.420  1.00  0.00     0.068 A 
HETATM   11  C   UNL     1     -10.813   4.349 -34.489  1.00  0.00     0.073 C 
ENDROOT
BRANCH   2  12
HETATM   12  S   UNL     1      -5.235   2.722 -30.334  1.00  0.00    -0.082 SA
BRANCH  12  13
HETATM   13  C   UNL     1      -4.316   1.750 -31.569  1.00  0.00     0.185 C 
BRANCH  13  14
HETATM   14  C   UNL     1      -5.046   0.487 -31.984  1.00  0.00     0.227 C 
HETATM   15  N   UNL     1      -5.859   0.604 -33.092  1.00  0.00    -0.360 N 
HETATM   16  H   UNL     1      -5.939   1.518 -33.521  1.00  0.00     0.162 HD
HETATM   17  O   UNL     1      -4.980  -0.536 -31.305  1.00  0.00    -0.273 OA
BRANCH  15  18
HETATM   18  C   UNL     1      -6.852  -0.405 -33.417  1.00  0.00     0.127 C 
BRANCH  18  19
HETATM   19  C   UNL     1      -6.622  -1.019 -34.797  1.00  0.00     0.058 C 
BRANCH  19  20
HETATM   20  C   UNL     1      -6.001  -2.390 -34.691  1.00  0.00    -0.057 A 
HETATM   21  C   UNL     1      -6.738  -3.532 -35.036  1.00  0.00     0.007 A 
HETATM   22  C   UNL     1      -6.178  -4.803 -34.899  1.00  0.00     0.001 A 
HETATM   23  C   UNL     1      -4.881  -4.946 -34.414  1.00  0.00     0.000 A 
HETATM   24  C   UNL     1      -4.139  -3.818 -34.067  1.00  0.00     0.001 A 
HETATM   25  C   UNL     1      -4.696  -2.545 -34.203  1.00  0.00     0.007 A 
ENDBRANCH  19  20
ENDBRANCH  18  19
ENDBRANCH  15  18
ENDBRANCH  13  14
ENDBRANCH  12  13
ENDBRANCH   2  12
BRANCH   1  26
HETATM   26  C   UNL     1      -5.378   5.037 -32.381  1.00  0.00     0.043 A 
HETATM   27  C   UNL     1      -5.088   6.105 -31.526  1.00  0.00     0.032 A 
HETATM   28  C   UNL     1      -3.960   6.899 -31.747  1.00  0.00     0.026 A 
HETATM   29  C   UNL     1      -3.119   6.645 -32.833  1.00  0.00     0.040 A 
HETATM   30  C   UNL     1      -3.391   5.585 -33.711  1.00  0.00    -0.038 A 
HETATM   31 CL   UNL     1      -1.758   7.681 -33.063  1.00  0.00    -0.084 Cl
HETATM   32  C   UNL     1      -2.514   5.291 -34.897  1.00  0.00     0.050 C 
HETATM   33  C   UNL     1      -4.523   4.787 -33.470  1.00  0.00     0.038 A 
ENDBRANCH   1  26
BRANCH   6  34
HETATM   34  N   UNL     1      -7.812   5.607 -33.848  1.00  0.00    -0.384 N 
HETATM   35  H   UNL     1      -8.204   5.531 -34.775  1.00  0.00     0.157 HD
HETATM   36  H   UNL     1      -7.500   6.519 -33.538  1.00  0.00     0.157 HD
ENDBRANCH   6  34
TORSDOF 8
ENDMDL
MODEL 3
REMARK VINA RESULT:      -8.5      3.555      7.764
REMARK  8 active torsions:
REMARK  status: ('A' for Active; 'I' for Inactive)
REMARK    1  A    between atoms: C_7  and  N_8 
REMARK    2  A    between atoms: C_9  and  S_10 
REMARK    3  A    between atoms: S_10  and  C_11 
REMARK    4  A    between atoms: C_11  and  C_12 
REMARK       I    between atoms: C_12  and  N_13 
REMARK    5  A    between atoms: N_13  and  C_14 
REMARK    6  A    between atoms: C_14  and  C_15 
REMARK    7  A    between atoms: C_15  and  C_16 
REMARK    8  A    between atoms: C_26  and  N_27 
ROOT
HETATM    1  N   UNL     1      -9.036   1.527 -33.304  1.00  0.00    -0.276 N 
HETATM    2  C   UNL     1      -9.046   2.781 -33.975  1.00  0.00     0.177 A 
HETATM    3  N   UNL     1     -10.078   3.320 -34.576  1.00  0.00    -0.204 NA
HETATM    4  C   UNL     1     -11.203   2.578 -34.513  1.00  0.00     0.162 A 
HETATM    5  C   UNL     1     -11.406   1.362 -33.920  1.00  0.00     0.081 A 
HETATM    6  C   UNL     1     -10.275   0.752 -33.289  1.00  0.00     0.124 A 
HETATM    7  N   UNL     1     -12.410   2.928 -35.041  1.00  0.00    -0.260 N 
HETATM    8  H   UNL     1     -12.643   3.769 -35.559  1.00  0.00     0.191 HD
HETATM    9  N   UNL     1     -13.374   2.010 -34.806  1.00  0.00    -0.177 NA
HETATM   10  C   UNL     1     -12.758   1.043 -34.107  1.00  0.00     0.068 A 
HETATM   11  C   UNL     1     -13.538  -0.135 -33.657  1.00  0.00     0.073 C 
ENDROOT
BRANCH   2  12
HETATM   12  S   UNL     1      -7.583   3.797 -33.996  1.00  0.00    -0.082 SA
BRANCH  12  13
HETATM   13  C   UNL     1      -7.835   4.712 -32.443  1.00  0.00     0.185 C 
BRANCH  13  14
HETATM   14  C   UNL     1      -6.591   4.755 -31.578  1.00  0.00     0.227 C 
HETATM   15  N   UNL     1      -5.499   4.068 -32.066  1.00  0.00    -0.360 N 
HETATM   16  H   UNL     1      -5.614   3.561 -32.936  1.00  0.00     0.162 HD
HETATM   17  O   UNL     1      -6.606   5.289 -30.470  1.00  0.00    -0.273 OA
BRANCH  15  18
HETATM   18  C   UNL     1      -4.360   3.749 -31.222  1.00  0.00     0.127 C 
BRANCH  18  19
HETATM   19  C   UNL     1      -3.162   3.253 -32.031  1.00  0.00     0.058 C 
BRANCH  19  20
HETATM   20  C   UNL     1      -2.401   4.401 -32.646  1.00  0.00    -0.057 A 
HETATM   21  C   UNL     1      -2.387   4.581 -34.036  1.00  0.00     0.007 A 
HETATM   22  C   UNL     1      -1.649   5.618 -34.609  1.00  0.00     0.001 A 
HETATM   23  C   UNL     1      -0.916   6.482 -33.799  1.00  0.00     0.000 A 
HETATM   24  C   UNL     1      -0.921   6.313 -32.416  1.00  0.00     0.001 A 
HETATM   25  C   UNL     1      -1.659   5.276 -31.840  1.00  0.00     0.007 A 
ENDBRANCH  19  20
ENDBRANCH  18  19
ENDBRANCH  15  18
ENDBRANCH  13  14
ENDBRANCH  12  13
ENDBRANCH   2  12
BRANCH   1  26
HETATM   26  C   UNL     1      -7.875   1.032 -32.641  1.00  0.00     0.043 A 
HETATM   27  C   UNL     1      -7.665   1.262 -31.277  1.00  0.00     0.032 A 
HETATM   28  C   UNL     1      -6.481   0.842 -30.665  1.00  0.00     0.026 A 
HETATM   29  C   UNL     1      -5.489   0.201 -31.411  1.00  0.00     0.040 A 
HETATM   30  C   UNL     1      -5.671  -0.036 -32.781  1.00  0.00    -0.038 A 
HETATM   31 CL   UNL     1      -4.040  -0.268 -30.598  1.00  0.00    -0.084 Cl
HETATM   32  C   UNL     1      -4.619  -0.712 -33.617  1.00  0.00     0.050 C 
HETATM   33  C   UNL     1      -6.872   0.382 -33.382  1.00  0.00     0.038 A 
ENDBRANCH   1  26
BRANCH   6  34
HETATM   34  N   UNL     1     -10.359  -0.457 -32.766  1.00  0.00    -0.384 N 
HETATM   35  H   UNL     1     -11.199  -1.012 -32.841  1.00  0.00     0.157 HD
HETATM   36  H   UNL     1      -9.556  -0.870 -32.308  1.00  0.00     0.157 HD
ENDBRANCH   6  34
TORSDOF 8
ENDMDL
MODEL 4
REMARK VINA RESULT:      -8.5      2.747      4.563
REMARK  8 active torsions:
REMARK  status: ('A' for Active; 'I' for Inactive)
REMARK    1  A    between atoms: C_7  and  N_8 
REMARK    2  A    between atoms: C_9  and  S_10 
REMARK    3  A    between atoms: S_10  and  C_11 
REMARK    4  A    between atoms: C_11  and  C_12 
REMARK       I    between atoms: C_12  and  N_13 
REMARK    5  A    between atoms: N_13  and  C_14 
REMARK    6  A    between atoms: C_14  and  C_15 
REMARK    7  A    between atoms: C_15  and  C_16 
REMARK    8  A    between atoms: C_26  and  N_27 
ROOT
HETATM    1  N   UNL     1      -3.934   4.199 -32.365  1.00  0.00    -0.276 N 
HETATM    2  C   UNL     1      -4.532   4.795 -33.509  1.00  0.00     0.177 A 
HETATM    3  N   UNL     1      -4.041   5.797 -34.197  1.00  0.00    -0.204 NA
HETATM    4  C   UNL     1      -2.859   6.256 -33.735  1.00  0.00     0.162 A 
HETATM    5  C   UNL     1      -2.121   5.826 -32.667  1.00  0.00     0.081 A 
HETATM    6  C   UNL     1      -2.667   4.752 -31.893  1.00  0.00     0.124 A 
HETATM    7  N   UNL     1      -2.138   7.273 -34.286  1.00  0.00    -0.260 N 
HETATM    8  H   UNL     1      -2.374   7.836 -35.096  1.00  0.00     0.191 HD
HETATM    9  N   UNL     1      -0.975   7.506 -33.638  1.00  0.00    -0.177 NA
HETATM   10  C   UNL     1      -0.958   6.608 -32.640  1.00  0.00     0.068 A 
HETATM   11  C   UNL     1       0.205   6.567 -31.721  1.00  0.00     0.073 C 
ENDROOT
BRANCH   2  12
HETATM   12  S   UNL     1      -6.055   4.145 -34.165  1.00  0.00    -0.082 SA
BRANCH  12  13
HETATM   13  C   UNL     1      -7.226   5.320 -33.417  1.00  0.00     0.185 C 
BRANCH  13  14
HETATM   14  C   UNL     1      -8.323   4.635 -32.627  1.00  0.00     0.227 C 
HETATM   15  N   UNL     1      -8.161   3.279 -32.432  1.00  0.00    -0.360 N 
HETATM   16  H   UNL     1      -7.353   2.837 -32.854  1.00  0.00     0.162 HD
HETATM   17  O   UNL     1      -9.331   5.247 -32.278  1.00  0.00    -0.273 OA
BRANCH  15  18
HETATM   18  C   UNL     1      -9.258   2.438 -31.985  1.00  0.00     0.127 C 
BRANCH  18  19
HETATM   19  C   UNL     1      -9.749   1.495 -33.082  1.00  0.00     0.058 C 
BRANCH  19  20
HETATM   20  C   UNL     1      -8.618   0.668 -33.642  1.00  0.00    -0.057 A 
HETATM   21  C   UNL     1      -8.098   0.944 -34.913  1.00  0.00     0.007 A 
HETATM   22  C   UNL     1      -7.080   0.153 -35.449  1.00  0.00     0.001 A 
HETATM   23  C   UNL     1      -6.576  -0.922 -34.721  1.00  0.00     0.000 A 
HETATM   24  C   UNL     1      -7.086  -1.207 -33.456  1.00  0.00     0.001 A 
HETATM   25  C   UNL     1      -8.104  -0.418 -32.918  1.00  0.00     0.007 A 
ENDBRANCH  19  20
ENDBRANCH  18  19
ENDBRANCH  15  18
ENDBRANCH  13  14
ENDBRANCH  12  13
ENDBRANCH   2  12
BRANCH   1  26
HETATM   26  C   UNL     1      -4.519   3.083 -31.699  1.00  0.00     0.043 A 
HETATM   27  C   UNL     1      -5.411   3.258 -30.635  1.00  0.00     0.032 A 
HETATM   28  C   UNL     1      -5.907   2.151 -29.941  1.00  0.00     0.026 A 
HETATM   29  C   UNL     1      -5.507   0.860 -30.292  1.00  0.00     0.040 A 
HETATM   30  C   UNL     1      -4.609   0.656 -31.350  1.00  0.00    -0.038 A 
HETATM   31 CL   UNL     1      -6.138  -0.460 -29.376  1.00  0.00    -0.084 Cl
HETATM   32  C   UNL     1      -4.147  -0.719 -31.746  1.00  0.00     0.050 C 
HETATM   33  C   UNL     1      -4.126   1.778 -32.047  1.00  0.00     0.038 A 
ENDBRANCH   1  26
BRANCH   6  34
HETATM   34  N   UNL     1      -2.063   4.330 -30.797  1.00  0.00    -0.384 N 
HETATM   35  H   UNL     1      -1.307   4.848 -30.373  1.00  0.00     0.157 HD
HETATM   36  H   UNL     1      -2.380   3.487 -30.335  1.00  0.00     0.157 HD
ENDBRANCH   6  34
TORSDOF 8
ENDMDL
MODEL 5
REMARK VINA RESULT:      -8.0      4.155      8.125
REMARK  8 active torsions:
REMARK  status: ('A' for Active; 'I' for Inactive)
REMARK    1  A    between atoms: C_7  and  N_8 
REMARK    2  A    between atoms: C_9  and  S_10 
REMARK    3  A    between atoms: S_10  and  C_11 
REMARK    4  A    between atoms: C_11  and  C_12 
REMARK       I    between atoms: C_12  and  N_13 
REMARK    5  A    between atoms: N_13  and  C_14 
REMARK    6  A    between atoms: C_14  and  C_15 
REMARK    7  A    between atoms: C_15  and  C_16 
REMARK    8  A    between atoms: C_26  and  N_27 
ROOT
HETATM    1  N   UNL     1      -5.308   3.864 -31.782  1.00  0.00    -0.276 N 
HETATM    2  C   UNL     1      -4.091   4.592 -31.878  1.00  0.00     0.177 A 
HETATM    3  N   UNL     1      -3.758   5.629 -31.150  1.00  0.00    -0.204 NA
HETATM    4  C   UNL     1      -4.689   5.985 -30.240  1.00  0.00     0.162 A 
HETATM    5  C   UNL     1      -5.908   5.422 -29.983  1.00  0.00     0.081 A 
HETATM    6  C   UNL     1      -6.292   4.308 -30.798  1.00  0.00     0.124 A 
HETATM    7  N   UNL     1      -4.573   7.014 -29.353  1.00  0.00    -0.260 N 
HETATM    8  H   UNL     1      -3.798   7.661 -29.248  1.00  0.00     0.191 HD
HETATM    9  N   UNL     1      -5.643   7.128 -28.535  1.00  0.00    -0.177 NA
HETATM   10  C   UNL     1      -6.469   6.141 -28.918  1.00  0.00     0.068 A 
HETATM   11  C   UNL     1      -7.758   5.959 -28.210  1.00  0.00     0.073 C 
ENDROOT
BRANCH   2  12
HETATM   12  S   UNL     1      -2.829   4.080 -33.027  1.00  0.00    -0.082 SA
BRANCH  12  13
HETATM   13  C   UNL     1      -2.754   5.570 -34.069  1.00  0.00     0.185 C 
BRANCH  13  14
HETATM   14  C   UNL     1      -1.672   6.539 -33.634  1.00  0.00     0.227 C 
HETATM   15  N   UNL     1      -0.961   6.174 -32.509  1.00  0.00    -0.360 N 
HETATM   16  H   UNL     1      -1.231   5.318 -32.041  1.00  0.00     0.162 HD
HETATM   17  O   UNL     1      -1.522   7.620 -34.201  1.00  0.00    -0.273 OA
BRANCH  15  18
HETATM   18  C   UNL     1      -0.130   7.126 -31.793  1.00  0.00     0.127 C 
BRANCH  18  19
HETATM   19  C   UNL     1       0.332   6.587 -30.440  1.00  0.00     0.058 C 
BRANCH  19  20
HETATM   20  C   UNL     1       0.097   7.591 -29.339  1.00  0.00    -0.057 A 
HETATM   21  C   UNL     1      -1.132   8.258 -29.236  1.00  0.00     0.007 A 
HETATM   22  C   UNL     1      -1.336   9.218 -28.243  1.00  0.00     0.001 A 
HETATM   23  C   UNL     1      -0.314   9.522 -27.347  1.00  0.00     0.000 A 
HETATM   24  C   UNL     1       0.912   8.867 -27.440  1.00  0.00     0.001 A 
HETATM   25  C   UNL     1       1.119   7.906 -28.432  1.00  0.00     0.007 A 
ENDBRANCH  19  20
ENDBRANCH  18  19
ENDBRANCH  15  18
ENDBRANCH  13  14
ENDBRANCH  12  13
ENDBRANCH   2  12
BRANCH   1  26
HETATM   26  C   UNL     1      -5.572   2.719 -32.590  1.00  0.00     0.043 A 
HETATM   27  C   UNL     1      -6.323   2.819 -33.767  1.00  0.00     0.032 A 
HETATM   28  C   UNL     1      -6.643   1.673 -34.499  1.00  0.00     0.026 A 
HETATM   29  C   UNL     1      -6.229   0.415 -34.057  1.00  0.00     0.040 A 
HETATM   30  C   UNL     1      -5.480   0.285 -32.877  1.00  0.00    -0.038 A 
HETATM   31 CL   UNL     1      -6.680  -0.962 -34.995  1.00  0.00    -0.084 Cl
HETATM   32  C   UNL     1      -5.030  -1.056 -32.366  1.00  0.00     0.050 C 
HETATM   33  C   UNL     1      -5.157   1.447 -32.156  1.00  0.00     0.038 A 
ENDBRANCH   1  26
BRANCH   6  34
HETATM   34  N   UNL     1      -7.485   3.757 -30.676  1.00  0.00    -0.384 N 
HETATM   35  H   UNL     1      -7.687   2.838 -31.041  1.00  0.00     0.157 HD
HETATM   36  H   UNL     1      -8.218   4.239 -30.171  1.00  0.00     0.157 HD
ENDBRANCH   6  34
TORSDOF 8
ENDMDL
MODEL 6
REMARK VINA RESULT:      -8.0      3.083      5.517
REMARK  8 active torsions:
REMARK  status: ('A' for Active; 'I' for Inactive)
REMARK    1  A    between atoms: C_7  and  N_8 
REMARK    2  A    between atoms: C_9  and  S_10 
REMARK    3  A    between atoms: S_10  and  C_11 
REMARK    4  A    between atoms: C_11  and  C_12 
REMARK       I    between atoms: C_12  and  N_13 
REMARK    5  A    between atoms: N_13  and  C_14 
REMARK    6  A    between atoms: C_14  and  C_15 
REMARK    7  A    between atoms: C_15  and  C_16 
REMARK    8  A    between atoms: C_26  and  N_27 
ROOT
HETATM    1  N   UNL     1      -8.027   4.463 -32.685  1.00  0.00    -0.276 N 
HETATM    2  C   UNL     1      -8.259   3.546 -31.623  1.00  0.00     0.177 A 
HETATM    3  N   UNL     1      -9.412   3.005 -31.315  1.00  0.00    -0.204 NA
HETATM    4  C   UNL     1     -10.429   3.383 -32.117  1.00  0.00     0.162 A 
HETATM    5  C   UNL     1     -10.420   4.239 -33.183  1.00  0.00     0.081 A 
HETATM    6  C   UNL     1      -9.169   4.859 -33.505  1.00  0.00     0.124 A 
HETATM    7  N   UNL     1     -11.717   2.947 -32.016  1.00  0.00    -0.260 N 
HETATM    8  H   UNL     1     -12.104   2.299 -31.337  1.00  0.00     0.191 HD
HETATM    9  N   UNL     1     -12.525   3.465 -32.968  1.00  0.00    -0.177 NA
HETATM   10  C   UNL     1     -11.725   4.260 -33.695  1.00  0.00     0.068 A 
HETATM   11  C   UNL     1     -12.288   4.989 -34.857  1.00  0.00     0.073 C 
ENDROOT
BRANCH   2  12
HETATM   12  S   UNL     1      -6.904   2.988 -30.610  1.00  0.00    -0.082 SA
BRANCH  12  13
HETATM   13  C   UNL     1      -7.018   1.199 -30.922  1.00  0.00     0.185 C 
BRANCH  13  14
HETATM   14  C   UNL     1      -6.178   0.753 -32.103  1.00  0.00     0.227 C 
HETATM   15  N   UNL     1      -6.811   0.777 -33.328  1.00  0.00    -0.360 N 
HETATM   16  H   UNL     1      -7.785   1.051 -33.348  1.00  0.00     0.162 HD
HETATM   17  O   UNL     1      -5.043   0.308 -31.943  1.00  0.00    -0.273 OA
BRANCH  15  18
HETATM   18  C   UNL     1      -6.259   0.089 -34.483  1.00  0.00     0.127 C 
BRANCH  18  19
HETATM   19  C   UNL     1      -7.053  -1.165 -34.844  1.00  0.00     0.058 C 
BRANCH  19  20
HETATM   20  C   UNL     1      -6.214  -2.410 -34.690  1.00  0.00    -0.057 A 
HETATM   21  C   UNL     1      -6.751  -3.670 -34.989  1.00  0.00     0.007 A 
HETATM   22  C   UNL     1      -5.989  -4.825 -34.808  1.00  0.00     0.001 A 
HETATM   23  C   UNL     1      -4.687  -4.733 -34.324  1.00  0.00     0.000 A 
HETATM   24  C   UNL     1      -4.142  -3.486 -34.022  1.00  0.00     0.001 A 
HETATM   25  C   UNL     1      -4.902  -2.329 -34.203  1.00  0.00     0.007 A 
ENDBRANCH  19  20
ENDBRANCH  18  19
ENDBRANCH  15  18
ENDBRANCH  13  14
ENDBRANCH  12  13
ENDBRANCH   2  12
BRANCH   1  26
HETATM   26  C   UNL     1      -6.728   4.974 -32.975  1.00  0.00     0.043 A 
HETATM   27  C   UNL     1      -5.930   4.406 -33.974  1.00  0.00     0.032 A 
HETATM   28  C   UNL     1      -4.628   4.867 -34.184  1.00  0.00     0.026 A 
HETATM   29  C   UNL     1      -4.104   5.890 -33.391  1.00  0.00     0.040 A 
HETATM   30  C   UNL     1      -4.880   6.473 -32.377  1.00  0.00    -0.038 A 
HETATM   31 CL   UNL     1      -2.480   6.394 -33.686  1.00  0.00    -0.084 Cl
HETATM   32  C   UNL     1      -4.343   7.567 -31.496  1.00  0.00     0.050 C 
HETATM   33  C   UNL     1      -6.192   6.007 -32.184  1.00  0.00     0.038 A 
ENDBRANCH   1  26
BRANCH   6  34
HETATM   34  N   UNL     1      -9.086   5.761 -34.465  1.00  0.00    -0.384 N 
HETATM   35  H   UNL     1      -8.228   6.256 -34.658  1.00  0.00     0.157 HD
HETATM   36  H   UNL     1      -9.885   5.947 -35.059  1.00  0.00     0.157 HD
ENDBRANCH   6  34
TORSDOF 8
ENDMDL
MODEL 7
REMARK VINA RESULT:      -7.9      2.292      6.160
REMARK  8 active torsions:
REMARK  status: ('A' for Active; 'I' for Inactive)
REMARK    1  A    between atoms: C_7  and  N_8 
REMARK    2  A    between atoms: C_9  and  S_10 
REMARK    3  A    between atoms: S_10  and  C_11 
REMARK    4  A    between atoms: C_11  and  C_12 
REMARK       I    between atoms: C_12  and  N_13 
REMARK    5  A    between atoms: N_13  and  C_14 
REMARK    6  A    between atoms: C_14  and  C_15 
REMARK    7  A    between atoms: C_15  and  C_16 
REMARK    8  A    between atoms: C_26  and  N_27 
ROOT
HETATM    1  N   UNL     1      -8.692   1.796 -32.878  1.00  0.00    -0.276 N 
HETATM    2  C   UNL     1      -8.143   1.965 -31.577  1.00  0.00     0.177 A 
HETATM    3  N   UNL     1      -7.168   1.259 -31.059  1.00  0.00    -0.204 NA
HETATM    4  C   UNL     1      -6.678   0.308 -31.882  1.00  0.00     0.162 A 
HETATM    5  C   UNL     1      -7.056  -0.012 -33.157  1.00  0.00     0.081 A 
HETATM    6  C   UNL     1      -8.142   0.734 -33.717  1.00  0.00     0.124 A 
HETATM    7  N   UNL     1      -5.653  -0.540 -31.586  1.00  0.00    -0.260 N 
HETATM    8  H   UNL     1      -5.122  -0.598 -30.723  1.00  0.00     0.191 HD
HETATM    9  N   UNL     1      -5.347  -1.373 -32.605  1.00  0.00    -0.177 NA
HETATM   10  C   UNL     1      -6.209  -1.045 -33.582  1.00  0.00     0.068 A 
HETATM   11  C   UNL     1      -6.144  -1.762 -34.878  1.00  0.00     0.073 C 
ENDROOT
BRANCH   2  12
HETATM   12  S   UNL     1      -8.737   3.266 -30.516  1.00  0.00    -0.082 SA
BRANCH  12  13
HETATM   13  C   UNL     1      -7.561   4.579 -30.970  1.00  0.00     0.185 C 
BRANCH  13  14
HETATM   14  C   UNL     1      -6.142   4.276 -30.530  1.00  0.00     0.227 C 
HETATM   15  N   UNL     1      -5.277   3.885 -31.531  1.00  0.00    -0.360 N 
HETATM   16  H   UNL     1      -5.652   3.795 -32.467  1.00  0.00     0.162 HD
HETATM   17  O   UNL     1      -5.831   4.286 -29.340  1.00  0.00    -0.273 OA
BRANCH  15  18
HETATM   18  C   UNL     1      -3.999   3.262 -31.232  1.00  0.00     0.127 C 
BRANCH  18  19
HETATM   19  C   UNL     1      -3.142   3.071 -32.482  1.00  0.00     0.058 C 
BRANCH  19  20
HETATM   20  C   UNL     1      -2.375   4.325 -32.819  1.00  0.00    -0.057 A 
HETATM   21  C   UNL     1      -2.276   4.762 -34.147  1.00  0.00     0.007 A 
HETATM   22  C   UNL     1      -1.531   5.899 -34.465  1.00  0.00     0.001 A 
HETATM   23  C   UNL     1      -0.877   6.608 -33.461  1.00  0.00     0.000 A 
HETATM   24  C   UNL     1      -0.967   6.182 -32.137  1.00  0.00     0.001 A 
HETATM   25  C   UNL     1      -1.711   5.046 -31.816  1.00  0.00     0.007 A 
ENDBRANCH  19  20
ENDBRANCH  18  19
ENDBRANCH  15  18
ENDBRANCH  13  14
ENDBRANCH  12  13
ENDBRANCH   2  12
BRANCH   1  26
HETATM   26  C   UNL     1      -9.729   2.637 -33.377  1.00  0.00     0.043 A 
HETATM   27  C   UNL     1     -11.077   2.278 -33.259  1.00  0.00     0.032 A 
HETATM   28  C   UNL     1     -12.072   3.075 -33.830  1.00  0.00     0.026 A 
HETATM   29  C   UNL     1     -11.732   4.230 -34.537  1.00  0.00     0.040 A 
HETATM   30  C   UNL     1     -10.389   4.610 -34.677  1.00  0.00    -0.038 A 
HETATM   31 CL   UNL     1     -13.010   5.154 -35.240  1.00  0.00    -0.084 Cl
HETATM   32  C   UNL     1      -9.988   5.841 -35.444  1.00  0.00     0.050 C 
HETATM   33  C   UNL     1      -9.398   3.805 -34.088  1.00  0.00     0.038 A 
ENDBRANCH   1  26
BRANCH   6  34
HETATM   34  N   UNL     1      -8.627   0.437 -34.908  1.00  0.00    -0.384 N 
HETATM   35  H   UNL     1      -8.076   0.538 -35.748  1.00  0.00     0.157 HD
HETATM   36  H   UNL     1      -9.562   0.058 -34.996  1.00  0.00     0.157 HD
ENDBRANCH   6  34
TORSDOF 8
ENDMDL
MODEL 8
REMARK VINA RESULT:      -7.9      3.586      7.859
REMARK  8 active torsions:
REMARK  status: ('A' for Active; 'I' for Inactive)
REMARK    1  A    between atoms: C_7  and  N_8 
REMARK    2  A    between atoms: C_9  and  S_10 
REMARK    3  A    between atoms: S_10  and  C_11 
REMARK    4  A    between atoms: C_11  and  C_12 
REMARK       I    between atoms: C_12  and  N_13 
REMARK    5  A    between atoms: N_13  and  C_14 
REMARK    6  A    between atoms: C_14  and  C_15 
REMARK    7  A    between atoms: C_15  and  C_16 
REMARK    8  A    between atoms: C_26  and  N_27 
ROOT
HETATM    1  N   UNL     1      -9.536   2.316 -33.514  1.00  0.00    -0.276 N 
HETATM    2  C   UNL     1      -9.281   3.713 -33.577  1.00  0.00     0.177 A 
HETATM    3  N   UNL     1     -10.180   4.662 -33.475  1.00  0.00    -0.204 NA
HETATM    4  C   UNL     1     -11.438   4.212 -33.288  1.00  0.00     0.162 A 
HETATM    5  C   UNL     1     -11.892   2.925 -33.194  1.00  0.00     0.081 A 
HETATM    6  C   UNL     1     -10.920   1.883 -33.336  1.00  0.00     0.124 A 
HETATM    7  N   UNL     1     -12.542   4.996 -33.134  1.00  0.00    -0.260 N 
HETATM    8  H   UNL     1     -12.592   6.010 -33.147  1.00  0.00     0.191 HD
HETATM    9  N   UNL     1     -13.672   4.283 -32.932  1.00  0.00    -0.177 NA
HETATM   10  C   UNL     1     -13.273   3.001 -32.962  1.00  0.00     0.068 A 
HETATM   11  C   UNL     1     -14.272   1.925 -32.754  1.00  0.00     0.073 C 
ENDROOT
BRANCH   2  12
HETATM   12  S   UNL     1      -7.612   4.312 -33.750  1.00  0.00    -0.082 SA
BRANCH  12  13
HETATM   13  C   UNL     1      -7.249   4.684 -32.006  1.00  0.00     0.185 C 
BRANCH  13  14
HETATM   14  C   UNL     1      -5.950   4.063 -31.530  1.00  0.00     0.227 C 
HETATM   15  N   UNL     1      -4.859   4.256 -32.353  1.00  0.00    -0.360 N 
HETATM   16  H   UNL     1      -5.008   4.760 -33.219  1.00  0.00     0.162 HD
HETATM   17  O   UNL     1      -5.915   3.353 -30.527  1.00  0.00    -0.273 OA
BRANCH  15  18
HETATM   18  C   UNL     1      -3.646   3.470 -32.205  1.00  0.00     0.127 C 
BRANCH  18  19
HETATM   19  C   UNL     1      -2.519   3.972 -33.106  1.00  0.00     0.058 C 
BRANCH  19  20
HETATM   20  C   UNL     1      -1.682   5.017 -32.408  1.00  0.00    -0.057 A 
HETATM   21  C   UNL     1      -1.480   6.273 -32.995  1.00  0.00     0.007 A 
HETATM   22  C   UNL     1      -0.672   7.225 -32.371  1.00  0.00     0.001 A 
HETATM   23  C   UNL     1      -0.057   6.929 -31.157  1.00  0.00     0.000 A 
HETATM   24  C   UNL     1      -0.249   5.682 -30.565  1.00  0.00     0.001 A 
HETATM   25  C   UNL     1      -1.057   4.729 -31.187  1.00  0.00     0.007 A 
ENDBRANCH  19  20
ENDBRANCH  18  19
ENDBRANCH  15  18
ENDBRANCH  13  14
ENDBRANCH  12  13
ENDBRANCH   2  12
BRANCH   1  26
HETATM   26  C   UNL     1      -8.491   1.350 -33.594  1.00  0.00     0.043 A 
HETATM   27  C   UNL     1      -8.197   0.696 -34.796  1.00  0.00     0.032 A 
HETATM   28  C   UNL     1      -7.226  -0.308 -34.834  1.00  0.00     0.026 A 
HETATM   29  C   UNL     1      -6.548  -0.679 -33.670  1.00  0.00     0.040 A 
HETATM   30  C   UNL     1      -6.828  -0.045 -32.451  1.00  0.00    -0.038 A 
HETATM   31 CL   UNL     1      -5.380  -1.944 -33.783  1.00  0.00    -0.084 Cl
HETATM   32  C   UNL     1      -6.126  -0.429 -31.177  1.00  0.00     0.050 C 
HETATM   33  C   UNL     1      -7.800   0.971 -32.429  1.00  0.00     0.038 A 
ENDBRANCH   1  26
BRANCH   6  34
HETATM   34  N   UNL     1     -11.283   0.614 -33.343  1.00  0.00    -0.384 N 
HETATM   35  H   UNL     1     -10.804  -0.074 -33.906  1.00  0.00     0.157 HD
HETATM   36  H   UNL     1     -12.034   0.296 -32.743  1.00  0.00     0.157 HD
ENDBRANCH   6  34
TORSDOF 8
ENDMDL
MODEL 9
REMARK VINA RESULT:      -7.8      3.037      4.159
REMARK  8 active torsions:
REMARK  status: ('A' for Active; 'I' for Inactive)
REMARK    1  A    between atoms: C_7  and  N_8 
REMARK    2  A    between atoms: C_9  and  S_10 
REMARK    3  A    between atoms: S_10  and  C_11 
REMARK    4  A    between atoms: C_11  and  C_12 
REMARK       I    between atoms: C_12  and  N_13 
REMARK    5  A    between atoms: N_13  and  C_14 
REMARK    6  A    between atoms: C_14  and  C_15 
REMARK    7  A    between atoms: C_15  and  C_16 
REMARK    8  A    between atoms: C_26  and  N_27 
ROOT
HETATM    1  N   UNL     1      -5.454   6.196 -32.334  1.00  0.00    -0.276 N 
HETATM    2  C   UNL     1      -5.900   5.426 -33.443  1.00  0.00     0.177 A 
HETATM    3  N   UNL     1      -5.168   5.056 -34.465  1.00  0.00    -0.204 NA
HETATM    4  C   UNL     1      -3.884   5.465 -34.398  1.00  0.00     0.162 A 
HETATM    5  C   UNL     1      -3.258   6.200 -33.429  1.00  0.00     0.081 A 
HETATM    6  C   UNL     1      -4.060   6.634 -32.326  1.00  0.00     0.124 A 
HETATM    7  N   UNL     1      -2.920   5.193 -35.324  1.00  0.00    -0.260 N 
HETATM    8  H   UNL     1      -3.016   4.668 -36.187  1.00  0.00     0.191 HD
HETATM    9  N   UNL     1      -1.712   5.700 -34.991  1.00  0.00    -0.177 NA
HETATM   10  C   UNL     1      -1.915   6.318 -33.817  1.00  0.00     0.068 A 
HETATM   11  C   UNL     1      -0.776   6.984 -33.141  1.00  0.00     0.073 C 
ENDROOT
BRANCH   2  12
HETATM   12  S   UNL     1      -7.576   4.823 -33.498  1.00  0.00    -0.082 SA
BRANCH  12  13
HETATM   13  C   UNL     1      -7.332   3.198 -32.716  1.00  0.00     0.185 C 
BRANCH  13  14
HETATM   14  C   UNL     1      -7.648   2.044 -33.647  1.00  0.00     0.227 C 
HETATM   15  N   UNL     1      -6.643   1.114 -33.809  1.00  0.00    -0.360 N 
HETATM   16  H   UNL     1      -5.766   1.282 -33.331  1.00  0.00     0.162 HD
HETATM   17  O   UNL     1      -8.700   2.012 -34.283  1.00  0.00    -0.273 OA
BRANCH  15  18
HETATM   18  C   UNL     1      -6.669   0.145 -34.892  1.00  0.00     0.127 C 
BRANCH  18  19
HETATM   19  C   UNL     1      -7.376  -1.149 -34.493  1.00  0.00     0.058 C 
BRANCH  19  20
HETATM   20  C   UNL     1      -6.419  -2.316 -34.478  1.00  0.00    -0.057 A 
HETATM   21  C   UNL     1      -6.852  -3.595 -34.853  1.00  0.00     0.007 A 
HETATM   22  C   UNL     1      -5.979  -4.682 -34.799  1.00  0.00     0.001 A 
HETATM   23  C   UNL     1      -4.667  -4.503 -34.366  1.00  0.00     0.000 A 
HETATM   24  C   UNL     1      -4.225  -3.236 -33.990  1.00  0.00     0.001 A 
HETATM   25  C   UNL     1      -5.097  -2.147 -34.043  1.00  0.00     0.007 A 
ENDBRANCH  19  20
ENDBRANCH  18  19
ENDBRANCH  15  18
ENDBRANCH  13  14
ENDBRANCH  12  13
ENDBRANCH   2  12
BRANCH   1  26
HETATM   26  C   UNL     1      -6.312   6.521 -31.243  1.00  0.00     0.043 A 
HETATM   27  C   UNL     1      -6.415   5.685 -30.125  1.00  0.00     0.032 A 
HETATM   28  C   UNL     1      -7.324   5.979 -29.106  1.00  0.00     0.026 A 
HETATM   29  C   UNL     1      -8.150   7.101 -29.198  1.00  0.00     0.040 A 
HETATM   30  C   UNL     1      -8.072   7.952 -30.310  1.00  0.00    -0.038 A 
HETATM   31 CL   UNL     1      -9.269   7.390 -27.916  1.00  0.00    -0.084 Cl
HETATM   32  C   UNL     1      -8.956   9.162 -30.447  1.00  0.00     0.050 C 
HETATM   33  C   UNL     1      -7.145   7.651 -31.324  1.00  0.00     0.038 A 
ENDBRANCH   1  26
BRANCH   6  34
HETATM   34  N   UNL     1      -3.559   7.417 -31.389  1.00  0.00    -0.384 N 
HETATM   35  H   UNL     1      -2.818   8.074 -31.584  1.00  0.00     0.157 HD
HETATM   36  H   UNL     1      -3.944   7.400 -30.452  1.00  0.00     0.157 HD
ENDBRANCH   6  34
TORSDOF 8
ENDMDL
MODEL 10
REMARK VINA RESULT:      -7.8      3.546      7.876
REMARK  8 active torsions:
REMARK  status: ('A' for Active; 'I' for Inactive)
REMARK    1  A    between atoms: C_7  and  N_8 
REMARK    2  A    between atoms: C_9  and  S_10 
REMARK    3  A    between atoms: S_10  and  C_11 
REMARK    4  A    between atoms: C_11  and  C_12 
REMARK       I    between atoms: C_12  and  N_13 
REMARK    5  A    between atoms: N_13  and  C_14 
REMARK    6  A    between atoms: C_14  and  C_15 
REMARK    7  A    between atoms: C_15  and  C_16 
REMARK    8  A    between atoms: C_26  and  N_27 
ROOT
HETATM    1  N   UNL     1      -6.838   1.186 -32.796  1.00  0.00    -0.276 N 
HETATM    2  C   UNL     1      -5.478   1.514 -32.540  1.00  0.00     0.177 A 
HETATM    3  N   UNL     1      -4.446   0.741 -32.771  1.00  0.00    -0.204 NA
HETATM    4  C   UNL     1      -4.763  -0.456 -33.307  1.00  0.00     0.162 A 
HETATM    5  C   UNL     1      -5.992  -0.961 -33.632  1.00  0.00     0.081 A 
HETATM    6  C   UNL     1      -7.127  -0.134 -33.352  1.00  0.00     0.124 A 
HETATM    7  N   UNL     1      -3.870  -1.425 -33.657  1.00  0.00    -0.260 N 
HETATM    8  H   UNL     1      -2.860  -1.406 -33.561  1.00  0.00     0.191 HD
HETATM    9  N   UNL     1      -4.460  -2.513 -34.200  1.00  0.00    -0.177 NA
HETATM   10  C   UNL     1      -5.772  -2.227 -34.192  1.00  0.00     0.068 A 
HETATM   11  C   UNL     1      -6.733  -3.213 -34.742  1.00  0.00     0.073 C 
ENDROOT
BRANCH   2  12
HETATM   12  S   UNL     1      -5.051   3.122 -31.901  1.00  0.00    -0.082 SA
BRANCH  12  13
HETATM   13  C   UNL     1      -3.277   2.855 -31.592  1.00  0.00     0.185 C 
BRANCH  13  14
HETATM   14  C   UNL     1      -2.450   4.111 -31.791  1.00  0.00     0.227 C 
HETATM   15  N   UNL     1      -2.246   4.876 -30.662  1.00  0.00    -0.360 N 
HETATM   16  H   UNL     1      -2.684   4.570 -29.801  1.00  0.00     0.162 HD
HETATM   17  O   UNL     1      -2.082   4.457 -32.912  1.00  0.00    -0.273 OA
BRANCH  15  18
HETATM   18  C   UNL     1      -1.760   6.243 -30.747  1.00  0.00     0.127 C 
BRANCH  18  19
HETATM   19  C   UNL     1      -2.098   7.055 -29.497  1.00  0.00     0.058 C 
BRANCH  19  20
HETATM   20  C   UNL     1      -0.892   7.221 -28.607  1.00  0.00    -0.057 A 
HETATM   21  C   UNL     1      -0.882   6.676 -27.315  1.00  0.00     0.007 A 
HETATM   22  C   UNL     1       0.217   6.865 -26.476  1.00  0.00     0.001 A 
HETATM   23  C   UNL     1       1.313   7.601 -26.917  1.00  0.00     0.000 A 
HETATM   24  C   UNL     1       1.315   8.149 -28.198  1.00  0.00     0.001 A 
HETATM   25  C   UNL     1       0.217   7.961 -29.040  1.00  0.00     0.007 A 
ENDBRANCH  19  20
ENDBRANCH  18  19
ENDBRANCH  15  18
ENDBRANCH  13  14
ENDBRANCH  12  13
ENDBRANCH   2  12
BRANCH   1  26
HETATM   26  C   UNL     1      -7.899   2.105 -32.549  1.00  0.00     0.043 A 
HETATM   27  C   UNL     1      -8.543   2.155 -31.307  1.00  0.00     0.032 A 
HETATM   28  C   UNL     1      -9.636   3.004 -31.114  1.00  0.00     0.026 A 
HETATM   29  C   UNL     1     -10.107   3.799 -32.160  1.00  0.00     0.040 A 
HETATM   30  C   UNL     1      -9.485   3.763 -33.417  1.00  0.00    -0.038 A 
HETATM   31 CL   UNL     1     -11.478   4.804 -31.859  1.00  0.00    -0.084 Cl
HETATM   32  C   UNL     1      -9.975   4.597 -34.569  1.00  0.00     0.050 C 
HETATM   33  C   UNL     1      -8.379   2.913 -33.596  1.00  0.00     0.038 A 
ENDBRANCH   1  26
BRANCH   6  34
HETATM   34  N   UNL     1      -8.354  -0.575 -33.555  1.00  0.00    -0.384 N 
HETATM   35  H   UNL     1      -9.125  -0.293 -32.968  1.00  0.00     0.157 HD
HETATM   36  H   UNL     1      -8.553  -1.182 -34.341  1.00  0.00     0.157 HD
ENDBRANCH   6  34
TORSDOF 8
ENDMDL
