MODEL 1
REMARK VINA RESULT:      -9.0      0.000      0.000
REMARK  8 active torsions:
REMARK  status: ('A' for Active; 'I' for Inactive)
REMARK    1  A    between atoms: C_2  and  O_3 
REMARK    2  A    between atoms: O_3  and  C_4 
REMARK    3  A    between atoms: C_4  and  C_5 
REMARK    4  A    between atoms: C_6  and  O_7 
REMARK    5  A    between atoms: C_6  and  C_8 
REMARK    6  A    between atoms: C_16  and  C_17 
REMARK    7  A    between atoms: C_18  and  C_19 
REMARK    8  A    between atoms: N_26  and  C_27 
ROOT
HETATM    1  C   UNL     1      -4.806   2.894 -32.721  1.00  0.00     0.177 C 
HETATM    2  C   UNL     1      -3.724   3.436 -31.785  1.00  0.00     0.250 C 
HETATM    3  N   UNL     1      -4.275   4.045 -30.587  1.00  0.00    -0.303 N 
HETATM    4  C   UNL     1      -5.478   3.753 -30.045  1.00  0.00     0.319 C 
HETATM    5  O   UNL     1      -5.826   4.240 -28.977  1.00  0.00    -0.247 OA
HETATM    6  N   UNL     1      -6.280   2.923 -30.749  1.00  0.00    -0.333 N 
HETATM    7  C   UNL     1      -5.826   2.136 -31.874  1.00  0.00     0.142 C 
HETATM    8  H   UNL     1      -3.721   4.693 -30.040  1.00  0.00     0.167 HD
HETATM    9  H   UNL     1      -7.127   2.655 -30.262  1.00  0.00     0.165 HD
ENDROOT
BRANCH   7  10
HETATM   10  C   UNL     1      -7.021   1.633 -32.629  1.00  0.00     0.015 A 
HETATM   11  C   UNL     1      -7.167   0.426 -33.378  1.00  0.00     0.097 A 
HETATM   12  N   UNL     1      -8.405   0.319 -33.881  1.00  0.00    -0.167 NA
HETATM   13  N   UNL     1      -9.068   1.428 -33.486  1.00  0.00    -0.244 N 
HETATM   14  C   UNL     1      -8.265   2.233 -32.717  1.00  0.00     0.130 A 
BRANCH  11  15
HETATM   15  C   UNL     1      -6.201  -0.650 -33.603  1.00  0.00    -0.005 A 
HETATM   16  C   UNL     1      -6.452  -1.609 -34.596  1.00  0.00     0.014 A 
HETATM   17  C   UNL     1      -5.550  -2.651 -34.826  1.00  0.00     0.001 A 
HETATM   18  C   UNL     1      -4.386  -2.743 -34.068  1.00  0.00     0.000 A 
HETATM   19  C   UNL     1      -4.116  -1.788 -33.090  1.00  0.00     0.001 A 
HETATM   20  C   UNL     1      -5.015  -0.741 -32.863  1.00  0.00     0.014 A 
ENDBRANCH  11  15
BRANCH  13  21
HETATM   21  C   UNL     1     -10.424   1.642 -33.862  1.00  0.00     0.058 A 
HETATM   22  C   UNL     1     -11.398   0.700 -33.492  1.00  0.00     0.031 A 
HETATM   23  C   UNL     1     -12.734   0.891 -33.846  1.00  0.00     0.002 A 
HETATM   24  C   UNL     1     -13.109   2.018 -34.574  1.00  0.00     0.000 A 
HETATM   25  C   UNL     1     -12.148   2.956 -34.948  1.00  0.00     0.002 A 
HETATM   26  C   UNL     1     -10.808   2.772 -34.596  1.00  0.00     0.031 A 
ENDBRANCH  13  21
ENDBRANCH   7  10
BRANCH   1  27
HETATM   27  C   UNL     1      -5.434   3.997 -33.540  1.00  0.00     0.270 C 
HETATM   28  O   UNL     1      -5.461   4.043 -34.759  1.00  0.00    -0.265 OA
BRANCH  27  29
HETATM   29  O   UNL     1      -5.994   4.923 -32.712  1.00  0.00    -0.321 OA
BRANCH  29  30
HETATM   30  C   UNL     1      -7.172   5.583 -33.205  1.00  0.00     0.174 C 
HETATM   31  C   UNL     1      -8.130   5.899 -32.071  1.00  0.00     0.034 C 
ENDBRANCH  29  30
ENDBRANCH  27  29
ENDBRANCH   1  27
BRANCH   2  32
HETATM   32  O   UNL     1      -3.004   2.289 -31.282  1.00  0.00    -0.363 OA
HETATM   33  H   UNL     1      -3.432   2.057 -30.438  1.00  0.00     0.213 HD
ENDBRANCH   2  32
BRANCH   2  34
HETATM   34  C   UNL     1      -2.718   4.370 -32.541  1.00  0.00     0.439 C 
HETATM   35  F   UNL     1      -2.425   3.887 -33.770  1.00  0.00    -0.166 F 
HETATM   36  F   UNL     1      -3.168   5.631 -32.693  1.00  0.00    -0.166 F 
HETATM   37  F   UNL     1      -1.553   4.444 -31.845  1.00  0.00    -0.166 F 
ENDBRANCH   2  34
TORSDOF 8
ENDMDL
MODEL 2
REMARK VINA RESULT:      -8.9      2.022      5.542
REMARK  8 active torsions:
REMARK  status: ('A' for Active; 'I' for Inactive)
REMARK    1  A    between atoms: C_2  and  O_3 
REMARK    2  A    between atoms: O_3  and  C_4 
REMARK    3  A    between atoms: C_4  and  C_5 
REMARK    4  A    between atoms: C_6  and  O_7 
REMARK    5  A    between atoms: C_6  and  C_8 
REMARK    6  A    between atoms: C_16  and  C_17 
REMARK    7  A    between atoms: C_18  and  C_19 
REMARK    8  A    between atoms: N_26  and  C_27 
ROOT
HETATM    1  C   UNL     1      -6.542   4.124 -32.296  1.00  0.00     0.177 C 
HETATM    2  C   UNL     1      -6.134   5.595 -32.409  1.00  0.00     0.250 C 
HETATM    3  N   UNL     1      -5.086   5.810 -33.390  1.00  0.00    -0.303 N 
HETATM    4  C   UNL     1      -4.828   5.010 -34.448  1.00  0.00     0.319 C 
HETATM    5  O   UNL     1      -3.989   5.317 -35.285  1.00  0.00    -0.247 OA
HETATM    6  N   UNL     1      -5.523   3.853 -34.522  1.00  0.00    -0.333 N 
HETATM    7  C   UNL     1      -6.685   3.564 -33.710  1.00  0.00     0.142 C 
HETATM    8  H   UNL     1      -4.521   6.652 -33.360  1.00  0.00     0.167 HD
HETATM    9  H   UNL     1      -5.371   3.333 -35.378  1.00  0.00     0.165 HD
ENDROOT
BRANCH   7  10
HETATM   10  C   UNL     1      -6.971   2.093 -33.778  1.00  0.00     0.015 A 
HETATM   11  C   UNL     1      -8.223   1.415 -33.657  1.00  0.00     0.097 A 
HETATM   12  N   UNL     1      -8.070   0.093 -33.809  1.00  0.00    -0.167 NA
HETATM   13  N   UNL     1      -6.751  -0.112 -34.019  1.00  0.00    -0.244 N 
HETATM   14  C   UNL     1      -6.064   1.077 -34.021  1.00  0.00     0.130 A 
BRANCH  11  15
HETATM   15  C   UNL     1      -9.561   1.968 -33.445  1.00  0.00    -0.005 A 
HETATM   16  C   UNL     1     -10.609   1.590 -34.298  1.00  0.00     0.014 A 
HETATM   17  C   UNL     1     -11.894   2.109 -34.123  1.00  0.00     0.001 A 
HETATM   18  C   UNL     1     -12.146   3.009 -33.091  1.00  0.00     0.000 A 
HETATM   19  C   UNL     1     -11.118   3.382 -32.227  1.00  0.00     0.001 A 
HETATM   20  C   UNL     1      -9.833   2.858 -32.398  1.00  0.00     0.014 A 
ENDBRANCH  11  15
BRANCH  13  21
HETATM   21  C   UNL     1      -6.236  -1.424 -34.211  1.00  0.00     0.058 A 
HETATM   22  C   UNL     1      -4.874  -1.671 -33.974  1.00  0.00     0.031 A 
HETATM   23  C   UNL     1      -4.347  -2.951 -34.152  1.00  0.00     0.002 A 
HETATM   24  C   UNL     1      -5.173  -3.993 -34.570  1.00  0.00     0.000 A 
HETATM   25  C   UNL     1      -6.525  -3.756 -34.811  1.00  0.00     0.002 A 
HETATM   26  C   UNL     1      -7.060  -2.477 -34.633  1.00  0.00     0.031 A 
ENDBRANCH  13  21
ENDBRANCH   7  10
BRANCH   1  27
HETATM   27  C   UNL     1      -5.560   3.340 -31.457  1.00  0.00     0.270 C 
HETATM   28  O   UNL     1      -4.358   3.271 -31.657  1.00  0.00    -0.265 OA
BRANCH  27  29
HETATM   29  O   UNL     1      -6.214   2.741 -30.423  1.00  0.00    -0.321 OA
BRANCH  29  30
HETATM   30  C   UNL     1      -5.683   1.480 -29.983  1.00  0.00     0.174 C 
HETATM   31  C   UNL     1      -6.562   0.332 -30.445  1.00  0.00     0.034 C 
ENDBRANCH  29  30
ENDBRANCH  27  29
ENDBRANCH   1  27
BRANCH   2  32
HETATM   32  O   UNL     1      -7.270   6.292 -32.968  1.00  0.00    -0.363 OA
HETATM   33  H   UNL     1      -6.904   7.075 -33.418  1.00  0.00     0.213 HD
ENDBRANCH   2  32
BRANCH   2  34
HETATM   34  C   UNL     1      -5.803   6.214 -31.009  1.00  0.00     0.439 C 
HETATM   35  F   UNL     1      -6.630   5.737 -30.050  1.00  0.00    -0.166 F 
HETATM   36  F   UNL     1      -4.537   5.984 -30.608  1.00  0.00    -0.166 F 
HETATM   37  F   UNL     1      -5.967   7.561 -31.055  1.00  0.00    -0.166 F 
ENDBRANCH   2  34
TORSDOF 8
ENDMDL
MODEL 3
REMARK VINA RESULT:      -8.5      2.197      5.792
REMARK  8 active torsions:
REMARK  status: ('A' for Active; 'I' for Inactive)
REMARK    1  A    between atoms: C_2  and  O_3 
REMARK    2  A    between atoms: O_3  and  C_4 
REMARK    3  A    between atoms: C_4  and  C_5 
REMARK    4  A    between atoms: C_6  and  O_7 
REMARK    5  A    between atoms: C_6  and  C_8 
REMARK    6  A    between atoms: C_16  and  C_17 
REMARK    7  A    between atoms: C_18  and  C_19 
REMARK    8  A    between atoms: N_26  and  C_27 
ROOT
HETATM    1  C   UNL     1      -7.687   4.163 -32.485  1.00  0.00     0.177 C 
HETATM    2  C   UNL     1      -7.396   5.665 -32.494  1.00  0.00     0.250 C 
HETATM    3  N   UNL     1      -6.092   5.979 -33.053  1.00  0.00    -0.303 N 
HETATM    4  C   UNL     1      -5.411   5.207 -33.929  1.00  0.00     0.319 C 
HETATM    5  O   UNL     1      -4.362   5.592 -34.428  1.00  0.00    -0.247 OA
HETATM    6  N   UNL     1      -5.932   3.991 -34.205  1.00  0.00    -0.333 N 
HETATM    7  C   UNL     1      -7.275   3.594 -33.842  1.00  0.00     0.142 C 
HETATM    8  H   UNL     1      -5.650   6.869 -32.854  1.00  0.00     0.167 HD
HETATM    9  H   UNL     1      -5.445   3.488 -34.937  1.00  0.00     0.165 HD
ENDROOT
BRANCH   7  10
HETATM   10  C   UNL     1      -7.390   2.103 -33.960  1.00  0.00     0.015 A 
HETATM   11  C   UNL     1      -8.565   1.300 -34.076  1.00  0.00     0.097 A 
HETATM   12  N   UNL     1      -8.251   0.003 -34.193  1.00  0.00    -0.167 NA
HETATM   13  N   UNL     1      -6.902  -0.063 -34.150  1.00  0.00    -0.244 N 
HETATM   14  C   UNL     1      -6.353   1.189 -34.024  1.00  0.00     0.130 A 
BRANCH  11  15
HETATM   15  C   UNL     1      -9.970   1.710 -34.123  1.00  0.00    -0.005 A 
HETATM   16  C   UNL     1     -10.317   2.919 -34.743  1.00  0.00     0.014 A 
HETATM   17  C   UNL     1     -11.649   3.338 -34.795  1.00  0.00     0.001 A 
HETATM   18  C   UNL     1     -12.648   2.550 -34.229  1.00  0.00     0.000 A 
HETATM   19  C   UNL     1     -12.319   1.338 -33.624  1.00  0.00     0.001 A 
HETATM   20  C   UNL     1     -10.987   0.915 -33.577  1.00  0.00     0.014 A 
ENDBRANCH  11  15
BRANCH  13  21
HETATM   21  C   UNL     1      -6.227  -1.313 -34.238  1.00  0.00     0.058 A 
HETATM   22  C   UNL     1      -4.909  -1.419 -33.764  1.00  0.00     0.031 A 
HETATM   23  C   UNL     1      -4.229  -2.635 -33.837  1.00  0.00     0.002 A 
HETATM   24  C   UNL     1      -4.855  -3.753 -34.384  1.00  0.00     0.000 A 
HETATM   25  C   UNL     1      -6.162  -3.656 -34.860  1.00  0.00     0.002 A 
HETATM   26  C   UNL     1      -6.850  -2.441 -34.789  1.00  0.00     0.031 A 
ENDBRANCH  13  21
ENDBRANCH   7  10
BRANCH   1  27
HETATM   27  C   UNL     1      -6.998   3.472 -31.332  1.00  0.00     0.270 C 
HETATM   28  O   UNL     1      -7.557   2.820 -30.465  1.00  0.00    -0.265 OA
BRANCH  27  29
HETATM   29  O   UNL     1      -5.651   3.663 -31.418  1.00  0.00    -0.321 OA
BRANCH  29  30
HETATM   30  C   UNL     1      -4.828   2.609 -30.891  1.00  0.00     0.174 C 
HETATM   31  C   UNL     1      -3.605   2.391 -31.763  1.00  0.00     0.034 C 
ENDBRANCH  29  30
ENDBRANCH  27  29
ENDBRANCH   1  27
BRANCH   2  32
HETATM   32  O   UNL     1      -8.319   6.255 -33.436  1.00  0.00    -0.363 OA
HETATM   33  H   UNL     1      -8.365   7.201 -33.205  1.00  0.00     0.213 HD
ENDBRANCH   2  32
BRANCH   2  34
HETATM   34  C   UNL     1      -7.632   6.310 -31.086  1.00  0.00     0.439 C 
HETATM   35  F   UNL     1      -6.542   6.181 -30.295  1.00  0.00    -0.166 F 
HETATM   36  F   UNL     1      -7.943   7.620 -31.143  1.00  0.00    -0.166 F 
HETATM   37  F   UNL     1      -8.664   5.683 -30.464  1.00  0.00    -0.166 F 
ENDBRANCH   2  34
TORSDOF 8
ENDMDL
MODEL 4
REMARK VINA RESULT:      -8.2      3.299      6.861
REMARK  8 active torsions:
REMARK  status: ('A' for Active; 'I' for Inactive)
REMARK    1  A    between atoms: C_2  and  O_3 
REMARK    2  A    between atoms: O_3  and  C_4 
REMARK    3  A    between atoms: C_4  and  C_5 
REMARK    4  A    between atoms: C_6  and  O_7 
REMARK    5  A    between atoms: C_6  and  C_8 
REMARK    6  A    between atoms: C_16  and  C_17 
REMARK    7  A    between atoms: C_18  and  C_19 
REMARK    8  A    between atoms: N_26  and  C_27 
ROOT
HETATM    1  C   UNL     1      -7.078   2.250 -32.304  1.00  0.00     0.177 C 
HETATM    2  C   UNL     1      -8.432   2.193 -33.013  1.00  0.00     0.250 C 
HETATM    3  N   UNL     1      -8.829   3.477 -33.563  1.00  0.00    -0.303 N 
HETATM    4  C   UNL     1      -7.984   4.473 -33.912  1.00  0.00     0.319 C 
HETATM    5  O   UNL     1      -8.394   5.487 -34.461  1.00  0.00    -0.247 OA
HETATM    6  N   UNL     1      -6.679   4.302 -33.604  1.00  0.00    -0.333 N 
HETATM    7  C   UNL     1      -6.114   3.037 -33.188  1.00  0.00     0.142 C 
HETATM    8  H   UNL     1      -9.801   3.661 -33.787  1.00  0.00     0.167 HD
HETATM    9  H   UNL     1      -6.070   5.025 -33.969  1.00  0.00     0.165 HD
ENDROOT
BRANCH   7  10
HETATM   10  C   UNL     1      -4.764   3.285 -32.583  1.00  0.00     0.015 A 
HETATM   11  C   UNL     1      -3.755   2.340 -32.221  1.00  0.00     0.097 A 
HETATM   12  N   UNL     1      -2.669   2.958 -31.737  1.00  0.00    -0.167 NA
HETATM   13  N   UNL     1      -2.944   4.280 -31.767  1.00  0.00    -0.244 N 
HETATM   14  C   UNL     1      -4.194   4.511 -32.286  1.00  0.00     0.130 A 
BRANCH  11  15
HETATM   15  C   UNL     1      -3.759   0.882 -32.351  1.00  0.00    -0.005 A 
HETATM   16  C   UNL     1      -3.032   0.104 -31.437  1.00  0.00     0.014 A 
HETATM   17  C   UNL     1      -3.012  -1.289 -31.544  1.00  0.00     0.001 A 
HETATM   18  C   UNL     1      -3.722  -1.918 -32.563  1.00  0.00     0.000 A 
HETATM   19  C   UNL     1      -4.460  -1.158 -33.468  1.00  0.00     0.001 A 
HETATM   20  C   UNL     1      -4.486   0.235 -33.359  1.00  0.00     0.014 A 
ENDBRANCH  11  15
BRANCH  13  21
HETATM   21  C   UNL     1      -1.995   5.235 -31.307  1.00  0.00     0.058 A 
HETATM   22  C   UNL     1      -0.639   5.072 -31.635  1.00  0.00     0.031 A 
HETATM   23  C   UNL     1       0.310   5.998 -31.198  1.00  0.00     0.002 A 
HETATM   24  C   UNL     1      -0.085   7.091 -30.429  1.00  0.00     0.000 A 
HETATM   25  C   UNL     1      -1.429   7.259 -30.096  1.00  0.00     0.002 A 
HETATM   26  C   UNL     1      -2.384   6.336 -30.531  1.00  0.00     0.031 A 
ENDBRANCH  13  21
ENDBRANCH   7  10
BRANCH   1  27
HETATM   27  C   UNL     1      -7.203   2.834 -30.916  1.00  0.00     0.270 C 
HETATM   28  O   UNL     1      -6.897   2.264 -29.881  1.00  0.00    -0.265 OA
BRANCH  27  29
HETATM   29  O   UNL     1      -7.685   4.106 -30.993  1.00  0.00    -0.321 OA
BRANCH  29  30
HETATM   30  C   UNL     1      -7.156   5.042 -30.039  1.00  0.00     0.174 C 
HETATM   31  C   UNL     1      -6.998   6.417 -30.660  1.00  0.00     0.034 C 
ENDBRANCH  29  30
ENDBRANCH  27  29
ENDBRANCH   1  27
BRANCH   2  32
HETATM   32  O   UNL     1      -8.247   1.366 -34.183  1.00  0.00    -0.363 OA
HETATM   33  H   UNL     1      -8.373   1.957 -34.948  1.00  0.00     0.213 HD
ENDBRANCH   2  32
BRANCH   2  34
HETATM   34  C   UNL     1      -9.535   1.545 -32.108  1.00  0.00     0.439 C 
HETATM   35  F   UNL     1      -9.036   0.519 -31.381  1.00  0.00    -0.166 F 
HETATM   36  F   UNL     1     -10.104   2.415 -31.251  1.00  0.00    -0.166 F 
HETATM   37  F   UNL     1     -10.530   1.046 -32.887  1.00  0.00    -0.166 F 
ENDBRANCH   2  34
TORSDOF 8
ENDMDL
MODEL 5
REMARK VINA RESULT:      -8.2      3.833      6.819
REMARK  8 active torsions:
REMARK  status: ('A' for Active; 'I' for Inactive)
REMARK    1  A    between atoms: C_2  and  O_3 
REMARK    2  A    between atoms: O_3  and  C_4 
REMARK    3  A    between atoms: C_4  and  C_5 
REMARK    4  A    between atoms: C_6  and  O_7 
REMARK    5  A    between atoms: C_6  and  C_8 
REMARK    6  A    between atoms: C_16  and  C_17 
REMARK    7  A    between atoms: C_18  and  C_19 
REMARK    8  A    between atoms: N_26  and  C_27 
ROOT
HETATM    1  C   UNL     1      -9.012   4.066 -32.247  1.00  0.00     0.177 C 
HETATM    2  C   UNL     1     -10.518   4.310 -32.367  1.00  0.00     0.250 C 
HETATM    3  N   UNL     1     -10.830   5.524 -33.099  1.00  0.00    -0.303 N 
HETATM    4  C   UNL     1     -10.029   6.113 -34.015  1.00  0.00     0.319 C 
HETATM    5  O   UNL     1     -10.410   7.081 -34.661  1.00  0.00    -0.247 OA
HETATM    6  N   UNL     1      -8.789   5.597 -34.163  1.00  0.00    -0.333 N 
HETATM    7  C   UNL     1      -8.382   4.321 -33.615  1.00  0.00     0.142 C 
HETATM    8  H   UNL     1     -11.740   5.962 -33.002  1.00  0.00     0.167 HD
HETATM    9  H   UNL     1      -8.259   6.004 -34.925  1.00  0.00     0.165 HD
ENDROOT
BRANCH   7  10
HETATM   10  C   UNL     1      -6.884   4.236 -33.644  1.00  0.00     0.015 A 
HETATM   11  C   UNL     1      -6.053   3.077 -33.716  1.00  0.00     0.097 A 
HETATM   12  N   UNL     1      -4.757   3.417 -33.754  1.00  0.00    -0.167 NA
HETATM   13  N   UNL     1      -4.721   4.766 -33.701  1.00  0.00    -0.244 N 
HETATM   14  C   UNL     1      -5.988   5.291 -33.649  1.00  0.00     0.130 A 
BRANCH  11  15
HETATM   15  C   UNL     1      -6.432   1.665 -33.793  1.00  0.00    -0.005 A 
HETATM   16  C   UNL     1      -7.000   1.165 -34.974  1.00  0.00     0.014 A 
HETATM   17  C   UNL     1      -7.378  -0.176 -35.071  1.00  0.00     0.001 A 
HETATM   18  C   UNL     1      -7.189  -1.033 -33.989  1.00  0.00     0.000 A 
HETATM   19  C   UNL     1      -6.611  -0.552 -32.816  1.00  0.00     0.001 A 
HETATM   20  C   UNL     1      -6.227   0.789 -32.719  1.00  0.00     0.014 A 
ENDBRANCH  11  15
BRANCH  13  21
HETATM   21  C   UNL     1      -3.481   5.465 -33.712  1.00  0.00     0.058 A 
HETATM   22  C   UNL     1      -3.290   6.542 -32.830  1.00  0.00     0.031 A 
HETATM   23  C   UNL     1      -2.082   7.240 -32.819  1.00  0.00     0.002 A 
HETATM   24  C   UNL     1      -1.057   6.873 -33.689  1.00  0.00     0.000 A 
HETATM   25  C   UNL     1      -1.239   5.808 -34.570  1.00  0.00     0.002 A 
HETATM   26  C   UNL     1      -2.446   5.103 -34.585  1.00  0.00     0.031 A 
ENDBRANCH  13  21
ENDBRANCH   7  10
BRANCH   1  27
HETATM   27  C   UNL     1      -8.398   4.913 -31.157  1.00  0.00     0.270 C 
HETATM   28  O   UNL     1      -8.457   6.129 -31.091  1.00  0.00    -0.265 OA
BRANCH  27  29
HETATM   29  O   UNL     1      -7.790   4.111 -30.238  1.00  0.00    -0.321 OA
BRANCH  29  30
HETATM   30  C   UNL     1      -6.471   4.507 -29.827  1.00  0.00     0.174 C 
HETATM   31  C   UNL     1      -5.459   3.417 -30.133  1.00  0.00     0.034 C 
ENDBRANCH  29  30
ENDBRANCH  27  29
ENDBRANCH   1  27
BRANCH   2  32
HETATM   32  O   UNL     1     -11.036   3.260 -33.213  1.00  0.00    -0.363 OA
HETATM   33  H   UNL     1     -10.256   2.813 -33.588  1.00  0.00     0.213 HD
ENDBRANCH   2  32
BRANCH   2  34
HETATM   34  C   UNL     1     -11.231   4.232 -30.974  1.00  0.00     0.439 C 
HETATM   35  F   UNL     1     -12.511   3.815 -31.097  1.00  0.00    -0.166 F 
HETATM   36  F   UNL     1     -10.614   3.410 -30.102  1.00  0.00    -0.166 F 
HETATM   37  F   UNL     1     -11.258   5.466 -30.405  1.00  0.00    -0.166 F 
ENDBRANCH   2  34
TORSDOF 8
ENDMDL
MODEL 6
REMARK VINA RESULT:      -8.2      3.943      6.893
REMARK  8 active torsions:
REMARK  status: ('A' for Active; 'I' for Inactive)
REMARK    1  A    between atoms: C_2  and  O_3 
REMARK    2  A    between atoms: O_3  and  C_4 
REMARK    3  A    between atoms: C_4  and  C_5 
REMARK    4  A    between atoms: C_6  and  O_7 
REMARK    5  A    between atoms: C_6  and  C_8 
REMARK    6  A    between atoms: C_16  and  C_17 
REMARK    7  A    between atoms: C_18  and  C_19 
REMARK    8  A    between atoms: N_26  and  C_27 
ROOT
HETATM    1  C   UNL     1     -10.079   1.460 -34.147  1.00  0.00     0.177 C 
HETATM    2  C   UNL     1     -11.099   2.582 -34.352  1.00  0.00     0.250 C 
HETATM    3  N   UNL     1     -10.585   3.882 -33.959  1.00  0.00    -0.303 N 
HETATM    4  C   UNL     1      -9.279   4.227 -33.919  1.00  0.00     0.319 C 
HETATM    5  O   UNL     1      -8.934   5.376 -33.672  1.00  0.00    -0.247 OA
HETATM    6  N   UNL     1      -8.380   3.242 -34.141  1.00  0.00    -0.333 N 
HETATM    7  C   UNL     1      -8.731   1.944 -34.675  1.00  0.00     0.142 C 
HETATM    8  H   UNL     1     -11.221   4.646 -33.759  1.00  0.00     0.167 HD
HETATM    9  H   UNL     1      -7.421   3.563 -34.199  1.00  0.00     0.165 HD
ENDROOT
BRANCH   7  10
HETATM   10  C   UNL     1      -7.588   1.000 -34.445  1.00  0.00     0.015 A 
HETATM   11  C   UNL     1      -6.290   1.275 -33.916  1.00  0.00     0.097 A 
HETATM   12  N   UNL     1      -5.558   0.155 -33.834  1.00  0.00    -0.167 NA
HETATM   13  N   UNL     1      -6.342  -0.841 -34.301  1.00  0.00    -0.244 N 
HETATM   14  C   UNL     1      -7.577  -0.366 -34.664  1.00  0.00     0.130 A 
BRANCH  11  15
HETATM   15  C   UNL     1      -5.726   2.541 -33.448  1.00  0.00    -0.005 A 
HETATM   16  C   UNL     1      -5.339   2.672 -32.105  1.00  0.00     0.014 A 
HETATM   17  C   UNL     1      -4.806   3.873 -31.630  1.00  0.00     0.001 A 
HETATM   18  C   UNL     1      -4.652   4.955 -32.493  1.00  0.00     0.000 A 
HETATM   19  C   UNL     1      -5.018   4.834 -33.832  1.00  0.00     0.001 A 
HETATM   20  C   UNL     1      -5.546   3.631 -34.310  1.00  0.00     0.014 A 
ENDBRANCH  11  15
BRANCH  13  21
HETATM   21  C   UNL     1      -5.863  -2.180 -34.364  1.00  0.00     0.058 A 
HETATM   22  C   UNL     1      -6.733  -3.204 -34.773  1.00  0.00     0.031 A 
HETATM   23  C   UNL     1      -6.285  -4.524 -34.845  1.00  0.00     0.002 A 
HETATM   24  C   UNL     1      -4.968  -4.833 -34.508  1.00  0.00     0.000 A 
HETATM   25  C   UNL     1      -4.099  -3.823 -34.098  1.00  0.00     0.002 A 
HETATM   26  C   UNL     1      -4.541  -2.499 -34.024  1.00  0.00     0.031 A 
ENDBRANCH  13  21
ENDBRANCH   7  10
BRANCH   1  27
HETATM   27  C   UNL     1     -10.016   1.026 -32.701  1.00  0.00     0.270 C 
HETATM   28  O   UNL     1     -10.114  -0.123 -32.305  1.00  0.00    -0.265 OA
BRANCH  27  29
HETATM   29  O   UNL     1      -9.803   2.111 -31.904  1.00  0.00    -0.321 OA
BRANCH  29  30
HETATM   30  C   UNL     1      -8.745   1.990 -30.940  1.00  0.00     0.174 C 
HETATM   31  C   UNL     1      -8.466   3.324 -30.272  1.00  0.00     0.034 C 
ENDBRANCH  29  30
ENDBRANCH  27  29
ENDBRANCH   1  27
BRANCH   2  32
HETATM   32  O   UNL     1     -11.287   2.709 -35.779  1.00  0.00    -0.363 OA
HETATM   33  H   UNL     1     -12.214   2.459 -35.947  1.00  0.00     0.213 HD
ENDBRANCH   2  32
BRANCH   2  34
HETATM   34  C   UNL     1     -12.478   2.242 -33.691  1.00  0.00     0.439 C 
HETATM   35  F   UNL     1     -13.509   2.705 -34.434  1.00  0.00    -0.166 F 
HETATM   36  F   UNL     1     -12.670   0.921 -33.503  1.00  0.00    -0.166 F 
HETATM   37  F   UNL     1     -12.558   2.833 -32.471  1.00  0.00    -0.166 F 
ENDBRANCH   2  34
TORSDOF 8
ENDMDL
MODEL 7
REMARK VINA RESULT:      -8.1      3.337      7.582
REMARK  8 active torsions:
REMARK  status: ('A' for Active; 'I' for Inactive)
REMARK    1  A    between atoms: C_2  and  O_3 
REMARK    2  A    between atoms: O_3  and  C_4 
REMARK    3  A    between atoms: C_4  and  C_5 
REMARK    4  A    between atoms: C_6  and  O_7 
REMARK    5  A    between atoms: C_6  and  C_8 
REMARK    6  A    between atoms: C_16  and  C_17 
REMARK    7  A    between atoms: C_18  and  C_19 
REMARK    8  A    between atoms: N_26  and  C_27 
ROOT
HETATM    1  C   UNL     1      -7.553   2.212 -32.333  1.00  0.00     0.177 C 
HETATM    2  C   UNL     1      -8.309   1.031 -31.722  1.00  0.00     0.250 C 
HETATM    3  N   UNL     1      -7.514   0.303 -30.748  1.00  0.00    -0.303 N 
HETATM    4  C   UNL     1      -6.483   0.815 -30.041  1.00  0.00     0.319 C 
HETATM    5  O   UNL     1      -5.928   0.162 -29.166  1.00  0.00    -0.247 OA
HETATM    6  N   UNL     1      -6.083   2.066 -30.362  1.00  0.00    -0.333 N 
HETATM    7  C   UNL     1      -6.851   2.960 -31.201  1.00  0.00     0.142 C 
HETATM    8  H   UNL     1      -7.760  -0.647 -30.492  1.00  0.00     0.167 HD
HETATM    9  H   UNL     1      -5.375   2.446 -29.745  1.00  0.00     0.165 HD
ENDROOT
BRANCH   7  10
HETATM   10  C   UNL     1      -5.966   4.088 -31.645  1.00  0.00     0.015 A 
HETATM   11  C   UNL     1      -6.321   5.290 -32.331  1.00  0.00     0.097 A 
HETATM   12  N   UNL     1      -5.247   6.067 -32.523  1.00  0.00    -0.167 NA
HETATM   13  N   UNL     1      -4.200   5.403 -31.987  1.00  0.00    -0.244 N 
HETATM   14  C   UNL     1      -4.604   4.212 -31.437  1.00  0.00     0.130 A 
BRANCH  11  15
HETATM   15  C   UNL     1      -7.636   5.752 -32.775  1.00  0.00    -0.005 A 
HETATM   16  C   UNL     1      -8.211   5.199 -33.929  1.00  0.00     0.014 A 
HETATM   17  C   UNL     1      -9.462   5.628 -34.379  1.00  0.00     0.001 A 
HETATM   18  C   UNL     1     -10.153   6.613 -33.678  1.00  0.00     0.000 A 
HETATM   19  C   UNL     1      -9.601   7.160 -32.522  1.00  0.00     0.001 A 
HETATM   20  C   UNL     1      -8.351   6.727 -32.067  1.00  0.00     0.014 A 
ENDBRANCH  11  15
BRANCH  13  21
HETATM   21  C   UNL     1      -2.887   5.950 -32.029  1.00  0.00     0.058 A 
HETATM   22  C   UNL     1      -1.788   5.127 -31.730  1.00  0.00     0.031 A 
HETATM   23  C   UNL     1      -0.491   5.641 -31.769  1.00  0.00     0.002 A 
HETATM   24  C   UNL     1      -0.280   6.978 -32.102  1.00  0.00     0.000 A 
HETATM   25  C   UNL     1      -1.365   7.802 -32.397  1.00  0.00     0.002 A 
HETATM   26  C   UNL     1      -2.666   7.294 -32.362  1.00  0.00     0.031 A 
ENDBRANCH  13  21
ENDBRANCH   7  10
BRANCH   1  27
HETATM   27  C   UNL     1      -6.597   1.761 -33.412  1.00  0.00     0.270 C 
HETATM   28  O   UNL     1      -6.675   2.058 -34.593  1.00  0.00    -0.265 OA
BRANCH  27  29
HETATM   29  O   UNL     1      -5.615   0.991 -32.865  1.00  0.00    -0.321 OA
BRANCH  29  30
HETATM   30  C   UNL     1      -5.181  -0.133 -33.648  1.00  0.00     0.174 C 
HETATM   31  C   UNL     1      -4.733  -1.274 -32.754  1.00  0.00     0.034 C 
ENDBRANCH  29  30
ENDBRANCH  27  29
ENDBRANCH   1  27
BRANCH   2  32
HETATM   32  O   UNL     1      -9.380   1.594 -30.933  1.00  0.00    -0.363 OA
HETATM   33  H   UNL     1      -9.262   2.560 -30.977  1.00  0.00     0.213 HD
ENDBRANCH   2  32
BRANCH   2  34
HETATM   34  C   UNL     1      -8.928   0.106 -32.824  1.00  0.00     0.439 C 
HETATM   35  F   UNL     1      -9.284   0.814 -33.919  1.00  0.00    -0.166 F 
HETATM   36  F   UNL     1      -8.099  -0.878 -33.225  1.00  0.00    -0.166 F 
HETATM   37  F   UNL     1     -10.049  -0.491 -32.342  1.00  0.00    -0.166 F 
ENDBRANCH   2  34
TORSDOF 8
ENDMDL
MODEL 8
REMARK VINA RESULT:      -8.1      2.299      5.565
REMARK  8 active torsions:
REMARK  status: ('A' for Active; 'I' for Inactive)
REMARK    1  A    between atoms: C_2  and  O_3 
REMARK    2  A    between atoms: O_3  and  C_4 
REMARK    3  A    between atoms: C_4  and  C_5 
REMARK    4  A    between atoms: C_6  and  O_7 
REMARK    5  A    between atoms: C_6  and  C_8 
REMARK    6  A    between atoms: C_16  and  C_17 
REMARK    7  A    between atoms: C_18  and  C_19 
REMARK    8  A    between atoms: N_26  and  C_27 
ROOT
HETATM    1  C   UNL     1      -7.473   3.455 -31.218  1.00  0.00     0.177 C 
HETATM    2  C   UNL     1      -7.934   4.507 -30.207  1.00  0.00     0.250 C 
HETATM    3  N   UNL     1      -9.375   4.679 -30.198  1.00  0.00    -0.303 N 
HETATM    4  C   UNL     1     -10.276   3.747 -30.582  1.00  0.00     0.319 C 
HETATM    5  O   UNL     1     -11.479   3.936 -30.450  1.00  0.00    -0.247 OA
HETATM    6  N   UNL     1      -9.786   2.616 -31.137  1.00  0.00    -0.333 N 
HETATM    7  C   UNL     1      -8.390   2.241 -31.089  1.00  0.00     0.142 C 
HETATM    8  H   UNL     1      -9.789   5.521 -29.814  1.00  0.00     0.167 HD
HETATM    9  H   UNL     1     -10.487   1.908 -31.319  1.00  0.00     0.165 HD
ENDROOT
BRANCH   7  10
HETATM   10  C   UNL     1      -8.144   1.156 -32.095  1.00  0.00     0.015 A 
HETATM   11  C   UNL     1      -8.952   0.762 -33.205  1.00  0.00     0.097 A 
HETATM   12  N   UNL     1      -8.373  -0.232 -33.892  1.00  0.00    -0.167 NA
HETATM   13  N   UNL     1      -7.212  -0.502 -33.256  1.00  0.00    -0.244 N 
HETATM   14  C   UNL     1      -7.038   0.328 -32.177  1.00  0.00     0.130 A 
BRANCH  11  15
HETATM   15  C   UNL     1     -10.227   1.312 -33.668  1.00  0.00    -0.005 A 
HETATM   16  C   UNL     1     -11.424   0.662 -33.332  1.00  0.00     0.014 A 
HETATM   17  C   UNL     1     -12.653   1.162 -33.767  1.00  0.00     0.001 A 
HETATM   18  C   UNL     1     -12.700   2.319 -34.541  1.00  0.00     0.000 A 
HETATM   19  C   UNL     1     -11.519   2.983 -34.869  1.00  0.00     0.001 A 
HETATM   20  C   UNL     1     -10.288   2.487 -34.429  1.00  0.00     0.014 A 
ENDBRANCH  11  15
BRANCH  13  21
HETATM   21  C   UNL     1      -6.343  -1.528 -33.723  1.00  0.00     0.058 A 
HETATM   22  C   UNL     1      -6.863  -2.558 -34.526  1.00  0.00     0.031 A 
HETATM   23  C   UNL     1      -6.029  -3.572 -34.998  1.00  0.00     0.002 A 
HETATM   24  C   UNL     1      -4.674  -3.570 -34.673  1.00  0.00     0.000 A 
HETATM   25  C   UNL     1      -4.151  -2.554 -33.874  1.00  0.00     0.002 A 
HETATM   26  C   UNL     1      -4.980  -1.534 -33.398  1.00  0.00     0.031 A 
ENDBRANCH  13  21
ENDBRANCH   7  10
BRANCH   1  27
HETATM   27  C   UNL     1      -7.441   4.013 -32.622  1.00  0.00     0.270 C 
HETATM   28  O   UNL     1      -8.404   4.454 -33.227  1.00  0.00    -0.265 OA
BRANCH  27  29
HETATM   29  O   UNL     1      -6.166   3.977 -33.103  1.00  0.00    -0.321 OA
BRANCH  29  30
HETATM   30  C   UNL     1      -5.721   5.149 -33.805  1.00  0.00     0.174 C 
HETATM   31  C   UNL     1      -4.518   4.835 -34.674  1.00  0.00     0.034 C 
ENDBRANCH  29  30
ENDBRANCH  27  29
ENDBRANCH   1  27
BRANCH   2  32
HETATM   32  O   UNL     1      -7.648   3.968 -28.897  1.00  0.00    -0.363 OA
HETATM   33  H   UNL     1      -6.961   3.290 -29.034  1.00  0.00     0.213 HD
ENDBRANCH   2  32
BRANCH   2  34
HETATM   34  C   UNL     1      -7.155   5.856 -30.376  1.00  0.00     0.439 C 
HETATM   35  F   UNL     1      -5.834   5.642 -30.570  1.00  0.00    -0.166 F 
HETATM   36  F   UNL     1      -7.603   6.606 -31.402  1.00  0.00    -0.166 F 
HETATM   37  F   UNL     1      -7.287   6.604 -29.250  1.00  0.00    -0.166 F 
ENDBRANCH   2  34
TORSDOF 8
ENDMDL
MODEL 9
REMARK VINA RESULT:      -8.1      3.767      6.904
REMARK  8 active torsions:
REMARK  status: ('A' for Active; 'I' for Inactive)
REMARK    1  A    between atoms: C_2  and  O_3 
REMARK    2  A    between atoms: O_3  and  C_4 
REMARK    3  A    between atoms: C_4  and  C_5 
REMARK    4  A    between atoms: C_6  and  O_7 
REMARK    5  A    between atoms: C_6  and  C_8 
REMARK    6  A    between atoms: C_16  and  C_17 
REMARK    7  A    between atoms: C_18  and  C_19 
REMARK    8  A    between atoms: N_26  and  C_27 
ROOT
HETATM    1  C   UNL     1      -9.157   3.405 -33.322  1.00  0.00     0.177 C 
HETATM    2  C   UNL     1     -10.581   3.698 -33.800  1.00  0.00     0.250 C 
HETATM    3  N   UNL     1     -10.801   5.109 -34.067  1.00  0.00    -0.303 N 
HETATM    4  C   UNL     1      -9.839   6.003 -34.387  1.00  0.00     0.319 C 
HETATM    5  O   UNL     1     -10.122   7.154 -34.694  1.00  0.00    -0.247 OA
HETATM    6  N   UNL     1      -8.560   5.571 -34.328  1.00  0.00    -0.333 N 
HETATM    7  C   UNL     1      -8.190   4.177 -34.216  1.00  0.00     0.142 C 
HETATM    8  H   UNL     1     -11.742   5.485 -34.097  1.00  0.00     0.167 HD
HETATM    9  H   UNL     1      -7.881   6.241 -34.669  1.00  0.00     0.165 HD
ENDROOT
BRANCH   7  10
HETATM   10  C   UNL     1      -6.749   4.089 -33.809  1.00  0.00     0.015 A 
HETATM   11  C   UNL     1      -5.940   2.926 -33.618  1.00  0.00     0.097 A 
HETATM   12  N   UNL     1      -4.687   3.264 -33.284  1.00  0.00    -0.167 NA
HETATM   13  N   UNL     1      -4.657   4.613 -33.246  1.00  0.00    -0.244 N 
HETATM   14  C   UNL     1      -5.882   5.141 -33.572  1.00  0.00     0.130 A 
BRANCH  11  15
HETATM   15  C   UNL     1      -6.290   1.514 -33.778  1.00  0.00    -0.005 A 
HETATM   16  C   UNL     1      -6.856   1.074 -34.984  1.00  0.00     0.014 A 
HETATM   17  C   UNL     1      -7.207  -0.266 -35.159  1.00  0.00     0.001 A 
HETATM   18  C   UNL     1      -6.993  -1.182 -34.132  1.00  0.00     0.000 A 
HETATM   19  C   UNL     1      -6.417  -0.761 -32.935  1.00  0.00     0.001 A 
HETATM   20  C   UNL     1      -6.060   0.580 -32.760  1.00  0.00     0.014 A 
ENDBRANCH  11  15
BRANCH  13  21
HETATM   21  C   UNL     1      -3.463   5.310 -32.908  1.00  0.00     0.058 A 
HETATM   22  C   UNL     1      -2.261   4.594 -32.780  1.00  0.00     0.031 A 
HETATM   23  C   UNL     1      -1.077   5.257 -32.454  1.00  0.00     0.002 A 
HETATM   24  C   UNL     1      -1.082   6.635 -32.249  1.00  0.00     0.000 A 
HETATM   25  C   UNL     1      -2.271   7.352 -32.371  1.00  0.00     0.002 A 
HETATM   26  C   UNL     1      -3.461   6.696 -32.699  1.00  0.00     0.031 A 
ENDBRANCH  13  21
ENDBRANCH   7  10
BRANCH   1  27
HETATM   27  C   UNL     1      -8.985   3.734 -31.858  1.00  0.00     0.270 C 
HETATM   28  O   UNL     1      -9.258   4.805 -31.340  1.00  0.00    -0.265 OA
BRANCH  27  29
HETATM   29  O   UNL     1      -8.506   2.646 -31.193  1.00  0.00    -0.321 OA
BRANCH  29  30
HETATM   30  C   UNL     1      -7.889   2.902 -29.920  1.00  0.00     0.174 C 
HETATM   31  C   UNL     1      -6.394   3.112 -30.076  1.00  0.00     0.034 C 
ENDBRANCH  29  30
ENDBRANCH  27  29
ENDBRANCH   1  27
BRANCH   2  32
HETATM   32  O   UNL     1     -10.711   3.083 -35.101  1.00  0.00    -0.363 OA
HETATM   33  H   UNL     1      -9.840   3.180 -35.528  1.00  0.00     0.213 HD
ENDBRANCH   2  32
BRANCH   2  34
HETATM   34  C   UNL     1     -11.654   3.080 -32.841  1.00  0.00     0.439 C 
HETATM   35  F   UNL     1     -11.268   1.866 -32.386  1.00  0.00    -0.166 F 
HETATM   36  F   UNL     1     -11.923   3.852 -31.770  1.00  0.00    -0.166 F 
HETATM   37  F   UNL     1     -12.823   2.910 -33.513  1.00  0.00    -0.166 F 
ENDBRANCH   2  34
TORSDOF 8
ENDMDL
MODEL 10
REMARK VINA RESULT:      -8.0      3.123      6.379
REMARK  8 active torsions:
REMARK  status: ('A' for Active; 'I' for Inactive)
REMARK    1  A    between atoms: C_2  and  O_3 
REMARK    2  A    between atoms: O_3  and  C_4 
REMARK    3  A    between atoms: C_4  and  C_5 
REMARK    4  A    between atoms: C_6  and  O_7 
REMARK    5  A    between atoms: C_6  and  C_8 
REMARK    6  A    between atoms: C_16  and  C_17 
REMARK    7  A    between atoms: C_18  and  C_19 
REMARK    8  A    between atoms: N_26  and  C_27 
ROOT
HETATM    1  C   UNL     1      -6.500   1.658 -33.400  1.00  0.00     0.177 C 
HETATM    2  C   UNL     1      -6.951   0.556 -34.361  1.00  0.00     0.250 C 
HETATM    3  N   UNL     1      -8.387   0.339 -34.328  1.00  0.00    -0.303 N 
HETATM    4  C   UNL     1      -9.308   1.255 -33.954  1.00  0.00     0.319 C 
HETATM    5  O   UNL     1     -10.506   1.024 -34.049  1.00  0.00    -0.247 OA
HETATM    6  N   UNL     1      -8.841   2.421 -33.453  1.00  0.00    -0.333 N 
HETATM    7  C   UNL     1      -7.459   2.837 -33.550  1.00  0.00     0.142 C 
HETATM    8  H   UNL     1      -8.783  -0.530 -34.670  1.00  0.00     0.167 HD
HETATM    9  H   UNL     1      -9.559   3.113 -33.278  1.00  0.00     0.165 HD
ENDROOT
BRANCH   7  10
HETATM   10  C   UNL     1      -7.224   3.965 -32.589  1.00  0.00     0.015 A 
HETATM   11  C   UNL     1      -6.061   4.781 -32.431  1.00  0.00     0.097 A 
HETATM   12  N   UNL     1      -6.252   5.709 -31.483  1.00  0.00    -0.167 NA
HETATM   13  N   UNL     1      -7.504   5.517 -31.015  1.00  0.00    -0.244 N 
HETATM   14  C   UNL     1      -8.122   4.482 -31.672  1.00  0.00     0.130 A 
BRANCH  11  15
HETATM   15  C   UNL     1      -4.795   4.747 -33.164  1.00  0.00    -0.005 A 
HETATM   16  C   UNL     1      -3.646   4.244 -32.537  1.00  0.00     0.014 A 
HETATM   17  C   UNL     1      -2.423   4.208 -33.211  1.00  0.00     0.001 A 
HETATM   18  C   UNL     1      -2.337   4.671 -34.522  1.00  0.00     0.000 A 
HETATM   19  C   UNL     1      -3.475   5.158 -35.162  1.00  0.00     0.001 A 
HETATM   20  C   UNL     1      -4.701   5.190 -34.490  1.00  0.00     0.014 A 
ENDBRANCH  11  15
BRANCH  13  21
HETATM   21  C   UNL     1      -8.031   6.337 -29.978  1.00  0.00     0.058 A 
HETATM   22  C   UNL     1      -7.168   6.836 -28.988  1.00  0.00     0.031 A 
HETATM   23  C   UNL     1      -7.662   7.645 -27.964  1.00  0.00     0.002 A 
HETATM   24  C   UNL     1      -9.019   7.960 -27.916  1.00  0.00     0.000 A 
HETATM   25  C   UNL     1      -9.883   7.467 -28.893  1.00  0.00     0.002 A 
HETATM   26  C   UNL     1      -9.395   6.657 -29.922  1.00  0.00     0.031 A 
ENDBRANCH  13  21
ENDBRANCH   7  10
BRANCH   1  27
HETATM   27  C   UNL     1      -6.416   1.153 -31.979  1.00  0.00     0.270 C 
HETATM   28  O   UNL     1      -7.337   0.655 -31.352  1.00  0.00    -0.265 OA
BRANCH  27  29
HETATM   29  O   UNL     1      -5.148   1.311 -31.507  1.00  0.00    -0.321 OA
BRANCH  29  30
HETATM   30  C   UNL     1      -4.592   0.192 -30.797  1.00  0.00     0.174 C 
HETATM   31  C   UNL     1      -3.135  -0.015 -31.169  1.00  0.00     0.034 C 
ENDBRANCH  29  30
ENDBRANCH  27  29
ENDBRANCH   1  27
BRANCH   2  32
HETATM   32  O   UNL     1      -6.715   1.055 -35.696  1.00  0.00    -0.363 OA
HETATM   33  H   UNL     1      -6.460   0.280 -36.228  1.00  0.00     0.213 HD
ENDBRANCH   2  32
BRANCH   2  34
HETATM   34  C   UNL     1      -6.126  -0.761 -34.163  1.00  0.00     0.439 C 
HETATM   35  F   UNL     1      -4.809  -0.499 -34.007  1.00  0.00    -0.166 F 
HETATM   36  F   UNL     1      -6.527  -1.489 -33.102  1.00  0.00    -0.166 F 
HETATM   37  F   UNL     1      -6.257  -1.551 -35.260  1.00  0.00    -0.166 F 
ENDBRANCH   2  34
TORSDOF 8
ENDMDL
