MODEL 1
REMARK VINA RESULT:      -8.8      0.000      0.000
REMARK  7 active torsions:
REMARK  status: ('A' for Active; 'I' for Inactive)
REMARK    1  A    between atoms: C_2  and  O_3 
REMARK    2  A    between atoms: O_3  and  C_4 
REMARK    3  A    between atoms: C_9  and  C_10 
REMARK       I    between atoms: C_10  and  N_11 
REMARK    4  A    between atoms: N_11  and  C_12 
REMARK    5  A    between atoms: C_12  and  C_13 
REMARK    6  A    between atoms: C_14  and  C_15 
REMARK    7  A    between atoms: C_15  and  N_16 
ROOT
HETATM    1  C   UNL     1      -4.541   2.374 -31.057  1.00  0.00     0.276 C 
HETATM    2  N   UNL     1      -3.497   3.178 -31.489  1.00  0.00    -0.351 N 
HETATM    3  O   UNL     1      -5.189   2.676 -30.054  1.00  0.00    -0.265 OA
HETATM    4  H   UNL     1      -3.096   2.948 -32.391  1.00  0.00     0.163 HD
ENDROOT
BRANCH   2   5
HETATM    5  C   UNL     1      -3.475   4.569 -31.113  1.00  0.00     0.162 C 
BRANCH   5   6
HETATM    6  C   UNL     1      -2.583   5.381 -32.017  1.00  0.00    -0.033 A 
HETATM    7  C   UNL     1      -2.023   6.623 -31.636  1.00  0.00    -0.025 A 
HETATM    8  C   UNL     1      -1.196   7.305 -32.553  1.00  0.00     0.009 A 
HETATM    9  C   UNL     1      -0.934   6.779 -33.816  1.00  0.00     0.001 A 
HETATM   10  C   UNL     1      -1.482   5.558 -34.187  1.00  0.00     0.001 A 
HETATM   11  C   UNL     1      -2.293   4.863 -33.294  1.00  0.00     0.009 A 
BRANCH   7  12
HETATM   12  C   UNL     1      -2.268   7.260 -30.286  1.00  0.00     0.274 C 
BRANCH  12  13
HETATM   13  N   UNL     1      -1.523   6.571 -29.162  1.00  0.00    -0.067 N 
HETATM   14  H   UNL     1      -1.992   5.673 -28.998  1.00  0.00     0.280 HD
HETATM   15  C   UNL     1      -1.507   7.363 -27.882  1.00  0.00     0.235 C 
HETATM   16  C   UNL     1      -0.312   8.283 -28.032  1.00  0.00     0.029 C 
HETATM   17  C   UNL     1       0.655   7.559 -28.959  1.00  0.00     0.029 C 
HETATM   18  C   UNL     1      -0.066   6.310 -29.441  1.00  0.00     0.235 C 
ENDBRANCH  12  13
ENDBRANCH   7  12
ENDBRANCH   5   6
ENDBRANCH   2   5
BRANCH   1  19
HETATM   19  C   UNL     1      -4.817   1.229 -31.895  1.00  0.00     0.150 A 
HETATM   20  O   UNL     1      -5.972   1.277 -32.625  1.00  0.00    -0.304 OA
HETATM   21  C   UNL     1      -6.015   0.168 -33.404  1.00  0.00     0.087 A 
HETATM   22  C   UNL     1      -4.908  -0.632 -33.162  1.00  0.00     0.009 A 
HETATM   23  C   UNL     1      -7.014  -0.133 -34.325  1.00  0.00     0.041 A 
HETATM   24  C   UNL     1      -4.799  -1.841 -33.876  1.00  0.00     0.051 A 
HETATM   25  C   UNL     1      -4.128   0.054 -32.176  1.00  0.00    -0.009 A 
HETATM   26  C   UNL     1      -5.799  -2.193 -34.800  1.00  0.00     0.069 A 
HETATM   27  C   UNL     1      -6.880  -1.337 -35.029  1.00  0.00     0.039 A 
HETATM   28  C   UNL     1      -2.856  -0.431 -31.582  1.00  0.00     0.052 C 
BRANCH  26  29
HETATM   29  O   UNL     1      -5.593  -3.397 -35.420  1.00  0.00    -0.351 OA
BRANCH  29  30
HETATM   30  C   UNL     1      -5.938  -4.571 -34.684  1.00  0.00     0.171 C 
HETATM   31  C   UNL     1      -4.651  -5.240 -34.234  1.00  0.00     0.034 C 
ENDBRANCH  29  30
ENDBRANCH  26  29
ENDBRANCH   1  19
TORSDOF 7
ENDMDL
MODEL 2
REMARK VINA RESULT:      -8.7      1.070      1.862
REMARK  7 active torsions:
REMARK  status: ('A' for Active; 'I' for Inactive)
REMARK    1  A    between atoms: C_2  and  O_3 
REMARK    2  A    between atoms: O_3  and  C_4 
REMARK    3  A    between atoms: C_9  and  C_10 
REMARK       I    between atoms: C_10  and  N_11 
REMARK    4  A    between atoms: N_11  and  C_12 
REMARK    5  A    between atoms: C_12  and  C_13 
REMARK    6  A    between atoms: C_14  and  C_15 
REMARK    7  A    between atoms: C_15  and  N_16 
ROOT
HETATM    1  C   UNL     1      -4.886   2.949 -31.240  1.00  0.00     0.276 C 
HETATM    2  N   UNL     1      -3.698   3.636 -31.040  1.00  0.00    -0.351 N 
HETATM    3  O   UNL     1      -5.963   3.457 -30.927  1.00  0.00    -0.265 OA
HETATM    4  H   UNL     1      -2.865   3.222 -31.442  1.00  0.00     0.163 HD
ENDROOT
BRANCH   2   5
HETATM    5  C   UNL     1      -3.722   5.076 -30.954  1.00  0.00     0.162 C 
BRANCH   5   6
HETATM    6  C   UNL     1      -2.745   5.710 -31.911  1.00  0.00    -0.033 A 
HETATM    7  C   UNL     1      -1.921   6.804 -31.558  1.00  0.00    -0.025 A 
HETATM    8  C   UNL     1      -1.035   7.326 -32.524  1.00  0.00     0.009 A 
HETATM    9  C   UNL     1      -0.969   6.788 -33.808  1.00  0.00     0.001 A 
HETATM   10  C   UNL     1      -1.778   5.712 -34.150  1.00  0.00     0.001 A 
HETATM   11  C   UNL     1      -2.652   5.174 -33.209  1.00  0.00     0.009 A 
BRANCH   7  12
HETATM   12  C   UNL     1      -1.941   7.447 -30.189  1.00  0.00     0.274 C 
BRANCH  12  13
HETATM   13  N   UNL     1      -1.200   6.638 -29.145  1.00  0.00    -0.067 N 
HETATM   14  H   UNL     1      -1.569   5.681 -29.189  1.00  0.00     0.280 HD
HETATM   15  C   UNL     1      -1.368   7.170 -27.746  1.00  0.00     0.235 C 
HETATM   16  C   UNL     1      -0.285   8.220 -27.617  1.00  0.00     0.029 C 
HETATM   17  C   UNL     1       0.825   7.791 -28.568  1.00  0.00     0.029 C 
HETATM   18  C   UNL     1       0.294   6.588 -29.331  1.00  0.00     0.235 C 
ENDBRANCH  12  13
ENDBRANCH   7  12
ENDBRANCH   5   6
ENDBRANCH   2   5
BRANCH   1  19
HETATM   19  C   UNL     1      -4.744   1.658 -31.876  1.00  0.00     0.150 A 
HETATM   20  O   UNL     1      -3.841   0.801 -31.311  1.00  0.00    -0.304 OA
HETATM   21  C   UNL     1      -3.910  -0.374 -31.985  1.00  0.00     0.087 A 
HETATM   22  C   UNL     1      -4.831  -0.282 -33.017  1.00  0.00     0.009 A 
HETATM   23  C   UNL     1      -3.175  -1.518 -31.687  1.00  0.00     0.041 A 
HETATM   24  C   UNL     1      -5.018  -1.413 -33.836  1.00  0.00     0.051 A 
HETATM   25  C   UNL     1      -5.373   1.042 -32.952  1.00  0.00    -0.009 A 
HETATM   26  C   UNL     1      -4.279  -2.582 -33.583  1.00  0.00     0.069 A 
HETATM   27  C   UNL     1      -3.384  -2.632 -32.510  1.00  0.00     0.039 A 
HETATM   28  C   UNL     1      -6.385   1.612 -33.877  1.00  0.00     0.052 C 
BRANCH  26  29
HETATM   29  O   UNL     1      -4.534  -3.609 -34.454  1.00  0.00    -0.351 OA
BRANCH  29  30
HETATM   30  C   UNL     1      -5.650  -3.451 -35.331  1.00  0.00     0.171 C 
HETATM   31  C   UNL     1      -6.697  -4.483 -34.951  1.00  0.00     0.034 C 
ENDBRANCH  29  30
ENDBRANCH  26  29
ENDBRANCH   1  19
TORSDOF 7
ENDMDL
MODEL 3
REMARK VINA RESULT:      -8.2      1.785      2.849
REMARK  7 active torsions:
REMARK  status: ('A' for Active; 'I' for Inactive)
REMARK    1  A    between atoms: C_2  and  O_3 
REMARK    2  A    between atoms: O_3  and  C_4 
REMARK    3  A    between atoms: C_9  and  C_10 
REMARK       I    between atoms: C_10  and  N_11 
REMARK    4  A    between atoms: N_11  and  C_12 
REMARK    5  A    between atoms: C_12  and  C_13 
REMARK    6  A    between atoms: C_14  and  C_15 
REMARK    7  A    between atoms: C_15  and  N_16 
ROOT
HETATM    1  C   UNL     1      -5.233   4.177 -31.048  1.00  0.00     0.276 C 
HETATM    2  N   UNL     1      -3.940   4.618 -30.807  1.00  0.00    -0.351 N 
HETATM    3  O   UNL     1      -6.200   4.830 -30.658  1.00  0.00    -0.265 OA
HETATM    4  H   UNL     1      -3.196   4.107 -31.270  1.00  0.00     0.163 HD
ENDROOT
BRANCH   2   5
HETATM    5  C   UNL     1      -3.706   6.021 -30.572  1.00  0.00     0.162 C 
BRANCH   5   6
HETATM    6  C   UNL     1      -2.235   6.346 -30.539  1.00  0.00    -0.033 A 
HETATM    7  C   UNL     1      -1.640   7.128 -29.521  1.00  0.00    -0.025 A 
HETATM    8  C   UNL     1      -0.253   7.374 -29.577  1.00  0.00     0.009 A 
HETATM    9  C   UNL     1       0.528   6.867 -30.614  1.00  0.00     0.001 A 
HETATM   10  C   UNL     1      -0.057   6.097 -31.610  1.00  0.00     0.001 A 
HETATM   11  C   UNL     1      -1.424   5.834 -31.570  1.00  0.00     0.009 A 
BRANCH   7  12
HETATM   12  C   UNL     1      -2.423   7.718 -28.369  1.00  0.00     0.274 C 
BRANCH  12  13
HETATM   13  N   UNL     1      -2.757   6.701 -27.298  1.00  0.00    -0.067 N 
HETATM   14  H   UNL     1      -2.654   5.772 -27.724  1.00  0.00     0.280 HD
HETATM   15  C   UNL     1      -4.153   6.844 -26.753  1.00  0.00     0.235 C 
HETATM   16  C   UNL     1      -4.015   7.873 -25.650  1.00  0.00     0.029 C 
HETATM   17  C   UNL     1      -2.581   7.755 -25.149  1.00  0.00     0.029 C 
HETATM   18  C   UNL     1      -1.885   6.769 -26.072  1.00  0.00     0.235 C 
ENDBRANCH  12  13
ENDBRANCH   7  12
ENDBRANCH   5   6
ENDBRANCH   2   5
BRANCH   1  19
HETATM   19  C   UNL     1      -5.327   2.956 -31.818  1.00  0.00     0.150 A 
HETATM   20  O   UNL     1      -4.693   1.862 -31.298  1.00  0.00    -0.304 OA
HETATM   21  C   UNL     1      -4.963   0.806 -32.105  1.00  0.00     0.087 A 
HETATM   22  C   UNL     1      -5.743   1.209 -33.178  1.00  0.00     0.009 A 
HETATM   23  C   UNL     1      -4.533  -0.501 -31.894  1.00  0.00     0.041 A 
HETATM   24  C   UNL     1      -6.105   0.237 -34.132  1.00  0.00     0.051 A 
HETATM   25  C   UNL     1      -5.978   2.610 -32.997  1.00  0.00    -0.009 A 
HETATM   26  C   UNL     1      -5.672  -1.090 -33.967  1.00  0.00     0.069 A 
HETATM   27  C   UNL     1      -4.911  -1.451 -32.852  1.00  0.00     0.039 A 
HETATM   28  C   UNL     1      -6.750   3.487 -33.914  1.00  0.00     0.052 C 
BRANCH  26  29
HETATM   29  O   UNL     1      -6.070  -1.940 -34.966  1.00  0.00    -0.351 OA
BRANCH  29  30
HETATM   30  C   UNL     1      -5.468  -3.234 -34.993  1.00  0.00     0.171 C 
HETATM   31  C   UNL     1      -6.577  -4.271 -35.002  1.00  0.00     0.034 C 
ENDBRANCH  29  30
ENDBRANCH  26  29
ENDBRANCH   1  19
TORSDOF 7
ENDMDL
MODEL 4
REMARK VINA RESULT:      -8.1      5.509      8.690
REMARK  7 active torsions:
REMARK  status: ('A' for Active; 'I' for Inactive)
REMARK    1  A    between atoms: C_2  and  O_3 
REMARK    2  A    between atoms: O_3  and  C_4 
REMARK    3  A    between atoms: C_9  and  C_10 
REMARK       I    between atoms: C_10  and  N_11 
REMARK    4  A    between atoms: N_11  and  C_12 
REMARK    5  A    between atoms: C_12  and  C_13 
REMARK    6  A    between atoms: C_14  and  C_15 
REMARK    7  A    between atoms: C_15  and  N_16 
ROOT
HETATM    1  C   UNL     1      -8.944   2.541 -31.425  1.00  0.00     0.276 C 
HETATM    2  N   UNL     1      -9.758   3.099 -32.399  1.00  0.00    -0.351 N 
HETATM    3  O   UNL     1      -9.032   2.903 -30.252  1.00  0.00    -0.265 OA
HETATM    4  H   UNL     1      -9.730   2.662 -33.313  1.00  0.00     0.163 HD
ENDROOT
BRANCH   2   5
HETATM    5  C   UNL     1     -11.011   3.699 -32.011  1.00  0.00     0.162 C 
BRANCH   5   6
HETATM    6  C   UNL     1     -11.545   4.619 -33.080  1.00  0.00    -0.033 A 
HETATM    7  C   UNL     1     -12.775   4.398 -33.742  1.00  0.00    -0.025 A 
HETATM    8  C   UNL     1     -13.191   5.320 -34.726  1.00  0.00     0.009 A 
HETATM    9  C   UNL     1     -12.411   6.426 -35.053  1.00  0.00     0.001 A 
HETATM   10  C   UNL     1     -11.205   6.642 -34.399  1.00  0.00     0.001 A 
HETATM   11  C   UNL     1     -10.780   5.751 -33.417  1.00  0.00     0.009 A 
BRANCH   7  12
HETATM   12  C   UNL     1     -13.673   3.217 -33.447  1.00  0.00     0.274 C 
BRANCH  12  13
HETATM   13  N   UNL     1     -13.672   2.182 -34.552  1.00  0.00    -0.067 N 
HETATM   14  H   UNL     1     -13.950   2.664 -35.415  1.00  0.00     0.280 HD
HETATM   15  C   UNL     1     -14.613   1.035 -34.298  1.00  0.00     0.235 C 
HETATM   16  C   UNL     1     -13.799   0.064 -33.468  1.00  0.00     0.029 C 
HETATM   17  C   UNL     1     -12.345   0.307 -33.854  1.00  0.00     0.029 C 
HETATM   18  C   UNL     1     -12.343   1.510 -34.783  1.00  0.00     0.235 C 
ENDBRANCH  12  13
ENDBRANCH   7  12
ENDBRANCH   5   6
ENDBRANCH   2   5
BRANCH   1  19
HETATM   19  C   UNL     1      -8.059   1.497 -31.894  1.00  0.00     0.150 A 
HETATM   20  O   UNL     1      -8.380   0.926 -33.094  1.00  0.00    -0.304 OA
HETATM   21  C   UNL     1      -7.400   0.042 -33.405  1.00  0.00     0.087 A 
HETATM   22  C   UNL     1      -6.452  -0.000 -32.394  1.00  0.00     0.009 A 
HETATM   23  C   UNL     1      -7.337  -0.715 -34.571  1.00  0.00     0.041 A 
HETATM   24  C   UNL     1      -5.366  -0.885 -32.544  1.00  0.00     0.051 A 
HETATM   25  C   UNL     1      -6.881   0.943 -31.405  1.00  0.00    -0.009 A 
HETATM   26  C   UNL     1      -5.277  -1.683 -33.698  1.00  0.00     0.069 A 
HETATM   27  C   UNL     1      -6.244  -1.582 -34.702  1.00  0.00     0.039 A 
HETATM   28  C   UNL     1      -6.192   1.231 -30.122  1.00  0.00     0.052 C 
BRANCH  26  29
HETATM   29  O   UNL     1      -4.189  -2.515 -33.724  1.00  0.00    -0.351 OA
BRANCH  29  30
HETATM   30  C   UNL     1      -4.373  -3.803 -34.314  1.00  0.00     0.171 C 
HETATM   31  C   UNL     1      -3.466  -4.785 -33.594  1.00  0.00     0.034 C 
ENDBRANCH  29  30
ENDBRANCH  26  29
ENDBRANCH   1  19
TORSDOF 7
ENDMDL
MODEL 5
REMARK VINA RESULT:      -7.9      1.696      3.736
REMARK  7 active torsions:
REMARK  status: ('A' for Active; 'I' for Inactive)
REMARK    1  A    between atoms: C_2  and  O_3 
REMARK    2  A    between atoms: O_3  and  C_4 
REMARK    3  A    between atoms: C_9  and  C_10 
REMARK       I    between atoms: C_10  and  N_11 
REMARK    4  A    between atoms: N_11  and  C_12 
REMARK    5  A    between atoms: C_12  and  C_13 
REMARK    6  A    between atoms: C_14  and  C_15 
REMARK    7  A    between atoms: C_15  and  N_16 
ROOT
HETATM    1  C   UNL     1      -5.809   3.987 -30.710  1.00  0.00     0.276 C 
HETATM    2  N   UNL     1      -4.856   4.873 -31.191  1.00  0.00    -0.351 N 
HETATM    3  O   UNL     1      -6.522   4.293 -29.755  1.00  0.00    -0.265 OA
HETATM    4  H   UNL     1      -4.399   4.616 -32.059  1.00  0.00     0.163 HD
ENDROOT
BRANCH   2   5
HETATM    5  C   UNL     1      -5.017   6.284 -30.944  1.00  0.00     0.162 C 
BRANCH   5   6
HETATM    6  C   UNL     1      -3.824   6.869 -30.233  1.00  0.00    -0.033 A 
HETATM    7  C   UNL     1      -2.670   7.326 -30.911  1.00  0.00    -0.025 A 
HETATM    8  C   UNL     1      -1.605   7.861 -30.156  1.00  0.00     0.009 A 
HETATM    9  C   UNL     1      -1.674   7.937 -28.766  1.00  0.00     0.001 A 
HETATM   10  C   UNL     1      -2.810   7.490 -28.103  1.00  0.00     0.001 A 
HETATM   11  C   UNL     1      -3.877   6.967 -28.830  1.00  0.00     0.009 A 
BRANCH   7  12
HETATM   12  C   UNL     1      -2.518   7.270 -32.415  1.00  0.00     0.274 C 
BRANCH  12  13
HETATM   13  N   UNL     1      -1.376   6.383 -32.862  1.00  0.00    -0.067 N 
HETATM   14  H   UNL     1      -0.513   6.794 -32.489  1.00  0.00     0.280 HD
HETATM   15  C   UNL     1      -1.262   6.263 -34.359  1.00  0.00     0.235 C 
HETATM   16  C   UNL     1      -2.203   5.130 -34.712  1.00  0.00     0.029 C 
HETATM   17  C   UNL     1      -2.259   4.238 -33.479  1.00  0.00     0.029 C 
HETATM   18  C   UNL     1      -1.470   4.953 -32.395  1.00  0.00     0.235 C 
ENDBRANCH  12  13
ENDBRANCH   7  12
ENDBRANCH   5   6
ENDBRANCH   2   5
BRANCH   1  19
HETATM   19  C   UNL     1      -5.914   2.746 -31.446  1.00  0.00     0.150 A 
HETATM   20  O   UNL     1      -4.735   2.154 -31.806  1.00  0.00    -0.304 OA
HETATM   21  C   UNL     1      -5.031   0.973 -32.403  1.00  0.00     0.087 A 
HETATM   22  C   UNL     1      -6.406   0.802 -32.472  1.00  0.00     0.009 A 
HETATM   23  C   UNL     1      -4.101   0.053 -32.875  1.00  0.00     0.041 A 
HETATM   24  C   UNL     1      -6.894  -0.370 -33.082  1.00  0.00     0.051 A 
HETATM   25  C   UNL     1      -6.984   1.957 -31.853  1.00  0.00    -0.009 A 
HETATM   26  C   UNL     1      -5.988  -1.315 -33.592  1.00  0.00     0.069 A 
HETATM   27  C   UNL     1      -4.610  -1.109 -33.471  1.00  0.00     0.039 A 
HETATM   28  C   UNL     1      -8.436   2.232 -31.711  1.00  0.00     0.052 C 
BRANCH  26  29
HETATM   29  O   UNL     1      -6.579  -2.404 -34.177  1.00  0.00    -0.351 OA
BRANCH  29  30
HETATM   30  C   UNL     1      -5.739  -3.256 -34.956  1.00  0.00     0.171 C 
HETATM   31  C   UNL     1      -6.518  -4.518 -35.280  1.00  0.00     0.034 C 
ENDBRANCH  29  30
ENDBRANCH  26  29
ENDBRANCH   1  19
TORSDOF 7
ENDMDL
MODEL 6
REMARK VINA RESULT:      -7.8      2.920      9.560
REMARK  7 active torsions:
REMARK  status: ('A' for Active; 'I' for Inactive)
REMARK    1  A    between atoms: C_2  and  O_3 
REMARK    2  A    between atoms: O_3  and  C_4 
REMARK    3  A    between atoms: C_9  and  C_10 
REMARK       I    between atoms: C_10  and  N_11 
REMARK    4  A    between atoms: N_11  and  C_12 
REMARK    5  A    between atoms: C_12  and  C_13 
REMARK    6  A    between atoms: C_14  and  C_15 
REMARK    7  A    between atoms: C_15  and  N_16 
ROOT
HETATM    1  C   UNL     1      -5.000   3.795 -32.194  1.00  0.00     0.276 C 
HETATM    2  N   UNL     1      -5.031   2.452 -31.847  1.00  0.00    -0.351 N 
HETATM    3  O   UNL     1      -5.898   4.285 -32.879  1.00  0.00    -0.265 OA
HETATM    4  H   UNL     1      -4.339   2.145 -31.174  1.00  0.00     0.163 HD
ENDROOT
BRANCH   2   5
HETATM    5  C   UNL     1      -6.294   1.756 -31.834  1.00  0.00     0.162 C 
BRANCH   5   6
HETATM    6  C   UNL     1      -6.250   0.501 -32.667  1.00  0.00    -0.033 A 
HETATM    7  C   UNL     1      -7.413  -0.193 -33.077  1.00  0.00    -0.025 A 
HETATM    8  C   UNL     1      -7.269  -1.357 -33.860  1.00  0.00     0.009 A 
HETATM    9  C   UNL     1      -6.009  -1.830 -34.223  1.00  0.00     0.001 A 
HETATM   10  C   UNL     1      -4.870  -1.145 -33.822  1.00  0.00     0.001 A 
HETATM   11  C   UNL     1      -4.989   0.013 -33.057  1.00  0.00     0.009 A 
BRANCH   7  12
HETATM   12  C   UNL     1      -8.813   0.254 -32.716  1.00  0.00     0.274 C 
BRANCH  12  13
HETATM   13  N   UNL     1      -9.576   0.821 -33.894  1.00  0.00    -0.067 N 
HETATM   14  H   UNL     1      -9.459   0.162 -34.672  1.00  0.00     0.280 HD
HETATM   15  C   UNL     1      -9.092   2.182 -34.320  1.00  0.00     0.235 C 
HETATM   16  C   UNL     1      -9.861   3.141 -33.435  1.00  0.00     0.029 C 
HETATM   17  C   UNL     1     -11.162   2.431 -33.085  1.00  0.00     0.029 C 
HETATM   18  C   UNL     1     -11.048   1.025 -33.650  1.00  0.00     0.235 C 
ENDBRANCH  12  13
ENDBRANCH   7  12
ENDBRANCH   5   6
ENDBRANCH   2   5
BRANCH   1  19
HETATM   19  C   UNL     1      -3.888   4.540 -31.648  1.00  0.00     0.150 A 
HETATM   20  O   UNL     1      -2.653   4.246 -32.157  1.00  0.00    -0.304 OA
HETATM   21  C   UNL     1      -1.760   5.096 -31.592  1.00  0.00     0.087 A 
HETATM   22  C   UNL     1      -2.397   5.926 -30.682  1.00  0.00     0.009 A 
HETATM   23  C   UNL     1      -0.400   5.144 -31.881  1.00  0.00     0.041 A 
HETATM   24  C   UNL     1      -1.612   6.866 -29.985  1.00  0.00     0.051 A 
HETATM   25  C   UNL     1      -3.783   5.564 -30.713  1.00  0.00    -0.009 A 
HETATM   26  C   UNL     1      -0.230   6.932 -30.231  1.00  0.00     0.069 A 
HETATM   27  C   UNL     1       0.360   6.091 -31.181  1.00  0.00     0.039 A 
HETATM   28  C   UNL     1      -4.857   6.168 -29.885  1.00  0.00     0.052 C 
BRANCH  26  29
HETATM   29  O   UNL     1       0.431   7.871 -29.483  1.00  0.00    -0.351 OA
BRANCH  29  30
HETATM   30  C   UNL     1       0.640   7.568 -28.103  1.00  0.00     0.171 C 
HETATM   31  C   UNL     1       1.607   8.592 -27.537  1.00  0.00     0.034 C 
ENDBRANCH  29  30
ENDBRANCH  26  29
ENDBRANCH   1  19
TORSDOF 7
ENDMDL
MODEL 7
REMARK VINA RESULT:      -7.8      2.040      3.776
REMARK  7 active torsions:
REMARK  status: ('A' for Active; 'I' for Inactive)
REMARK    1  A    between atoms: C_2  and  O_3 
REMARK    2  A    between atoms: O_3  and  C_4 
REMARK    3  A    between atoms: C_9  and  C_10 
REMARK       I    between atoms: C_10  and  N_11 
REMARK    4  A    between atoms: N_11  and  C_12 
REMARK    5  A    between atoms: C_12  and  C_13 
REMARK    6  A    between atoms: C_14  and  C_15 
REMARK    7  A    between atoms: C_15  and  N_16 
ROOT
HETATM    1  C   UNL     1      -6.827   2.650 -31.906  1.00  0.00     0.276 C 
HETATM    2  N   UNL     1      -5.892   3.600 -31.524  1.00  0.00    -0.351 N 
HETATM    3  O   UNL     1      -8.032   2.883 -31.809  1.00  0.00    -0.265 OA
HETATM    4  H   UNL     1      -4.926   3.399 -31.755  1.00  0.00     0.163 HD
ENDROOT
BRANCH   2   5
HETATM    5  C   UNL     1      -6.270   4.991 -31.497  1.00  0.00     0.162 C 
BRANCH   5   6
HETATM    6  C   UNL     1      -5.262   5.831 -30.755  1.00  0.00    -0.033 A 
HETATM    7  C   UNL     1      -4.204   6.514 -31.401  1.00  0.00    -0.025 A 
HETATM    8  C   UNL     1      -3.313   7.279 -30.619  1.00  0.00     0.009 A 
HETATM    9  C   UNL     1      -3.458   7.364 -29.236  1.00  0.00     0.001 A 
HETATM   10  C   UNL     1      -4.499   6.696 -28.606  1.00  0.00     0.001 A 
HETATM   11  C   UNL     1      -5.396   5.942 -29.359  1.00  0.00     0.009 A 
BRANCH   7  12
HETATM   12  C   UNL     1      -3.978   6.463 -32.896  1.00  0.00     0.274 C 
BRANCH  12  13
HETATM   13  N   UNL     1      -3.380   5.152 -33.360  1.00  0.00    -0.067 N 
HETATM   14  H   UNL     1      -4.133   4.455 -33.339  1.00  0.00     0.280 HD
HETATM   15  C   UNL     1      -2.239   4.678 -32.500  1.00  0.00     0.235 C 
HETATM   16  C   UNL     1      -1.024   5.371 -33.082  1.00  0.00     0.029 C 
HETATM   17  C   UNL     1      -1.347   5.610 -34.551  1.00  0.00     0.029 C 
HETATM   18  C   UNL     1      -2.793   5.186 -34.748  1.00  0.00     0.235 C 
ENDBRANCH  12  13
ENDBRANCH   7  12
ENDBRANCH   5   6
ENDBRANCH   2   5
BRANCH   1  19
HETATM   19  C   UNL     1      -6.271   1.434 -32.459  1.00  0.00     0.150 A 
HETATM   20  O   UNL     1      -5.265   0.849 -31.742  1.00  0.00    -0.304 OA
HETATM   21  C   UNL     1      -4.935  -0.310 -32.364  1.00  0.00     0.087 A 
HETATM   22  C   UNL     1      -5.697  -0.472 -33.512  1.00  0.00     0.009 A 
HETATM   23  C   UNL     1      -3.979  -1.219 -31.922  1.00  0.00     0.041 A 
HETATM   24  C   UNL     1      -5.472  -1.621 -34.296  1.00  0.00     0.051 A 
HETATM   25  C   UNL     1      -6.566   0.665 -33.579  1.00  0.00    -0.009 A 
HETATM   26  C   UNL     1      -4.499  -2.554 -33.895  1.00  0.00     0.069 A 
HETATM   27  C   UNL     1      -3.778  -2.358 -32.713  1.00  0.00     0.039 A 
HETATM   28  C   UNL     1      -7.553   0.941 -34.653  1.00  0.00     0.052 C 
BRANCH  26  29
HETATM   29  O   UNL     1      -4.358  -3.620 -34.744  1.00  0.00    -0.351 OA
BRANCH  29  30
HETATM   30  C   UNL     1      -5.199  -4.750 -34.509  1.00  0.00     0.171 C 
HETATM   31  C   UNL     1      -6.382  -4.663 -35.458  1.00  0.00     0.034 C 
ENDBRANCH  29  30
ENDBRANCH  26  29
ENDBRANCH   1  19
TORSDOF 7
ENDMDL
MODEL 8
REMARK VINA RESULT:      -7.8      3.189      9.147
REMARK  7 active torsions:
REMARK  status: ('A' for Active; 'I' for Inactive)
REMARK    1  A    between atoms: C_2  and  O_3 
REMARK    2  A    between atoms: O_3  and  C_4 
REMARK    3  A    between atoms: C_9  and  C_10 
REMARK       I    between atoms: C_10  and  N_11 
REMARK    4  A    between atoms: N_11  and  C_12 
REMARK    5  A    between atoms: C_12  and  C_13 
REMARK    6  A    between atoms: C_14  and  C_15 
REMARK    7  A    between atoms: C_15  and  N_16 
ROOT
HETATM    1  C   UNL     1      -6.239   2.278 -30.475  1.00  0.00     0.276 C 
HETATM    2  N   UNL     1      -7.432   2.392 -31.173  1.00  0.00    -0.351 N 
HETATM    3  O   UNL     1      -6.032   1.310 -29.743  1.00  0.00    -0.265 OA
HETATM    4  H   UNL     1      -7.483   3.138 -31.858  1.00  0.00     0.163 HD
ENDROOT
BRANCH   2   5
HETATM    5  C   UNL     1      -8.199   1.205 -31.458  1.00  0.00     0.162 C 
BRANCH   5   6
HETATM    6  C   UNL     1      -7.782   0.567 -32.759  1.00  0.00    -0.033 A 
HETATM    7  C   UNL     1      -8.128   1.100 -34.023  1.00  0.00    -0.025 A 
HETATM    8  C   UNL     1      -7.687   0.432 -35.185  1.00  0.00     0.009 A 
HETATM    9  C   UNL     1      -6.931  -0.735 -35.102  1.00  0.00     0.001 A 
HETATM   10  C   UNL     1      -6.591  -1.254 -33.859  1.00  0.00     0.001 A 
HETATM   11  C   UNL     1      -7.007  -0.605 -32.699  1.00  0.00     0.009 A 
BRANCH   7  12
HETATM   12  C   UNL     1      -8.951   2.357 -34.193  1.00  0.00     0.274 C 
BRANCH  12  13
HETATM   13  N   UNL     1     -10.288   2.104 -34.859  1.00  0.00    -0.067 N 
HETATM   14  H   UNL     1     -10.096   1.604 -35.735  1.00  0.00     0.280 HD
HETATM   15  C   UNL     1     -11.052   3.365 -35.164  1.00  0.00     0.235 C 
HETATM   16  C   UNL     1     -11.810   3.657 -33.886  1.00  0.00     0.029 C 
HETATM   17  C   UNL     1     -12.022   2.307 -33.212  1.00  0.00     0.029 C 
HETATM   18  C   UNL     1     -11.254   1.289 -34.039  1.00  0.00     0.235 C 
ENDBRANCH  12  13
ENDBRANCH   7  12
ENDBRANCH   5   6
ENDBRANCH   2   5
BRANCH   1  19
HETATM   19  C   UNL     1      -5.283   3.334 -30.724  1.00  0.00     0.150 A 
HETATM   20  O   UNL     1      -5.558   4.547 -30.155  1.00  0.00    -0.304 OA
HETATM   21  C   UNL     1      -4.519   5.375 -30.425  1.00  0.00     0.087 A 
HETATM   22  C   UNL     1      -3.574   4.722 -31.203  1.00  0.00     0.009 A 
HETATM   23  C   UNL     1      -4.399   6.689 -29.984  1.00  0.00     0.041 A 
HETATM   24  C   UNL     1      -2.429   5.444 -31.594  1.00  0.00     0.051 A 
HETATM   25  C   UNL     1      -4.071   3.393 -31.403  1.00  0.00    -0.009 A 
HETATM   26  C   UNL     1      -2.281   6.781 -31.188  1.00  0.00     0.069 A 
HETATM   27  C   UNL     1      -3.249   7.384 -30.379  1.00  0.00     0.039 A 
HETATM   28  C   UNL     1      -3.409   2.329 -32.198  1.00  0.00     0.052 C 
BRANCH  26  29
HETATM   29  O   UNL     1      -1.138   7.384 -31.642  1.00  0.00    -0.351 OA
BRANCH  29  30
HETATM   30  C   UNL     1       0.100   6.752 -31.317  1.00  0.00     0.171 C 
HETATM   31  C   UNL     1       0.443   7.099 -29.879  1.00  0.00     0.034 C 
ENDBRANCH  29  30
ENDBRANCH  26  29
ENDBRANCH   1  19
TORSDOF 7
ENDMDL
MODEL 9
REMARK VINA RESULT:      -7.7      5.200      8.576
REMARK  7 active torsions:
REMARK  status: ('A' for Active; 'I' for Inactive)
REMARK    1  A    between atoms: C_2  and  O_3 
REMARK    2  A    between atoms: O_3  and  C_4 
REMARK    3  A    between atoms: C_9  and  C_10 
REMARK       I    between atoms: C_10  and  N_11 
REMARK    4  A    between atoms: N_11  and  C_12 
REMARK    5  A    between atoms: C_12  and  C_13 
REMARK    6  A    between atoms: C_14  and  C_15 
REMARK    7  A    between atoms: C_15  and  N_16 
ROOT
HETATM    1  C   UNL     1      -8.498   1.864 -32.036  1.00  0.00     0.276 C 
HETATM    2  N   UNL     1      -9.236   2.394 -33.084  1.00  0.00    -0.351 N 
HETATM    3  O   UNL     1      -8.673   2.261 -30.884  1.00  0.00    -0.265 OA
HETATM    4  H   UNL     1      -9.141   1.931 -33.981  1.00  0.00     0.163 HD
ENDROOT
BRANCH   2   5
HETATM    5  C   UNL     1     -10.513   3.005 -32.809  1.00  0.00     0.162 C 
BRANCH   5   6
HETATM    6  C   UNL     1     -11.655   2.193 -33.367  1.00  0.00    -0.033 A 
HETATM    7  C   UNL     1     -12.816   2.778 -33.922  1.00  0.00    -0.025 A 
HETATM    8  C   UNL     1     -13.829   1.933 -34.423  1.00  0.00     0.009 A 
HETATM    9  C   UNL     1     -13.702   0.546 -34.370  1.00  0.00     0.001 A 
HETATM   10  C   UNL     1     -12.558  -0.025 -33.827  1.00  0.00     0.001 A 
HETATM   11  C   UNL     1     -11.542   0.791 -33.336  1.00  0.00     0.009 A 
BRANCH   7  12
HETATM   12  C   UNL     1     -13.030   4.273 -34.008  1.00  0.00     0.274 C 
BRANCH  12  13
HETATM   13  N   UNL     1     -12.555   4.865 -35.318  1.00  0.00    -0.067 N 
HETATM   14  H   UNL     1     -12.548   4.103 -36.006  1.00  0.00     0.280 HD
HETATM   15  C   UNL     1     -11.180   5.472 -35.237  1.00  0.00     0.235 C 
HETATM   16  C   UNL     1     -11.428   6.887 -34.755  1.00  0.00     0.029 C 
HETATM   17  C   UNL     1     -12.828   7.248 -35.234  1.00  0.00     0.029 C 
HETATM   18  C   UNL     1     -13.411   5.986 -35.848  1.00  0.00     0.235 C 
ENDBRANCH  12  13
ENDBRANCH   7  12
ENDBRANCH   5   6
ENDBRANCH   2   5
BRANCH   1  19
HETATM   19  C   UNL     1      -7.583   0.808 -32.407  1.00  0.00     0.150 A 
HETATM   20  O   UNL     1      -8.061  -0.128 -33.282  1.00  0.00    -0.304 OA
HETATM   21  C   UNL     1      -7.045  -0.977 -33.575  1.00  0.00     0.087 A 
HETATM   22  C   UNL     1      -5.906  -0.625 -32.865  1.00  0.00     0.009 A 
HETATM   23  C   UNL     1      -7.118  -2.045 -34.463  1.00  0.00     0.041 A 
HETATM   24  C   UNL     1      -4.753  -1.416 -33.036  1.00  0.00     0.051 A 
HETATM   25  C   UNL     1      -6.254   0.535 -32.101  1.00  0.00    -0.009 A 
HETATM   26  C   UNL     1      -4.791  -2.518 -33.908  1.00  0.00     0.069 A 
HETATM   27  C   UNL     1      -5.956  -2.813 -34.623  1.00  0.00     0.039 A 
HETATM   28  C   UNL     1      -5.358   1.259 -31.165  1.00  0.00     0.052 C 
BRANCH  26  29
HETATM   29  O   UNL     1      -3.617  -3.220 -33.979  1.00  0.00    -0.351 OA
BRANCH  29  30
HETATM   30  C   UNL     1      -3.482  -4.345 -33.109  1.00  0.00     0.171 C 
HETATM   31  C   UNL     1      -2.903  -3.856 -31.794  1.00  0.00     0.034 C 
ENDBRANCH  29  30
ENDBRANCH  26  29
ENDBRANCH   1  19
TORSDOF 7
ENDMDL
MODEL 10
REMARK VINA RESULT:      -7.7     17.530     19.238
REMARK  7 active torsions:
REMARK  status: ('A' for Active; 'I' for Inactive)
REMARK    1  A    between atoms: C_2  and  O_3 
REMARK    2  A    between atoms: O_3  and  C_4 
REMARK    3  A    between atoms: C_9  and  C_10 
REMARK       I    between atoms: C_10  and  N_11 
REMARK    4  A    between atoms: N_11  and  C_12 
REMARK    5  A    between atoms: C_12  and  C_13 
REMARK    6  A    between atoms: C_14  and  C_15 
REMARK    7  A    between atoms: C_15  and  N_16 
ROOT
HETATM    1  C   UNL     1      -5.766 -13.821 -36.839  1.00  0.00     0.276 C 
HETATM    2  N   UNL     1      -4.611 -14.050 -37.572  1.00  0.00    -0.351 N 
HETATM    3  O   UNL     1      -5.704 -13.569 -35.636  1.00  0.00    -0.265 OA
HETATM    4  H   UNL     1      -4.722 -14.117 -38.578  1.00  0.00     0.163 HD
ENDROOT
BRANCH   2   5
HETATM    5  C   UNL     1      -3.358 -13.517 -37.098  1.00  0.00     0.162 C 
BRANCH   5   6
HETATM    6  C   UNL     1      -2.233 -13.787 -38.064  1.00  0.00    -0.033 A 
HETATM    7  C   UNL     1      -2.398 -13.749 -39.469  1.00  0.00    -0.025 A 
HETATM    8  C   UNL     1      -1.282 -14.012 -40.290  1.00  0.00     0.009 A 
HETATM    9  C   UNL     1      -0.037 -14.311 -39.742  1.00  0.00     0.001 A 
HETATM   10  C   UNL     1       0.123 -14.345 -38.362  1.00  0.00     0.001 A 
HETATM   11  C   UNL     1      -0.963 -14.079 -37.532  1.00  0.00     0.009 A 
BRANCH   7  12
HETATM   12  C   UNL     1      -3.718 -13.439 -40.138  1.00  0.00     0.274 C 
BRANCH  12  13
HETATM   13  N   UNL     1      -4.010 -14.341 -41.318  1.00  0.00    -0.067 N 
HETATM   14  H   UNL     1      -3.138 -14.427 -41.853  1.00  0.00     0.280 HD
HETATM   15  C   UNL     1      -5.096 -13.816 -42.219  1.00  0.00     0.235 C 
HETATM   16  C   UNL     1      -6.377 -14.323 -41.590  1.00  0.00     0.029 C 
HETATM   17  C   UNL     1      -5.999 -15.602 -40.854  1.00  0.00     0.029 C 
HETATM   18  C   UNL     1      -4.487 -15.723 -40.951  1.00  0.00     0.235 C 
ENDBRANCH  12  13
ENDBRANCH   7  12
ENDBRANCH   5   6
ENDBRANCH   2   5
BRANCH   1  19
HETATM   19  C   UNL     1      -6.992 -13.852 -37.607  1.00  0.00     0.150 A 
HETATM   20  O   UNL     1      -7.374 -12.673 -38.184  1.00  0.00    -0.304 OA
HETATM   21  C   UNL     1      -8.485 -12.917 -38.923  1.00  0.00     0.087 A 
HETATM   22  C   UNL     1      -8.858 -14.248 -38.805  1.00  0.00     0.009 A 
HETATM   23  C   UNL     1      -9.158 -11.979 -39.700  1.00  0.00     0.041 A 
HETATM   24  C   UNL     1     -10.008 -14.674 -39.498  1.00  0.00     0.051 A 
HETATM   25  C   UNL     1      -7.889 -14.859 -37.945  1.00  0.00    -0.009 A 
HETATM   26  C   UNL     1     -10.729 -13.753 -40.277  1.00  0.00     0.069 A 
HETATM   27  C   UNL     1     -10.294 -12.428 -40.386  1.00  0.00     0.039 A 
HETATM   28  C   UNL     1      -7.889 -16.278 -37.508  1.00  0.00     0.052 C 
BRANCH  26  29
HETATM   29  O   UNL     1     -11.837 -14.278 -40.888  1.00  0.00    -0.351 OA
BRANCH  29  30
HETATM   30  C   UNL     1     -11.624 -15.366 -41.788  1.00  0.00     0.171 C 
HETATM   31  C   UNL     1     -12.951 -15.700 -42.446  1.00  0.00     0.034 C 
ENDBRANCH  29  30
ENDBRANCH  26  29
ENDBRANCH   1  19
TORSDOF 7
ENDMDL
