MODEL 1
REMARK VINA RESULT:      -8.2      0.000      0.000
REMARK  5 active torsions:
REMARK  status: ('A' for Active; 'I' for Inactive)
REMARK    1  A    between atoms: C_3  and  N_4 
REMARK       I    between atoms: N_4  and  C_5 
REMARK       I    between atoms: C_5  and  N_6 
REMARK    2  A    between atoms: N_6  and  C_7 
REMARK    3  A    between atoms: C_7  and  C_8 
REMARK    4  A    between atoms: C_8  and  C_9 
REMARK    5  A    between atoms: N_15  and  C_16 
ROOT
HETATM    1  C   UNL     1      -5.876   0.414 -29.748  1.00  0.00     0.054 C 
HETATM    2  C   UNL     1      -4.954   1.028 -30.732  1.00  0.00     0.003 A 
HETATM    3  C   UNL     1      -3.840   0.458 -31.394  1.00  0.00     0.159 A 
HETATM    4  N   UNL     1      -3.236   1.344 -32.190  1.00  0.00    -0.149 NA
HETATM    5  N   UNL     1      -3.960   2.493 -32.082  1.00  0.00    -0.241 N 
HETATM    6  C   UNL     1      -4.986   2.331 -31.182  1.00  0.00     0.129 A 
ENDROOT
BRANCH   3   7
HETATM    7  N   UNL     1      -3.405  -0.838 -31.215  1.00  0.00    -0.291 N 
HETATM    8  C   UNL     1      -3.509  -1.901 -32.056  1.00  0.00     0.321 C 
HETATM    9  N   UNL     1      -4.249  -1.734 -33.186  1.00  0.00    -0.343 N 
HETATM   10  O   UNL     1      -2.978  -2.968 -31.757  1.00  0.00    -0.247 OA
HETATM   11  H   UNL     1      -4.495  -0.765 -33.391  1.00  0.00     0.164 HD
HETATM   12  H   UNL     1      -2.917  -1.053 -30.360  1.00  0.00     0.172 HD
BRANCH   9  13
HETATM   13  C   UNL     1      -4.370  -2.745 -34.214  1.00  0.00     0.133 C 
BRANCH  13  14
HETATM   14  C   UNL     1      -5.763  -2.792 -34.824  1.00  0.00     0.137 C 
BRANCH  14  15
HETATM   15  C   UNL     1      -6.295  -4.201 -34.802  1.00  0.00     0.389 C 
HETATM   16  F   UNL     1      -5.449  -5.045 -34.174  1.00  0.00    -0.171 F 
HETATM   17  F   UNL     1      -7.481  -4.257 -34.159  1.00  0.00    -0.171 F 
HETATM   18  F   UNL     1      -6.489  -4.670 -36.054  1.00  0.00    -0.171 F 
ENDBRANCH  14  15
ENDBRANCH  13  14
ENDBRANCH   9  13
ENDBRANCH   3   7
BRANCH   5  19
HETATM   19  C   UNL     1      -3.551   3.662 -32.790  1.00  0.00     0.079 A 
HETATM   20  C   UNL     1      -4.366   4.381 -33.677  1.00  0.00     0.062 A 
HETATM   21 CL   UNL     1      -5.919   3.872 -34.246  1.00  0.00    -0.082 Cl
HETATM   22  C   UNL     1      -3.883   5.561 -34.267  1.00  0.00     0.026 A 
HETATM   23  C   UNL     1      -2.595   6.024 -33.998  1.00  0.00     0.002 A 
HETATM   24  C   UNL     1      -1.769   5.300 -33.150  1.00  0.00     0.002 A 
HETATM   25  C   UNL     1      -2.237   4.126 -32.557  1.00  0.00     0.033 A 
ENDBRANCH   5  19
TORSDOF 5
ENDMDL
MODEL 2
REMARK VINA RESULT:      -8.0      4.999      7.646
REMARK  5 active torsions:
REMARK  status: ('A' for Active; 'I' for Inactive)
REMARK    1  A    between atoms: C_3  and  N_4 
REMARK       I    between atoms: N_4  and  C_5 
REMARK       I    between atoms: C_5  and  N_6 
REMARK    2  A    between atoms: N_6  and  C_7 
REMARK    3  A    between atoms: C_7  and  C_8 
REMARK    4  A    between atoms: C_8  and  C_9 
REMARK    5  A    between atoms: N_15  and  C_16 
ROOT
HETATM    1  C   UNL     1      -8.476   2.038 -31.218  1.00  0.00     0.054 C 
HETATM    2  C   UNL     1      -7.666   1.322 -32.231  1.00  0.00     0.003 A 
HETATM    3  C   UNL     1      -7.069   1.817 -33.416  1.00  0.00     0.159 A 
HETATM    4  N   UNL     1      -6.439   0.851 -34.089  1.00  0.00    -0.149 NA
HETATM    5  N   UNL     1      -6.590  -0.280 -33.342  1.00  0.00    -0.241 N 
HETATM    6  C   UNL     1      -7.355  -0.022 -32.230  1.00  0.00     0.129 A 
ENDROOT
BRANCH   3   7
HETATM    7  N   UNL     1      -7.156   3.124 -33.845  1.00  0.00    -0.291 N 
HETATM    8  C   UNL     1      -6.249   4.130 -33.719  1.00  0.00     0.321 C 
HETATM    9  N   UNL     1      -5.146   3.885 -32.962  1.00  0.00    -0.343 N 
HETATM   10  O   UNL     1      -6.469   5.217 -34.250  1.00  0.00    -0.247 OA
HETATM   11  H   UNL     1      -5.009   2.904 -32.718  1.00  0.00     0.164 HD
HETATM   12  H   UNL     1      -7.986   3.396 -34.346  1.00  0.00     0.172 HD
BRANCH   9  13
HETATM   13  C   UNL     1      -4.056   4.827 -32.816  1.00  0.00     0.133 C 
BRANCH  13  14
HETATM   14  C   UNL     1      -2.813   4.401 -33.584  1.00  0.00     0.137 C 
BRANCH  14  15
HETATM   15  C   UNL     1      -2.594   5.309 -34.766  1.00  0.00     0.389 C 
HETATM   16  F   UNL     1      -3.634   5.268 -35.626  1.00  0.00    -0.171 F 
HETATM   17  F   UNL     1      -2.442   6.590 -34.366  1.00  0.00    -0.171 F 
HETATM   18  F   UNL     1      -1.481   4.961 -35.449  1.00  0.00    -0.171 F 
ENDBRANCH  14  15
ENDBRANCH  13  14
ENDBRANCH   9  13
ENDBRANCH   3   7
BRANCH   5  19
HETATM   19  C   UNL     1      -6.057  -1.517 -33.810  1.00  0.00     0.079 A 
HETATM   20  C   UNL     1      -4.721  -1.919 -33.650  1.00  0.00     0.062 A 
HETATM   21 CL   UNL     1      -3.438  -0.915 -33.069  1.00  0.00    -0.082 Cl
HETATM   22  C   UNL     1      -4.320  -3.191 -34.088  1.00  0.00     0.026 A 
HETATM   23  C   UNL     1      -5.224  -4.062 -34.695  1.00  0.00     0.002 A 
HETATM   24  C   UNL     1      -6.538  -3.660 -34.889  1.00  0.00     0.002 A 
HETATM   25  C   UNL     1      -6.951  -2.398 -34.459  1.00  0.00     0.033 A 
ENDBRANCH   5  19
TORSDOF 5
ENDMDL
MODEL 3
REMARK VINA RESULT:      -7.8      3.471      6.104
REMARK  5 active torsions:
REMARK  status: ('A' for Active; 'I' for Inactive)
REMARK    1  A    between atoms: C_3  and  N_4 
REMARK       I    between atoms: N_4  and  C_5 
REMARK       I    between atoms: C_5  and  N_6 
REMARK    2  A    between atoms: N_6  and  C_7 
REMARK    3  A    between atoms: C_7  and  C_8 
REMARK    4  A    between atoms: C_8  and  C_9 
REMARK    5  A    between atoms: N_15  and  C_16 
ROOT
HETATM    1  C   UNL     1      -3.097   2.850 -31.732  1.00  0.00     0.054 C 
HETATM    2  C   UNL     1      -3.775   1.537 -31.849  1.00  0.00     0.003 A 
HETATM    3  C   UNL     1      -4.983   1.095 -31.258  1.00  0.00     0.159 A 
HETATM    4  N   UNL     1      -5.252  -0.173 -31.579  1.00  0.00    -0.149 NA
HETATM    5  N   UNL     1      -4.242  -0.569 -32.403  1.00  0.00    -0.241 N 
HETATM    6  C   UNL     1      -3.323   0.442 -32.555  1.00  0.00     0.129 A 
ENDROOT
BRANCH   3   7
HETATM    7  N   UNL     1      -5.769   1.862 -30.425  1.00  0.00    -0.291 N 
HETATM    8  C   UNL     1      -7.043   2.300 -30.611  1.00  0.00     0.321 C 
HETATM    9  N   UNL     1      -7.608   2.078 -31.829  1.00  0.00    -0.343 N 
HETATM   10  O   UNL     1      -7.617   2.905 -29.708  1.00  0.00    -0.247 OA
HETATM   11  H   UNL     1      -7.091   1.431 -32.424  1.00  0.00     0.164 HD
HETATM   12  H   UNL     1      -5.381   2.132 -29.535  1.00  0.00     0.172 HD
BRANCH   9  13
HETATM   13  C   UNL     1      -8.984   2.405 -32.138  1.00  0.00     0.133 C 
BRANCH  13  14
HETATM   14  C   UNL     1      -9.580   1.481 -33.191  1.00  0.00     0.137 C 
BRANCH  14  15
HETATM   15  C   UNL     1      -9.693   0.080 -32.651  1.00  0.00     0.389 C 
HETATM   16  F   UNL     1      -9.531   0.045 -31.312  1.00  0.00    -0.171 F 
HETATM   17  F   UNL     1     -10.904  -0.447 -32.932  1.00  0.00    -0.171 F 
HETATM   18  F   UNL     1      -8.761  -0.731 -33.199  1.00  0.00    -0.171 F 
ENDBRANCH  14  15
ENDBRANCH  13  14
ENDBRANCH   9  13
ENDBRANCH   3   7
BRANCH   5  19
HETATM   19  C   UNL     1      -4.212  -1.905 -32.901  1.00  0.00     0.079 A 
HETATM   20  C   UNL     1      -4.943  -2.357 -34.011  1.00  0.00     0.062 A 
HETATM   21 CL   UNL     1      -6.170  -1.458 -34.834  1.00  0.00    -0.082 Cl
HETATM   22  C   UNL     1      -4.783  -3.679 -34.458  1.00  0.00     0.026 A 
HETATM   23  C   UNL     1      -3.920  -4.559 -33.807  1.00  0.00     0.002 A 
HETATM   24  C   UNL     1      -3.220  -4.132 -32.688  1.00  0.00     0.002 A 
HETATM   25  C   UNL     1      -3.369  -2.821 -32.233  1.00  0.00     0.033 A 
ENDBRANCH   5  19
TORSDOF 5
ENDMDL
MODEL 4
REMARK VINA RESULT:      -7.6      5.830      7.760
REMARK  5 active torsions:
REMARK  status: ('A' for Active; 'I' for Inactive)
REMARK    1  A    between atoms: C_3  and  N_4 
REMARK       I    between atoms: N_4  and  C_5 
REMARK       I    between atoms: C_5  and  N_6 
REMARK    2  A    between atoms: N_6  and  C_7 
REMARK    3  A    between atoms: C_7  and  C_8 
REMARK    4  A    between atoms: C_8  and  C_9 
REMARK    5  A    between atoms: N_15  and  C_16 
ROOT
HETATM    1  C   UNL     1      -7.881   2.234 -30.864  1.00  0.00     0.054 C 
HETATM    2  C   UNL     1      -7.572   1.384 -32.038  1.00  0.00     0.003 A 
HETATM    3  C   UNL     1      -7.922   1.571 -33.398  1.00  0.00     0.159 A 
HETATM    4  N   UNL     1      -7.486   0.565 -34.160  1.00  0.00    -0.149 NA
HETATM    5  N   UNL     1      -6.822  -0.277 -33.318  1.00  0.00    -0.241 N 
HETATM    6  C   UNL     1      -6.890   0.186 -32.026  1.00  0.00     0.129 A 
ENDROOT
BRANCH   3   7
HETATM    7  N   UNL     1      -8.654   2.637 -33.874  1.00  0.00    -0.291 N 
HETATM    8  C   UNL     1      -9.923   2.655 -34.365  1.00  0.00     0.321 C 
HETATM    9  N   UNL     1     -10.541   1.457 -34.544  1.00  0.00    -0.343 N 
HETATM   10  O   UNL     1     -10.445   3.728 -34.662  1.00  0.00    -0.247 OA
HETATM   11  H   UNL     1     -10.064   0.666 -34.110  1.00  0.00     0.164 HD
HETATM   12  H   UNL     1      -8.225   3.548 -33.845  1.00  0.00     0.172 HD
BRANCH   9  13
HETATM   13  C   UNL     1     -11.919   1.328 -34.969  1.00  0.00     0.133 C 
BRANCH  13  14
HETATM   14  C   UNL     1     -12.810   0.740 -33.885  1.00  0.00     0.137 C 
BRANCH  14  15
HETATM   15  C   UNL     1     -14.044   1.585 -33.710  1.00  0.00     0.389 C 
HETATM   16  F   UNL     1     -14.471   1.589 -32.429  1.00  0.00    -0.171 F 
HETATM   17  F   UNL     1     -13.804   2.865 -34.066  1.00  0.00    -0.171 F 
HETATM   18  F   UNL     1     -15.059   1.133 -34.479  1.00  0.00    -0.171 F 
ENDBRANCH  14  15
ENDBRANCH  13  14
ENDBRANCH   9  13
ENDBRANCH   3   7
BRANCH   5  19
HETATM   19  C   UNL     1      -6.258  -1.487 -33.821  1.00  0.00     0.079 A 
HETATM   20  C   UNL     1      -4.892  -1.807 -33.775  1.00  0.00     0.062 A 
HETATM   21 CL   UNL     1      -3.626  -0.722 -33.316  1.00  0.00    -0.082 Cl
HETATM   22  C   UNL     1      -4.455  -3.059 -34.236  1.00  0.00     0.026 A 
HETATM   23  C   UNL     1      -5.355  -3.989 -34.756  1.00  0.00     0.002 A 
HETATM   24  C   UNL     1      -6.702  -3.667 -34.838  1.00  0.00     0.002 A 
HETATM   25  C   UNL     1      -7.151  -2.427 -34.383  1.00  0.00     0.033 A 
ENDBRANCH   5  19
TORSDOF 5
ENDMDL
MODEL 5
REMARK VINA RESULT:      -7.3     14.483     16.252
REMARK  5 active torsions:
REMARK  status: ('A' for Active; 'I' for Inactive)
REMARK    1  A    between atoms: C_3  and  N_4 
REMARK       I    between atoms: N_4  and  C_5 
REMARK       I    between atoms: C_5  and  N_6 
REMARK    2  A    between atoms: N_6  and  C_7 
REMARK    3  A    between atoms: C_7  and  C_8 
REMARK    4  A    between atoms: C_8  and  C_9 
REMARK    5  A    between atoms: N_15  and  C_16 
ROOT
HETATM    1  C   UNL     1      -3.660 -14.043 -42.096  1.00  0.00     0.054 C 
HETATM    2  C   UNL     1      -4.863 -13.607 -41.347  1.00  0.00     0.003 A 
HETATM    3  C   UNL     1      -4.950 -12.872 -40.140  1.00  0.00     0.159 A 
HETATM    4  N   UNL     1      -6.219 -12.700 -39.761  1.00  0.00    -0.149 NA
HETATM    5  N   UNL     1      -6.978 -13.293 -40.726  1.00  0.00    -0.241 N 
HETATM    6  C   UNL     1      -6.175 -13.874 -41.678  1.00  0.00     0.129 A 
ENDROOT
BRANCH   3   7
HETATM    7  N   UNL     1      -3.864 -12.420 -39.422  1.00  0.00    -0.291 N 
HETATM    8  C   UNL     1      -3.633 -12.486 -38.083  1.00  0.00     0.321 C 
HETATM    9  N   UNL     1      -4.647 -12.939 -37.297  1.00  0.00    -0.343 N 
HETATM   10  O   UNL     1      -2.555 -12.105 -37.632  1.00  0.00    -0.247 OA
HETATM   11  H   UNL     1      -5.418 -13.370 -37.807  1.00  0.00     0.164 HD
HETATM   12  H   UNL     1      -3.107 -11.999 -39.937  1.00  0.00     0.172 HD
BRANCH   9  13
HETATM   13  C   UNL     1      -4.513 -13.149 -35.871  1.00  0.00     0.133 C 
BRANCH  13  14
HETATM   14  C   UNL     1      -5.729 -13.836 -35.267  1.00  0.00     0.137 C 
BRANCH  14  15
HETATM   15  C   UNL     1      -6.134 -13.150 -33.989  1.00  0.00     0.389 C 
HETATM   16  F   UNL     1      -7.322 -12.521 -34.114  1.00  0.00    -0.171 F 
HETATM   17  F   UNL     1      -6.246 -14.040 -32.980  1.00  0.00    -0.171 F 
HETATM   18  F   UNL     1      -5.218 -12.228 -33.618  1.00  0.00    -0.171 F 
ENDBRANCH  14  15
ENDBRANCH  13  14
ENDBRANCH   9  13
ENDBRANCH   3   7
BRANCH   5  19
HETATM   19  C   UNL     1      -8.398 -13.318 -40.599  1.00  0.00     0.079 A 
HETATM   20  C   UNL     1      -9.185 -14.477 -40.685  1.00  0.00     0.062 A 
HETATM   21 CL   UNL     1      -8.619 -16.035 -41.179  1.00  0.00    -0.082 Cl
HETATM   22  C   UNL     1     -10.571 -14.395 -40.474  1.00  0.00     0.026 A 
HETATM   23  C   UNL     1     -11.185 -13.175 -40.193  1.00  0.00     0.002 A 
HETATM   24  C   UNL     1     -10.421 -12.019 -40.141  1.00  0.00     0.002 A 
HETATM   25  C   UNL     1      -9.042 -12.085 -40.349  1.00  0.00     0.033 A 
ENDBRANCH   5  19
TORSDOF 5
ENDMDL
MODEL 6
REMARK VINA RESULT:      -7.3      5.576      7.948
REMARK  5 active torsions:
REMARK  status: ('A' for Active; 'I' for Inactive)
REMARK    1  A    between atoms: C_3  and  N_4 
REMARK       I    between atoms: N_4  and  C_5 
REMARK       I    between atoms: C_5  and  N_6 
REMARK    2  A    between atoms: N_6  and  C_7 
REMARK    3  A    between atoms: C_7  and  C_8 
REMARK    4  A    between atoms: C_8  and  C_9 
REMARK    5  A    between atoms: N_15  and  C_16 
ROOT
HETATM    1  C   UNL     1      -6.723   3.595 -29.967  1.00  0.00     0.054 C 
HETATM    2  C   UNL     1      -6.327   2.789 -31.146  1.00  0.00     0.003 A 
HETATM    3  C   UNL     1      -5.776   3.214 -32.380  1.00  0.00     0.159 A 
HETATM    4  N   UNL     1      -5.582   2.187 -33.210  1.00  0.00    -0.149 NA
HETATM    5  N   UNL     1      -5.974   1.076 -32.525  1.00  0.00    -0.241 N 
HETATM    6  C   UNL     1      -6.457   1.423 -31.285  1.00  0.00     0.129 A 
ENDROOT
BRANCH   3   7
HETATM    7  N   UNL     1      -5.507   4.527 -32.702  1.00  0.00    -0.291 N 
HETATM    8  C   UNL     1      -4.322   5.101 -33.043  1.00  0.00     0.321 C 
HETATM    9  N   UNL     1      -3.204   4.332 -32.940  1.00  0.00    -0.343 N 
HETATM   10  O   UNL     1      -4.294   6.280 -33.388  1.00  0.00    -0.247 OA
HETATM   11  H   UNL     1      -3.385   3.338 -32.801  1.00  0.00     0.164 HD
HETATM   12  H   UNL     1      -6.281   5.171 -32.720  1.00  0.00     0.172 HD
BRANCH   9  13
HETATM   13  C   UNL     1      -1.891   4.780 -33.355  1.00  0.00     0.133 C 
BRANCH  13  14
HETATM   14  C   UNL     1      -1.055   5.293 -32.192  1.00  0.00     0.137 C 
BRANCH  14  15
HETATM   15  C   UNL     1      -0.731   6.751 -32.388  1.00  0.00     0.389 C 
HETATM   16  F   UNL     1       0.479   7.067 -31.879  1.00  0.00    -0.171 F 
HETATM   17  F   UNL     1      -0.720   7.069 -33.700  1.00  0.00    -0.171 F 
HETATM   18  F   UNL     1      -1.648   7.540 -31.787  1.00  0.00    -0.171 F 
ENDBRANCH  14  15
ENDBRANCH  13  14
ENDBRANCH   9  13
ENDBRANCH   3   7
BRANCH   5  19
HETATM   19  C   UNL     1      -5.927  -0.203 -33.154  1.00  0.00     0.079 A 
HETATM   20  C   UNL     1      -7.046  -0.885 -33.656  1.00  0.00     0.062 A 
HETATM   21 CL   UNL     1      -8.694  -0.420 -33.409  1.00  0.00    -0.082 Cl
HETATM   22  C   UNL     1      -6.875  -2.109 -34.322  1.00  0.00     0.026 A 
HETATM   23  C   UNL     1      -5.608  -2.670 -34.482  1.00  0.00     0.002 A 
HETATM   24  C   UNL     1      -4.499  -2.020 -33.958  1.00  0.00     0.002 A 
HETATM   25  C   UNL     1      -4.655  -0.803 -33.294  1.00  0.00     0.033 A 
ENDBRANCH   5  19
TORSDOF 5
ENDMDL
MODEL 7
REMARK VINA RESULT:      -7.3      5.955      8.297
REMARK  5 active torsions:
REMARK  status: ('A' for Active; 'I' for Inactive)
REMARK    1  A    between atoms: C_3  and  N_4 
REMARK       I    between atoms: N_4  and  C_5 
REMARK       I    between atoms: C_5  and  N_6 
REMARK    2  A    between atoms: N_6  and  C_7 
REMARK    3  A    between atoms: C_7  and  C_8 
REMARK    4  A    between atoms: C_8  and  C_9 
REMARK    5  A    between atoms: N_15  and  C_16 
ROOT
HETATM    1  C   UNL     1      -5.813   4.131 -29.693  1.00  0.00     0.054 C 
HETATM    2  C   UNL     1      -5.568   3.405 -30.961  1.00  0.00     0.003 A 
HETATM    3  C   UNL     1      -5.017   3.881 -32.176  1.00  0.00     0.159 A 
HETATM    4  N   UNL     1      -4.985   2.926 -33.108  1.00  0.00    -0.149 NA
HETATM    5  N   UNL     1      -5.487   1.808 -32.511  1.00  0.00    -0.241 N 
HETATM    6  C   UNL     1      -5.873   2.085 -31.222  1.00  0.00     0.129 A 
ENDROOT
BRANCH   3   7
HETATM    7  N   UNL     1      -4.598   5.177 -32.386  1.00  0.00    -0.291 N 
HETATM    8  C   UNL     1      -3.333   5.674 -32.425  1.00  0.00     0.321 C 
HETATM    9  N   UNL     1      -2.320   4.830 -32.089  1.00  0.00    -0.343 N 
HETATM   10  O   UNL     1      -3.151   6.855 -32.717  1.00  0.00    -0.247 OA
HETATM   11  H   UNL     1      -2.590   3.849 -32.028  1.00  0.00     0.164 HD
HETATM   12  H   UNL     1      -5.305   5.873 -32.563  1.00  0.00     0.172 HD
BRANCH   9  13
HETATM   13  C   UNL     1      -0.921   5.193 -32.175  1.00  0.00     0.133 C 
BRANCH  13  14
HETATM   14  C   UNL     1      -0.285   5.389 -30.807  1.00  0.00     0.137 C 
BRANCH  14  15
HETATM   15  C   UNL     1       0.214   6.802 -30.661  1.00  0.00     0.389 C 
HETATM   16  F   UNL     1       0.703   7.035 -29.424  1.00  0.00    -0.171 F 
HETATM   17  F   UNL     1       1.201   7.057 -31.547  1.00  0.00    -0.171 F 
HETATM   18  F   UNL     1      -0.775   7.695 -30.887  1.00  0.00    -0.171 F 
ENDBRANCH  14  15
ENDBRANCH  13  14
ENDBRANCH   9  13
ENDBRANCH   3   7
BRANCH   5  19
HETATM   19  C   UNL     1      -5.624   0.602 -33.261  1.00  0.00     0.079 A 
HETATM   20  C   UNL     1      -4.716  -0.467 -33.220  1.00  0.00     0.062 A 
HETATM   21 CL   UNL     1      -3.171  -0.439 -32.443  1.00  0.00    -0.082 Cl
HETATM   22  C   UNL     1      -4.987  -1.639 -33.946  1.00  0.00     0.026 A 
HETATM   23  C   UNL     1      -6.139  -1.753 -34.723  1.00  0.00     0.002 A 
HETATM   24  C   UNL     1      -7.024  -0.687 -34.798  1.00  0.00     0.002 A 
HETATM   25  C   UNL     1      -6.768   0.483 -34.082  1.00  0.00     0.033 A 
ENDBRANCH   5  19
TORSDOF 5
ENDMDL
MODEL 8
REMARK VINA RESULT:      -7.2      4.707      7.413
REMARK  5 active torsions:
REMARK  status: ('A' for Active; 'I' for Inactive)
REMARK    1  A    between atoms: C_3  and  N_4 
REMARK       I    between atoms: N_4  and  C_5 
REMARK       I    between atoms: C_5  and  N_6 
REMARK    2  A    between atoms: N_6  and  C_7 
REMARK    3  A    between atoms: C_7  and  C_8 
REMARK    4  A    between atoms: C_8  and  C_9 
REMARK    5  A    between atoms: N_15  and  C_16 
ROOT
HETATM    1  C   UNL     1      -9.813   1.625 -32.259  1.00  0.00     0.054 C 
HETATM    2  C   UNL     1      -8.619   1.066 -32.934  1.00  0.00     0.003 A 
HETATM    3  C   UNL     1      -7.673   1.712 -33.766  1.00  0.00     0.159 A 
HETATM    4  N   UNL     1      -6.748   0.859 -34.213  1.00  0.00    -0.149 NA
HETATM    5  N   UNL     1      -7.058  -0.347 -33.659  1.00  0.00    -0.241 N 
HETATM    6  C   UNL     1      -8.203  -0.249 -32.906  1.00  0.00     0.129 A 
ENDROOT
BRANCH   3   7
HETATM    7  N   UNL     1      -7.719   3.047 -34.106  1.00  0.00    -0.291 N 
HETATM    8  C   UNL     1      -6.862   4.048 -33.768  1.00  0.00     0.321 C 
HETATM    9  N   UNL     1      -5.885   3.756 -32.868  1.00  0.00    -0.343 N 
HETATM   10  O   UNL     1      -7.019   5.170 -34.245  1.00  0.00    -0.247 OA
HETATM   11  H   UNL     1      -5.767   2.760 -32.679  1.00  0.00     0.164 HD
HETATM   12  H   UNL     1      -8.467   3.350 -34.710  1.00  0.00     0.172 HD
BRANCH   9  13
HETATM   13  C   UNL     1      -4.849   4.693 -32.487  1.00  0.00     0.133 C 
BRANCH  13  14
HETATM   14  C   UNL     1      -4.111   4.264 -31.227  1.00  0.00     0.137 C 
BRANCH  14  15
HETATM   15  C   UNL     1      -2.864   3.501 -31.587  1.00  0.00     0.389 C 
HETATM   16  F   UNL     1      -2.727   3.369 -32.924  1.00  0.00    -0.171 F 
HETATM   17  F   UNL     1      -1.764   4.130 -31.122  1.00  0.00    -0.171 F 
HETATM   18  F   UNL     1      -2.880   2.260 -31.052  1.00  0.00    -0.171 F 
ENDBRANCH  14  15
ENDBRANCH  13  14
ENDBRANCH   9  13
ENDBRANCH   3   7
BRANCH   5  19
HETATM   19  C   UNL     1      -6.272  -1.495 -33.971  1.00  0.00     0.079 A 
HETATM   20  C   UNL     1      -4.909  -1.634 -33.666  1.00  0.00     0.062 A 
HETATM   21 CL   UNL     1      -3.885  -0.375 -33.068  1.00  0.00    -0.082 Cl
HETATM   22  C   UNL     1      -4.249  -2.839 -33.956  1.00  0.00     0.026 A 
HETATM   23  C   UNL     1      -4.923  -3.901 -34.560  1.00  0.00     0.002 A 
HETATM   24  C   UNL     1      -6.261  -3.760 -34.898  1.00  0.00     0.002 A 
HETATM   25  C   UNL     1      -6.929  -2.568 -34.615  1.00  0.00     0.033 A 
ENDBRANCH   5  19
TORSDOF 5
ENDMDL
MODEL 9
REMARK VINA RESULT:      -7.2      5.181      7.539
REMARK  5 active torsions:
REMARK  status: ('A' for Active; 'I' for Inactive)
REMARK    1  A    between atoms: C_3  and  N_4 
REMARK       I    between atoms: N_4  and  C_5 
REMARK       I    between atoms: C_5  and  N_6 
REMARK    2  A    between atoms: N_6  and  C_7 
REMARK    3  A    between atoms: C_7  and  C_8 
REMARK    4  A    between atoms: C_8  and  C_9 
REMARK    5  A    between atoms: N_15  and  C_16 
ROOT
HETATM    1  C   UNL     1      -7.425   2.617 -30.138  1.00  0.00     0.054 C 
HETATM    2  C   UNL     1      -6.792   1.841 -31.231  1.00  0.00     0.003 A 
HETATM    3  C   UNL     1      -6.610   2.190 -32.591  1.00  0.00     0.159 A 
HETATM    4  N   UNL     1      -6.020   1.207 -33.276  1.00  0.00    -0.149 NA
HETATM    5  N   UNL     1      -5.783   0.216 -32.371  1.00  0.00    -0.241 N 
HETATM    6  C   UNL     1      -6.269   0.568 -31.135  1.00  0.00     0.129 A 
ENDROOT
BRANCH   3   7
HETATM    7  N   UNL     1      -7.023   3.380 -33.151  1.00  0.00    -0.291 N 
HETATM    8  C   UNL     1      -6.275   4.371 -33.707  1.00  0.00     0.321 C 
HETATM    9  N   UNL     1      -4.922   4.267 -33.600  1.00  0.00    -0.343 N 
HETATM   10  O   UNL     1      -6.832   5.327 -34.242  1.00  0.00    -0.247 OA
HETATM   11  H   UNL     1      -4.591   3.356 -33.282  1.00  0.00     0.164 HD
HETATM   12  H   UNL     1      -8.013   3.559 -33.192  1.00  0.00     0.172 HD
BRANCH   9  13
HETATM   13  C   UNL     1      -4.002   5.196 -34.222  1.00  0.00     0.133 C 
BRANCH  13  14
HETATM   14  C   UNL     1      -2.581   4.654 -34.285  1.00  0.00     0.137 C 
BRANCH  14  15
HETATM   15  C   UNL     1      -1.590   5.788 -34.273  1.00  0.00     0.389 C 
HETATM   16  F   UNL     1      -2.194   6.982 -34.451  1.00  0.00    -0.171 F 
HETATM   17  F   UNL     1      -0.927   5.834 -33.098  1.00  0.00    -0.171 F 
HETATM   18  F   UNL     1      -0.671   5.642 -35.253  1.00  0.00    -0.171 F 
ENDBRANCH  14  15
ENDBRANCH  13  14
ENDBRANCH   9  13
ENDBRANCH   3   7
BRANCH   5  19
HETATM   19  C   UNL     1      -5.187  -1.008 -32.797  1.00  0.00     0.079 A 
HETATM   20  C   UNL     1      -5.615  -1.759 -33.902  1.00  0.00     0.062 A 
HETATM   21 CL   UNL     1      -7.061  -1.472 -34.808  1.00  0.00    -0.082 Cl
HETATM   22  C   UNL     1      -4.909  -2.914 -34.275  1.00  0.00     0.026 A 
HETATM   23  C   UNL     1      -3.793  -3.340 -33.554  1.00  0.00     0.002 A 
HETATM   24  C   UNL     1      -3.384  -2.623 -32.439  1.00  0.00     0.002 A 
HETATM   25  C   UNL     1      -4.076  -1.473 -32.057  1.00  0.00     0.033 A 
ENDBRANCH   5  19
TORSDOF 5
ENDMDL
MODEL 10
REMARK VINA RESULT:      -7.0      2.556      3.170
REMARK  5 active torsions:
REMARK  status: ('A' for Active; 'I' for Inactive)
REMARK    1  A    between atoms: C_3  and  N_4 
REMARK       I    between atoms: N_4  and  C_5 
REMARK       I    between atoms: C_5  and  N_6 
REMARK    2  A    between atoms: N_6  and  C_7 
REMARK    3  A    between atoms: C_7  and  C_8 
REMARK    4  A    between atoms: C_8  and  C_9 
REMARK    5  A    between atoms: N_15  and  C_16 
ROOT
HETATM    1  C   UNL     1      -7.998   4.436 -30.486  1.00  0.00     0.054 C 
HETATM    2  C   UNL     1      -6.805   4.197 -31.332  1.00  0.00     0.003 A 
HETATM    3  C   UNL     1      -6.572   3.178 -32.288  1.00  0.00     0.159 A 
HETATM    4  N   UNL     1      -5.354   3.279 -32.826  1.00  0.00    -0.149 NA
HETATM    5  N   UNL     1      -4.785   4.377 -32.252  1.00  0.00    -0.241 N 
HETATM    6  C   UNL     1      -5.636   4.928 -31.324  1.00  0.00     0.129 A 
ENDROOT
BRANCH   3   7
HETATM    7  N   UNL     1      -7.473   2.183 -32.600  1.00  0.00    -0.291 N 
HETATM    8  C   UNL     1      -7.280   0.838 -32.653  1.00  0.00     0.321 C 
HETATM    9  N   UNL     1      -6.006   0.383 -32.507  1.00  0.00    -0.343 N 
HETATM   10  O   UNL     1      -8.235   0.094 -32.866  1.00  0.00    -0.247 OA
HETATM   11  H   UNL     1      -5.342   1.084 -32.178  1.00  0.00     0.164 HD
HETATM   12  H   UNL     1      -8.422   2.457 -32.799  1.00  0.00     0.172 HD
BRANCH   9  13
HETATM   13  C   UNL     1      -5.665  -1.022 -32.449  1.00  0.00     0.133 C 
BRANCH  13  14
HETATM   14  C   UNL     1      -5.016  -1.518 -33.733  1.00  0.00     0.137 C 
BRANCH  14  15
HETATM   15  C   UNL     1      -6.066  -2.034 -34.681  1.00  0.00     0.389 C 
HETATM   16  F   UNL     1      -7.093  -2.614 -34.024  1.00  0.00    -0.171 F 
HETATM   17  F   UNL     1      -6.573  -1.030 -35.430  1.00  0.00    -0.171 F 
HETATM   18  F   UNL     1      -5.550  -2.952 -35.528  1.00  0.00    -0.171 F 
ENDBRANCH  14  15
ENDBRANCH  13  14
ENDBRANCH   9  13
ENDBRANCH   3   7
BRANCH   5  19
HETATM   19  C   UNL     1      -3.449   4.744 -32.590  1.00  0.00     0.079 A 
HETATM   20  C   UNL     1      -3.043   5.191 -33.857  1.00  0.00     0.062 A 
HETATM   21 CL   UNL     1      -4.017   5.167 -35.286  1.00  0.00    -0.082 Cl
HETATM   22  C   UNL     1      -1.713   5.594 -34.060  1.00  0.00     0.026 A 
HETATM   23  C   UNL     1      -0.780   5.543 -33.024  1.00  0.00     0.002 A 
HETATM   24  C   UNL     1      -1.164   5.069 -31.778  1.00  0.00     0.002 A 
HETATM   25  C   UNL     1      -2.482   4.665 -31.563  1.00  0.00     0.033 A 
ENDBRANCH   5  19
TORSDOF 5
ENDMDL
