MODEL 1
REMARK VINA RESULT:      -9.4      0.000      0.000
REMARK  7 active torsions:
REMARK  status: ('A' for Active; 'I' for Inactive)
REMARK    1  A    between atoms: C_2  and  N_3 
REMARK    2  A    between atoms: N_7  and  C_8 
REMARK    3  A    between atoms: C_11  and  N_12 
REMARK    4  A    between atoms: N_12  and  C_13 
REMARK    5  A    between atoms: C_13  and  N_14 
REMARK       I    between atoms: N_14  and  C_15 
REMARK    6  A    between atoms: C_15  and  C_16 
REMARK    7  A    between atoms: C_18  and  C_19 
ROOT
HETATM    1  C   UNL     1      -9.197   2.311 -31.161  1.00  0.00     0.179 C 
HETATM    2  S   UNL     1      -9.706   3.704 -30.365  1.00  0.00    -0.040 SA
ENDROOT
BRANCH   1   3
HETATM    3  N   UNL     1      -8.007   1.653 -30.981  1.00  0.00    -0.333 N 
HETATM    4  H   UNL     1      -8.107   0.647 -30.864  1.00  0.00     0.168 HD
BRANCH   3   5
HETATM    5  C   UNL     1      -6.750   2.112 -31.434  1.00  0.00     0.034 A 
HETATM    6  C   UNL     1      -5.562   1.578 -30.948  1.00  0.00     0.032 A 
HETATM    7  C   UNL     1      -4.324   2.083 -31.373  1.00  0.00     0.031 A 
HETATM    8  C   UNL     1      -4.219   3.156 -32.274  1.00  0.00     0.030 A 
HETATM    9  C   UNL     1      -5.435   3.595 -32.829  1.00  0.00     0.031 A 
HETATM   10  C   UNL     1      -6.682   3.086 -32.419  1.00  0.00     0.032 A 
BRANCH   8  11
HETATM   11  N   UNL     1      -2.976   3.719 -32.618  1.00  0.00    -0.378 N 
HETATM   12  C   UNL     1      -2.112   4.225 -31.523  1.00  0.00     0.150 C 
HETATM   13  C   UNL     1      -2.609   5.611 -31.049  1.00  0.00     0.254 C 
HETATM   14  N   UNL     1      -2.639   6.605 -32.224  1.00  0.00    -0.068 N 
HETATM   15  H   UNL     1      -1.669   6.728 -32.541  1.00  0.00     0.280 HD
HETATM   16  C   UNL     1      -3.420   6.027 -33.424  1.00  0.00     0.254 C 
HETATM   17  C   UNL     1      -2.902   4.617 -33.794  1.00  0.00     0.150 C 
BRANCH  14  18
HETATM   18  C   UNL     1      -3.186   7.961 -31.841  1.00  0.00     0.230 C 
HETATM   19  C   UNL     1      -2.103   8.837 -31.241  1.00  0.00     0.034 C 
ENDBRANCH  14  18
ENDBRANCH   8  11
ENDBRANCH   3   5
ENDBRANCH   1   3
BRANCH   1  20
HETATM   20  N   UNL     1     -10.082   1.805 -32.092  1.00  0.00    -0.298 N 
HETATM   21  C   UNL     1     -10.134   0.822 -33.080  1.00  0.00     0.281 C 
HETATM   22  O   UNL     1     -11.246   0.317 -33.264  1.00  0.00    -0.265 OA
HETATM   23  H   UNL     1     -11.036   2.006 -31.807  1.00  0.00     0.171 HD
BRANCH  21  24
HETATM   24  C   UNL     1      -8.985   0.408 -33.855  1.00  0.00     0.144 A 
HETATM   25  O   UNL     1      -8.189  -0.658 -33.513  1.00  0.00    -0.304 OA
HETATM   26  C   UNL     1      -7.136  -0.666 -34.391  1.00  0.00     0.086 A 
HETATM   27  C   UNL     1      -7.254   0.368 -35.292  1.00  0.00     0.041 A 
HETATM   28  C   UNL     1      -8.441   1.047 -34.958  1.00  0.00     0.046 A 
BRANCH  26  29
HETATM   29  C   UNL     1      -6.118  -1.681 -34.191  1.00  0.00    -0.001 A 
HETATM   30  C   UNL     1      -5.078  -1.481 -33.278  1.00  0.00     0.040 A 
HETATM   31  C   UNL     1      -4.109  -2.471 -33.076  1.00  0.00     0.056 A 
HETATM   32 CL   UNL     1      -2.843  -2.134 -31.947  1.00  0.00    -0.083 Cl
HETATM   33  C   UNL     1      -4.185  -3.679 -33.776  1.00  0.00     0.055 A 
HETATM   34 CL   UNL     1      -3.023  -4.941 -33.576  1.00  0.00    -0.083 Cl
HETATM   35  C   UNL     1      -5.232  -3.893 -34.676  1.00  0.00     0.026 A 
HETATM   36  C   UNL     1      -6.193  -2.899 -34.879  1.00  0.00     0.016 A 
ENDBRANCH  26  29
ENDBRANCH  21  24
ENDBRANCH   1  20
TORSDOF 7
ENDMDL
MODEL 2
REMARK VINA RESULT:      -9.1      2.975      7.072
REMARK  7 active torsions:
REMARK  status: ('A' for Active; 'I' for Inactive)
REMARK    1  A    between atoms: C_2  and  N_3 
REMARK    2  A    between atoms: N_7  and  C_8 
REMARK    3  A    between atoms: C_11  and  N_12 
REMARK    4  A    between atoms: N_12  and  C_13 
REMARK    5  A    between atoms: C_13  and  N_14 
REMARK       I    between atoms: N_14  and  C_15 
REMARK    6  A    between atoms: C_15  and  C_16 
REMARK    7  A    between atoms: C_18  and  C_19 
ROOT
HETATM    1  C   UNL     1      -6.969   3.160 -30.886  1.00  0.00     0.179 C 
HETATM    2  S   UNL     1      -8.007   4.073 -29.926  1.00  0.00    -0.040 SA
ENDROOT
BRANCH   1   3
HETATM    3  N   UNL     1      -7.291   2.036 -31.600  1.00  0.00    -0.333 N 
HETATM    4  H   UNL     1      -6.938   1.174 -31.191  1.00  0.00     0.168 HD
BRANCH   3   5
HETATM    5  C   UNL     1      -8.404   1.913 -32.462  1.00  0.00     0.034 A 
HETATM    6  C   UNL     1      -8.705   2.889 -33.405  1.00  0.00     0.032 A 
HETATM    7  C   UNL     1      -9.844   2.773 -34.216  1.00  0.00     0.031 A 
HETATM    8  C   UNL     1     -10.743   1.700 -34.100  1.00  0.00     0.030 A 
HETATM    9  C   UNL     1     -10.348   0.679 -33.216  1.00  0.00     0.031 A 
HETATM   10  C   UNL     1      -9.201   0.779 -32.408  1.00  0.00     0.032 A 
BRANCH   8  11
HETATM   11  N   UNL     1     -11.934   1.643 -34.849  1.00  0.00    -0.378 N 
HETATM   12  C   UNL     1     -12.548   2.924 -35.279  1.00  0.00     0.150 C 
HETATM   13  C   UNL     1     -13.319   3.567 -34.103  1.00  0.00     0.254 C 
HETATM   14  N   UNL     1     -14.390   2.600 -33.565  1.00  0.00    -0.068 N 
HETATM   15  H   UNL     1     -15.071   2.452 -34.321  1.00  0.00     0.280 HD
HETATM   16  C   UNL     1     -13.783   1.218 -33.246  1.00  0.00     0.254 C 
HETATM   17  C   UNL     1     -12.980   0.674 -34.451  1.00  0.00     0.150 C 
BRANCH  14  18
HETATM   18  C   UNL     1     -15.130   3.143 -32.364  1.00  0.00     0.230 C 
HETATM   19  C   UNL     1     -16.456   2.431 -32.171  1.00  0.00     0.034 C 
ENDBRANCH  14  18
ENDBRANCH   8  11
ENDBRANCH   3   5
ENDBRANCH   1   3
BRANCH   1  20
HETATM   20  N   UNL     1      -5.663   3.606 -30.932  1.00  0.00    -0.298 N 
HETATM   21  C   UNL     1      -4.441   3.248 -31.503  1.00  0.00     0.281 C 
HETATM   22  O   UNL     1      -3.692   4.191 -31.779  1.00  0.00    -0.265 OA
HETATM   23  H   UNL     1      -5.630   4.601 -30.731  1.00  0.00     0.171 HD
BRANCH  21  24
HETATM   24  C   UNL     1      -4.049   1.880 -31.757  1.00  0.00     0.144 A 
HETATM   25  O   UNL     1      -4.724   1.050 -32.619  1.00  0.00    -0.304 OA
HETATM   26  C   UNL     1      -4.155  -0.192 -32.504  1.00  0.00     0.086 A 
HETATM   27  C   UNL     1      -3.122  -0.164 -31.593  1.00  0.00     0.041 A 
HETATM   28  C   UNL     1      -3.046   1.162 -31.125  1.00  0.00     0.046 A 
BRANCH  26  29
HETATM   29  C   UNL     1      -4.743  -1.263 -33.286  1.00  0.00    -0.001 A 
HETATM   30  C   UNL     1      -4.130  -2.518 -33.356  1.00  0.00     0.040 A 
HETATM   31  C   UNL     1      -4.712  -3.553 -34.097  1.00  0.00     0.056 A 
HETATM   32 CL   UNL     1      -3.876  -5.066 -34.152  1.00  0.00    -0.083 Cl
HETATM   33  C   UNL     1      -5.924  -3.343 -34.762  1.00  0.00     0.055 A 
HETATM   34 CL   UNL     1      -6.695  -4.575 -35.695  1.00  0.00    -0.083 Cl
HETATM   35  C   UNL     1      -6.551  -2.098 -34.680  1.00  0.00     0.026 A 
HETATM   36  C   UNL     1      -5.963  -1.065 -33.945  1.00  0.00     0.016 A 
ENDBRANCH  26  29
ENDBRANCH  21  24
ENDBRANCH   1  20
TORSDOF 7
ENDMDL
MODEL 3
REMARK VINA RESULT:      -9.1      3.517      5.612
REMARK  7 active torsions:
REMARK  status: ('A' for Active; 'I' for Inactive)
REMARK    1  A    between atoms: C_2  and  N_3 
REMARK    2  A    between atoms: N_7  and  C_8 
REMARK    3  A    between atoms: C_11  and  N_12 
REMARK    4  A    between atoms: N_12  and  C_13 
REMARK    5  A    between atoms: C_13  and  N_14 
REMARK       I    between atoms: N_14  and  C_15 
REMARK    6  A    between atoms: C_15  and  C_16 
REMARK    7  A    between atoms: C_18  and  C_19 
ROOT
HETATM    1  C   UNL     1      -3.060   4.849 -33.370  1.00  0.00     0.179 C 
HETATM    2  S   UNL     1      -3.320   5.529 -34.887  1.00  0.00    -0.040 SA
ENDROOT
BRANCH   1   3
HETATM    3  N   UNL     1      -1.848   4.590 -32.785  1.00  0.00    -0.333 N 
HETATM    4  H   UNL     1      -1.214   4.053 -33.372  1.00  0.00     0.168 HD
BRANCH   3   5
HETATM    5  C   UNL     1      -1.252   5.375 -31.771  1.00  0.00     0.034 A 
HETATM    6  C   UNL     1      -0.370   4.825 -30.849  1.00  0.00     0.032 A 
HETATM    7  C   UNL     1       0.170   5.609 -29.820  1.00  0.00     0.031 A 
HETATM    8  C   UNL     1      -0.169   6.962 -29.648  1.00  0.00     0.030 A 
HETATM    9  C   UNL     1      -0.974   7.512 -30.663  1.00  0.00     0.031 A 
HETATM   10  C   UNL     1      -1.510   6.736 -31.707  1.00  0.00     0.032 A 
BRANCH   8  11
HETATM   11  N   UNL     1       0.301   7.714 -28.555  1.00  0.00    -0.378 N 
HETATM   12  C   UNL     1       0.716   6.983 -27.333  1.00  0.00     0.150 C 
HETATM   13  C   UNL     1      -0.528   6.567 -26.512  1.00  0.00     0.254 C 
HETATM   14  N   UNL     1      -1.373   7.803 -26.150  1.00  0.00    -0.068 N 
HETATM   15  H   UNL     1      -0.797   8.395 -25.538  1.00  0.00     0.280 HD
HETATM   16  C   UNL     1      -1.691   8.647 -27.402  1.00  0.00     0.254 C 
HETATM   17  C   UNL     1      -0.403   8.966 -28.197  1.00  0.00     0.150 C 
BRANCH  14  18
HETATM   18  C   UNL     1      -2.645   7.455 -25.409  1.00  0.00     0.230 C 
HETATM   19  C   UNL     1      -2.803   8.311 -24.166  1.00  0.00     0.034 C 
ENDBRANCH  14  18
ENDBRANCH   8  11
ENDBRANCH   3   5
ENDBRANCH   1   3
BRANCH   1  20
HETATM   20  N   UNL     1      -4.202   4.517 -32.668  1.00  0.00    -0.298 N 
HETATM   21  C   UNL     1      -4.676   3.505 -31.832  1.00  0.00     0.281 C 
HETATM   22  O   UNL     1      -5.492   3.866 -30.978  1.00  0.00    -0.265 OA
HETATM   23  H   UNL     1      -4.748   5.352 -32.481  1.00  0.00     0.171 HD
BRANCH  21  24
HETATM   24  C   UNL     1      -4.265   2.123 -31.941  1.00  0.00     0.144 A 
HETATM   25  O   UNL     1      -4.847   1.229 -32.806  1.00  0.00    -0.304 OA
HETATM   26  C   UNL     1      -4.297   0.001 -32.538  1.00  0.00     0.086 A 
HETATM   27  C   UNL     1      -3.367   0.101 -31.527  1.00  0.00     0.041 A 
HETATM   28  C   UNL     1      -3.338   1.459 -31.154  1.00  0.00     0.046 A 
BRANCH  26  29
HETATM   29  C   UNL     1      -4.803  -1.128 -33.297  1.00  0.00    -0.001 A 
HETATM   30  C   UNL     1      -4.086  -2.326 -33.360  1.00  0.00     0.040 A 
HETATM   31  C   UNL     1      -4.587  -3.419 -34.078  1.00  0.00     0.056 A 
HETATM   32 CL   UNL     1      -3.626  -4.855 -34.126  1.00  0.00    -0.083 Cl
HETATM   33  C   UNL     1      -5.822  -3.323 -34.726  1.00  0.00     0.055 A 
HETATM   34 CL   UNL     1      -6.498  -4.630 -35.630  1.00  0.00    -0.083 Cl
HETATM   35  C   UNL     1      -6.553  -2.134 -34.652  1.00  0.00     0.026 A 
HETATM   36  C   UNL     1      -6.045  -1.045 -33.940  1.00  0.00     0.016 A 
ENDBRANCH  26  29
ENDBRANCH  21  24
ENDBRANCH   1  20
TORSDOF 7
ENDMDL
MODEL 4
REMARK VINA RESULT:      -9.1      2.824      6.495
REMARK  7 active torsions:
REMARK  status: ('A' for Active; 'I' for Inactive)
REMARK    1  A    between atoms: C_2  and  N_3 
REMARK    2  A    between atoms: N_7  and  C_8 
REMARK    3  A    between atoms: C_11  and  N_12 
REMARK    4  A    between atoms: N_12  and  C_13 
REMARK    5  A    between atoms: C_13  and  N_14 
REMARK       I    between atoms: N_14  and  C_15 
REMARK    6  A    between atoms: C_15  and  C_16 
REMARK    7  A    between atoms: C_18  and  C_19 
ROOT
HETATM    1  C   UNL     1      -6.543   4.032 -29.291  1.00  0.00     0.179 C 
HETATM    2  S   UNL     1      -6.746   5.496 -28.487  1.00  0.00    -0.040 SA
ENDROOT
BRANCH   1   3
HETATM    3  N   UNL     1      -7.487   3.052 -29.459  1.00  0.00    -0.333 N 
HETATM    4  H   UNL     1      -7.818   2.646 -28.586  1.00  0.00     0.168 HD
BRANCH   3   5
HETATM    5  C   UNL     1      -8.351   2.939 -30.572  1.00  0.00     0.034 A 
HETATM    6  C   UNL     1      -8.644   1.706 -31.143  1.00  0.00     0.032 A 
HETATM    7  C   UNL     1      -9.462   1.621 -32.279  1.00  0.00     0.031 A 
HETATM    8  C   UNL     1      -9.995   2.758 -32.909  1.00  0.00     0.030 A 
HETATM    9  C   UNL     1      -9.770   3.975 -32.240  1.00  0.00     0.031 A 
HETATM   10  C   UNL     1      -8.961   4.070 -31.093  1.00  0.00     0.032 A 
BRANCH   8  11
HETATM   11  N   UNL     1     -10.733   2.669 -34.105  1.00  0.00    -0.378 N 
HETATM   12  C   UNL     1     -11.743   3.720 -34.379  1.00  0.00     0.150 C 
HETATM   13  C   UNL     1     -13.030   3.449 -33.564  1.00  0.00     0.254 C 
HETATM   14  N   UNL     1     -13.592   2.053 -33.889  1.00  0.00    -0.068 N 
HETATM   15  H   UNL     1     -13.863   2.059 -34.881  1.00  0.00     0.280 HD
HETATM   16  C   UNL     1     -12.505   0.966 -33.741  1.00  0.00     0.254 C 
HETATM   17  C   UNL     1     -11.233   1.344 -34.536  1.00  0.00     0.150 C 
BRANCH  14  18
HETATM   18  C   UNL     1     -14.811   1.698 -33.068  1.00  0.00     0.230 C 
HETATM   19  C   UNL     1     -14.886   2.541 -31.810  1.00  0.00     0.034 C 
ENDBRANCH  14  18
ENDBRANCH   8  11
ENDBRANCH   3   5
ENDBRANCH   1   3
BRANCH   1  20
HETATM   20  N   UNL     1      -5.285   3.816 -29.817  1.00  0.00    -0.298 N 
HETATM   21  C   UNL     1      -4.675   3.606 -31.054  1.00  0.00     0.281 C 
HETATM   22  O   UNL     1      -3.521   4.035 -31.153  1.00  0.00    -0.265 OA
HETATM   23  H   UNL     1      -4.579   4.176 -29.182  1.00  0.00     0.171 HD
BRANCH  21  24
HETATM   24  C   UNL     1      -5.322   2.930 -32.157  1.00  0.00     0.144 A 
HETATM   25  O   UNL     1      -5.349   1.564 -32.292  1.00  0.00    -0.304 OA
HETATM   26  C   UNL     1      -5.923   1.295 -33.508  1.00  0.00     0.086 A 
HETATM   27  C   UNL     1      -6.272   2.466 -34.144  1.00  0.00     0.041 A 
HETATM   28  C   UNL     1      -5.900   3.510 -33.275  1.00  0.00     0.046 A 
BRANCH  26  29
HETATM   29  C   UNL     1      -6.010  -0.098 -33.904  1.00  0.00    -0.001 A 
HETATM   30  C   UNL     1      -4.999  -1.003 -33.564  1.00  0.00     0.040 A 
HETATM   31  C   UNL     1      -5.098  -2.350 -33.932  1.00  0.00     0.056 A 
HETATM   32 CL   UNL     1      -3.793  -3.398 -33.494  1.00  0.00    -0.083 Cl
HETATM   33  C   UNL     1      -6.219  -2.805 -34.632  1.00  0.00     0.055 A 
HETATM   34 CL   UNL     1      -6.403  -4.452 -35.118  1.00  0.00    -0.083 Cl
HETATM   35  C   UNL     1      -7.241  -1.910 -34.958  1.00  0.00     0.026 A 
HETATM   36  C   UNL     1      -7.136  -0.566 -34.595  1.00  0.00     0.016 A 
ENDBRANCH  26  29
ENDBRANCH  21  24
ENDBRANCH   1  20
TORSDOF 7
ENDMDL
MODEL 5
REMARK VINA RESULT:      -9.0      2.121      3.461
REMARK  7 active torsions:
REMARK  status: ('A' for Active; 'I' for Inactive)
REMARK    1  A    between atoms: C_2  and  N_3 
REMARK    2  A    between atoms: N_7  and  C_8 
REMARK    3  A    between atoms: C_11  and  N_12 
REMARK    4  A    between atoms: N_12  and  C_13 
REMARK    5  A    between atoms: C_13  and  N_14 
REMARK       I    between atoms: N_14  and  C_15 
REMARK    6  A    between atoms: C_15  and  C_16 
REMARK    7  A    between atoms: C_18  and  C_19 
ROOT
HETATM    1  C   UNL     1      -8.206   3.508 -31.997  1.00  0.00     0.179 C 
HETATM    2  S   UNL     1      -9.415   2.385 -32.331  1.00  0.00    -0.040 SA
ENDROOT
BRANCH   1   3
HETATM    3  N   UNL     1      -7.910   4.633 -32.723  1.00  0.00    -0.333 N 
HETATM    4  H   UNL     1      -8.608   5.368 -32.646  1.00  0.00     0.168 HD
BRANCH   3   5
HETATM    5  C   UNL     1      -6.608   5.039 -33.094  1.00  0.00     0.034 A 
HETATM    6  C   UNL     1      -5.929   4.434 -34.146  1.00  0.00     0.032 A 
HETATM    7  C   UNL     1      -4.618   4.817 -34.466  1.00  0.00     0.031 A 
HETATM    8  C   UNL     1      -3.920   5.792 -33.734  1.00  0.00     0.030 A 
HETATM    9  C   UNL     1      -4.675   6.460 -32.752  1.00  0.00     0.031 A 
HETATM   10  C   UNL     1      -5.995   6.092 -32.432  1.00  0.00     0.032 A 
BRANCH   8  11
HETATM   11  N   UNL     1      -2.573   6.099 -34.001  1.00  0.00    -0.378 N 
HETATM   12  C   UNL     1      -1.560   5.037 -33.782  1.00  0.00     0.150 C 
HETATM   13  C   UNL     1      -1.234   4.912 -32.275  1.00  0.00     0.254 C 
HETATM   14  N   UNL     1      -0.742   6.260 -31.716  1.00  0.00    -0.068 N 
HETATM   15  H   UNL     1       0.140   6.482 -32.194  1.00  0.00     0.280 HD
HETATM   16  C   UNL     1      -1.725   7.399 -32.061  1.00  0.00     0.254 C 
HETATM   17  C   UNL     1      -2.044   7.415 -33.575  1.00  0.00     0.150 C 
BRANCH  14  18
HETATM   18  C   UNL     1      -0.476   6.223 -30.228  1.00  0.00     0.230 C 
HETATM   19  C   UNL     1       0.407   5.046 -29.860  1.00  0.00     0.034 C 
ENDBRANCH  14  18
ENDBRANCH   8  11
ENDBRANCH   3   5
ENDBRANCH   1   3
BRANCH   1  20
HETATM   20  N   UNL     1      -7.443   3.240 -30.877  1.00  0.00    -0.298 N 
HETATM   21  C   UNL     1      -6.151   2.830 -30.549  1.00  0.00     0.281 C 
HETATM   22  O   UNL     1      -5.714   3.269 -29.481  1.00  0.00    -0.265 OA
HETATM   23  H   UNL     1      -7.825   3.728 -30.074  1.00  0.00     0.171 HD
BRANCH  21  24
HETATM   24  C   UNL     1      -5.359   1.948 -31.378  1.00  0.00     0.144 A 
HETATM   25  O   UNL     1      -5.888   0.885 -32.068  1.00  0.00    -0.304 OA
HETATM   26  C   UNL     1      -4.834   0.208 -32.626  1.00  0.00     0.086 A 
HETATM   27  C   UNL     1      -3.645   0.830 -32.314  1.00  0.00     0.041 A 
HETATM   28  C   UNL     1      -3.981   1.948 -31.527  1.00  0.00     0.046 A 
BRANCH  26  29
HETATM   29  C   UNL     1      -5.143  -1.002 -33.365  1.00  0.00    -0.001 A 
HETATM   30  C   UNL     1      -4.267  -2.092 -33.351  1.00  0.00     0.040 A 
HETATM   31  C   UNL     1      -4.579  -3.264 -34.051  1.00  0.00     0.056 A 
HETATM   32 CL   UNL     1      -3.430  -4.555 -34.003  1.00  0.00    -0.083 Cl
HETATM   33  C   UNL     1      -5.781  -3.358 -34.758  1.00  0.00     0.055 A 
HETATM   34 CL   UNL     1      -6.227  -4.772 -35.644  1.00  0.00    -0.083 Cl
HETATM   35  C   UNL     1      -6.669  -2.280 -34.760  1.00  0.00     0.026 A 
HETATM   36  C   UNL     1      -6.351  -1.110 -34.066  1.00  0.00     0.016 A 
ENDBRANCH  26  29
ENDBRANCH  21  24
ENDBRANCH   1  20
TORSDOF 7
ENDMDL
MODEL 6
REMARK VINA RESULT:      -9.0      1.542      2.433
REMARK  7 active torsions:
REMARK  status: ('A' for Active; 'I' for Inactive)
REMARK    1  A    between atoms: C_2  and  N_3 
REMARK    2  A    between atoms: N_7  and  C_8 
REMARK    3  A    between atoms: C_11  and  N_12 
REMARK    4  A    between atoms: N_12  and  C_13 
REMARK    5  A    between atoms: C_13  and  N_14 
REMARK       I    between atoms: N_14  and  C_15 
REMARK    6  A    between atoms: C_15  and  C_16 
REMARK    7  A    between atoms: C_18  and  C_19 
ROOT
HETATM    1  C   UNL     1     -10.771   3.332 -32.193  1.00  0.00     0.179 C 
HETATM    2  S   UNL     1     -11.289   4.791 -32.851  1.00  0.00    -0.040 SA
ENDROOT
BRANCH   1   3
HETATM    3  N   UNL     1      -9.964   3.168 -31.097  1.00  0.00    -0.333 N 
HETATM    4  H   UNL     1     -10.325   2.505 -30.415  1.00  0.00     0.168 HD
BRANCH   3   5
HETATM    5  C   UNL     1      -8.568   3.394 -31.076  1.00  0.00     0.034 A 
HETATM    6  C   UNL     1      -7.668   2.361 -30.846  1.00  0.00     0.032 A 
HETATM    7  C   UNL     1      -6.290   2.616 -30.778  1.00  0.00     0.031 A 
HETATM    8  C   UNL     1      -5.757   3.909 -30.905  1.00  0.00     0.030 A 
HETATM    9  C   UNL     1      -6.685   4.909 -31.249  1.00  0.00     0.031 A 
HETATM   10  C   UNL     1      -8.068   4.662 -31.332  1.00  0.00     0.032 A 
BRANCH   8  11
HETATM   11  N   UNL     1      -4.383   4.168 -30.738  1.00  0.00    -0.378 N 
HETATM   12  C   UNL     1      -3.925   5.577 -30.820  1.00  0.00     0.150 C 
HETATM   13  C   UNL     1      -3.830   6.022 -32.298  1.00  0.00     0.254 C 
HETATM   14  N   UNL     1      -2.884   5.093 -33.082  1.00  0.00    -0.068 N 
HETATM   15  H   UNL     1      -1.946   5.204 -32.676  1.00  0.00     0.280 HD
HETATM   16  C   UNL     1      -3.271   3.612 -32.889  1.00  0.00     0.254 C 
HETATM   17  C   UNL     1      -3.404   3.266 -31.387  1.00  0.00     0.150 C 
BRANCH  14  18
HETATM   18  C   UNL     1      -2.805   5.432 -34.553  1.00  0.00     0.230 C 
HETATM   19  C   UNL     1      -4.079   5.036 -35.274  1.00  0.00     0.034 C 
ENDBRANCH  14  18
ENDBRANCH   8  11
ENDBRANCH   3   5
ENDBRANCH   1   3
BRANCH   1  20
HETATM   20  N   UNL     1     -11.210   2.199 -32.849  1.00  0.00    -0.298 N 
HETATM   21  C   UNL     1     -10.705   0.989 -33.329  1.00  0.00     0.281 C 
HETATM   22  O   UNL     1     -11.501   0.044 -33.316  1.00  0.00    -0.265 OA
HETATM   23  H   UNL     1     -12.208   2.081 -32.706  1.00  0.00     0.171 HD
BRANCH  21  24
HETATM   24  C   UNL     1      -9.355   0.827 -33.819  1.00  0.00     0.144 A 
HETATM   25  O   UNL     1      -8.661  -0.355 -33.741  1.00  0.00    -0.304 OA
HETATM   26  C   UNL     1      -7.386  -0.099 -34.176  1.00  0.00     0.086 A 
HETATM   27  C   UNL     1      -7.260   1.223 -34.541  1.00  0.00     0.041 A 
HETATM   28  C   UNL     1      -8.521   1.812 -34.325  1.00  0.00     0.046 A 
BRANCH  26  29
HETATM   29  C   UNL     1      -6.439  -1.198 -34.130  1.00  0.00    -0.001 A 
HETATM   30  C   UNL     1      -6.713  -2.406 -34.779  1.00  0.00     0.040 A 
HETATM   31  C   UNL     1      -5.788  -3.456 -34.747  1.00  0.00     0.056 A 
HETATM   32 CL   UNL     1      -6.215  -4.924 -35.554  1.00  0.00    -0.083 Cl
HETATM   33  C   UNL     1      -4.571  -3.297 -34.077  1.00  0.00     0.055 A 
HETATM   34 CL   UNL     1      -3.386  -4.551 -33.997  1.00  0.00    -0.083 Cl
HETATM   35  C   UNL     1      -4.283  -2.086 -33.443  1.00  0.00     0.026 A 
HETATM   36  C   UNL     1      -5.212  -1.043 -33.471  1.00  0.00     0.016 A 
ENDBRANCH  26  29
ENDBRANCH  21  24
ENDBRANCH   1  20
TORSDOF 7
ENDMDL
MODEL 7
REMARK VINA RESULT:      -8.9      2.794      6.492
REMARK  7 active torsions:
REMARK  status: ('A' for Active; 'I' for Inactive)
REMARK    1  A    between atoms: C_2  and  N_3 
REMARK    2  A    between atoms: N_7  and  C_8 
REMARK    3  A    between atoms: C_11  and  N_12 
REMARK    4  A    between atoms: N_12  and  C_13 
REMARK    5  A    between atoms: C_13  and  N_14 
REMARK       I    between atoms: N_14  and  C_15 
REMARK    6  A    between atoms: C_15  and  C_16 
REMARK    7  A    between atoms: C_18  and  C_19 
ROOT
HETATM    1  C   UNL     1      -3.877   5.488 -33.501  1.00  0.00     0.179 C 
HETATM    2  S   UNL     1      -3.164   5.292 -35.013  1.00  0.00    -0.040 SA
ENDROOT
BRANCH   1   3
HETATM    3  N   UNL     1      -5.117   6.013 -33.242  1.00  0.00    -0.333 N 
HETATM    4  H   UNL     1      -5.317   6.866 -33.759  1.00  0.00     0.168 HD
BRANCH   3   5
HETATM    5  C   UNL     1      -6.233   5.274 -32.790  1.00  0.00     0.034 A 
HETATM    6  C   UNL     1      -6.977   5.680 -31.688  1.00  0.00     0.032 A 
HETATM    7  C   UNL     1      -8.050   4.905 -31.224  1.00  0.00     0.031 A 
HETATM    8  C   UNL     1      -8.406   3.682 -31.817  1.00  0.00     0.030 A 
HETATM    9  C   UNL     1      -7.705   3.360 -32.994  1.00  0.00     0.031 A 
HETATM   10  C   UNL     1      -6.635   4.137 -33.475  1.00  0.00     0.032 A 
BRANCH   8  11
HETATM   11  N   UNL     1      -9.420   2.865 -31.285  1.00  0.00    -0.378 N 
HETATM   12  C   UNL     1      -9.381   1.414 -31.595  1.00  0.00     0.150 C 
HETATM   13  C   UNL     1      -9.922   1.159 -33.021  1.00  0.00     0.254 C 
HETATM   14  N   UNL     1     -11.354   1.709 -33.162  1.00  0.00    -0.068 N 
HETATM   15  H   UNL     1     -11.949   1.173 -32.517  1.00  0.00     0.280 HD
HETATM   16  C   UNL     1     -11.432   3.182 -32.707  1.00  0.00     0.254 C 
HETATM   17  C   UNL     1     -10.816   3.360 -31.299  1.00  0.00     0.150 C 
BRANCH  14  18
HETATM   18  C   UNL     1     -11.914   1.556 -34.558  1.00  0.00     0.230 C 
HETATM   19  C   UNL     1     -13.288   0.914 -34.528  1.00  0.00     0.034 C 
ENDBRANCH  14  18
ENDBRANCH   8  11
ENDBRANCH   3   5
ENDBRANCH   1   3
BRANCH   1  20
HETATM   20  N   UNL     1      -3.110   5.078 -32.429  1.00  0.00    -0.298 N 
HETATM   21  C   UNL     1      -2.805   3.911 -31.728  1.00  0.00     0.281 C 
HETATM   22  O   UNL     1      -1.672   3.871 -31.238  1.00  0.00    -0.265 OA
HETATM   23  H   UNL     1      -2.354   5.737 -32.273  1.00  0.00     0.171 HD
BRANCH  21  24
HETATM   24  C   UNL     1      -3.733   2.814 -31.564  1.00  0.00     0.144 A 
HETATM   25  O   UNL     1      -3.805   1.752 -32.431  1.00  0.00    -0.304 OA
HETATM   26  C   UNL     1      -4.874   0.989 -32.038  1.00  0.00     0.086 A 
HETATM   27  C   UNL     1      -5.476   1.540 -30.929  1.00  0.00     0.041 A 
HETATM   28  C   UNL     1      -4.739   2.699 -30.618  1.00  0.00     0.046 A 
BRANCH  26  29
HETATM   29  C   UNL     1      -5.190  -0.174 -32.848  1.00  0.00    -0.001 A 
HETATM   30  C   UNL     1      -4.380  -1.314 -32.809  1.00  0.00     0.040 A 
HETATM   31  C   UNL     1      -4.699  -2.439 -33.578  1.00  0.00     0.056 A 
HETATM   32 CL   UNL     1      -3.633  -3.797 -33.491  1.00  0.00    -0.083 Cl
HETATM   33  C   UNL     1      -5.844  -2.437 -34.382  1.00  0.00     0.055 A 
HETATM   34 CL   UNL     1      -6.294  -3.789 -35.357  1.00  0.00    -0.083 Cl
HETATM   35  C   UNL     1      -6.667  -1.308 -34.411  1.00  0.00     0.026 A 
HETATM   36  C   UNL     1      -6.341  -0.185 -33.647  1.00  0.00     0.016 A 
ENDBRANCH  26  29
ENDBRANCH  21  24
ENDBRANCH   1  20
TORSDOF 7
ENDMDL
MODEL 8
REMARK VINA RESULT:      -8.5      3.070      6.402
REMARK  7 active torsions:
REMARK  status: ('A' for Active; 'I' for Inactive)
REMARK    1  A    between atoms: C_2  and  N_3 
REMARK    2  A    between atoms: N_7  and  C_8 
REMARK    3  A    between atoms: C_11  and  N_12 
REMARK    4  A    between atoms: N_12  and  C_13 
REMARK    5  A    between atoms: C_13  and  N_14 
REMARK       I    between atoms: N_14  and  C_15 
REMARK    6  A    between atoms: C_15  and  C_16 
REMARK    7  A    between atoms: C_18  and  C_19 
ROOT
HETATM    1  C   UNL     1      -3.130   5.376 -33.778  1.00  0.00     0.179 C 
HETATM    2  S   UNL     1      -2.090   5.039 -35.057  1.00  0.00    -0.040 SA
ENDROOT
BRANCH   1   3
HETATM    3  N   UNL     1      -4.442   5.763 -33.869  1.00  0.00    -0.333 N 
HETATM    4  H   UNL     1      -4.603   6.515 -34.535  1.00  0.00     0.168 HD
BRANCH   3   5
HETATM    5  C   UNL     1      -5.553   4.944 -33.564  1.00  0.00     0.034 A 
HETATM    6  C   UNL     1      -6.516   5.339 -32.642  1.00  0.00     0.032 A 
HETATM    7  C   UNL     1      -7.583   4.490 -32.315  1.00  0.00     0.031 A 
HETATM    8  C   UNL     1      -7.719   3.205 -32.867  1.00  0.00     0.030 A 
HETATM    9  C   UNL     1      -6.792   2.885 -33.877  1.00  0.00     0.031 A 
HETATM   10  C   UNL     1      -5.725   3.735 -34.221  1.00  0.00     0.032 A 
BRANCH   8  11
HETATM   11  N   UNL     1      -8.738   2.323 -32.459  1.00  0.00    -0.378 N 
HETATM   12  C   UNL     1     -10.003   2.316 -33.233  1.00  0.00     0.150 C 
HETATM   13  C   UNL     1     -10.883   3.522 -32.827  1.00  0.00     0.254 C 
HETATM   14  N   UNL     1     -11.168   3.498 -31.314  1.00  0.00    -0.068 N 
HETATM   15  H   UNL     1     -11.717   2.650 -31.123  1.00  0.00     0.280 HD
HETATM   16  C   UNL     1      -9.861   3.364 -30.503  1.00  0.00     0.254 C 
HETATM   17  C   UNL     1      -9.013   2.174 -31.012  1.00  0.00     0.150 C 
BRANCH  14  18
HETATM   18  C   UNL     1     -11.964   4.693 -30.841  1.00  0.00     0.230 C 
HETATM   19  C   UNL     1     -13.349   4.279 -30.380  1.00  0.00     0.034 C 
ENDBRANCH  14  18
ENDBRANCH   8  11
ENDBRANCH   3   5
ENDBRANCH   1   3
BRANCH   1  20
HETATM   20  N   UNL     1      -2.578   5.251 -32.518  1.00  0.00    -0.298 N 
HETATM   21  C   UNL     1      -2.349   4.269 -31.554  1.00  0.00     0.281 C 
HETATM   22  O   UNL     1      -1.343   4.438 -30.858  1.00  0.00    -0.265 OA
HETATM   23  H   UNL     1      -1.917   6.003 -32.355  1.00  0.00     0.171 HD
BRANCH  21  24
HETATM   24  C   UNL     1      -3.216   3.128 -31.356  1.00  0.00     0.144 A 
HETATM   25  O   UNL     1      -2.970   1.891 -31.900  1.00  0.00    -0.304 OA
HETATM   26  C   UNL     1      -4.058   1.107 -31.615  1.00  0.00     0.086 A 
HETATM   27  C   UNL     1      -4.986   1.820 -30.888  1.00  0.00     0.041 A 
HETATM   28  C   UNL     1      -4.442   3.107 -30.712  1.00  0.00     0.046 A 
BRANCH  26  29
HETATM   29  C   UNL     1      -4.055  -0.245 -32.143  1.00  0.00    -0.001 A 
HETATM   30  C   UNL     1      -4.886  -0.597 -33.211  1.00  0.00     0.040 A 
HETATM   31  C   UNL     1      -4.865  -1.898 -33.729  1.00  0.00     0.056 A 
HETATM   32 CL   UNL     1      -5.941  -2.258 -35.034  1.00  0.00    -0.083 Cl
HETATM   33  C   UNL     1      -3.997  -2.853 -33.190  1.00  0.00     0.055 A 
HETATM   34 CL   UNL     1      -3.922  -4.474 -33.779  1.00  0.00    -0.083 Cl
HETATM   35  C   UNL     1      -3.151  -2.501 -32.135  1.00  0.00     0.026 A 
HETATM   36  C   UNL     1      -3.180  -1.204 -31.617  1.00  0.00     0.016 A 
ENDBRANCH  26  29
ENDBRANCH  21  24
ENDBRANCH   1  20
TORSDOF 7
ENDMDL
MODEL 9
REMARK VINA RESULT:      -8.2      2.431      3.712
REMARK  7 active torsions:
REMARK  status: ('A' for Active; 'I' for Inactive)
REMARK    1  A    between atoms: C_2  and  N_3 
REMARK    2  A    between atoms: N_7  and  C_8 
REMARK    3  A    between atoms: C_11  and  N_12 
REMARK    4  A    between atoms: N_12  and  C_13 
REMARK    5  A    between atoms: C_13  and  N_14 
REMARK       I    between atoms: N_14  and  C_15 
REMARK    6  A    between atoms: C_15  and  C_16 
REMARK    7  A    between atoms: C_18  and  C_19 
ROOT
HETATM    1  C   UNL     1     -10.771   4.615 -34.575  1.00  0.00     0.179 C 
HETATM    2  S   UNL     1     -10.244   5.970 -35.423  1.00  0.00    -0.040 SA
ENDROOT
BRANCH   1   3
HETATM    3  N   UNL     1     -10.801   4.462 -33.212  1.00  0.00    -0.333 N 
HETATM    4  H   UNL     1     -11.642   4.005 -32.869  1.00  0.00     0.168 HD
BRANCH   3   5
HETATM    5  C   UNL     1      -9.661   4.393 -32.378  1.00  0.00     0.034 A 
HETATM    6  C   UNL     1      -8.474   3.818 -32.815  1.00  0.00     0.032 A 
HETATM    7  C   UNL     1      -7.371   3.713 -31.955  1.00  0.00     0.031 A 
HETATM    8  C   UNL     1      -7.415   4.147 -30.620  1.00  0.00     0.030 A 
HETATM    9  C   UNL     1      -8.592   4.824 -30.247  1.00  0.00     0.031 A 
HETATM   10  C   UNL     1      -9.699   4.946 -31.107  1.00  0.00     0.032 A 
BRANCH   8  11
HETATM   11  N   UNL     1      -6.337   3.948 -29.736  1.00  0.00    -0.378 N 
HETATM   12  C   UNL     1      -5.621   5.146 -29.232  1.00  0.00     0.150 C 
HETATM   13  C   UNL     1      -4.643   5.675 -30.307  1.00  0.00     0.254 C 
HETATM   14  N   UNL     1      -3.647   4.576 -30.720  1.00  0.00    -0.068 N 
HETATM   15  H   UNL     1      -3.084   4.351 -29.890  1.00  0.00     0.280 HD
HETATM   16  C   UNL     1      -4.382   3.277 -31.114  1.00  0.00     0.254 C 
HETATM   17  C   UNL     1      -5.382   2.851 -30.013  1.00  0.00     0.150 C 
BRANCH  14  18
HETATM   18  C   UNL     1      -2.709   5.009 -31.824  1.00  0.00     0.230 C 
HETATM   19  C   UNL     1      -2.602   3.944 -32.899  1.00  0.00     0.034 C 
ENDBRANCH  14  18
ENDBRANCH   8  11
ENDBRANCH   3   5
ENDBRANCH   1   3
BRANCH   1  20
HETATM   20  N   UNL     1     -11.201   3.560 -35.355  1.00  0.00    -0.298 N 
HETATM   21  C   UNL     1     -11.503   2.203 -35.229  1.00  0.00     0.281 C 
HETATM   22  O   UNL     1     -12.383   1.786 -35.990  1.00  0.00    -0.265 OA
HETATM   23  H   UNL     1     -11.694   3.911 -36.170  1.00  0.00     0.171 HD
BRANCH  21  24
HETATM   24  C   UNL     1     -10.843   1.323 -34.291  1.00  0.00     0.144 A 
HETATM   25  O   UNL     1      -9.490   1.086 -34.302  1.00  0.00    -0.304 OA
HETATM   26  C   UNL     1      -9.249   0.111 -33.369  1.00  0.00     0.086 A 
HETATM   27  C   UNL     1     -10.422  -0.268 -32.756  1.00  0.00     0.041 A 
HETATM   28  C   UNL     1     -11.439   0.515 -33.336  1.00  0.00     0.046 A 
BRANCH  26  29
HETATM   29  C   UNL     1      -7.880  -0.353 -33.237  1.00  0.00    -0.001 A 
HETATM   30  C   UNL     1      -7.341  -1.260 -34.154  1.00  0.00     0.040 A 
HETATM   31  C   UNL     1      -6.014  -1.690 -34.034  1.00  0.00     0.056 A 
HETATM   32 CL   UNL     1      -5.433  -2.832 -35.195  1.00  0.00    -0.083 Cl
HETATM   33  C   UNL     1      -5.210  -1.199 -33.000  1.00  0.00     0.055 A 
HETATM   34 CL   UNL     1      -3.567  -1.688 -32.792  1.00  0.00    -0.083 Cl
HETATM   35  C   UNL     1      -5.737  -0.278 -32.092  1.00  0.00     0.026 A 
HETATM   36  C   UNL     1      -7.064   0.143 -32.212  1.00  0.00     0.016 A 
ENDBRANCH  26  29
ENDBRANCH  21  24
ENDBRANCH   1  20
TORSDOF 7
ENDMDL
MODEL 10
REMARK VINA RESULT:      -8.2      1.980      2.830
REMARK  7 active torsions:
REMARK  status: ('A' for Active; 'I' for Inactive)
REMARK    1  A    between atoms: C_2  and  N_3 
REMARK    2  A    between atoms: N_7  and  C_8 
REMARK    3  A    between atoms: C_11  and  N_12 
REMARK    4  A    between atoms: N_12  and  C_13 
REMARK    5  A    between atoms: C_13  and  N_14 
REMARK       I    between atoms: N_14  and  C_15 
REMARK    6  A    between atoms: C_15  and  C_16 
REMARK    7  A    between atoms: C_18  and  C_19 
ROOT
HETATM    1  C   UNL     1      -9.812   5.086 -33.548  1.00  0.00     0.179 C 
HETATM    2  S   UNL     1     -10.156   6.732 -33.614  1.00  0.00    -0.040 SA
ENDROOT
BRANCH   1   3
HETATM    3  N   UNL     1      -9.003   4.454 -32.639  1.00  0.00    -0.333 N 
HETATM    4  H   UNL     1      -9.454   3.681 -32.155  1.00  0.00     0.168 HD
BRANCH   3   5
HETATM    5  C   UNL     1      -7.591   4.425 -32.692  1.00  0.00     0.034 A 
HETATM    6  C   UNL     1      -6.897   4.824 -33.828  1.00  0.00     0.032 A 
HETATM    7  C   UNL     1      -5.498   4.739 -33.879  1.00  0.00     0.031 A 
HETATM    8  C   UNL     1      -4.737   4.225 -32.816  1.00  0.00     0.030 A 
HETATM    9  C   UNL     1      -5.461   3.936 -31.645  1.00  0.00     0.031 A 
HETATM   10  C   UNL     1      -6.864   4.031 -31.579  1.00  0.00     0.032 A 
BRANCH   8  11
HETATM   11  N   UNL     1      -3.344   4.052 -32.914  1.00  0.00    -0.378 N 
HETATM   12  C   UNL     1      -2.533   4.215 -31.682  1.00  0.00     0.150 C 
HETATM   13  C   UNL     1      -2.326   5.717 -31.375  1.00  0.00     0.254 C 
HETATM   14  N   UNL     1      -1.656   6.425 -32.567  1.00  0.00    -0.068 N 
HETATM   15  H   UNL     1      -0.722   6.012 -32.678  1.00  0.00     0.280 HD
HETATM   16  C   UNL     1      -2.417   6.145 -33.881  1.00  0.00     0.254 C 
HETATM   17  C   UNL     1      -2.635   4.626 -34.081  1.00  0.00     0.150 C 
BRANCH  14  18
HETATM   18  C   UNL     1      -1.493   7.913 -32.358  1.00  0.00     0.230 C 
HETATM   19  C   UNL     1      -2.250   8.378 -31.128  1.00  0.00     0.034 C 
ENDBRANCH  14  18
ENDBRANCH   8  11
ENDBRANCH   3   5
ENDBRANCH   1   3
BRANCH   1  20
HETATM   20  N   UNL     1     -10.411   4.318 -34.527  1.00  0.00    -0.298 N 
HETATM   21  C   UNL     1     -10.938   3.037 -34.694  1.00  0.00     0.281 C 
HETATM   22  O   UNL     1     -11.872   2.953 -35.499  1.00  0.00    -0.265 OA
HETATM   23  H   UNL     1     -10.831   4.919 -35.228  1.00  0.00     0.171 HD
BRANCH  21  24
HETATM   24  C   UNL     1     -10.443   1.873 -33.994  1.00  0.00     0.144 A 
HETATM   25  O   UNL     1      -9.107   1.594 -33.846  1.00  0.00    -0.304 OA
HETATM   26  C   UNL     1      -9.021   0.359 -33.255  1.00  0.00     0.086 A 
HETATM   27  C   UNL     1     -10.279  -0.146 -33.012  1.00  0.00     0.041 A 
HETATM   28  C   UNL     1     -11.188   0.826 -33.473  1.00  0.00     0.046 A 
BRANCH  26  29
HETATM   29  C   UNL     1      -7.690  -0.181 -33.046  1.00  0.00    -0.001 A 
HETATM   30  C   UNL     1      -7.122  -1.062 -33.972  1.00  0.00     0.040 A 
HETATM   31  C   UNL     1      -5.831  -1.565 -33.775  1.00  0.00     0.056 A 
HETATM   32 CL   UNL     1      -5.213  -2.667 -34.956  1.00  0.00    -0.083 Cl
HETATM   33  C   UNL     1      -5.091  -1.178 -32.654  1.00  0.00     0.055 A 
HETATM   34 CL   UNL     1      -3.495  -1.763 -32.349  1.00  0.00    -0.083 Cl
HETATM   35  C   UNL     1      -5.646  -0.284 -31.734  1.00  0.00     0.026 A 
HETATM   36  C   UNL     1      -6.937   0.211 -31.931  1.00  0.00     0.016 A 
ENDBRANCH  26  29
ENDBRANCH  21  24
ENDBRANCH   1  20
TORSDOF 7
ENDMDL
