MODEL 1
REMARK VINA RESULT:      -9.2      0.000      0.000
REMARK  8 active torsions:
REMARK  status: ('A' for Active; 'I' for Inactive)
REMARK    1  A    between atoms: C_2  and  S_3 
REMARK    2  A    between atoms: C_2  and  C_24 
REMARK    3  A    between atoms: S_3  and  C_4 
REMARK    4  A    between atoms: N_5  and  C_6 
REMARK    5  A    between atoms: C_13  and  C_14 
REMARK    6  A    between atoms: C_14  and  N_15 
REMARK       I    between atoms: C_24  and  N_25 
REMARK    7  A    between atoms: N_25  and  C_26 
REMARK    8  A    between atoms: C_29  and  C_30 
REMARK       I    between atoms: C_30  and  N_31 
ROOT
HETATM    1  C   UNL     1      -5.065   4.312 -30.479  1.00  0.00     0.197 A 
HETATM    2  N   UNL     1      -4.126   5.266 -30.842  1.00  0.00    -0.274 N 
HETATM    3  C   UNL     1      -4.237   6.228 -29.839  1.00  0.00     0.161 A 
HETATM    4  N   UNL     1      -5.210   5.897 -29.011  1.00  0.00    -0.132 NA
HETATM    5  N   UNL     1      -5.714   4.698 -29.405  1.00  0.00    -0.122 NA
ENDROOT
BRANCH   1   6
HETATM    6  S   UNL     1      -5.223   2.747 -31.206  1.00  0.00    -0.076 SA
BRANCH   6   7
HETATM    7  C   UNL     1      -6.110   3.146 -32.760  1.00  0.00     0.143 C 
HETATM    8  C   UNL     1      -7.485   3.741 -32.460  1.00  0.00     0.031 C 
BRANCH   7   9
HETATM    9  C   UNL     1      -6.277   1.888 -33.630  1.00  0.00     0.236 C 
HETATM   10  N   UNL     1      -5.932   0.731 -32.938  1.00  0.00    -0.326 N 
HETATM   11  H   UNL     1      -5.656   0.838 -31.968  1.00  0.00     0.169 HD
HETATM   12  O   UNL     1      -6.645   1.932 -34.799  1.00  0.00    -0.272 OA
BRANCH  10  13
HETATM   13  C   UNL     1      -5.914  -0.593 -33.422  1.00  0.00     0.034 A 
HETATM   14  C   UNL     1      -7.029  -1.257 -33.939  1.00  0.00     0.030 A 
HETATM   15  C   UNL     1      -6.923  -2.574 -34.408  1.00  0.00     0.019 A 
HETATM   16  C   UNL     1      -5.698  -3.245 -34.359  1.00  0.00     0.032 A 
HETATM   17  C   UNL     1      -4.576  -2.578 -33.854  1.00  0.00     0.019 A 
HETATM   18  C   UNL     1      -4.685  -1.264 -33.387  1.00  0.00     0.030 A 
BRANCH  16  19
HETATM   19  C   UNL     1      -5.524  -4.639 -34.846  1.00  0.00     0.249 C 
HETATM   20  N   UNL     1      -4.448  -5.346 -34.389  1.00  0.00    -0.366 N 
HETATM   21  H   UNL     1      -3.673  -4.926 -33.898  1.00  0.00     0.159 HD
HETATM   22  H   UNL     1      -4.301  -6.258 -34.803  1.00  0.00     0.159 HD
HETATM   23  O   UNL     1      -6.298  -5.131 -35.658  1.00  0.00    -0.268 OA
ENDBRANCH  16  19
ENDBRANCH  10  13
ENDBRANCH   7   9
ENDBRANCH   6   7
ENDBRANCH   1   6
BRANCH   2  24
HETATM   24  C   UNL     1      -3.288   5.316 -31.989  1.00  0.00     0.043 A 
HETATM   25  C   UNL     1      -1.977   4.820 -31.920  1.00  0.00     0.033 A 
HETATM   26  C   UNL     1      -1.161   4.834 -33.054  1.00  0.00     0.044 A 
HETATM   27  C   UNL     1      -1.651   5.345 -34.248  1.00  0.00     0.116 A 
HETATM   28  F   UNL     1      -0.869   5.356 -35.334  1.00  0.00    -0.206 F 
HETATM   29  C   UNL     1      -2.943   5.850 -34.329  1.00  0.00     0.044 A 
HETATM   30  C   UNL     1      -3.767   5.839 -33.200  1.00  0.00     0.033 A 
ENDBRANCH   2  24
BRANCH   3  31
HETATM   31  C   UNL     1      -3.524   7.533 -29.772  1.00  0.00     0.315 C 
BRANCH  31  32
HETATM   32  N   UNL     1      -2.118   7.377 -29.196  1.00  0.00    -0.064 N 
HETATM   33  H   UNL     1      -2.016   6.360 -29.044  1.00  0.00     0.280 HD
HETATM   34  C   UNL     1      -1.037   7.759 -30.185  1.00  0.00     0.235 C 
HETATM   35  C   UNL     1       0.321   7.388 -29.607  1.00  0.00     0.028 C 
HETATM   36  C   UNL     1       0.549   8.048 -28.252  1.00  0.00     0.003 C 
HETATM   37  C   UNL     1      -0.588   7.733 -27.286  1.00  0.00     0.028 C 
HETATM   38  C   UNL     1      -1.950   8.075 -27.874  1.00  0.00     0.235 C 
ENDBRANCH  31  32
ENDBRANCH   3  31
TORSDOF 8
ENDMDL
MODEL 2
REMARK VINA RESULT:      -9.1      4.046      7.242
REMARK  8 active torsions:
REMARK  status: ('A' for Active; 'I' for Inactive)
REMARK    1  A    between atoms: C_2  and  S_3 
REMARK    2  A    between atoms: C_2  and  C_24 
REMARK    3  A    between atoms: S_3  and  C_4 
REMARK    4  A    between atoms: N_5  and  C_6 
REMARK    5  A    between atoms: C_13  and  C_14 
REMARK    6  A    between atoms: C_14  and  N_15 
REMARK       I    between atoms: C_24  and  N_25 
REMARK    7  A    between atoms: N_25  and  C_26 
REMARK    8  A    between atoms: C_29  and  C_30 
REMARK       I    between atoms: C_30  and  N_31 
ROOT
HETATM    1  C   UNL     1      -6.693   4.649 -32.977  1.00  0.00     0.197 A 
HETATM    2  N   UNL     1      -8.024   4.272 -32.877  1.00  0.00    -0.274 N 
HETATM    3  C   UNL     1      -8.694   5.486 -32.731  1.00  0.00     0.161 A 
HETATM    4  N   UNL     1      -7.820   6.473 -32.673  1.00  0.00    -0.132 NA
HETATM    5  N   UNL     1      -6.577   5.949 -32.840  1.00  0.00    -0.122 NA
ENDROOT
BRANCH   1   6
HETATM    6  S   UNL     1      -5.393   3.593 -33.423  1.00  0.00    -0.076 SA
BRANCH   6   7
HETATM    7  C   UNL     1      -4.952   2.842 -31.810  1.00  0.00     0.143 C 
HETATM    8  C   UNL     1      -3.508   3.173 -31.437  1.00  0.00     0.031 C 
BRANCH   7   9
HETATM    9  C   UNL     1      -5.131   1.314 -31.854  1.00  0.00     0.236 C 
HETATM   10  N   UNL     1      -5.017   0.818 -33.149  1.00  0.00    -0.326 N 
HETATM   11  H   UNL     1      -4.801   1.483 -33.882  1.00  0.00     0.169 HD
HETATM   12  O   UNL     1      -5.372   0.644 -30.855  1.00  0.00    -0.272 OA
BRANCH  10  13
HETATM   13  C   UNL     1      -5.168  -0.516 -33.579  1.00  0.00     0.034 A 
HETATM   14  C   UNL     1      -4.151  -1.473 -33.547  1.00  0.00     0.030 A 
HETATM   15  C   UNL     1      -4.388  -2.783 -33.987  1.00  0.00     0.019 A 
HETATM   16  C   UNL     1      -5.647  -3.149 -34.472  1.00  0.00     0.032 A 
HETATM   17  C   UNL     1      -6.671  -2.196 -34.494  1.00  0.00     0.019 A 
HETATM   18  C   UNL     1      -6.431  -0.890 -34.053  1.00  0.00     0.030 A 
BRANCH  16  19
HETATM   19  C   UNL     1      -5.957  -4.523 -34.947  1.00  0.00     0.249 C 
HETATM   20  N   UNL     1      -7.165  -4.732 -35.552  1.00  0.00    -0.366 N 
HETATM   21  H   UNL     1      -7.923  -4.066 -35.527  1.00  0.00     0.159 HD
HETATM   22  H   UNL     1      -7.390  -5.691 -35.784  1.00  0.00     0.159 HD
HETATM   23  O   UNL     1      -5.176  -5.450 -34.774  1.00  0.00    -0.268 OA
ENDBRANCH  16  19
ENDBRANCH  10  13
ENDBRANCH   7   9
ENDBRANCH   6   7
ENDBRANCH   1   6
BRANCH   2  24
HETATM   24  C   UNL     1      -8.593   2.970 -32.854  1.00  0.00     0.043 A 
HETATM   25  C   UNL     1      -9.098   2.406 -34.036  1.00  0.00     0.033 A 
HETATM   26  C   UNL     1      -9.627   1.112 -34.026  1.00  0.00     0.044 A 
HETATM   27  C   UNL     1      -9.655   0.390 -32.840  1.00  0.00     0.116 A 
HETATM   28  F   UNL     1     -10.159  -0.849 -32.832  1.00  0.00    -0.206 F 
HETATM   29  C   UNL     1      -9.169   0.939 -31.660  1.00  0.00     0.044 A 
HETATM   30  C   UNL     1      -8.638   2.232 -31.661  1.00  0.00     0.033 A 
ENDBRANCH   2  24
BRANCH   3  31
HETATM   31  C   UNL     1     -10.150   5.677 -32.486  1.00  0.00     0.315 C 
BRANCH  31  32
HETATM   32  N   UNL     1     -10.954   5.600 -33.783  1.00  0.00    -0.064 N 
HETATM   33  H   UNL     1     -10.284   5.227 -34.476  1.00  0.00     0.280 HD
HETATM   34  C   UNL     1     -12.081   4.592 -33.710  1.00  0.00     0.235 C 
HETATM   35  C   UNL     1     -12.699   4.434 -35.092  1.00  0.00     0.028 C 
HETATM   36  C   UNL     1     -13.183   5.771 -35.641  1.00  0.00     0.003 C 
HETATM   37  C   UNL     1     -12.067   6.811 -35.630  1.00  0.00     0.028 C 
HETATM   38  C   UNL     1     -11.427   6.947 -34.255  1.00  0.00     0.235 C 
ENDBRANCH  31  32
ENDBRANCH   3  31
TORSDOF 8
ENDMDL
MODEL 3
REMARK VINA RESULT:      -9.0      3.589      7.083
REMARK  8 active torsions:
REMARK  status: ('A' for Active; 'I' for Inactive)
REMARK    1  A    between atoms: C_2  and  S_3 
REMARK    2  A    between atoms: C_2  and  C_24 
REMARK    3  A    between atoms: S_3  and  C_4 
REMARK    4  A    between atoms: N_5  and  C_6 
REMARK    5  A    between atoms: C_13  and  C_14 
REMARK    6  A    between atoms: C_14  and  N_15 
REMARK       I    between atoms: C_24  and  N_25 
REMARK    7  A    between atoms: N_25  and  C_26 
REMARK    8  A    between atoms: C_29  and  C_30 
REMARK       I    between atoms: C_30  and  N_31 
ROOT
HETATM    1  C   UNL     1      -5.577   2.647 -30.436  1.00  0.00     0.197 A 
HETATM    2  N   UNL     1      -4.707   2.459 -31.500  1.00  0.00    -0.274 N 
HETATM    3  C   UNL     1      -4.718   1.078 -31.689  1.00  0.00     0.161 A 
HETATM    4  N   UNL     1      -5.468   0.509 -30.765  1.00  0.00    -0.132 NA
HETATM    5  N   UNL     1      -6.011   1.489 -29.995  1.00  0.00    -0.122 NA
ENDROOT
BRANCH   1   6
HETATM    6  S   UNL     1      -6.169   4.182 -29.896  1.00  0.00    -0.076 SA
BRANCH   6   7
HETATM    7  C   UNL     1      -7.324   4.633 -31.246  1.00  0.00     0.143 C 
HETATM    8  C   UNL     1      -7.767   6.089 -31.114  1.00  0.00     0.031 C 
BRANCH   7   9
HETATM    9  C   UNL     1      -8.563   3.720 -31.230  1.00  0.00     0.236 C 
HETATM   10  N   UNL     1      -8.948   3.350 -32.516  1.00  0.00    -0.326 N 
HETATM   11  H   UNL     1      -8.373   3.678 -33.283  1.00  0.00     0.169 HD
HETATM   12  O   UNL     1      -9.138   3.397 -30.196  1.00  0.00    -0.272 OA
BRANCH  10  13
HETATM   13  C   UNL     1     -10.057   2.565 -32.893  1.00  0.00     0.034 A 
HETATM   14  C   UNL     1     -10.016   1.181 -33.073  1.00  0.00     0.030 A 
HETATM   15  C   UNL     1     -11.169   0.473 -33.442  1.00  0.00     0.019 A 
HETATM   16  C   UNL     1     -12.377   1.147 -33.642  1.00  0.00     0.032 A 
HETATM   17  C   UNL     1     -12.424   2.532 -33.450  1.00  0.00     0.019 A 
HETATM   18  C   UNL     1     -11.272   3.234 -33.081  1.00  0.00     0.030 A 
BRANCH  16  19
HETATM   19  C   UNL     1     -13.632   0.450 -34.028  1.00  0.00     0.249 C 
HETATM   20  N   UNL     1     -13.878  -0.776 -33.476  1.00  0.00    -0.366 N 
HETATM   21  H   UNL     1     -13.183  -1.312 -32.978  1.00  0.00     0.159 HD
HETATM   22  H   UNL     1     -14.691  -1.269 -33.822  1.00  0.00     0.159 HD
HETATM   23  O   UNL     1     -14.409   0.937 -34.840  1.00  0.00    -0.268 OA
ENDBRANCH  16  19
ENDBRANCH  10  13
ENDBRANCH   7   9
ENDBRANCH   6   7
ENDBRANCH   1   6
BRANCH   2  24
HETATM   24  C   UNL     1      -3.924   3.415 -32.204  1.00  0.00     0.043 A 
HETATM   25  C   UNL     1      -4.445   4.040 -33.348  1.00  0.00     0.033 A 
HETATM   26  C   UNL     1      -3.693   5.005 -34.023  1.00  0.00     0.044 A 
HETATM   27  C   UNL     1      -2.428   5.340 -33.560  1.00  0.00     0.116 A 
HETATM   28  F   UNL     1      -1.711   6.266 -34.205  1.00  0.00    -0.206 F 
HETATM   29  C   UNL     1      -1.895   4.722 -32.435  1.00  0.00     0.044 A 
HETATM   30  C   UNL     1      -2.640   3.755 -31.753  1.00  0.00     0.033 A 
ENDBRANCH   2  24
BRANCH   3  31
HETATM   31  C   UNL     1      -3.886   0.302 -32.649  1.00  0.00     0.315 C 
BRANCH  31  32
HETATM   32  N   UNL     1      -4.748  -0.473 -33.643  1.00  0.00    -0.064 N 
HETATM   33  H   UNL     1      -4.344  -0.242 -34.565  1.00  0.00     0.280 HD
HETATM   34  C   UNL     1      -4.607  -1.973 -33.492  1.00  0.00     0.235 C 
HETATM   35  C   UNL     1      -5.336  -2.661 -34.637  1.00  0.00     0.028 C 
HETATM   36  C   UNL     1      -6.801  -2.243 -34.695  1.00  0.00     0.003 C 
HETATM   37  C   UNL     1      -6.941  -0.726 -34.758  1.00  0.00     0.028 C 
HETATM   38  C   UNL     1      -6.187  -0.035 -33.630  1.00  0.00     0.235 C 
ENDBRANCH  31  32
ENDBRANCH   3  31
TORSDOF 8
ENDMDL
MODEL 4
REMARK VINA RESULT:      -8.9      2.121      3.195
REMARK  8 active torsions:
REMARK  status: ('A' for Active; 'I' for Inactive)
REMARK    1  A    between atoms: C_2  and  S_3 
REMARK    2  A    between atoms: C_2  and  C_24 
REMARK    3  A    between atoms: S_3  and  C_4 
REMARK    4  A    between atoms: N_5  and  C_6 
REMARK    5  A    between atoms: C_13  and  C_14 
REMARK    6  A    between atoms: C_14  and  N_15 
REMARK       I    between atoms: C_24  and  N_25 
REMARK    7  A    between atoms: N_25  and  C_26 
REMARK    8  A    between atoms: C_29  and  C_30 
REMARK       I    between atoms: C_30  and  N_31 
ROOT
HETATM    1  C   UNL     1      -4.644   3.618 -30.992  1.00  0.00     0.197 A 
HETATM    2  N   UNL     1      -3.933   4.808 -31.036  1.00  0.00    -0.274 N 
HETATM    3  C   UNL     1      -2.682   4.421 -31.512  1.00  0.00     0.161 A 
HETATM    4  N   UNL     1      -2.647   3.109 -31.656  1.00  0.00    -0.132 NA
HETATM    5  N   UNL     1      -3.873   2.615 -31.344  1.00  0.00    -0.122 NA
ENDROOT
BRANCH   1   6
HETATM    6  S   UNL     1      -6.349   3.489 -30.714  1.00  0.00    -0.076 SA
BRANCH   6   7
HETATM    7  C   UNL     1      -6.935   2.797 -32.307  1.00  0.00     0.143 C 
HETATM    8  C   UNL     1      -8.369   3.240 -32.593  1.00  0.00     0.031 C 
BRANCH   7   9
HETATM    9  C   UNL     1      -6.870   1.260 -32.291  1.00  0.00     0.236 C 
HETATM   10  N   UNL     1      -6.010   0.770 -33.270  1.00  0.00    -0.326 N 
HETATM   11  H   UNL     1      -5.516   1.451 -33.835  1.00  0.00     0.169 HD
HETATM   12  O   UNL     1      -7.529   0.575 -31.517  1.00  0.00    -0.272 OA
BRANCH  10  13
HETATM   13  C   UNL     1      -5.736  -0.577 -33.582  1.00  0.00     0.034 A 
HETATM   14  C   UNL     1      -4.567  -1.248 -33.215  1.00  0.00     0.030 A 
HETATM   15  C   UNL     1      -4.377  -2.594 -33.560  1.00  0.00     0.019 A 
HETATM   16  C   UNL     1      -5.354  -3.282 -34.285  1.00  0.00     0.032 A 
HETATM   17  C   UNL     1      -6.531  -2.616 -34.644  1.00  0.00     0.019 A 
HETATM   18  C   UNL     1      -6.718  -1.275 -34.297  1.00  0.00     0.030 A 
BRANCH  16  19
HETATM   19  C   UNL     1      -5.210  -4.710 -34.674  1.00  0.00     0.249 C 
HETATM   20  N   UNL     1      -4.101  -5.381 -34.241  1.00  0.00    -0.366 N 
HETATM   21  H   UNL     1      -3.295  -4.925 -33.840  1.00  0.00     0.159 HD
HETATM   22  H   UNL     1      -3.980  -6.323 -34.592  1.00  0.00     0.159 HD
HETATM   23  O   UNL     1      -6.037  -5.263 -35.388  1.00  0.00    -0.268 OA
ENDBRANCH  16  19
ENDBRANCH  10  13
ENDBRANCH   7   9
ENDBRANCH   6   7
ENDBRANCH   1   6
BRANCH   2  24
HETATM   24  C   UNL     1      -4.332   6.112 -30.634  1.00  0.00     0.043 A 
HETATM   25  C   UNL     1      -4.640   7.079 -31.603  1.00  0.00     0.033 A 
HETATM   26  C   UNL     1      -5.067   8.351 -31.214  1.00  0.00     0.044 A 
HETATM   27  C   UNL     1      -5.179   8.656 -29.864  1.00  0.00     0.116 A 
HETATM   28  F   UNL     1      -5.590   9.873 -29.492  1.00  0.00    -0.206 F 
HETATM   29  C   UNL     1      -4.866   7.712 -28.893  1.00  0.00     0.044 A 
HETATM   30  C   UNL     1      -4.440   6.436 -29.273  1.00  0.00     0.033 A 
ENDBRANCH   2  24
BRANCH   3  31
HETATM   31  C   UNL     1      -1.480   5.286 -31.671  1.00  0.00     0.315 C 
BRANCH  31  32
HETATM   32  N   UNL     1      -0.974   5.798 -30.324  1.00  0.00    -0.064 N 
HETATM   33  H   UNL     1      -1.656   5.431 -29.639  1.00  0.00     0.280 HD
HETATM   34  C   UNL     1       0.363   5.201 -29.938  1.00  0.00     0.235 C 
HETATM   35  C   UNL     1       0.696   5.605 -28.509  1.00  0.00     0.028 C 
HETATM   36  C   UNL     1       0.695   7.121 -28.345  1.00  0.00     0.003 C 
HETATM   37  C   UNL     1      -0.622   7.727 -28.817  1.00  0.00     0.028 C 
HETATM   38  C   UNL     1      -0.972   7.299 -30.236  1.00  0.00     0.235 C 
ENDBRANCH  31  32
ENDBRANCH   3  31
TORSDOF 8
ENDMDL
MODEL 5
REMARK VINA RESULT:      -8.7      3.783      7.274
REMARK  8 active torsions:
REMARK  status: ('A' for Active; 'I' for Inactive)
REMARK    1  A    between atoms: C_2  and  S_3 
REMARK    2  A    between atoms: C_2  and  C_24 
REMARK    3  A    between atoms: S_3  and  C_4 
REMARK    4  A    between atoms: N_5  and  C_6 
REMARK    5  A    between atoms: C_13  and  C_14 
REMARK    6  A    between atoms: C_14  and  N_15 
REMARK       I    between atoms: C_24  and  N_25 
REMARK    7  A    between atoms: N_25  and  C_26 
REMARK    8  A    between atoms: C_29  and  C_30 
REMARK       I    between atoms: C_30  and  N_31 
ROOT
HETATM    1  C   UNL     1      -6.655   3.790 -32.198  1.00  0.00     0.197 A 
HETATM    2  N   UNL     1      -7.711   2.954 -32.527  1.00  0.00    -0.274 N 
HETATM    3  C   UNL     1      -8.816   3.587 -31.959  1.00  0.00     0.161 A 
HETATM    4  N   UNL     1      -8.421   4.656 -31.293  1.00  0.00    -0.132 NA
HETATM    5  N   UNL     1      -7.079   4.787 -31.455  1.00  0.00    -0.122 NA
ENDROOT
BRANCH   1   6
HETATM    6  S   UNL     1      -5.051   3.663 -32.839  1.00  0.00    -0.076 SA
BRANCH   6   7
HETATM    7  C   UNL     1      -4.137   2.947 -31.420  1.00  0.00     0.143 C 
HETATM    8  C   UNL     1      -2.642   3.238 -31.538  1.00  0.00     0.031 C 
BRANCH   7   9
HETATM    9  C   UNL     1      -4.357   1.427 -31.341  1.00  0.00     0.236 C 
HETATM   10  N   UNL     1      -3.731   0.759 -32.390  1.00  0.00    -0.326 N 
HETATM   11  H   UNL     1      -3.193   1.320 -33.039  1.00  0.00     0.169 HD
HETATM   12  O   UNL     1      -5.031   0.897 -30.464  1.00  0.00    -0.272 OA
BRANCH  10  13
HETATM   13  C   UNL     1      -3.754  -0.622 -32.669  1.00  0.00     0.034 A 
HETATM   14  C   UNL     1      -3.248  -1.606 -31.816  1.00  0.00     0.030 A 
HETATM   15  C   UNL     1      -3.317  -2.962 -32.168  1.00  0.00     0.019 A 
HETATM   16  C   UNL     1      -3.887  -3.348 -33.384  1.00  0.00     0.032 A 
HETATM   17  C   UNL     1      -4.405  -2.366 -34.235  1.00  0.00     0.019 A 
HETATM   18  C   UNL     1      -4.336  -1.015 -33.881  1.00  0.00     0.030 A 
BRANCH  16  19
HETATM   19  C   UNL     1      -3.993  -4.769 -33.807  1.00  0.00     0.249 C 
HETATM   20  N   UNL     1      -2.941  -5.598 -33.532  1.00  0.00    -0.366 N 
HETATM   21  H   UNL     1      -2.035  -5.267 -33.235  1.00  0.00     0.159 HD
HETATM   22  H   UNL     1      -2.997  -6.535 -33.909  1.00  0.00     0.159 HD
HETATM   23  O   UNL     1      -4.973  -5.183 -34.413  1.00  0.00    -0.268 OA
ENDBRANCH  16  19
ENDBRANCH  10  13
ENDBRANCH   7   9
ENDBRANCH   6   7
ENDBRANCH   1   6
BRANCH   2  24
HETATM   24  C   UNL     1      -7.696   1.709 -33.214  1.00  0.00     0.043 A 
HETATM   25  C   UNL     1      -7.547   1.682 -34.609  1.00  0.00     0.033 A 
HETATM   26  C   UNL     1      -7.496   0.461 -35.286  1.00  0.00     0.044 A 
HETATM   27  C   UNL     1      -7.598  -0.726 -34.572  1.00  0.00     0.116 A 
HETATM   28  F   UNL     1      -7.546  -1.895 -35.220  1.00  0.00    -0.206 F 
HETATM   29  C   UNL     1      -7.757  -0.715 -33.191  1.00  0.00     0.044 A 
HETATM   30  C   UNL     1      -7.808   0.503 -32.506  1.00  0.00     0.033 A 
ENDBRANCH   2  24
BRANCH   3  31
HETATM   31  C   UNL     1     -10.214   3.078 -31.921  1.00  0.00     0.315 C 
BRANCH  31  32
HETATM   32  N   UNL     1     -10.821   2.995 -33.320  1.00  0.00    -0.064 N 
HETATM   33  H   UNL     1     -10.003   2.971 -33.951  1.00  0.00     0.280 HD
HETATM   34  C   UNL     1     -11.565   1.698 -33.556  1.00  0.00     0.235 C 
HETATM   35  C   UNL     1     -11.962   1.611 -35.023  1.00  0.00     0.028 C 
HETATM   36  C   UNL     1     -12.796   2.815 -35.446  1.00  0.00     0.003 C 
HETATM   37  C   UNL     1     -12.079   4.123 -35.126  1.00  0.00     0.028 C 
HETATM   38  C   UNL     1     -11.655   4.198 -33.666  1.00  0.00     0.235 C 
ENDBRANCH  31  32
ENDBRANCH   3  31
TORSDOF 8
ENDMDL
MODEL 6
REMARK VINA RESULT:      -8.6      3.794      9.994
REMARK  8 active torsions:
REMARK  status: ('A' for Active; 'I' for Inactive)
REMARK    1  A    between atoms: C_2  and  S_3 
REMARK    2  A    between atoms: C_2  and  C_24 
REMARK    3  A    between atoms: S_3  and  C_4 
REMARK    4  A    between atoms: N_5  and  C_6 
REMARK    5  A    between atoms: C_13  and  C_14 
REMARK    6  A    between atoms: C_14  and  N_15 
REMARK       I    between atoms: C_24  and  N_25 
REMARK    7  A    between atoms: N_25  and  C_26 
REMARK    8  A    between atoms: C_29  and  C_30 
REMARK       I    between atoms: C_30  and  N_31 
ROOT
HETATM    1  C   UNL     1      -5.822   2.852 -32.294  1.00  0.00     0.197 A 
HETATM    2  N   UNL     1      -6.620   1.734 -32.483  1.00  0.00    -0.274 N 
HETATM    3  C   UNL     1      -7.784   2.044 -31.782  1.00  0.00     0.161 A 
HETATM    4  N   UNL     1      -7.641   3.207 -31.175  1.00  0.00    -0.132 NA
HETATM    5  N   UNL     1      -6.425   3.713 -31.507  1.00  0.00    -0.122 NA
ENDROOT
BRANCH   1   6
HETATM    6  S   UNL     1      -4.339   3.167 -33.133  1.00  0.00    -0.076 SA
BRANCH   6   7
HETATM    7  C   UNL     1      -3.982   4.892 -32.625  1.00  0.00     0.143 C 
HETATM    8  C   UNL     1      -3.675   5.761 -33.843  1.00  0.00     0.031 C 
BRANCH   7   9
HETATM    9  C   UNL     1      -2.791   4.938 -31.652  1.00  0.00     0.236 C 
HETATM   10  N   UNL     1      -2.585   6.219 -31.147  1.00  0.00    -0.326 N 
HETATM   11  H   UNL     1      -3.237   6.939 -31.435  1.00  0.00     0.169 HD
HETATM   12  O   UNL     1      -2.106   3.954 -31.393  1.00  0.00    -0.272 OA
BRANCH  10  13
HETATM   13  C   UNL     1      -1.566   6.648 -30.273  1.00  0.00     0.034 A 
HETATM   14  C   UNL     1      -0.223   6.779 -30.634  1.00  0.00     0.030 A 
HETATM   15  C   UNL     1       0.728   7.222 -29.704  1.00  0.00     0.019 A 
HETATM   16  C   UNL     1       0.345   7.531 -28.395  1.00  0.00     0.032 A 
HETATM   17  C   UNL     1      -1.001   7.413 -28.034  1.00  0.00     0.019 A 
HETATM   18  C   UNL     1      -1.947   6.972 -28.965  1.00  0.00     0.030 A 
BRANCH  16  19
HETATM   19  C   UNL     1       1.308   8.010 -27.368  1.00  0.00     0.249 C 
HETATM   20  N   UNL     1       1.991   9.165 -27.622  1.00  0.00    -0.366 N 
HETATM   21  H   UNL     1       2.024   9.605 -28.530  1.00  0.00     0.159 HD
HETATM   22  H   UNL     1       2.704   9.422 -26.951  1.00  0.00     0.159 HD
HETATM   23  O   UNL     1       1.510   7.376 -26.340  1.00  0.00    -0.268 OA
ENDBRANCH  16  19
ENDBRANCH  10  13
ENDBRANCH   7   9
ENDBRANCH   6   7
ENDBRANCH   1   6
BRANCH   2  24
HETATM   24  C   UNL     1      -6.325   0.520 -33.162  1.00  0.00     0.043 A 
HETATM   25  C   UNL     1      -6.971   0.220 -34.371  1.00  0.00     0.033 A 
HETATM   26  C   UNL     1      -6.659  -0.955 -35.061  1.00  0.00     0.044 A 
HETATM   27  C   UNL     1      -5.712  -1.827 -34.541  1.00  0.00     0.116 A 
HETATM   28  F   UNL     1      -5.412  -2.950 -35.203  1.00  0.00    -0.206 F 
HETATM   29  C   UNL     1      -5.073  -1.549 -33.339  1.00  0.00     0.044 A 
HETATM   30  C   UNL     1      -5.377  -0.375 -32.642  1.00  0.00     0.033 A 
ENDBRANCH   2  24
BRANCH   3  31
HETATM   31  C   UNL     1      -8.959   1.155 -31.564  1.00  0.00     0.315 C 
BRANCH  31  32
HETATM   32  N   UNL     1     -10.127   1.534 -32.473  1.00  0.00    -0.064 N 
HETATM   33  H   UNL     1     -10.805   1.989 -31.839  1.00  0.00     0.280 HD
HETATM   34  C   UNL     1      -9.750   2.582 -33.499  1.00  0.00     0.235 C 
HETATM   35  C   UNL     1     -11.007   3.044 -34.224  1.00  0.00     0.028 C 
HETATM   36  C   UNL     1     -11.741   1.873 -34.867  1.00  0.00     0.003 C 
HETATM   37  C   UNL     1     -12.040   0.780 -33.846  1.00  0.00     0.028 C 
HETATM   38  C   UNL     1     -10.789   0.338 -33.099  1.00  0.00     0.235 C 
ENDBRANCH  31  32
ENDBRANCH   3  31
TORSDOF 8
ENDMDL
MODEL 7
REMARK VINA RESULT:      -8.6      1.552      1.873
REMARK  8 active torsions:
REMARK  status: ('A' for Active; 'I' for Inactive)
REMARK    1  A    between atoms: C_2  and  S_3 
REMARK    2  A    between atoms: C_2  and  C_24 
REMARK    3  A    between atoms: S_3  and  C_4 
REMARK    4  A    between atoms: N_5  and  C_6 
REMARK    5  A    between atoms: C_13  and  C_14 
REMARK    6  A    between atoms: C_14  and  N_15 
REMARK       I    between atoms: C_24  and  N_25 
REMARK    7  A    between atoms: N_25  and  C_26 
REMARK    8  A    between atoms: C_29  and  C_30 
REMARK       I    between atoms: C_30  and  N_31 
ROOT
HETATM    1  C   UNL     1      -5.335   5.034 -30.420  1.00  0.00     0.197 A 
HETATM    2  N   UNL     1      -4.231   5.866 -30.318  1.00  0.00    -0.274 N 
HETATM    3  C   UNL     1      -4.371   6.438 -29.054  1.00  0.00     0.161 A 
HETATM    4  N   UNL     1      -5.500   6.031 -28.505  1.00  0.00    -0.132 NA
HETATM    5  N   UNL     1      -6.091   5.148 -29.352  1.00  0.00    -0.122 NA
ENDROOT
BRANCH   1   6
HETATM    6  S   UNL     1      -5.584   3.863 -31.672  1.00  0.00    -0.076 SA
BRANCH   6   7
HETATM    7  C   UNL     1      -4.408   2.543 -31.187  1.00  0.00     0.143 C 
HETATM    8  C   UNL     1      -3.100   2.673 -31.966  1.00  0.00     0.031 C 
BRANCH   7   9
HETATM    9  C   UNL     1      -5.015   1.152 -31.438  1.00  0.00     0.236 C 
HETATM   10  N   UNL     1      -4.536   0.583 -32.615  1.00  0.00    -0.326 N 
HETATM   11  H   UNL     1      -3.842   1.110 -33.133  1.00  0.00     0.169 HD
HETATM   12  O   UNL     1      -5.842   0.642 -30.689  1.00  0.00    -0.272 OA
BRANCH  10  13
HETATM   13  C   UNL     1      -4.901  -0.652 -33.188  1.00  0.00     0.034 A 
HETATM   14  C   UNL     1      -6.126  -0.898 -33.812  1.00  0.00     0.030 A 
HETATM   15  C   UNL     1      -6.407  -2.155 -34.365  1.00  0.00     0.019 A 
HETATM   16  C   UNL     1      -5.465  -3.186 -34.291  1.00  0.00     0.032 A 
HETATM   17  C   UNL     1      -4.232  -2.938 -33.678  1.00  0.00     0.019 A 
HETATM   18  C   UNL     1      -3.955  -1.683 -33.129  1.00  0.00     0.030 A 
BRANCH  16  19
HETATM   19  C   UNL     1      -5.705  -4.537 -34.864  1.00  0.00     0.249 C 
HETATM   20  N   UNL     1      -4.784  -5.513 -34.604  1.00  0.00    -0.366 N 
HETATM   21  H   UNL     1      -3.872  -5.329 -34.214  1.00  0.00     0.159 HD
HETATM   22  H   UNL     1      -4.922  -6.397 -35.077  1.00  0.00     0.159 HD
HETATM   23  O   UNL     1      -6.677  -4.766 -35.573  1.00  0.00    -0.268 OA
ENDBRANCH  16  19
ENDBRANCH  10  13
ENDBRANCH   7   9
ENDBRANCH   6   7
ENDBRANCH   1   6
BRANCH   2  24
HETATM   24  C   UNL     1      -3.220   6.145 -31.278  1.00  0.00     0.043 A 
HETATM   25  C   UNL     1      -3.436   7.130 -32.254  1.00  0.00     0.033 A 
HETATM   26  C   UNL     1      -2.432   7.432 -33.179  1.00  0.00     0.044 A 
HETATM   27  C   UNL     1      -1.223   6.752 -33.129  1.00  0.00     0.116 A 
HETATM   28  F   UNL     1      -0.262   7.044 -34.012  1.00  0.00    -0.206 F 
HETATM   29  C   UNL     1      -0.999   5.767 -32.174  1.00  0.00     0.044 A 
HETATM   30  C   UNL     1      -1.997   5.458 -31.245  1.00  0.00     0.033 A 
ENDBRANCH   2  24
BRANCH   3  31
HETATM   31  C   UNL     1      -3.509   7.490 -28.450  1.00  0.00     0.315 C 
BRANCH  31  32
HETATM   32  N   UNL     1      -2.112   6.959 -28.131  1.00  0.00    -0.064 N 
HETATM   33  H   UNL     1      -2.092   6.020 -28.562  1.00  0.00     0.280 HD
HETATM   34  C   UNL     1      -1.017   7.753 -28.811  1.00  0.00     0.235 C 
HETATM   35  C   UNL     1       0.314   7.044 -28.605  1.00  0.00     0.028 C 
HETATM   36  C   UNL     1       0.613   6.842 -27.124  1.00  0.00     0.003 C 
HETATM   37  C   UNL     1      -0.533   6.119 -26.423  1.00  0.00     0.028 C 
HETATM   38  C   UNL     1      -1.870   6.809 -26.654  1.00  0.00     0.235 C 
ENDBRANCH  31  32
ENDBRANCH   3  31
TORSDOF 8
ENDMDL
MODEL 8
REMARK VINA RESULT:      -8.5      4.280      7.078
REMARK  8 active torsions:
REMARK  status: ('A' for Active; 'I' for Inactive)
REMARK    1  A    between atoms: C_2  and  S_3 
REMARK    2  A    between atoms: C_2  and  C_24 
REMARK    3  A    between atoms: S_3  and  C_4 
REMARK    4  A    between atoms: N_5  and  C_6 
REMARK    5  A    between atoms: C_13  and  C_14 
REMARK    6  A    between atoms: C_14  and  N_15 
REMARK       I    between atoms: C_24  and  N_25 
REMARK    7  A    between atoms: N_25  and  C_26 
REMARK    8  A    between atoms: C_29  and  C_30 
REMARK       I    between atoms: C_30  and  N_31 
ROOT
HETATM    1  C   UNL     1      -7.252   2.753 -30.891  1.00  0.00     0.197 A 
HETATM    2  N   UNL     1      -8.284   3.663 -31.056  1.00  0.00    -0.274 N 
HETATM    3  C   UNL     1      -9.369   2.863 -31.411  1.00  0.00     0.161 A 
HETATM    4  N   UNL     1      -8.979   1.607 -31.518  1.00  0.00    -0.132 NA
HETATM    5  N   UNL     1      -7.664   1.540 -31.180  1.00  0.00    -0.122 NA
ENDROOT
BRANCH   1   6
HETATM    6  S   UNL     1      -5.703   3.120 -30.205  1.00  0.00    -0.076 SA
BRANCH   6   7
HETATM    7  C   UNL     1      -4.572   2.669 -31.576  1.00  0.00     0.143 C 
HETATM    8  C   UNL     1      -5.034   3.302 -32.887  1.00  0.00     0.031 C 
BRANCH   7   9
HETATM    9  C   UNL     1      -4.501   1.141 -31.743  1.00  0.00     0.236 C 
HETATM   10  N   UNL     1      -5.002   0.733 -32.976  1.00  0.00    -0.326 N 
HETATM   11  H   UNL     1      -5.311   1.458 -33.612  1.00  0.00     0.169 HD
HETATM   12  O   UNL     1      -4.074   0.396 -30.867  1.00  0.00    -0.272 OA
BRANCH  10  13
HETATM   13  C   UNL     1      -5.141  -0.585 -33.457  1.00  0.00     0.034 A 
HETATM   14  C   UNL     1      -4.112  -1.530 -33.469  1.00  0.00     0.030 A 
HETATM   15  C   UNL     1      -4.336  -2.824 -33.960  1.00  0.00     0.019 A 
HETATM   16  C   UNL     1      -5.593  -3.185 -34.453  1.00  0.00     0.032 A 
HETATM   17  C   UNL     1      -6.629  -2.244 -34.431  1.00  0.00     0.019 A 
HETATM   18  C   UNL     1      -6.402  -0.954 -33.940  1.00  0.00     0.030 A 
BRANCH  16  19
HETATM   19  C   UNL     1      -5.891  -4.543 -34.981  1.00  0.00     0.249 C 
HETATM   20  N   UNL     1      -7.107  -4.746 -35.571  1.00  0.00    -0.366 N 
HETATM   21  H   UNL     1      -7.875  -4.096 -35.501  1.00  0.00     0.159 HD
HETATM   22  H   UNL     1      -7.321  -5.698 -35.840  1.00  0.00     0.159 HD
HETATM   23  O   UNL     1      -5.090  -5.462 -34.865  1.00  0.00    -0.268 OA
ENDBRANCH  16  19
ENDBRANCH  10  13
ENDBRANCH   7   9
ENDBRANCH   6   7
ENDBRANCH   1   6
BRANCH   2  24
HETATM   24  C   UNL     1      -8.259   5.082 -30.964  1.00  0.00     0.043 A 
HETATM   25  C   UNL     1      -8.613   5.710 -29.760  1.00  0.00     0.033 A 
HETATM   26  C   UNL     1      -8.557   7.103 -29.652  1.00  0.00     0.044 A 
HETATM   27  C   UNL     1      -8.153   7.861 -30.743  1.00  0.00     0.116 A 
HETATM   28  F   UNL     1      -8.096   9.193 -30.638  1.00  0.00    -0.206 F 
HETATM   29  C   UNL     1      -7.810   7.253 -31.945  1.00  0.00     0.044 A 
HETATM   30  C   UNL     1      -7.863   5.861 -32.061  1.00  0.00     0.033 A 
ENDBRANCH   2  24
BRANCH   3  31
HETATM   31  C   UNL     1     -10.729   3.325 -31.802  1.00  0.00     0.315 C 
BRANCH  31  32
HETATM   32  N   UNL     1     -11.006   3.069 -33.283  1.00  0.00    -0.064 N 
HETATM   33  H   UNL     1     -10.187   2.527 -33.605  1.00  0.00     0.280 HD
HETATM   34  C   UNL     1     -12.208   2.176 -33.504  1.00  0.00     0.235 C 
HETATM   35  C   UNL     1     -12.293   1.811 -34.980  1.00  0.00     0.028 C 
HETATM   36  C   UNL     1     -12.356   3.056 -35.858  1.00  0.00     0.003 C 
HETATM   37  C   UNL     1     -11.190   3.996 -35.568  1.00  0.00     0.028 C 
HETATM   38  C   UNL     1     -11.085   4.337 -34.088  1.00  0.00     0.235 C 
ENDBRANCH  31  32
ENDBRANCH   3  31
TORSDOF 8
ENDMDL
MODEL 9
REMARK VINA RESULT:      -8.4      3.823      9.719
REMARK  8 active torsions:
REMARK  status: ('A' for Active; 'I' for Inactive)
REMARK    1  A    between atoms: C_2  and  S_3 
REMARK    2  A    between atoms: C_2  and  C_24 
REMARK    3  A    between atoms: S_3  and  C_4 
REMARK    4  A    between atoms: N_5  and  C_6 
REMARK    5  A    between atoms: C_13  and  C_14 
REMARK    6  A    between atoms: C_14  and  N_15 
REMARK       I    between atoms: C_24  and  N_25 
REMARK    7  A    between atoms: N_25  and  C_26 
REMARK    8  A    between atoms: C_29  and  C_30 
REMARK       I    between atoms: C_30  and  N_31 
ROOT
HETATM    1  C   UNL     1      -4.150   3.545 -31.719  1.00  0.00     0.197 A 
HETATM    2  N   UNL     1      -5.008   2.458 -31.645  1.00  0.00    -0.274 N 
HETATM    3  C   UNL     1      -6.133   2.975 -31.006  1.00  0.00     0.161 A 
HETATM    4  N   UNL     1      -5.915   4.232 -30.669  1.00  0.00    -0.132 NA
HETATM    5  N   UNL     1      -4.686   4.587 -31.126  1.00  0.00    -0.122 NA
ENDROOT
BRANCH   1   6
HETATM    6  S   UNL     1      -2.680   3.590 -32.635  1.00  0.00    -0.076 SA
BRANCH   6   7
HETATM    7  C   UNL     1      -2.693   5.307 -33.277  1.00  0.00     0.143 C 
HETATM    8  C   UNL     1      -2.323   5.332 -34.759  1.00  0.00     0.031 C 
BRANCH   7   9
HETATM    9  C   UNL     1      -1.709   6.191 -32.490  1.00  0.00     0.236 C 
HETATM   10  N   UNL     1      -1.997   6.198 -31.128  1.00  0.00    -0.326 N 
HETATM   11  H   UNL     1      -2.765   5.616 -30.815  1.00  0.00     0.169 HD
HETATM   12  O   UNL     1      -0.807   6.823 -33.029  1.00  0.00    -0.272 OA
BRANCH  10  13
HETATM   13  C   UNL     1      -1.344   6.925 -30.112  1.00  0.00     0.034 A 
HETATM   14  C   UNL     1      -1.761   8.175 -29.648  1.00  0.00     0.030 A 
HETATM   15  C   UNL     1      -1.058   8.829 -28.626  1.00  0.00     0.019 A 
HETATM   16  C   UNL     1       0.077   8.241 -28.062  1.00  0.00     0.032 A 
HETATM   17  C   UNL     1       0.490   6.984 -28.516  1.00  0.00     0.019 A 
HETATM   18  C   UNL     1      -0.214   6.334 -29.535  1.00  0.00     0.030 A 
BRANCH  16  19
HETATM   19  C   UNL     1       0.859   8.885 -26.973  1.00  0.00     0.249 C 
HETATM   20  N   UNL     1       2.125   9.312 -27.262  1.00  0.00    -0.366 N 
HETATM   21  H   UNL     1       2.623   9.051 -28.100  1.00  0.00     0.159 HD
HETATM   22  H   UNL     1       2.668   9.663 -26.483  1.00  0.00     0.159 HD
HETATM   23  O   UNL     1       0.402   9.002 -25.843  1.00  0.00    -0.268 OA
ENDBRANCH  16  19
ENDBRANCH  10  13
ENDBRANCH   7   9
ENDBRANCH   6   7
ENDBRANCH   1   6
BRANCH   2  24
HETATM   24  C   UNL     1      -4.794   1.112 -32.050  1.00  0.00     0.043 A 
HETATM   25  C   UNL     1      -5.335   0.651 -33.261  1.00  0.00     0.033 A 
HETATM   26  C   UNL     1      -5.098  -0.661 -33.680  1.00  0.00     0.044 A 
HETATM   27  C   UNL     1      -4.331  -1.508 -32.892  1.00  0.00     0.116 A 
HETATM   28  F   UNL     1      -4.103  -2.762 -33.296  1.00  0.00    -0.206 F 
HETATM   29  C   UNL     1      -3.799  -1.069 -31.686  1.00  0.00     0.044 A 
HETATM   30  C   UNL     1      -4.030   0.242 -31.258  1.00  0.00     0.033 A 
ENDBRANCH   2  24
BRANCH   3  31
HETATM   31  C   UNL     1      -7.343   2.219 -30.578  1.00  0.00     0.315 C 
BRANCH  31  32
HETATM   32  N   UNL     1      -8.280   1.946 -31.753  1.00  0.00    -0.064 N 
HETATM   33  H   UNL     1      -7.700   2.127 -32.589  1.00  0.00     0.280 HD
HETATM   34  C   UNL     1      -8.694   0.492 -31.842  1.00  0.00     0.235 C 
HETATM   35  C   UNL     1      -9.456   0.270 -33.141  1.00  0.00     0.028 C 
HETATM   36  C   UNL     1     -10.661   1.198 -33.245  1.00  0.00     0.003 C 
HETATM   37  C   UNL     1     -10.251   2.657 -33.066  1.00  0.00     0.028 C 
HETATM   38  C   UNL     1      -9.462   2.875 -31.783  1.00  0.00     0.235 C 
ENDBRANCH  31  32
ENDBRANCH   3  31
TORSDOF 8
ENDMDL
MODEL 10
REMARK VINA RESULT:      -8.3     17.734     19.569
REMARK  8 active torsions:
REMARK  status: ('A' for Active; 'I' for Inactive)
REMARK    1  A    between atoms: C_2  and  S_3 
REMARK    2  A    between atoms: C_2  and  C_24 
REMARK    3  A    between atoms: S_3  and  C_4 
REMARK    4  A    between atoms: N_5  and  C_6 
REMARK    5  A    between atoms: C_13  and  C_14 
REMARK    6  A    between atoms: C_14  and  N_15 
REMARK       I    between atoms: C_24  and  N_25 
REMARK    7  A    between atoms: N_25  and  C_26 
REMARK    8  A    between atoms: C_29  and  C_30 
REMARK       I    between atoms: C_30  and  N_31 
ROOT
HETATM    1  C   UNL     1      -5.795 -12.670 -39.146  1.00  0.00     0.197 A 
HETATM    2  N   UNL     1      -6.976 -13.058 -38.532  1.00  0.00    -0.274 N 
HETATM    3  C   UNL     1      -6.596 -13.290 -37.212  1.00  0.00     0.161 A 
HETATM    4  N   UNL     1      -5.292 -13.127 -37.089  1.00  0.00    -0.132 NA
HETATM    5  N   UNL     1      -4.799 -12.728 -38.291  1.00  0.00    -0.122 NA
ENDROOT
BRANCH   1   6
HETATM    6  S   UNL     1      -5.675 -12.008 -40.742  1.00  0.00    -0.076 SA
BRANCH   6   7
HETATM    7  C   UNL     1      -5.202 -13.483 -41.723  1.00  0.00     0.143 C 
HETATM    8  C   UNL     1      -6.424 -14.351 -42.015  1.00  0.00     0.031 C 
BRANCH   7   9
HETATM    9  C   UNL     1      -4.148 -14.319 -40.977  1.00  0.00     0.236 C 
HETATM   10  N   UNL     1      -2.949 -13.627 -40.830  1.00  0.00    -0.326 N 
HETATM   11  H   UNL     1      -2.917 -12.678 -41.182  1.00  0.00     0.169 HD
HETATM   12  O   UNL     1      -4.358 -15.465 -40.594  1.00  0.00    -0.272 OA
BRANCH  10  13
HETATM   13  C   UNL     1      -1.752 -14.088 -40.245  1.00  0.00     0.034 A 
HETATM   14  C   UNL     1      -1.142 -13.501 -39.134  1.00  0.00     0.030 A 
HETATM   15  C   UNL     1       0.047 -14.029 -38.609  1.00  0.00     0.019 A 
HETATM   16  C   UNL     1       0.643 -15.148 -39.197  1.00  0.00     0.032 A 
HETATM   17  C   UNL     1       0.028 -15.745 -40.302  1.00  0.00     0.019 A 
HETATM   18  C   UNL     1      -1.158 -15.217 -40.823  1.00  0.00     0.030 A 
BRANCH  16  19
HETATM   19  C   UNL     1       1.899 -15.753 -38.681  1.00  0.00     0.249 C 
HETATM   20  N   UNL     1       2.013 -15.935 -37.332  1.00  0.00    -0.366 N 
HETATM   21  H   UNL     1       1.388 -15.518 -36.659  1.00  0.00     0.159 HD
HETATM   22  H   UNL     1       2.910 -16.265 -36.997  1.00  0.00     0.159 HD
HETATM   23  O   UNL     1       2.819 -16.051 -39.433  1.00  0.00    -0.268 OA
ENDBRANCH  16  19
ENDBRANCH  10  13
ENDBRANCH   7   9
ENDBRANCH   6   7
ENDBRANCH   1   6
BRANCH   2  24
HETATM   24  C   UNL     1      -8.266 -13.250 -39.100  1.00  0.00     0.043 A 
HETATM   25  C   UNL     1      -9.023 -12.141 -39.506  1.00  0.00     0.033 A 
HETATM   26  C   UNL     1     -10.277 -12.326 -40.096  1.00  0.00     0.044 A 
HETATM   27  C   UNL     1     -10.770 -13.611 -40.275  1.00  0.00     0.116 A 
HETATM   28  F   UNL     1     -11.969 -13.787 -40.842  1.00  0.00    -0.206 F 
HETATM   29  C   UNL     1     -10.036 -14.718 -39.867  1.00  0.00     0.044 A 
HETATM   30  C   UNL     1      -8.781 -14.543 -39.276  1.00  0.00     0.033 A 
ENDBRANCH   2  24
BRANCH   3  31
HETATM   31  C   UNL     1      -7.452 -13.822 -36.116  1.00  0.00     0.315 C 
BRANCH  31  32
HETATM   32  N   UNL     1      -6.625 -14.200 -34.889  1.00  0.00    -0.064 N 
HETATM   33  H   UNL     1      -5.656 -14.257 -35.242  1.00  0.00     0.280 HD
HETATM   34  C   UNL     1      -6.619 -13.114 -33.834  1.00  0.00     0.235 C 
HETATM   35  C   UNL     1      -5.622 -13.483 -32.745  1.00  0.00     0.028 C 
HETATM   36  C   UNL     1      -5.937 -14.845 -32.139  1.00  0.00     0.003 C 
HETATM   37  C   UNL     1      -6.030 -15.921 -33.216  1.00  0.00     0.028 C 
HETATM   38  C   UNL     1      -7.005 -15.540 -34.321  1.00  0.00     0.235 C 
ENDBRANCH  31  32
ENDBRANCH   3  31
TORSDOF 8
ENDMDL
