MODEL 1
REMARK VINA RESULT:      -8.7      0.000      0.000
REMARK  9 active torsions:
REMARK  status: ('A' for Active; 'I' for Inactive)
REMARK    1  A    between atoms: C_6  and  N_7 
REMARK    2  A    between atoms: N_7  and  C_8 
REMARK    3  A    between atoms: C_10  and  S_11 
REMARK    4  A    between atoms: S_11  and  C_12 
REMARK    5  A    between atoms: C_15  and  N_16 
REMARK       I    between atoms: N_16  and  C_17 
REMARK    6  A    between atoms: C_17  and  C_18 
REMARK    7  A    between atoms: C_25  and  N_26 
REMARK    8  A    between atoms: C_34  and  C_35 
REMARK    9  A    between atoms: C_35  and  O_36 
ROOT
HETATM    1  C   UNL     1      -6.644   1.601 -33.026  1.00  0.00     0.152 A 
HETATM    2  N   UNL     1      -5.713   2.485 -33.429  1.00  0.00    -0.204 NA
HETATM    3  C   UNL     1      -6.104   3.693 -33.840  1.00  0.00     0.196 A 
HETATM    4  N   UNL     1      -7.377   4.109 -33.839  1.00  0.00    -0.209 NA
HETATM    5  C   UNL     1      -8.322   3.259 -33.393  1.00  0.00     0.128 A 
HETATM    6  C   UNL     1      -7.990   1.961 -32.991  1.00  0.00     0.125 A 
ENDROOT
BRANCH   3   7
HETATM    7  S   UNL     1      -4.813   4.750 -34.442  1.00  0.00    -0.050 SA
BRANCH   7   8
HETATM    8  C   UNL     1      -3.682   4.964 -33.087  1.00  0.00     0.008 A 
HETATM    9  C   UNL     1      -2.350   4.545 -33.131  1.00  0.00     0.021 A 
HETATM   10  C   UNL     1      -1.486   4.791 -32.057  1.00  0.00     0.031 A 
HETATM   11  C   UNL     1      -1.930   5.500 -30.941  1.00  0.00     0.034 A 
HETATM   12  C   UNL     1      -3.250   5.954 -30.908  1.00  0.00     0.031 A 
HETATM   13  C   UNL     1      -4.122   5.678 -31.966  1.00  0.00     0.021 A 
BRANCH  11  14
HETATM   14  N   UNL     1      -1.097   5.837 -29.857  1.00  0.00    -0.327 N 
HETATM   15  C   UNL     1       0.014   6.650 -29.893  1.00  0.00     0.226 C 
HETATM   16  O   UNL     1       0.551   7.109 -30.893  1.00  0.00    -0.273 OA
HETATM   17  H   UNL     1      -1.329   5.418 -28.968  1.00  0.00     0.169 HD
BRANCH  15  18
HETATM   18  C   UNL     1       0.596   6.972 -28.558  1.00  0.00     0.078 A 
HETATM   19  C   UNL     1       1.289   8.266 -28.200  1.00  0.00     0.015 A 
HETATM   20  C   UNL     1      -0.096   7.998 -27.688  1.00  0.00     0.015 A 
ENDBRANCH  15  18
ENDBRANCH  11  14
ENDBRANCH   7   8
ENDBRANCH   3   7
BRANCH   1  21
HETATM   21  N   UNL     1      -6.210   0.334 -32.596  1.00  0.00    -0.323 N 
HETATM   22  H   UNL     1      -6.352   0.161 -31.608  1.00  0.00     0.169 HD
BRANCH  21  23
HETATM   23  C   UNL     1      -5.949  -0.789 -33.294  1.00  0.00     0.151 A 
HETATM   24  N   UNL     1      -4.704  -1.130 -33.635  1.00  0.00    -0.157 NA
HETATM   25  N   UNL     1      -4.853  -2.265 -34.339  1.00  0.00    -0.281 N 
HETATM   26  C   UNL     1      -6.153  -2.651 -34.492  1.00  0.00     0.027 A 
HETATM   27  H   UNL     1      -4.018  -2.718 -34.698  1.00  0.00     0.189 HD
HETATM   28  C   UNL     1      -6.551  -3.849 -35.260  1.00  0.00     0.070 C 
HETATM   29  C   UNL     1      -6.891  -1.705 -33.815  1.00  0.00     0.078 A 
ENDBRANCH  21  23
ENDBRANCH   1  21
BRANCH   5  30
HETATM   30  N   UNL     1      -9.639   3.745 -33.370  1.00  0.00    -0.264 NA
HETATM   31  C   UNL     1      -9.966   4.635 -32.240  1.00  0.00     0.125 C 
HETATM   32  C   UNL     1     -11.499   4.736 -32.106  1.00  0.00     0.249 C 
HETATM   33  N   UNL     1     -12.118   5.237 -33.413  1.00  0.00    -0.073 N 
HETATM   34  H   UNL     1     -11.747   6.180 -33.587  1.00  0.00     0.279 HD
HETATM   35  C   UNL     1     -13.609   5.341 -33.312  1.00  0.00     0.269 C 
HETATM   36  C   UNL     1     -11.689   4.364 -34.597  1.00  0.00     0.249 C 
HETATM   37  C   UNL     1     -10.151   4.235 -34.666  1.00  0.00     0.125 C 
ENDBRANCH   5  30
BRANCH   6  38
HETATM   38  C   UNL     1      -9.047   0.997 -32.628  1.00  0.00     0.300 C 
HETATM   39  O   UNL     1      -9.173   0.490 -31.525  1.00  0.00    -0.259 OA
BRANCH  38  40
HETATM   40  O   UNL     1      -9.779   0.696 -33.727  1.00  0.00    -0.322 OA
HETATM   41  C   UNL     1     -11.198   0.621 -33.545  1.00  0.00     0.213 C 
ENDBRANCH  38  40
ENDBRANCH   6  38
TORSDOF 9
ENDMDL
MODEL 2
REMARK VINA RESULT:      -8.6      2.318      3.045
REMARK  9 active torsions:
REMARK  status: ('A' for Active; 'I' for Inactive)
REMARK    1  A    between atoms: C_6  and  N_7 
REMARK    2  A    between atoms: N_7  and  C_8 
REMARK    3  A    between atoms: C_10  and  S_11 
REMARK    4  A    between atoms: S_11  and  C_12 
REMARK    5  A    between atoms: C_15  and  N_16 
REMARK       I    between atoms: N_16  and  C_17 
REMARK    6  A    between atoms: C_17  and  C_18 
REMARK    7  A    between atoms: C_25  and  N_26 
REMARK    8  A    between atoms: C_34  and  C_35 
REMARK    9  A    between atoms: C_35  and  O_36 
ROOT
HETATM    1  C   UNL     1      -3.937   1.562 -31.801  1.00  0.00     0.152 A 
HETATM    2  N   UNL     1      -3.040   2.417 -32.323  1.00  0.00    -0.204 NA
HETATM    3  C   UNL     1      -3.422   3.667 -32.595  1.00  0.00     0.196 A 
HETATM    4  N   UNL     1      -4.645   4.149 -32.340  1.00  0.00    -0.209 NA
HETATM    5  C   UNL     1      -5.545   3.324 -31.771  1.00  0.00     0.128 A 
HETATM    6  C   UNL     1      -5.229   1.990 -31.501  1.00  0.00     0.125 A 
ENDROOT
BRANCH   3   7
HETATM    7  S   UNL     1      -2.197   4.689 -33.371  1.00  0.00    -0.050 SA
BRANCH   7   8
HETATM    8  C   UNL     1      -1.399   5.581 -32.057  1.00  0.00     0.008 A 
HETATM    9  C   UNL     1      -1.987   6.667 -31.404  1.00  0.00     0.021 A 
HETATM   10  C   UNL     1      -1.339   7.297 -30.336  1.00  0.00     0.031 A 
HETATM   11  C   UNL     1      -0.110   6.824 -29.875  1.00  0.00     0.034 A 
HETATM   12  C   UNL     1       0.466   5.716 -30.501  1.00  0.00     0.031 A 
HETATM   13  C   UNL     1      -0.167   5.108 -31.590  1.00  0.00     0.021 A 
BRANCH  11  14
HETATM   14  N   UNL     1       0.564   7.370 -28.767  1.00  0.00    -0.327 N 
HETATM   15  C   UNL     1       0.545   6.895 -27.475  1.00  0.00     0.226 C 
HETATM   16  O   UNL     1      -0.165   6.000 -27.036  1.00  0.00    -0.273 OA
HETATM   17  H   UNL     1       1.096   8.212 -28.938  1.00  0.00     0.169 HD
BRANCH  15  18
HETATM   18  C   UNL     1       1.497   7.572 -26.547  1.00  0.00     0.078 A 
HETATM   19  C   UNL     1       2.062   8.959 -26.739  1.00  0.00     0.015 A 
HETATM   20  C   UNL     1       1.000   8.726 -25.706  1.00  0.00     0.015 A 
ENDBRANCH  15  18
ENDBRANCH  11  14
ENDBRANCH   7   8
ENDBRANCH   3   7
BRANCH   1  21
HETATM   21  N   UNL     1      -3.513   0.250 -31.520  1.00  0.00    -0.323 N 
HETATM   22  H   UNL     1      -3.236   0.101 -30.557  1.00  0.00     0.169 HD
BRANCH  21  23
HETATM   23  C   UNL     1      -3.711  -0.901 -32.195  1.00  0.00     0.151 A 
HETATM   24  N   UNL     1      -3.132  -2.043 -31.819  1.00  0.00    -0.157 NA
HETATM   25  N   UNL     1      -3.533  -2.936 -32.739  1.00  0.00    -0.281 N 
HETATM   26  C   UNL     1      -4.326  -2.403 -33.714  1.00  0.00     0.027 A 
HETATM   27  H   UNL     1      -3.215  -3.896 -32.645  1.00  0.00     0.189 HD
HETATM   28  C   UNL     1      -4.851  -3.195 -34.846  1.00  0.00     0.070 C 
HETATM   29  C   UNL     1      -4.461  -1.073 -33.380  1.00  0.00     0.078 A 
ENDBRANCH  21  23
ENDBRANCH   1  21
BRANCH   5  30
HETATM   30  N   UNL     1      -6.804   3.877 -31.482  1.00  0.00    -0.264 NA
HETATM   31  C   UNL     1      -6.823   4.875 -30.396  1.00  0.00     0.125 C 
HETATM   32  C   UNL     1      -8.276   5.065 -29.912  1.00  0.00     0.249 C 
HETATM   33  N   UNL     1      -9.175   5.485 -31.076  1.00  0.00    -0.073 N 
HETATM   34  H   UNL     1      -8.830   6.390 -31.421  1.00  0.00     0.279 HD
HETATM   35  C   UNL     1     -10.595   5.673 -30.635  1.00  0.00     0.269 C 
HETATM   36  C   UNL     1      -9.070   4.495 -32.241  1.00  0.00     0.249 C 
HETATM   37  C   UNL     1      -7.598   4.282 -32.660  1.00  0.00     0.125 C 
ENDBRANCH   5  30
BRANCH   6  38
HETATM   38  C   UNL     1      -6.262   1.063 -30.998  1.00  0.00     0.300 C 
HETATM   39  O   UNL     1      -6.289   0.604 -29.868  1.00  0.00    -0.259 OA
BRANCH  38  40
HETATM   40  O   UNL     1      -7.100   0.731 -32.008  1.00  0.00    -0.322 OA
HETATM   41  C   UNL     1      -8.492   0.648 -31.677  1.00  0.00     0.213 C 
ENDBRANCH  38  40
ENDBRANCH   6  38
TORSDOF 9
ENDMDL
MODEL 3
REMARK VINA RESULT:      -8.5      2.274      2.899
REMARK  9 active torsions:
REMARK  status: ('A' for Active; 'I' for Inactive)
REMARK    1  A    between atoms: C_6  and  N_7 
REMARK    2  A    between atoms: N_7  and  C_8 
REMARK    3  A    between atoms: C_10  and  S_11 
REMARK    4  A    between atoms: S_11  and  C_12 
REMARK    5  A    between atoms: C_15  and  N_16 
REMARK       I    between atoms: N_16  and  C_17 
REMARK    6  A    between atoms: C_17  and  C_18 
REMARK    7  A    between atoms: C_25  and  N_26 
REMARK    8  A    between atoms: C_34  and  C_35 
REMARK    9  A    between atoms: C_35  and  O_36 
ROOT
HETATM    1  C   UNL     1      -6.617   2.860 -34.012  1.00  0.00     0.152 A 
HETATM    2  N   UNL     1      -5.503   3.433 -34.504  1.00  0.00    -0.204 NA
HETATM    3  C   UNL     1      -5.080   4.583 -33.974  1.00  0.00     0.196 A 
HETATM    4  N   UNL     1      -5.673   5.194 -32.939  1.00  0.00    -0.209 NA
HETATM    5  C   UNL     1      -6.760   4.612 -32.398  1.00  0.00     0.128 A 
HETATM    6  C   UNL     1      -7.286   3.432 -32.932  1.00  0.00     0.125 A 
ENDROOT
BRANCH   3   7
HETATM    7  S   UNL     1      -3.662   5.308 -34.754  1.00  0.00    -0.050 SA
BRANCH   7   8
HETATM    8  C   UNL     1      -2.570   5.791 -33.437  1.00  0.00     0.008 A 
HETATM    9  C   UNL     1      -1.986   4.878 -32.556  1.00  0.00     0.021 A 
HETATM   10  C   UNL     1      -1.086   5.306 -31.573  1.00  0.00     0.031 A 
HETATM   11  C   UNL     1      -0.723   6.650 -31.483  1.00  0.00     0.034 A 
HETATM   12  C   UNL     1      -1.276   7.562 -32.385  1.00  0.00     0.031 A 
HETATM   13  C   UNL     1      -2.201   7.138 -33.345  1.00  0.00     0.021 A 
BRANCH  11  14
HETATM   14  N   UNL     1       0.222   7.137 -30.562  1.00  0.00    -0.327 N 
HETATM   15  C   UNL     1      -0.022   7.553 -29.272  1.00  0.00     0.226 C 
HETATM   16  O   UNL     1      -1.118   7.703 -28.748  1.00  0.00    -0.273 OA
HETATM   17  H   UNL     1       1.174   7.209 -30.894  1.00  0.00     0.169 HD
BRANCH  15  18
HETATM   18  C   UNL     1       1.200   7.850 -28.469  1.00  0.00     0.078 A 
HETATM   19  C   UNL     1       1.289   8.881 -27.368  1.00  0.00     0.015 A 
HETATM   20  C   UNL     1       1.241   7.423 -27.019  1.00  0.00     0.015 A 
ENDBRANCH  15  18
ENDBRANCH  11  14
ENDBRANCH   7   8
ENDBRANCH   3   7
BRANCH   1  21
HETATM   21  N   UNL     1      -7.044   1.649 -34.585  1.00  0.00    -0.323 N 
HETATM   22  H   UNL     1      -7.577   1.759 -35.440  1.00  0.00     0.169 HD
BRANCH  21  23
HETATM   23  C   UNL     1      -6.610   0.387 -34.397  1.00  0.00     0.151 A 
HETATM   24  N   UNL     1      -5.549   0.116 -33.633  1.00  0.00    -0.157 NA
HETATM   25  N   UNL     1      -5.409  -1.217 -33.720  1.00  0.00    -0.281 N 
HETATM   26  C   UNL     1      -6.324  -1.814 -34.539  1.00  0.00     0.027 A 
HETATM   27  H   UNL     1      -4.654  -1.654 -33.200  1.00  0.00     0.189 HD
HETATM   28  C   UNL     1      -6.334  -3.266 -34.809  1.00  0.00     0.070 C 
HETATM   29  C   UNL     1      -7.124  -0.788 -34.991  1.00  0.00     0.078 A 
ENDBRANCH  21  23
ENDBRANCH   1  21
BRANCH   5  30
HETATM   30  N   UNL     1      -7.330   5.262 -31.290  1.00  0.00    -0.264 NA
HETATM   31  C   UNL     1      -6.562   5.163 -30.035  1.00  0.00     0.125 C 
HETATM   32  C   UNL     1      -7.481   5.532 -28.852  1.00  0.00     0.249 C 
HETATM   33  N   UNL     1      -8.065   6.933 -29.045  1.00  0.00    -0.073 N 
HETATM   34  H   UNL     1      -7.277   7.595 -29.060  1.00  0.00     0.279 HD
HETATM   35  C   UNL     1      -8.966   7.316 -27.911  1.00  0.00     0.269 C 
HETATM   36  C   UNL     1      -8.773   7.055 -30.399  1.00  0.00     0.249 C 
HETATM   37  C   UNL     1      -7.844   6.621 -31.555  1.00  0.00     0.125 C 
ENDBRANCH   5  30
BRANCH   6  38
HETATM   38  C   UNL     1      -8.551   2.875 -32.413  1.00  0.00     0.300 C 
HETATM   39  O   UNL     1      -9.656   3.344 -32.633  1.00  0.00    -0.259 OA
BRANCH  38  40
HETATM   40  O   UNL     1      -8.281   1.838 -31.586  1.00  0.00    -0.322 OA
HETATM   41  C   UNL     1      -9.065   0.653 -31.773  1.00  0.00     0.213 C 
ENDBRANCH  38  40
ENDBRANCH   6  38
TORSDOF 9
ENDMDL
MODEL 4
REMARK VINA RESULT:      -8.4      3.015      4.167
REMARK  9 active torsions:
REMARK  status: ('A' for Active; 'I' for Inactive)
REMARK    1  A    between atoms: C_6  and  N_7 
REMARK    2  A    between atoms: N_7  and  C_8 
REMARK    3  A    between atoms: C_10  and  S_11 
REMARK    4  A    between atoms: S_11  and  C_12 
REMARK    5  A    between atoms: C_15  and  N_16 
REMARK       I    between atoms: N_16  and  C_17 
REMARK    6  A    between atoms: C_17  and  C_18 
REMARK    7  A    between atoms: C_25  and  N_26 
REMARK    8  A    between atoms: C_34  and  C_35 
REMARK    9  A    between atoms: C_35  and  O_36 
ROOT
HETATM    1  C   UNL     1      -4.322   2.416 -32.275  1.00  0.00     0.152 A 
HETATM    2  N   UNL     1      -3.171   3.072 -32.509  1.00  0.00    -0.204 NA
HETATM    3  C   UNL     1      -3.048   4.332 -32.084  1.00  0.00     0.196 A 
HETATM    4  N   UNL     1      -3.991   4.985 -31.392  1.00  0.00    -0.209 NA
HETATM    5  C   UNL     1      -5.133   4.330 -31.103  1.00  0.00     0.128 A 
HETATM    6  C   UNL     1      -5.348   3.025 -31.555  1.00  0.00     0.125 A 
ENDROOT
BRANCH   3   7
HETATM    7  S   UNL     1      -1.534   5.143 -32.526  1.00  0.00    -0.050 SA
BRANCH   7   8
HETATM    8  C   UNL     1      -0.856   5.776 -31.009  1.00  0.00     0.008 A 
HETATM    9  C   UNL     1      -1.387   6.879 -30.337  1.00  0.00     0.021 A 
HETATM   10  C   UNL     1      -0.850   7.299 -29.115  1.00  0.00     0.031 A 
HETATM   11  C   UNL     1       0.200   6.596 -28.524  1.00  0.00     0.034 A 
HETATM   12  C   UNL     1       0.711   5.470 -29.174  1.00  0.00     0.031 A 
HETATM   13  C   UNL     1       0.196   5.071 -30.412  1.00  0.00     0.021 A 
BRANCH  11  14
HETATM   14  N   UNL     1       0.743   6.926 -27.269  1.00  0.00    -0.327 N 
HETATM   15  C   UNL     1       1.543   8.009 -26.975  1.00  0.00     0.226 C 
HETATM   16  O   UNL     1       2.032   8.795 -27.776  1.00  0.00    -0.273 OA
HETATM   17  H   UNL     1       0.544   6.286 -26.513  1.00  0.00     0.169 HD
BRANCH  15  18
HETATM   18  C   UNL     1       1.823   8.203 -25.523  1.00  0.00     0.078 A 
HETATM   19  C   UNL     1       2.774   9.227 -24.949  1.00  0.00     0.015 A 
HETATM   20  C   UNL     1       1.294   9.442 -24.837  1.00  0.00     0.015 A 
ENDBRANCH  15  18
ENDBRANCH  11  14
ENDBRANCH   7   8
ENDBRANCH   3   7
BRANCH   1  21
HETATM   21  N   UNL     1      -4.429   1.089 -32.729  1.00  0.00    -0.323 N 
HETATM   22  H   UNL     1      -4.819   0.999 -33.660  1.00  0.00     0.169 HD
BRANCH  21  23
HETATM   23  C   UNL     1      -3.821  -0.037 -32.304  1.00  0.00     0.151 A 
HETATM   24  N   UNL     1      -2.728   0.001 -31.540  1.00  0.00    -0.157 NA
HETATM   25  N   UNL     1      -2.404  -1.291 -31.359  1.00  0.00    -0.281 N 
HETATM   26  C   UNL     1      -3.233  -2.161 -32.007  1.00  0.00     0.027 A 
HETATM   27  H   UNL     1      -1.592  -1.505 -30.788  1.00  0.00     0.189 HD
HETATM   28  C   UNL     1      -3.042  -3.626 -31.975  1.00  0.00     0.070 C 
HETATM   29  C   UNL     1      -4.171  -1.367 -32.629  1.00  0.00     0.078 A 
ENDBRANCH  21  23
ENDBRANCH   1  21
BRANCH   5  30
HETATM   30  N   UNL     1      -6.081   5.034 -30.342  1.00  0.00    -0.264 NA
HETATM   31  C   UNL     1      -5.803   5.107 -28.895  1.00  0.00     0.125 C 
HETATM   32  C   UNL     1      -7.094   5.512 -28.155  1.00  0.00     0.249 C 
HETATM   33  N   UNL     1      -7.623   6.843 -28.693  1.00  0.00    -0.073 N 
HETATM   34  H   UNL     1      -6.907   7.557 -28.506  1.00  0.00     0.279 HD
HETATM   35  C   UNL     1      -8.881   7.260 -27.993  1.00  0.00     0.269 C 
HETATM   36  C   UNL     1      -7.811   6.789 -30.213  1.00  0.00     0.249 C 
HETATM   37  C   UNL     1      -6.518   6.322 -30.918  1.00  0.00     0.125 C 
ENDBRANCH   5  30
BRANCH   6  38
HETATM   38  C   UNL     1      -6.652   2.365 -31.344  1.00  0.00     0.300 C 
HETATM   39  O   UNL     1      -6.996   1.831 -30.303  1.00  0.00    -0.259 OA
BRANCH  38  40
HETATM   40  O   UNL     1      -7.348   2.361 -32.505  1.00  0.00    -0.322 OA
HETATM   41  C   UNL     1      -8.417   3.309 -32.609  1.00  0.00     0.213 C 
ENDBRANCH  38  40
ENDBRANCH   6  38
TORSDOF 9
ENDMDL
MODEL 5
REMARK VINA RESULT:      -8.4      3.145      6.097
REMARK  9 active torsions:
REMARK  status: ('A' for Active; 'I' for Inactive)
REMARK    1  A    between atoms: C_6  and  N_7 
REMARK    2  A    between atoms: N_7  and  C_8 
REMARK    3  A    between atoms: C_10  and  S_11 
REMARK    4  A    between atoms: S_11  and  C_12 
REMARK    5  A    between atoms: C_15  and  N_16 
REMARK       I    between atoms: N_16  and  C_17 
REMARK    6  A    between atoms: C_17  and  C_18 
REMARK    7  A    between atoms: C_25  and  N_26 
REMARK    8  A    between atoms: C_34  and  C_35 
REMARK    9  A    between atoms: C_35  and  O_36 
ROOT
HETATM    1  C   UNL     1      -4.841   3.230 -30.567  1.00  0.00     0.152 A 
HETATM    2  N   UNL     1      -4.047   4.026 -31.307  1.00  0.00    -0.204 NA
HETATM    3  C   UNL     1      -3.611   3.584 -32.489  1.00  0.00     0.196 A 
HETATM    4  N   UNL     1      -3.950   2.401 -33.018  1.00  0.00    -0.209 NA
HETATM    5  C   UNL     1      -4.783   1.608 -32.317  1.00  0.00     0.128 A 
HETATM    6  C   UNL     1      -5.242   1.986 -31.051  1.00  0.00     0.125 A 
ENDROOT
BRANCH   3   7
HETATM    7  S   UNL     1      -2.494   4.664 -33.343  1.00  0.00    -0.050 SA
BRANCH   7   8
HETATM    8  C   UNL     1      -1.596   5.538 -32.082  1.00  0.00     0.008 A 
HETATM    9  C   UNL     1      -2.010   6.767 -31.563  1.00  0.00     0.021 A 
HETATM   10  C   UNL     1      -1.297   7.384 -30.528  1.00  0.00     0.031 A 
HETATM   11  C   UNL     1      -0.183   6.760 -29.967  1.00  0.00     0.034 A 
HETATM   12  C   UNL     1       0.214   5.514 -30.457  1.00  0.00     0.031 A 
HETATM   13  C   UNL     1      -0.479   4.915 -31.514  1.00  0.00     0.021 A 
BRANCH  11  14
HETATM   14  N   UNL     1       0.540   7.295 -28.884  1.00  0.00    -0.327 N 
HETATM   15  C   UNL     1       0.504   6.863 -27.576  1.00  0.00     0.226 C 
HETATM   16  O   UNL     1      -0.260   6.033 -27.101  1.00  0.00    -0.273 OA
HETATM   17  H   UNL     1       1.125   8.093 -29.087  1.00  0.00     0.169 HD
BRANCH  15  18
HETATM   18  C   UNL     1       1.510   7.503 -26.680  1.00  0.00     0.078 A 
HETATM   19  C   UNL     1       1.968   8.940 -26.770  1.00  0.00     0.015 A 
HETATM   20  C   UNL     1       1.041   8.523 -25.667  1.00  0.00     0.015 A 
ENDBRANCH  15  18
ENDBRANCH  11  14
ENDBRANCH   7   8
ENDBRANCH   3   7
BRANCH   1  21
HETATM   21  N   UNL     1      -5.289   3.716 -29.325  1.00  0.00    -0.323 N 
HETATM   22  H   UNL     1      -4.837   3.290 -28.525  1.00  0.00     0.169 HD
BRANCH  21  23
HETATM   23  C   UNL     1      -5.955   4.846 -29.013  1.00  0.00     0.151 A 
HETATM   24  N   UNL     1      -5.313   5.975 -28.704  1.00  0.00    -0.157 NA
HETATM   25  N   UNL     1      -6.295   6.848 -28.422  1.00  0.00    -0.281 N 
HETATM   26  C   UNL     1      -7.548   6.312 -28.507  1.00  0.00     0.027 A 
HETATM   27  H   UNL     1      -6.034   7.795 -28.166  1.00  0.00     0.189 HD
HETATM   28  C   UNL     1      -8.773   7.082 -28.205  1.00  0.00     0.070 C 
HETATM   29  C   UNL     1      -7.354   5.005 -28.896  1.00  0.00     0.078 A 
ENDBRANCH  21  23
ENDBRANCH   1  21
BRANCH   5  30
HETATM   30  N   UNL     1      -5.146   0.393 -32.921  1.00  0.00    -0.264 NA
HETATM   31  C   UNL     1      -6.107   0.503 -34.035  1.00  0.00     0.125 C 
HETATM   32  C   UNL     1      -6.725  -0.884 -34.305  1.00  0.00     0.249 C 
HETATM   33  N   UNL     1      -5.629  -1.908 -34.608  1.00  0.00    -0.073 N 
HETATM   34  H   UNL     1      -5.146  -1.599 -35.462  1.00  0.00     0.279 HD
HETATM   35  C   UNL     1      -6.202  -3.267 -34.870  1.00  0.00     0.269 C 
HETATM   36  C   UNL     1      -4.580  -1.941 -33.491  1.00  0.00     0.249 C 
HETATM   37  C   UNL     1      -4.026  -0.527 -33.205  1.00  0.00     0.125 C 
ENDBRANCH   5  30
BRANCH   6  38
HETATM   38  C   UNL     1      -6.049   1.055 -30.238  1.00  0.00     0.300 C 
HETATM   39  O   UNL     1      -5.657   0.504 -29.223  1.00  0.00    -0.259 OA
BRANCH  38  40
HETATM   40  O   UNL     1      -7.237   0.837 -30.850  1.00  0.00    -0.322 OA
HETATM   41  C   UNL     1      -8.095   1.974 -30.997  1.00  0.00     0.213 C 
ENDBRANCH  38  40
ENDBRANCH   6  38
TORSDOF 9
ENDMDL
MODEL 6
REMARK VINA RESULT:      -8.3      2.944      4.935
REMARK  9 active torsions:
REMARK  status: ('A' for Active; 'I' for Inactive)
REMARK    1  A    between atoms: C_6  and  N_7 
REMARK    2  A    between atoms: N_7  and  C_8 
REMARK    3  A    between atoms: C_10  and  S_11 
REMARK    4  A    between atoms: S_11  and  C_12 
REMARK    5  A    between atoms: C_15  and  N_16 
REMARK       I    between atoms: N_16  and  C_17 
REMARK    6  A    between atoms: C_17  and  C_18 
REMARK    7  A    between atoms: C_25  and  N_26 
REMARK    8  A    between atoms: C_34  and  C_35 
REMARK    9  A    between atoms: C_35  and  O_36 
ROOT
HETATM    1  C   UNL     1      -4.921   3.443 -30.955  1.00  0.00     0.152 A 
HETATM    2  N   UNL     1      -5.215   4.282 -29.944  1.00  0.00    -0.204 NA
HETATM    3  C   UNL     1      -6.496   4.541 -29.671  1.00  0.00     0.196 A 
HETATM    4  N   UNL     1      -7.527   3.981 -30.316  1.00  0.00    -0.209 NA
HETATM    5  C   UNL     1      -7.258   3.100 -31.299  1.00  0.00     0.128 A 
HETATM    6  C   UNL     1      -5.940   2.816 -31.670  1.00  0.00     0.125 A 
ENDROOT
BRANCH   3   7
HETATM    7  S   UNL     1      -6.777   5.732 -28.388  1.00  0.00    -0.050 SA
BRANCH   7   8
HETATM    8  C   UNL     1      -5.186   6.427 -28.006  1.00  0.00     0.008 A 
HETATM    9  C   UNL     1      -4.511   6.175 -26.809  1.00  0.00     0.021 A 
HETATM   10  C   UNL     1      -3.233   6.701 -26.583  1.00  0.00     0.031 A 
HETATM   11  C   UNL     1      -2.592   7.450 -27.570  1.00  0.00     0.034 A 
HETATM   12  C   UNL     1      -3.248   7.674 -28.783  1.00  0.00     0.031 A 
HETATM   13  C   UNL     1      -4.538   7.177 -28.994  1.00  0.00     0.021 A 
BRANCH  11  14
HETATM   14  N   UNL     1      -1.285   7.953 -27.434  1.00  0.00    -0.327 N 
HETATM   15  C   UNL     1      -0.112   7.285 -27.710  1.00  0.00     0.226 C 
HETATM   16  O   UNL     1       0.005   6.099 -27.991  1.00  0.00    -0.273 OA
HETATM   17  H   UNL     1      -1.202   8.892 -27.072  1.00  0.00     0.169 HD
BRANCH  15  18
HETATM   18  C   UNL     1       1.117   8.128 -27.642  1.00  0.00     0.078 A 
HETATM   19  C   UNL     1       1.237   9.434 -26.893  1.00  0.00     0.015 A 
HETATM   20  C   UNL     1       1.883   8.198 -26.340  1.00  0.00     0.015 A 
ENDBRANCH  15  18
ENDBRANCH  11  14
ENDBRANCH   7   8
ENDBRANCH   3   7
BRANCH   1  21
HETATM   21  N   UNL     1      -3.565   3.183 -31.224  1.00  0.00    -0.323 N 
HETATM   22  H   UNL     1      -3.289   2.220 -31.072  1.00  0.00     0.169 HD
BRANCH  21  23
HETATM   23  C   UNL     1      -2.663   3.881 -31.943  1.00  0.00     0.151 A 
HETATM   24  N   UNL     1      -1.600   4.452 -31.373  1.00  0.00    -0.157 NA
HETATM   25  N   UNL     1      -0.973   5.073 -32.386  1.00  0.00    -0.281 N 
HETATM   26  C   UNL     1      -1.612   4.949 -33.586  1.00  0.00     0.027 A 
HETATM   27  H   UNL     1      -0.115   5.575 -32.181  1.00  0.00     0.189 HD
HETATM   28  C   UNL     1      -1.119   5.581 -34.827  1.00  0.00     0.070 C 
HETATM   29  C   UNL     1      -2.718   4.171 -33.325  1.00  0.00     0.078 A 
ENDBRANCH  21  23
ENDBRANCH   1  21
BRANCH   5  30
HETATM   30  N   UNL     1      -8.365   2.504 -31.925  1.00  0.00    -0.264 NA
HETATM   31  C   UNL     1      -8.784   1.204 -31.368  1.00  0.00     0.125 C 
HETATM   32  C   UNL     1      -9.695   0.490 -32.387  1.00  0.00     0.249 C 
HETATM   33  N   UNL     1     -10.900   1.367 -32.733  1.00  0.00    -0.073 N 
HETATM   34  H   UNL     1     -11.436   1.510 -31.867  1.00  0.00     0.279 HD
HETATM   35  C   UNL     1     -11.802   0.698 -33.725  1.00  0.00     0.269 C 
HETATM   36  C   UNL     1     -10.455   2.753 -33.214  1.00  0.00     0.249 C 
HETATM   37  C   UNL     1      -9.497   3.414 -32.199  1.00  0.00     0.125 C 
ENDBRANCH   5  30
BRANCH   6  38
HETATM   38  C   UNL     1      -5.659   1.949 -32.831  1.00  0.00     0.300 C 
HETATM   39  O   UNL     1      -6.109   2.127 -33.952  1.00  0.00    -0.259 OA
BRANCH  38  40
HETATM   40  O   UNL     1      -4.918   0.888 -32.433  1.00  0.00    -0.322 OA
HETATM   41  C   UNL     1      -5.635  -0.323 -32.166  1.00  0.00     0.213 C 
ENDBRANCH  38  40
ENDBRANCH   6  38
TORSDOF 9
ENDMDL
MODEL 7
REMARK VINA RESULT:      -8.3      2.766      5.831
REMARK  9 active torsions:
REMARK  status: ('A' for Active; 'I' for Inactive)
REMARK    1  A    between atoms: C_6  and  N_7 
REMARK    2  A    between atoms: N_7  and  C_8 
REMARK    3  A    between atoms: C_10  and  S_11 
REMARK    4  A    between atoms: S_11  and  C_12 
REMARK    5  A    between atoms: C_15  and  N_16 
REMARK       I    between atoms: N_16  and  C_17 
REMARK    6  A    between atoms: C_17  and  C_18 
REMARK    7  A    between atoms: C_25  and  N_26 
REMARK    8  A    between atoms: C_34  and  C_35 
REMARK    9  A    between atoms: C_35  and  O_36 
ROOT
HETATM    1  C   UNL     1      -6.371   4.439 -31.959  1.00  0.00     0.152 A 
HETATM    2  N   UNL     1      -5.529   5.096 -32.779  1.00  0.00    -0.204 NA
HETATM    3  C   UNL     1      -4.922   4.420 -33.756  1.00  0.00     0.196 A 
HETATM    4  N   UNL     1      -5.128   3.121 -34.009  1.00  0.00    -0.209 NA
HETATM    5  C   UNL     1      -6.004   2.455 -33.232  1.00  0.00     0.128 A 
HETATM    6  C   UNL     1      -6.642   3.087 -32.161  1.00  0.00     0.125 A 
ENDROOT
BRANCH   3   7
HETATM    7  S   UNL     1      -3.759   5.350 -34.720  1.00  0.00    -0.050 SA
BRANCH   7   8
HETATM    8  C   UNL     1      -2.517   5.915 -33.580  1.00  0.00     0.008 A 
HETATM    9  C   UNL     1      -2.214   7.265 -33.388  1.00  0.00     0.021 A 
HETATM   10  C   UNL     1      -1.268   7.658 -32.434  1.00  0.00     0.031 A 
HETATM   11  C   UNL     1      -0.642   6.709 -31.626  1.00  0.00     0.034 A 
HETATM   12  C   UNL     1      -0.968   5.361 -31.788  1.00  0.00     0.031 A 
HETATM   13  C   UNL     1      -1.888   4.966 -32.765  1.00  0.00     0.021 A 
BRANCH  11  14
HETATM   14  N   UNL     1       0.269   7.041 -30.606  1.00  0.00    -0.327 N 
HETATM   15  C   UNL     1      -0.011   7.714 -29.438  1.00  0.00     0.226 C 
HETATM   16  O   UNL     1      -1.067   8.259 -29.143  1.00  0.00    -0.273 OA
HETATM   17  H   UNL     1       1.232   6.778 -30.764  1.00  0.00     0.169 HD
BRANCH  15  18
HETATM   18  C   UNL     1       1.116   7.767 -28.462  1.00  0.00     0.078 A 
HETATM   19  C   UNL     1       1.125   8.576 -27.186  1.00  0.00     0.015 A 
HETATM   20  C   UNL     1       0.954   7.087 -27.121  1.00  0.00     0.015 A 
ENDBRANCH  15  18
ENDBRANCH  11  14
ENDBRANCH   7   8
ENDBRANCH   3   7
BRANCH   1  21
HETATM   21  N   UNL     1      -7.001   5.171 -30.937  1.00  0.00    -0.323 N 
HETATM   22  H   UNL     1      -7.984   4.953 -30.815  1.00  0.00     0.169 HD
BRANCH  21  23
HETATM   23  C   UNL     1      -6.482   5.853 -29.896  1.00  0.00     0.151 A 
HETATM   24  N   UNL     1      -6.645   7.172 -29.769  1.00  0.00    -0.157 NA
HETATM   25  N   UNL     1      -5.967   7.484 -28.652  1.00  0.00    -0.281 N 
HETATM   26  C   UNL     1      -5.345   6.417 -28.071  1.00  0.00     0.027 A 
HETATM   27  H   UNL     1      -5.961   8.454 -28.351  1.00  0.00     0.189 HD
HETATM   28  C   UNL     1      -4.514   6.536 -26.854  1.00  0.00     0.070 C 
HETATM   29  C   UNL     1      -5.669   5.337 -28.862  1.00  0.00     0.078 A 
ENDBRANCH  21  23
ENDBRANCH   1  21
BRANCH   5  30
HETATM   30  N   UNL     1      -6.222   1.105 -33.553  1.00  0.00    -0.264 NA
HETATM   31  C   UNL     1      -6.838   0.859 -34.870  1.00  0.00     0.125 C 
HETATM   32  C   UNL     1      -7.399  -0.578 -34.904  1.00  0.00     0.249 C 
HETATM   33  N   UNL     1      -6.292  -1.590 -34.604  1.00  0.00    -0.073 N 
HETATM   34  H   UNL     1      -5.586  -1.503 -35.347  1.00  0.00     0.279 HD
HETATM   35  C   UNL     1      -6.810  -2.996 -34.626  1.00  0.00     0.269 C 
HETATM   36  C   UNL     1      -5.589  -1.266 -33.281  1.00  0.00     0.249 C 
HETATM   37  C   UNL     1      -5.094   0.198 -33.258  1.00  0.00     0.125 C 
ENDBRANCH   5  30
BRANCH   6  38
HETATM   38  C   UNL     1      -7.499   2.316 -31.239  1.00  0.00     0.300 C 
HETATM   39  O   UNL     1      -8.609   1.893 -31.517  1.00  0.00    -0.259 OA
BRANCH  38  40
HETATM   40  O   UNL     1      -6.905   2.246 -30.024  1.00  0.00    -0.322 OA
HETATM   41  C   UNL     1      -6.058   1.114 -29.796  1.00  0.00     0.213 C 
ENDBRANCH  38  40
ENDBRANCH   6  38
TORSDOF 9
ENDMDL
MODEL 8
REMARK VINA RESULT:      -8.1      1.960      5.385
REMARK  9 active torsions:
REMARK  status: ('A' for Active; 'I' for Inactive)
REMARK    1  A    between atoms: C_6  and  N_7 
REMARK    2  A    between atoms: N_7  and  C_8 
REMARK    3  A    between atoms: C_10  and  S_11 
REMARK    4  A    between atoms: S_11  and  C_12 
REMARK    5  A    between atoms: C_15  and  N_16 
REMARK       I    between atoms: N_16  and  C_17 
REMARK    6  A    between atoms: C_17  and  C_18 
REMARK    7  A    between atoms: C_25  and  N_26 
REMARK    8  A    between atoms: C_34  and  C_35 
REMARK    9  A    between atoms: C_35  and  O_36 
ROOT
HETATM    1  C   UNL     1      -9.218   3.089 -34.085  1.00  0.00     0.152 A 
HETATM    2  N   UNL     1      -8.903   4.340 -33.703  1.00  0.00    -0.204 NA
HETATM    3  C   UNL     1      -7.787   4.538 -32.997  1.00  0.00     0.196 A 
HETATM    4  N   UNL     1      -6.922   3.568 -32.675  1.00  0.00    -0.209 NA
HETATM    5  C   UNL     1      -7.192   2.315 -33.089  1.00  0.00     0.128 A 
HETATM    6  C   UNL     1      -8.365   2.026 -33.792  1.00  0.00     0.125 A 
ENDROOT
BRANCH   3   7
HETATM    7  S   UNL     1      -7.510   6.205 -32.459  1.00  0.00    -0.050 SA
BRANCH   7   8
HETATM    8  C   UNL     1      -5.827   6.264 -31.890  1.00  0.00     0.008 A 
HETATM    9  C   UNL     1      -4.736   6.416 -32.750  1.00  0.00     0.021 A 
HETATM   10  C   UNL     1      -3.435   6.516 -32.243  1.00  0.00     0.031 A 
HETATM   11  C   UNL     1      -3.208   6.509 -30.867  1.00  0.00     0.034 A 
HETATM   12  C   UNL     1      -4.299   6.395 -30.002  1.00  0.00     0.031 A 
HETATM   13  C   UNL     1      -5.595   6.261 -30.510  1.00  0.00     0.021 A 
BRANCH  11  14
HETATM   14  N   UNL     1      -1.934   6.670 -30.291  1.00  0.00    -0.327 N 
HETATM   15  C   UNL     1      -0.875   5.794 -30.377  1.00  0.00     0.226 C 
HETATM   16  O   UNL     1      -0.896   4.665 -30.851  1.00  0.00    -0.273 OA
HETATM   17  H   UNL     1      -1.795   7.504 -29.738  1.00  0.00     0.169 HD
BRANCH  15  18
HETATM   18  C   UNL     1       0.409   6.310 -29.818  1.00  0.00     0.078 A 
HETATM   19  C   UNL     1       0.551   7.547 -28.963  1.00  0.00     0.015 A 
HETATM   20  C   UNL     1       0.658   6.190 -28.331  1.00  0.00     0.015 A 
ENDBRANCH  15  18
ENDBRANCH  11  14
ENDBRANCH   7   8
ENDBRANCH   3   7
BRANCH   1  21
HETATM   21  N   UNL     1     -10.397   2.902 -34.829  1.00  0.00    -0.323 N 
HETATM   22  H   UNL     1     -10.245   2.773 -35.822  1.00  0.00     0.169 HD
BRANCH  21  23
HETATM   23  C   UNL     1     -11.636   2.544 -34.436  1.00  0.00     0.151 A 
HETATM   24  N   UNL     1     -12.199   3.052 -33.338  1.00  0.00    -0.157 NA
HETATM   25  N   UNL     1     -13.391   2.436 -33.260  1.00  0.00    -0.281 N 
HETATM   26  C   UNL     1     -13.604   1.525 -34.254  1.00  0.00     0.027 A 
HETATM   27  H   UNL     1     -14.006   2.681 -32.491  1.00  0.00     0.189 HD
HETATM   28  C   UNL     1     -14.832   0.708 -34.345  1.00  0.00     0.070 C 
HETATM   29  C   UNL     1     -12.473   1.578 -35.039  1.00  0.00     0.078 A 
ENDBRANCH  21  23
ENDBRANCH   1  21
BRANCH   5  30
HETATM   30  N   UNL     1      -6.242   1.332 -32.765  1.00  0.00    -0.264 NA
HETATM   31  C   UNL     1      -4.834   1.766 -32.834  1.00  0.00     0.125 C 
HETATM   32  C   UNL     1      -3.925   0.519 -32.879  1.00  0.00     0.249 C 
HETATM   33  N   UNL     1      -4.180  -0.371 -31.661  1.00  0.00    -0.073 N 
HETATM   34  H   UNL     1      -3.937   0.174 -30.824  1.00  0.00     0.279 HD
HETATM   35  C   UNL     1      -3.312  -1.593 -31.681  1.00  0.00     0.269 C 
HETATM   36  C   UNL     1      -5.664  -0.733 -31.541  1.00  0.00     0.249 C 
HETATM   37  C   UNL     1      -6.549   0.534 -31.560  1.00  0.00     0.125 C 
ENDBRANCH   5  30
BRANCH   6  38
HETATM   38  C   UNL     1      -8.712   0.631 -34.128  1.00  0.00     0.300 C 
HETATM   39  O   UNL     1      -9.469  -0.070 -33.476  1.00  0.00    -0.259 OA
BRANCH  38  40
HETATM   40  O   UNL     1      -7.987   0.231 -35.199  1.00  0.00    -0.322 OA
HETATM   41  C   UNL     1      -7.199  -0.952 -35.028  1.00  0.00     0.213 C 
ENDBRANCH  38  40
ENDBRANCH   6  38
TORSDOF 9
ENDMDL
MODEL 9
REMARK VINA RESULT:      -8.0      1.826      5.503
REMARK  9 active torsions:
REMARK  status: ('A' for Active; 'I' for Inactive)
REMARK    1  A    between atoms: C_6  and  N_7 
REMARK    2  A    between atoms: N_7  and  C_8 
REMARK    3  A    between atoms: C_10  and  S_11 
REMARK    4  A    between atoms: S_11  and  C_12 
REMARK    5  A    between atoms: C_15  and  N_16 
REMARK       I    between atoms: N_16  and  C_17 
REMARK    6  A    between atoms: C_17  and  C_18 
REMARK    7  A    between atoms: C_25  and  N_26 
REMARK    8  A    between atoms: C_34  and  C_35 
REMARK    9  A    between atoms: C_35  and  O_36 
ROOT
HETATM    1  C   UNL     1      -7.706   4.547 -33.260  1.00  0.00     0.152 A 
HETATM    2  N   UNL     1      -6.601   5.149 -33.736  1.00  0.00    -0.204 NA
HETATM    3  C   UNL     1      -5.604   4.394 -34.204  1.00  0.00     0.196 A 
HETATM    4  N   UNL     1      -5.646   3.057 -34.274  1.00  0.00    -0.209 NA
HETATM    5  C   UNL     1      -6.763   2.435 -33.849  1.00  0.00     0.128 A 
HETATM    6  C   UNL     1      -7.827   3.159 -33.304  1.00  0.00     0.125 A 
ENDROOT
BRANCH   3   7
HETATM    7  S   UNL     1      -4.154   5.277 -34.717  1.00  0.00    -0.050 SA
BRANCH   7   8
HETATM    8  C   UNL     1      -3.019   5.191 -33.352  1.00  0.00     0.008 A 
HETATM    9  C   UNL     1      -1.631   5.156 -33.513  1.00  0.00     0.021 A 
HETATM   10  C   UNL     1      -0.781   5.148 -32.401  1.00  0.00     0.031 A 
HETATM   11  C   UNL     1      -1.304   5.220 -31.110  1.00  0.00     0.034 A 
HETATM   12  C   UNL     1      -2.689   5.293 -30.944  1.00  0.00     0.031 A 
HETATM   13  C   UNL     1      -3.539   5.266 -32.054  1.00  0.00     0.021 A 
BRANCH  11  14
HETATM   14  N   UNL     1      -0.505   5.281 -29.954  1.00  0.00    -0.327 N 
HETATM   15  C   UNL     1       0.012   6.416 -29.368  1.00  0.00     0.226 C 
HETATM   16  O   UNL     1      -0.018   7.552 -29.823  1.00  0.00    -0.273 OA
HETATM   17  H   UNL     1      -0.268   4.397 -29.527  1.00  0.00     0.169 HD
BRANCH  15  18
HETATM   18  C   UNL     1       0.673   6.192 -28.049  1.00  0.00     0.078 A 
HETATM   19  C   UNL     1       1.117   7.282 -27.102  1.00  0.00     0.015 A 
HETATM   20  C   UNL     1      -0.106   6.474 -26.785  1.00  0.00     0.015 A 
ENDBRANCH  15  18
ENDBRANCH  11  14
ENDBRANCH   7   8
ENDBRANCH   3   7
BRANCH   1  21
HETATM   21  N   UNL     1      -8.744   5.361 -32.773  1.00  0.00    -0.323 N 
HETATM   22  H   UNL     1      -9.491   5.523 -33.438  1.00  0.00     0.169 HD
BRANCH  21  23
HETATM   23  C   UNL     1      -9.085   5.689 -31.510  1.00  0.00     0.151 A 
HETATM   24  N   UNL     1     -10.351   5.642 -31.090  1.00  0.00    -0.157 NA
HETATM   25  N   UNL     1     -10.294   6.067 -29.817  1.00  0.00    -0.281 N 
HETATM   26  C   UNL     1      -9.039   6.417 -29.410  1.00  0.00     0.027 A 
HETATM   27  H   UNL     1     -11.158   6.104 -29.286  1.00  0.00     0.189 HD
HETATM   28  C   UNL     1      -8.750   6.945 -28.061  1.00  0.00     0.070 C 
HETATM   29  C   UNL     1      -8.228   6.176 -30.498  1.00  0.00     0.078 A 
ENDBRANCH  21  23
ENDBRANCH   1  21
BRANCH   5  30
HETATM   30  N   UNL     1      -6.784   1.036 -33.975  1.00  0.00    -0.264 NA
HETATM   31  C   UNL     1      -7.170   0.526 -35.305  1.00  0.00     0.125 C 
HETATM   32  C   UNL     1      -7.561  -0.961 -35.179  1.00  0.00     0.249 C 
HETATM   33  N   UNL     1      -6.407  -1.768 -34.582  1.00  0.00    -0.073 N 
HETATM   34  H   UNL     1      -5.613  -1.697 -35.232  1.00  0.00     0.279 HD
HETATM   35  C   UNL     1      -6.761  -3.217 -34.445  1.00  0.00     0.269 C 
HETATM   36  C   UNL     1      -5.945  -1.168 -33.249  1.00  0.00     0.249 C 
HETATM   37  C   UNL     1      -5.620   0.335 -33.396  1.00  0.00     0.125 C 
ENDBRANCH   5  30
BRANCH   6  38
HETATM   38  C   UNL     1      -8.990   2.458 -32.724  1.00  0.00     0.300 C 
HETATM   39  O   UNL     1      -8.943   1.732 -31.745  1.00  0.00    -0.259 OA
BRANCH  38  40
HETATM   40  O   UNL     1     -10.077   2.667 -33.504  1.00  0.00    -0.322 OA
HETATM   41  C   UNL     1     -10.563   1.535 -34.235  1.00  0.00     0.213 C 
ENDBRANCH  38  40
ENDBRANCH   6  38
TORSDOF 9
ENDMDL
MODEL 10
REMARK VINA RESULT:      -7.9      3.764      8.333
REMARK  9 active torsions:
REMARK  status: ('A' for Active; 'I' for Inactive)
REMARK    1  A    between atoms: C_6  and  N_7 
REMARK    2  A    between atoms: N_7  and  C_8 
REMARK    3  A    between atoms: C_10  and  S_11 
REMARK    4  A    between atoms: S_11  and  C_12 
REMARK    5  A    between atoms: C_15  and  N_16 
REMARK       I    between atoms: N_16  and  C_17 
REMARK    6  A    between atoms: C_17  and  C_18 
REMARK    7  A    between atoms: C_25  and  N_26 
REMARK    8  A    between atoms: C_34  and  C_35 
REMARK    9  A    between atoms: C_35  and  O_36 
ROOT
HETATM    1  C   UNL     1      -6.433   0.699 -33.162  1.00  0.00     0.152 A 
HETATM    2  N   UNL     1      -7.721   0.373 -33.372  1.00  0.00    -0.204 NA
HETATM    3  C   UNL     1      -8.676   1.092 -32.777  1.00  0.00     0.196 A 
HETATM    4  N   UNL     1      -8.437   2.160 -32.005  1.00  0.00    -0.209 NA
HETATM    5  C   UNL     1      -7.156   2.535 -31.820  1.00  0.00     0.128 A 
HETATM    6  C   UNL     1      -6.104   1.801 -32.376  1.00  0.00     0.125 A 
ENDROOT
BRANCH   3   7
HETATM    7  S   UNL     1     -10.335   0.524 -33.038  1.00  0.00    -0.050 SA
BRANCH   7   8
HETATM    8  C   UNL     1     -11.216   1.894 -33.751  1.00  0.00     0.008 A 
HETATM    9  C   UNL     1     -11.699   1.892 -35.062  1.00  0.00     0.021 A 
HETATM   10  C   UNL     1     -12.438   2.974 -35.554  1.00  0.00     0.031 A 
HETATM   11  C   UNL     1     -12.743   4.057 -34.729  1.00  0.00     0.034 A 
HETATM   12  C   UNL     1     -12.294   4.047 -33.406  1.00  0.00     0.031 A 
HETATM   13  C   UNL     1     -11.527   2.981 -32.925  1.00  0.00     0.021 A 
BRANCH  11  14
HETATM   14  N   UNL     1     -13.534   5.145 -35.140  1.00  0.00    -0.327 N 
HETATM   15  C   UNL     1     -13.087   6.340 -35.658  1.00  0.00     0.226 C 
HETATM   16  O   UNL     1     -11.925   6.719 -35.725  1.00  0.00    -0.273 OA
HETATM   17  H   UNL     1     -14.532   5.044 -35.018  1.00  0.00     0.169 HD
BRANCH  15  18
HETATM   18  C   UNL     1     -14.161   7.239 -36.173  1.00  0.00     0.078 A 
HETATM   19  C   UNL     1     -13.953   8.372 -37.150  1.00  0.00     0.015 A 
HETATM   20  C   UNL     1     -14.600   7.101 -37.614  1.00  0.00     0.015 A 
ENDBRANCH  15  18
ENDBRANCH  11  14
ENDBRANCH   7   8
ENDBRANCH   3   7
BRANCH   1  21
HETATM   21  N   UNL     1      -5.445  -0.071 -33.801  1.00  0.00    -0.323 N 
HETATM   22  H   UNL     1      -4.536   0.376 -33.846  1.00  0.00     0.169 HD
BRANCH  21  23
HETATM   23  C   UNL     1      -5.394  -1.392 -34.065  1.00  0.00     0.151 A 
HETATM   24  N   UNL     1      -4.328  -2.131 -33.749  1.00  0.00    -0.157 NA
HETATM   25  N   UNL     1      -4.633  -3.361 -34.194  1.00  0.00    -0.281 N 
HETATM   26  C   UNL     1      -5.847  -3.436 -34.815  1.00  0.00     0.027 A 
HETATM   27  H   UNL     1      -3.956  -4.104 -34.050  1.00  0.00     0.189 HD
HETATM   28  C   UNL     1      -6.369  -4.682 -35.412  1.00  0.00     0.070 C 
HETATM   29  C   UNL     1      -6.367  -2.162 -34.741  1.00  0.00     0.078 A 
ENDBRANCH  21  23
ENDBRANCH   1  21
BRANCH   5  30
HETATM   30  N   UNL     1      -6.948   3.683 -31.037  1.00  0.00    -0.264 NA
HETATM   31  C   UNL     1      -6.908   4.957 -31.780  1.00  0.00     0.125 C 
HETATM   32  C   UNL     1      -6.263   6.038 -30.889  1.00  0.00     0.249 C 
HETATM   33  N   UNL     1      -7.035   6.178 -29.575  1.00  0.00    -0.073 N 
HETATM   34  H   UNL     1      -7.989   6.481 -29.809  1.00  0.00     0.279 HD
HETATM   35  C   UNL     1      -6.427   7.221 -28.687  1.00  0.00     0.269 C 
HETATM   36  C   UNL     1      -7.159   4.828 -28.861  1.00  0.00     0.249 C 
HETATM   37  C   UNL     1      -7.752   3.753 -29.799  1.00  0.00     0.125 C 
ENDBRANCH   5  30
BRANCH   6  38
HETATM   38  C   UNL     1      -4.703   2.145 -32.060  1.00  0.00     0.300 C 
HETATM   39  O   UNL     1      -4.001   2.879 -32.737  1.00  0.00    -0.259 OA
BRANCH  38  40
HETATM   40  O   UNL     1      -4.301   1.445 -30.973  1.00  0.00    -0.322 OA
HETATM   41  C   UNL     1      -3.233   0.513 -31.176  1.00  0.00     0.213 C 
ENDBRANCH  38  40
ENDBRANCH   6  38
TORSDOF 9
ENDMDL
