MODEL 1
REMARK VINA RESULT:      -8.0      0.000      0.000
REMARK  10 active torsions:
REMARK  status: ('A' for Active; 'I' for Inactive)
REMARK    1  A    between atoms: C_2  and  C_3 
REMARK    2  A    between atoms: C_3  and  N_4 
REMARK    3  A    between atoms: N_4  and  C_5 
REMARK    4  A    between atoms: C_5  and  N_6 
REMARK    5  A    between atoms: N_6  and  N_7 
REMARK       I    between atoms: N_7  and  C_8 
REMARK    6  A    between atoms: C_8  and  C_9 
REMARK    7  A    between atoms: C_9  and  C_10 
REMARK    8  A    between atoms: C_10  and  C_11 
REMARK    9  A    between atoms: C_13  and  O_14 
REMARK   10  A    between atoms: C_15  and  O_16 
ROOT
HETATM    1  N   UNL     1      -8.279   0.560 -32.642  1.00  0.00    -0.268 N 
HETATM    2  C   UNL     1      -8.605   0.573 -33.984  1.00  0.00     0.236 C 
HETATM    3  O   UNL     1      -9.724   0.863 -34.405  1.00  0.00    -0.272 OA
HETATM    4  H   UNL     1      -7.317   0.668 -32.331  1.00  0.00     0.190 HD
ENDROOT
BRANCH   1   5
HETATM    5  N   UNL     1      -9.276   0.980 -31.741  1.00  0.00    -0.274 N 
HETATM    6  H   UNL     1     -10.186   0.577 -31.959  1.00  0.00     0.189 HD
BRANCH   5   7
HETATM    7  C   UNL     1      -9.275   2.272 -31.269  1.00  0.00     0.186 C 
HETATM    8  S   UNL     1     -10.173   3.533 -31.903  1.00  0.00    -0.040 SA
BRANCH   7   9
HETATM    9  N   UNL     1      -8.440   2.528 -30.222  1.00  0.00    -0.362 N 
HETATM   10  H   UNL     1      -8.830   2.324 -29.309  1.00  0.00     0.162 HD
BRANCH   9  11
HETATM   11  C   UNL     1      -7.132   3.158 -30.247  1.00  0.00     0.160 C 
BRANCH  11  12
HETATM   12  C   UNL     1      -5.999   2.242 -30.646  1.00  0.00    -0.040 A 
HETATM   13  C   UNL     1      -4.957   2.637 -31.500  1.00  0.00     0.010 A 
HETATM   14  C   UNL     1      -3.898   1.770 -31.787  1.00  0.00     0.024 A 
HETATM   15  C   UNL     1      -3.868   0.499 -31.221  1.00  0.00     0.034 A 
HETATM   16  C   UNL     1      -4.886   0.089 -30.367  1.00  0.00     0.024 A 
HETATM   17 CL   UNL     1      -2.562  -0.564 -31.571  1.00  0.00    -0.084 Cl
HETATM   18  C   UNL     1      -5.942   0.957 -30.077  1.00  0.00     0.010 A 
ENDBRANCH  11  12
ENDBRANCH   9  11
ENDBRANCH   7   9
ENDBRANCH   5   7
ENDBRANCH   1   5
BRANCH   2  19
HETATM   19  C   UNL     1      -7.484   0.152 -34.907  1.00  0.00     0.109 C 
BRANCH  19  20
HETATM   20  C   UNL     1      -6.232  -0.291 -34.145  1.00  0.00     0.048 C 
BRANCH  20  21
HETATM   21  C   UNL     1      -5.832  -1.745 -34.294  1.00  0.00    -0.055 A 
HETATM   22  C   UNL     1      -6.698  -2.710 -34.836  1.00  0.00     0.046 A 
HETATM   23  C   UNL     1      -6.293  -4.040 -34.909  1.00  0.00     0.099 A 
HETATM   24  C   UNL     1      -5.022  -4.415 -34.490  1.00  0.00     0.098 A 
HETATM   25  C   UNL     1      -4.138  -3.474 -33.989  1.00  0.00     0.040 A 
HETATM   26  C   UNL     1      -4.542  -2.141 -33.893  1.00  0.00     0.010 A 
BRANCH  23  27
HETATM   27  O   UNL     1      -7.126  -5.020 -35.376  1.00  0.00    -0.358 OA
HETATM   28  H   UNL     1      -6.623  -5.559 -36.011  1.00  0.00     0.218 HD
ENDBRANCH  23  27
BRANCH  24  29
HETATM   29  O   UNL     1      -4.639  -5.723 -34.562  1.00  0.00    -0.358 OA
HETATM   30  H   UNL     1      -5.048  -6.138 -33.776  1.00  0.00     0.218 HD
ENDBRANCH  24  29
ENDBRANCH  20  21
ENDBRANCH  19  20
ENDBRANCH   2  19
TORSDOF 10
ENDMDL
MODEL 2
REMARK VINA RESULT:      -7.6      4.717      5.610
REMARK  10 active torsions:
REMARK  status: ('A' for Active; 'I' for Inactive)
REMARK    1  A    between atoms: C_2  and  C_3 
REMARK    2  A    between atoms: C_3  and  N_4 
REMARK    3  A    between atoms: N_4  and  C_5 
REMARK    4  A    between atoms: C_5  and  N_6 
REMARK    5  A    between atoms: N_6  and  N_7 
REMARK       I    between atoms: N_7  and  C_8 
REMARK    6  A    between atoms: C_8  and  C_9 
REMARK    7  A    between atoms: C_9  and  C_10 
REMARK    8  A    between atoms: C_10  and  C_11 
REMARK    9  A    between atoms: C_13  and  O_14 
REMARK   10  A    between atoms: C_15  and  O_16 
ROOT
HETATM    1  N   UNL     1      -4.589   2.222 -31.300  1.00  0.00    -0.268 N 
HETATM    2  C   UNL     1      -3.884   1.039 -31.411  1.00  0.00     0.236 C 
HETATM    3  O   UNL     1      -2.684   0.942 -31.159  1.00  0.00    -0.272 OA
HETATM    4  H   UNL     1      -5.597   2.226 -31.166  1.00  0.00     0.190 HD
ENDROOT
BRANCH   1   5
HETATM    5  N   UNL     1      -3.889   3.335 -30.796  1.00  0.00    -0.274 N 
HETATM    6  H   UNL     1      -4.293   3.682 -29.927  1.00  0.00     0.189 HD
BRANCH   5   7
HETATM    7  C   UNL     1      -3.390   4.281 -31.660  1.00  0.00     0.186 C 
HETATM    8  S   UNL     1      -4.270   5.534 -32.335  1.00  0.00    -0.040 SA
BRANCH   7   9
HETATM    9  N   UNL     1      -2.079   4.146 -32.006  1.00  0.00    -0.362 N 
HETATM   10  H   UNL     1      -1.740   3.192 -32.023  1.00  0.00     0.162 HD
BRANCH   9  11
HETATM   11  C   UNL     1      -1.096   5.191 -32.232  1.00  0.00     0.160 C 
BRANCH  11  12
HETATM   12  C   UNL     1      -0.492   5.772 -30.974  1.00  0.00    -0.040 A 
HETATM   13  C   UNL     1      -0.660   7.112 -30.590  1.00  0.00     0.010 A 
HETATM   14  C   UNL     1      -0.133   7.582 -29.383  1.00  0.00     0.024 A 
HETATM   15  C   UNL     1       0.565   6.718 -28.546  1.00  0.00     0.034 A 
HETATM   16  C   UNL     1       0.738   5.385 -28.902  1.00  0.00     0.024 A 
HETATM   17 CL   UNL     1       1.208   7.297 -27.059  1.00  0.00    -0.084 Cl
HETATM   18  C   UNL     1       0.208   4.913 -30.106  1.00  0.00     0.010 A 
ENDBRANCH  11  12
ENDBRANCH   9  11
ENDBRANCH   7   9
ENDBRANCH   5   7
ENDBRANCH   1   5
BRANCH   2  19
HETATM   19  C   UNL     1      -4.697  -0.130 -31.918  1.00  0.00     0.109 C 
BRANCH  19  20
HETATM   20  C   UNL     1      -3.955  -0.940 -32.986  1.00  0.00     0.048 C 
BRANCH  20  21
HETATM   21  C   UNL     1      -4.727  -2.075 -33.626  1.00  0.00    -0.055 A 
HETATM   22  C   UNL     1      -4.193  -3.369 -33.753  1.00  0.00     0.046 A 
HETATM   23  C   UNL     1      -4.930  -4.363 -34.390  1.00  0.00     0.099 A 
HETATM   24  C   UNL     1      -6.210  -4.098 -34.865  1.00  0.00     0.098 A 
HETATM   25  C   UNL     1      -6.771  -2.842 -34.717  1.00  0.00     0.040 A 
HETATM   26  C   UNL     1      -6.031  -1.832 -34.097  1.00  0.00     0.010 A 
BRANCH  23  27
HETATM   27  O   UNL     1      -4.424  -5.620 -34.585  1.00  0.00    -0.358 OA
HETATM   28  H   UNL     1      -4.539  -5.843 -35.525  1.00  0.00     0.218 HD
ENDBRANCH  23  27
BRANCH  24  29
HETATM   29  O   UNL     1      -6.920  -5.080 -35.493  1.00  0.00    -0.358 OA
HETATM   30  H   UNL     1      -7.715  -5.197 -34.934  1.00  0.00     0.218 HD
ENDBRANCH  24  29
ENDBRANCH  20  21
ENDBRANCH  19  20
ENDBRANCH   2  19
TORSDOF 10
ENDMDL
MODEL 3
REMARK VINA RESULT:      -7.6      5.675      8.367
REMARK  10 active torsions:
REMARK  status: ('A' for Active; 'I' for Inactive)
REMARK    1  A    between atoms: C_2  and  C_3 
REMARK    2  A    between atoms: C_3  and  N_4 
REMARK    3  A    between atoms: N_4  and  C_5 
REMARK    4  A    between atoms: C_5  and  N_6 
REMARK    5  A    between atoms: N_6  and  N_7 
REMARK       I    between atoms: N_7  and  C_8 
REMARK    6  A    between atoms: C_8  and  C_9 
REMARK    7  A    between atoms: C_9  and  C_10 
REMARK    8  A    between atoms: C_10  and  C_11 
REMARK    9  A    between atoms: C_13  and  O_14 
REMARK   10  A    between atoms: C_15  and  O_16 
ROOT
HETATM    1  N   UNL     1      -3.198   4.326 -33.409  1.00  0.00    -0.268 N 
HETATM    2  C   UNL     1      -2.821   5.255 -34.359  1.00  0.00     0.236 C 
HETATM    3  O   UNL     1      -3.597   5.722 -35.192  1.00  0.00    -0.272 OA
HETATM    4  H   UNL     1      -2.679   4.216 -32.542  1.00  0.00     0.190 HD
ENDROOT
BRANCH   1   5
HETATM    5  N   UNL     1      -4.561   3.975 -33.367  1.00  0.00    -0.274 N 
HETATM    6  H   UNL     1      -5.168   4.763 -33.593  1.00  0.00     0.189 HD
BRANCH   5   7
HETATM    7  C   UNL     1      -5.017   3.108 -32.403  1.00  0.00     0.186 C 
HETATM    8  S   UNL     1      -5.249   3.490 -30.791  1.00  0.00    -0.040 SA
BRANCH   7   9
HETATM    9  N   UNL     1      -5.262   1.830 -32.811  1.00  0.00    -0.362 N 
HETATM   10  H   UNL     1      -6.228   1.637 -33.044  1.00  0.00     0.162 HD
BRANCH   9  11
HETATM   11  C   UNL     1      -4.346   0.704 -32.838  1.00  0.00     0.160 C 
BRANCH  11  12
HETATM   12  C   UNL     1      -4.899  -0.542 -33.490  1.00  0.00    -0.040 A 
HETATM   13  C   UNL     1      -4.161  -1.729 -33.627  1.00  0.00     0.010 A 
HETATM   14  C   UNL     1      -4.742  -2.874 -34.181  1.00  0.00     0.024 A 
HETATM   15  C   UNL     1      -6.067  -2.845 -34.603  1.00  0.00     0.034 A 
HETATM   16  C   UNL     1      -6.820  -1.683 -34.472  1.00  0.00     0.024 A 
HETATM   17 CL   UNL     1      -6.782  -4.256 -35.280  1.00  0.00    -0.084 Cl
HETATM   18  C   UNL     1      -6.240  -0.540 -33.914  1.00  0.00     0.010 A 
ENDBRANCH  11  12
ENDBRANCH   9  11
ENDBRANCH   7   9
ENDBRANCH   5   7
ENDBRANCH   1   5
BRANCH   2  19
HETATM   19  C   UNL     1      -1.355   5.623 -34.331  1.00  0.00     0.109 C 
BRANCH  19  20
HETATM   20  C   UNL     1      -1.070   6.822 -33.422  1.00  0.00     0.048 C 
BRANCH  20  21
HETATM   21  C   UNL     1      -0.768   6.510 -31.971  1.00  0.00    -0.055 A 
HETATM   22  C   UNL     1      -0.066   5.357 -31.581  1.00  0.00     0.046 A 
HETATM   23  C   UNL     1       0.145   5.099 -30.230  1.00  0.00     0.099 A 
HETATM   24  C   UNL     1      -0.297   5.994 -29.262  1.00  0.00     0.098 A 
HETATM   25  C   UNL     1      -0.957   7.156 -29.625  1.00  0.00     0.040 A 
HETATM   26  C   UNL     1      -1.191   7.414 -30.978  1.00  0.00     0.010 A 
BRANCH  23  27
HETATM   27  O   UNL     1       0.774   3.960 -29.805  1.00  0.00    -0.358 OA
HETATM   28  H   UNL     1       0.527   3.240 -30.411  1.00  0.00     0.218 HD
ENDBRANCH  23  27
BRANCH  24  29
HETATM   29  O   UNL     1      -0.088   5.727 -27.940  1.00  0.00    -0.358 OA
HETATM   30  H   UNL     1       0.063   6.606 -27.537  1.00  0.00     0.218 HD
ENDBRANCH  24  29
ENDBRANCH  20  21
ENDBRANCH  19  20
ENDBRANCH   2  19
TORSDOF 10
ENDMDL
MODEL 4
REMARK VINA RESULT:      -7.6      1.821      2.476
REMARK  10 active torsions:
REMARK  status: ('A' for Active; 'I' for Inactive)
REMARK    1  A    between atoms: C_2  and  C_3 
REMARK    2  A    between atoms: C_3  and  N_4 
REMARK    3  A    between atoms: N_4  and  C_5 
REMARK    4  A    between atoms: C_5  and  N_6 
REMARK    5  A    between atoms: N_6  and  N_7 
REMARK       I    between atoms: N_7  and  C_8 
REMARK    6  A    between atoms: C_8  and  C_9 
REMARK    7  A    between atoms: C_9  and  C_10 
REMARK    8  A    between atoms: C_10  and  C_11 
REMARK    9  A    between atoms: C_13  and  O_14 
REMARK   10  A    between atoms: C_15  and  O_16 
ROOT
HETATM    1  N   UNL     1      -9.788   0.321 -32.563  1.00  0.00    -0.268 N 
HETATM    2  C   UNL     1      -8.716   0.209 -33.427  1.00  0.00     0.236 C 
HETATM    3  O   UNL     1      -8.797   0.427 -34.635  1.00  0.00    -0.272 OA
HETATM    4  H   UNL     1      -9.651   0.485 -31.569  1.00  0.00     0.190 HD
ENDROOT
BRANCH   1   5
HETATM    5  N   UNL     1     -11.001   0.785 -33.109  1.00  0.00    -0.274 N 
HETATM    6  H   UNL     1     -11.322   0.202 -33.881  1.00  0.00     0.189 HD
BRANCH   5   7
HETATM    7  C   UNL     1     -11.229   2.135 -33.225  1.00  0.00     0.186 C 
HETATM    8  S   UNL     1     -11.860   2.897 -34.575  1.00  0.00    -0.040 SA
BRANCH   7   9
HETATM    9  N   UNL     1     -10.874   2.899 -32.153  1.00  0.00    -0.362 N 
HETATM   10  H   UNL     1     -11.356   2.672 -31.292  1.00  0.00     0.162 HD
BRANCH   9  11
HETATM   11  C   UNL     1      -9.994   4.054 -32.123  1.00  0.00     0.160 C 
BRANCH  11  12
HETATM   12  C   UNL     1      -8.520   3.724 -32.173  1.00  0.00    -0.040 A 
HETATM   13  C   UNL     1      -7.789   3.307 -31.050  1.00  0.00     0.010 A 
HETATM   14  C   UNL     1      -6.441   2.952 -31.164  1.00  0.00     0.024 A 
HETATM   15  C   UNL     1      -5.810   3.010 -32.403  1.00  0.00     0.034 A 
HETATM   16  C   UNL     1      -6.516   3.415 -33.531  1.00  0.00     0.024 A 
HETATM   17 CL   UNL     1      -4.153   2.569 -32.543  1.00  0.00    -0.084 Cl
HETATM   18  C   UNL     1      -7.864   3.764 -33.417  1.00  0.00     0.010 A 
ENDBRANCH  11  12
ENDBRANCH   9  11
ENDBRANCH   7   9
ENDBRANCH   5   7
ENDBRANCH   1   5
BRANCH   2  19
HETATM   19  C   UNL     1      -7.432  -0.253 -32.777  1.00  0.00     0.109 C 
BRANCH  19  20
HETATM   20  C   UNL     1      -6.296  -0.434 -33.788  1.00  0.00     0.048 C 
BRANCH  20  21
HETATM   21  C   UNL     1      -5.854  -1.858 -34.055  1.00  0.00    -0.055 A 
HETATM   22  C   UNL     1      -6.686  -2.796 -34.689  1.00  0.00     0.046 A 
HETATM   23  C   UNL     1      -6.244  -4.104 -34.870  1.00  0.00     0.099 A 
HETATM   24  C   UNL     1      -4.967  -4.479 -34.467  1.00  0.00     0.098 A 
HETATM   25  C   UNL     1      -4.116  -3.562 -33.875  1.00  0.00     0.040 A 
HETATM   26  C   UNL     1      -4.558  -2.253 -33.671  1.00  0.00     0.010 A 
BRANCH  23  27
HETATM   27  O   UNL     1      -7.043  -5.062 -35.432  1.00  0.00    -0.358 OA
HETATM   28  H   UNL     1      -7.380  -4.712 -36.275  1.00  0.00     0.218 HD
ENDBRANCH  23  27
BRANCH  24  29
HETATM   29  O   UNL     1      -4.547  -5.766 -34.646  1.00  0.00    -0.358 OA
HETATM   30  H   UNL     1      -3.617  -5.677 -34.938  1.00  0.00     0.218 HD
ENDBRANCH  24  29
ENDBRANCH  20  21
ENDBRANCH  19  20
ENDBRANCH   2  19
TORSDOF 10
ENDMDL
MODEL 5
REMARK VINA RESULT:      -7.5      3.892      4.897
REMARK  10 active torsions:
REMARK  status: ('A' for Active; 'I' for Inactive)
REMARK    1  A    between atoms: C_2  and  C_3 
REMARK    2  A    between atoms: C_3  and  N_4 
REMARK    3  A    between atoms: N_4  and  C_5 
REMARK    4  A    between atoms: C_5  and  N_6 
REMARK    5  A    between atoms: N_6  and  N_7 
REMARK       I    between atoms: N_7  and  C_8 
REMARK    6  A    between atoms: C_8  and  C_9 
REMARK    7  A    between atoms: C_9  and  C_10 
REMARK    8  A    between atoms: C_10  and  C_11 
REMARK    9  A    between atoms: C_13  and  O_14 
REMARK   10  A    between atoms: C_15  and  O_16 
ROOT
HETATM    1  N   UNL     1      -4.914   1.758 -32.602  1.00  0.00    -0.268 N 
HETATM    2  C   UNL     1      -3.930   1.097 -31.892  1.00  0.00     0.236 C 
HETATM    3  O   UNL     1      -3.031   1.678 -31.285  1.00  0.00    -0.272 OA
HETATM    4  H   UNL     1      -5.812   1.321 -32.791  1.00  0.00     0.190 HD
ENDROOT
BRANCH   1   5
HETATM    5  N   UNL     1      -4.906   3.165 -32.543  1.00  0.00    -0.274 N 
HETATM    6  H   UNL     1      -4.822   3.509 -31.588  1.00  0.00     0.189 HD
BRANCH   5   7
HETATM    7  C   UNL     1      -5.710   3.891 -33.389  1.00  0.00     0.186 C 
HETATM    8  S   UNL     1      -7.277   3.490 -33.816  1.00  0.00    -0.040 SA
BRANCH   7   9
HETATM    9  N   UNL     1      -5.151   5.007 -33.938  1.00  0.00    -0.362 N 
HETATM   10  H   UNL     1      -5.753   5.822 -33.947  1.00  0.00     0.162 HD
BRANCH   9  11
HETATM   11  C   UNL     1      -3.868   5.136 -34.606  1.00  0.00     0.160 C 
BRANCH  11  12
HETATM   12  C   UNL     1      -2.732   5.571 -33.709  1.00  0.00    -0.040 A 
HETATM   13  C   UNL     1      -1.964   4.672 -32.953  1.00  0.00     0.010 A 
HETATM   14  C   UNL     1      -0.882   5.122 -32.188  1.00  0.00     0.024 A 
HETATM   15  C   UNL     1      -0.556   6.474 -32.173  1.00  0.00     0.034 A 
HETATM   16  C   UNL     1      -1.299   7.382 -32.921  1.00  0.00     0.024 A 
HETATM   17 CL   UNL     1       0.778   7.024 -31.237  1.00  0.00    -0.084 Cl
HETATM   18  C   UNL     1      -2.377   6.933 -33.688  1.00  0.00     0.010 A 
ENDBRANCH  11  12
ENDBRANCH   9  11
ENDBRANCH   7   9
ENDBRANCH   5   7
ENDBRANCH   1   5
BRANCH   2  19
HETATM   19  C   UNL     1      -4.013  -0.411 -31.958  1.00  0.00     0.109 C 
BRANCH  19  20
HETATM   20  C   UNL     1      -3.682  -0.956 -33.350  1.00  0.00     0.048 C 
BRANCH  20  21
HETATM   21  C   UNL     1      -4.563  -2.078 -33.859  1.00  0.00    -0.055 A 
HETATM   22  C   UNL     1      -4.126  -3.413 -33.907  1.00  0.00     0.046 A 
HETATM   23  C   UNL     1      -4.961  -4.397 -34.426  1.00  0.00     0.099 A 
HETATM   24  C   UNL     1      -6.243  -4.079 -34.859  1.00  0.00     0.098 A 
HETATM   25  C   UNL     1      -6.710  -2.777 -34.786  1.00  0.00     0.040 A 
HETATM   26  C   UNL     1      -5.871  -1.779 -34.285  1.00  0.00     0.010 A 
BRANCH  23  27
HETATM   27  O   UNL     1      -4.554  -5.699 -34.542  1.00  0.00    -0.358 OA
HETATM   28  H   UNL     1      -3.593  -5.696 -34.698  1.00  0.00     0.218 HD
ENDBRANCH  23  27
BRANCH  24  29
HETATM   29  O   UNL     1      -7.052  -5.053 -35.371  1.00  0.00    -0.358 OA
HETATM   30  H   UNL     1      -7.203  -5.660 -34.619  1.00  0.00     0.218 HD
ENDBRANCH  24  29
ENDBRANCH  20  21
ENDBRANCH  19  20
ENDBRANCH   2  19
TORSDOF 10
ENDMDL
MODEL 6
REMARK VINA RESULT:      -7.4      3.116      4.356
REMARK  10 active torsions:
REMARK  status: ('A' for Active; 'I' for Inactive)
REMARK    1  A    between atoms: C_2  and  C_3 
REMARK    2  A    between atoms: C_3  and  N_4 
REMARK    3  A    between atoms: N_4  and  C_5 
REMARK    4  A    between atoms: C_5  and  N_6 
REMARK    5  A    between atoms: N_6  and  N_7 
REMARK       I    between atoms: N_7  and  C_8 
REMARK    6  A    between atoms: C_8  and  C_9 
REMARK    7  A    between atoms: C_9  and  C_10 
REMARK    8  A    between atoms: C_10  and  C_11 
REMARK    9  A    between atoms: C_13  and  O_14 
REMARK   10  A    between atoms: C_15  and  O_16 
ROOT
HETATM    1  N   UNL     1      -3.401   1.458 -31.307  1.00  0.00    -0.268 N 
HETATM    2  C   UNL     1      -4.195   0.357 -31.055  1.00  0.00     0.236 C 
HETATM    3  O   UNL     1      -5.233   0.409 -30.396  1.00  0.00    -0.272 OA
HETATM    4  H   UNL     1      -2.774   1.485 -32.107  1.00  0.00     0.190 HD
ENDROOT
BRANCH   1   5
HETATM    5  N   UNL     1      -3.868   2.701 -30.839  1.00  0.00    -0.274 N 
HETATM    6  H   UNL     1      -4.648   2.599 -30.191  1.00  0.00     0.189 HD
BRANCH   5   7
HETATM    7  C   UNL     1      -3.914   3.781 -31.689  1.00  0.00     0.186 C 
HETATM    8  S   UNL     1      -3.610   5.367 -31.253  1.00  0.00    -0.040 SA
BRANCH   7   9
HETATM    9  N   UNL     1      -4.271   3.516 -32.978  1.00  0.00    -0.362 N 
HETATM   10  H   UNL     1      -3.517   3.185 -33.567  1.00  0.00     0.162 HD
BRANCH   9  11
HETATM   11  C   UNL     1      -5.548   3.761 -33.626  1.00  0.00     0.160 C 
BRANCH  11  12
HETATM   12  C   UNL     1      -6.616   2.736 -33.323  1.00  0.00    -0.040 A 
HETATM   13  C   UNL     1      -7.321   2.698 -32.111  1.00  0.00     0.010 A 
HETATM   14  C   UNL     1      -8.344   1.767 -31.906  1.00  0.00     0.024 A 
HETATM   15  C   UNL     1      -8.675   0.865 -32.912  1.00  0.00     0.034 A 
HETATM   16  C   UNL     1      -7.994   0.889 -34.125  1.00  0.00     0.024 A 
HETATM   17 CL   UNL     1      -9.937  -0.276 -32.661  1.00  0.00    -0.084 Cl
HETATM   18  C   UNL     1      -6.974   1.822 -34.331  1.00  0.00     0.010 A 
ENDBRANCH  11  12
ENDBRANCH   9  11
ENDBRANCH   7   9
ENDBRANCH   5   7
ENDBRANCH   1   5
BRANCH   2  19
HETATM   19  C   UNL     1      -3.664  -0.943 -31.616  1.00  0.00     0.109 C 
BRANCH  19  20
HETATM   20  C   UNL     1      -3.756  -1.004 -33.142  1.00  0.00     0.048 C 
BRANCH  20  21
HETATM   21  C   UNL     1      -4.601  -2.120 -33.722  1.00  0.00    -0.055 A 
HETATM   22  C   UNL     1      -4.140  -3.445 -33.805  1.00  0.00     0.046 A 
HETATM   23  C   UNL     1      -4.942  -4.422 -34.387  1.00  0.00     0.099 A 
HETATM   24  C   UNL     1      -6.215  -4.107 -34.850  1.00  0.00     0.098 A 
HETATM   25  C   UNL     1      -6.705  -2.817 -34.744  1.00  0.00     0.040 A 
HETATM   26  C   UNL     1      -5.899  -1.825 -34.179  1.00  0.00     0.010 A 
BRANCH  23  27
HETATM   27  O   UNL     1      -4.509  -5.712 -34.539  1.00  0.00    -0.358 OA
HETATM   28  H   UNL     1      -5.218  -6.213 -34.979  1.00  0.00     0.218 HD
ENDBRANCH  23  27
BRANCH  24  29
HETATM   29  O   UNL     1      -6.990  -5.073 -35.424  1.00  0.00    -0.358 OA
HETATM   30  H   UNL     1      -6.451  -5.402 -36.172  1.00  0.00     0.218 HD
ENDBRANCH  24  29
ENDBRANCH  20  21
ENDBRANCH  19  20
ENDBRANCH   2  19
TORSDOF 10
ENDMDL
MODEL 7
REMARK VINA RESULT:      -7.3      3.775      6.452
REMARK  10 active torsions:
REMARK  status: ('A' for Active; 'I' for Inactive)
REMARK    1  A    between atoms: C_2  and  C_3 
REMARK    2  A    between atoms: C_3  and  N_4 
REMARK    3  A    between atoms: N_4  and  C_5 
REMARK    4  A    between atoms: C_5  and  N_6 
REMARK    5  A    between atoms: N_6  and  N_7 
REMARK       I    between atoms: N_7  and  C_8 
REMARK    6  A    between atoms: C_8  and  C_9 
REMARK    7  A    between atoms: C_9  and  C_10 
REMARK    8  A    between atoms: C_10  and  C_11 
REMARK    9  A    between atoms: C_13  and  O_14 
REMARK   10  A    between atoms: C_15  and  O_16 
ROOT
HETATM    1  N   UNL     1      -7.229   2.641 -33.524  1.00  0.00    -0.268 N 
HETATM    2  C   UNL     1      -8.041   3.697 -33.889  1.00  0.00     0.236 C 
HETATM    3  O   UNL     1      -7.609   4.813 -34.177  1.00  0.00    -0.272 OA
HETATM    4  H   UNL     1      -7.535   1.677 -33.631  1.00  0.00     0.190 HD
ENDROOT
BRANCH   1   5
HETATM    5  N   UNL     1      -5.839   2.862 -33.566  1.00  0.00    -0.274 N 
HETATM    6  H   UNL     1      -5.448   2.672 -34.488  1.00  0.00     0.189 HD
BRANCH   5   7
HETATM    7  C   UNL     1      -5.057   2.524 -32.487  1.00  0.00     0.186 C 
HETATM    8  S   UNL     1      -4.132   3.593 -31.592  1.00  0.00    -0.040 SA
BRANCH   7   9
HETATM    9  N   UNL     1      -5.022   1.201 -32.161  1.00  0.00    -0.362 N 
HETATM   10  H   UNL     1      -5.635   0.937 -31.398  1.00  0.00     0.162 HD
BRANCH   9  11
HETATM   11  C   UNL     1      -4.144   0.168 -32.682  1.00  0.00     0.160 C 
BRANCH  11  12
HETATM   12  C   UNL     1      -4.856  -0.988 -33.345  1.00  0.00    -0.040 A 
HETATM   13  C   UNL     1      -6.212  -0.948 -33.707  1.00  0.00     0.010 A 
HETATM   14  C   UNL     1      -6.806  -2.022 -34.377  1.00  0.00     0.024 A 
HETATM   15  C   UNL     1      -6.051  -3.147 -34.694  1.00  0.00     0.034 A 
HETATM   16  C   UNL     1      -4.704  -3.205 -34.352  1.00  0.00     0.024 A 
HETATM   17 CL   UNL     1      -6.782  -4.465 -35.523  1.00  0.00    -0.084 Cl
HETATM   18  C   UNL     1      -4.109  -2.130 -33.686  1.00  0.00     0.010 A 
ENDBRANCH  11  12
ENDBRANCH   9  11
ENDBRANCH   7   9
ENDBRANCH   5   7
ENDBRANCH   1   5
BRANCH   2  19
HETATM   19  C   UNL     1      -9.521   3.390 -33.864  1.00  0.00     0.109 C 
BRANCH  19  20
HETATM   20  C   UNL     1      -9.808   1.887 -33.908  1.00  0.00     0.048 C 
BRANCH  20  21
HETATM   21  C   UNL     1     -11.258   1.483 -34.079  1.00  0.00    -0.055 A 
HETATM   22  C   UNL     1     -11.795   0.336 -33.471  1.00  0.00     0.046 A 
HETATM   23  C   UNL     1     -13.124  -0.011 -33.698  1.00  0.00     0.099 A 
HETATM   24  C   UNL     1     -13.938   0.793 -34.488  1.00  0.00     0.098 A 
HETATM   25  C   UNL     1     -13.441   1.948 -35.066  1.00  0.00     0.040 A 
HETATM   26  C   UNL     1     -12.104   2.294 -34.860  1.00  0.00     0.010 A 
BRANCH  23  27
HETATM   27  O   UNL     1     -13.670  -1.150 -33.171  1.00  0.00    -0.358 OA
HETATM   28  H   UNL     1     -14.144  -0.903 -32.357  1.00  0.00     0.218 HD
ENDBRANCH  23  27
BRANCH  24  29
HETATM   29  O   UNL     1     -15.238   0.439 -34.707  1.00  0.00    -0.358 OA
HETATM   30  H   UNL     1     -15.475   0.894 -35.541  1.00  0.00     0.218 HD
ENDBRANCH  24  29
ENDBRANCH  20  21
ENDBRANCH  19  20
ENDBRANCH   2  19
TORSDOF 10
ENDMDL
MODEL 8
REMARK VINA RESULT:      -7.2      1.157      1.927
REMARK  10 active torsions:
REMARK  status: ('A' for Active; 'I' for Inactive)
REMARK    1  A    between atoms: C_2  and  C_3 
REMARK    2  A    between atoms: C_3  and  N_4 
REMARK    3  A    between atoms: N_4  and  C_5 
REMARK    4  A    between atoms: C_5  and  N_6 
REMARK    5  A    between atoms: N_6  and  N_7 
REMARK       I    between atoms: N_7  and  C_8 
REMARK    6  A    between atoms: C_8  and  C_9 
REMARK    7  A    between atoms: C_9  and  C_10 
REMARK    8  A    between atoms: C_10  and  C_11 
REMARK    9  A    between atoms: C_13  and  O_14 
REMARK   10  A    between atoms: C_15  and  O_16 
ROOT
HETATM    1  N   UNL     1      -7.770   2.127 -32.975  1.00  0.00    -0.268 N 
HETATM    2  C   UNL     1      -7.571   0.763 -33.066  1.00  0.00     0.236 C 
HETATM    3  O   UNL     1      -8.277  -0.062 -32.487  1.00  0.00    -0.272 OA
HETATM    4  H   UNL     1      -7.435   2.759 -33.697  1.00  0.00     0.190 HD
ENDROOT
BRANCH   1   5
HETATM    5  N   UNL     1      -8.890   2.560 -32.239  1.00  0.00    -0.274 N 
HETATM    6  H   UNL     1      -9.694   2.748 -32.837  1.00  0.00     0.189 HD
BRANCH   5   7
HETATM    7  C   UNL     1      -8.721   3.393 -31.159  1.00  0.00     0.186 C 
HETATM    8  S   UNL     1      -9.280   4.967 -31.055  1.00  0.00    -0.040 SA
BRANCH   7   9
HETATM    9  N   UNL     1      -8.008   2.885 -30.114  1.00  0.00    -0.362 N 
HETATM   10  H   UNL     1      -8.537   2.287 -29.491  1.00  0.00     0.162 HD
BRANCH   9  11
HETATM   11  C   UNL     1      -6.642   3.188 -29.725  1.00  0.00     0.160 C 
BRANCH  11  12
HETATM   12  C   UNL     1      -5.618   2.176 -30.185  1.00  0.00    -0.040 A 
HETATM   13  C   UNL     1      -5.760   0.794 -29.984  1.00  0.00     0.010 A 
HETATM   14  C   UNL     1      -4.813  -0.104 -30.485  1.00  0.00     0.024 A 
HETATM   15  C   UNL     1      -3.715   0.369 -31.195  1.00  0.00     0.034 A 
HETATM   16  C   UNL     1      -3.556   1.733 -31.413  1.00  0.00     0.024 A 
HETATM   17 CL   UNL     1      -2.553  -0.738 -31.816  1.00  0.00    -0.084 Cl
HETATM   18  C   UNL     1      -4.504   2.631 -30.915  1.00  0.00     0.010 A 
ENDBRANCH  11  12
ENDBRANCH   9  11
ENDBRANCH   7   9
ENDBRANCH   5   7
ENDBRANCH   1   5
BRANCH   2  19
HETATM   19  C   UNL     1      -6.379   0.357 -33.902  1.00  0.00     0.109 C 
BRANCH  19  20
HETATM   20  C   UNL     1      -6.733  -0.698 -34.954  1.00  0.00     0.048 C 
BRANCH  20  21
HETATM   21  C   UNL     1      -6.143  -2.078 -34.749  1.00  0.00    -0.055 A 
HETATM   22  C   UNL     1      -4.964  -2.289 -34.014  1.00  0.00     0.046 A 
HETATM   23  C   UNL     1      -4.443  -3.574 -33.895  1.00  0.00     0.099 A 
HETATM   24  C   UNL     1      -5.104  -4.659 -34.461  1.00  0.00     0.098 A 
HETATM   25  C   UNL     1      -6.288  -4.480 -35.156  1.00  0.00     0.040 A 
HETATM   26  C   UNL     1      -6.807  -3.191 -35.298  1.00  0.00     0.010 A 
BRANCH  23  27
HETATM   27  O   UNL     1      -3.268  -3.816 -33.237  1.00  0.00    -0.358 OA
HETATM   28  H   UNL     1      -2.558  -3.855 -33.902  1.00  0.00     0.218 HD
ENDBRANCH  23  27
BRANCH  24  29
HETATM   29  O   UNL     1      -4.580  -5.914 -34.341  1.00  0.00    -0.358 OA
HETATM   30  H   UNL     1      -5.362  -6.492 -34.234  1.00  0.00     0.218 HD
ENDBRANCH  24  29
ENDBRANCH  20  21
ENDBRANCH  19  20
ENDBRANCH   2  19
TORSDOF 10
ENDMDL
MODEL 9
REMARK VINA RESULT:      -6.9      2.958      3.726
REMARK  10 active torsions:
REMARK  status: ('A' for Active; 'I' for Inactive)
REMARK    1  A    between atoms: C_2  and  C_3 
REMARK    2  A    between atoms: C_3  and  N_4 
REMARK    3  A    between atoms: N_4  and  C_5 
REMARK    4  A    between atoms: C_5  and  N_6 
REMARK    5  A    between atoms: N_6  and  N_7 
REMARK       I    between atoms: N_7  and  C_8 
REMARK    6  A    between atoms: C_8  and  C_9 
REMARK    7  A    between atoms: C_9  and  C_10 
REMARK    8  A    between atoms: C_10  and  C_11 
REMARK    9  A    between atoms: C_13  and  O_14 
REMARK   10  A    between atoms: C_15  and  O_16 
ROOT
HETATM    1  N   UNL     1      -5.960   1.754 -31.967  1.00  0.00    -0.268 N 
HETATM    2  C   UNL     1      -6.508   0.491 -31.867  1.00  0.00     0.236 C 
HETATM    3  O   UNL     1      -6.400  -0.215 -30.865  1.00  0.00    -0.272 OA
HETATM    4  H   UNL     1      -6.332   2.442 -32.616  1.00  0.00     0.190 HD
ENDROOT
BRANCH   1   5
HETATM    5  N   UNL     1      -5.319   2.263 -30.821  1.00  0.00    -0.274 N 
HETATM    6  H   UNL     1      -4.837   1.535 -30.295  1.00  0.00     0.189 HD
BRANCH   5   7
HETATM    7  C   UNL     1      -5.919   3.256 -30.083  1.00  0.00     0.186 C 
HETATM    8  S   UNL     1      -7.563   3.398 -29.809  1.00  0.00    -0.040 SA
BRANCH   7   9
HETATM    9  N   UNL     1      -5.089   4.209 -29.572  1.00  0.00    -0.362 N 
HETATM   10  H   UNL     1      -4.777   4.036 -28.624  1.00  0.00     0.162 HD
BRANCH   9  11
HETATM   11  C   UNL     1      -4.701   5.477 -30.165  1.00  0.00     0.160 C 
BRANCH  11  12
HETATM   12  C   UNL     1      -3.886   5.357 -31.433  1.00  0.00    -0.040 A 
HETATM   13  C   UNL     1      -4.400   5.648 -32.706  1.00  0.00     0.010 A 
HETATM   14  C   UNL     1      -3.585   5.582 -33.840  1.00  0.00     0.024 A 
HETATM   15  C   UNL     1      -2.246   5.225 -33.713  1.00  0.00     0.034 A 
HETATM   16  C   UNL     1      -1.713   4.938 -32.460  1.00  0.00     0.024 A 
HETATM   17 CL   UNL     1      -1.243   5.148 -35.108  1.00  0.00    -0.084 Cl
HETATM   18  C   UNL     1      -2.527   5.009 -31.327  1.00  0.00     0.010 A 
ENDBRANCH  11  12
ENDBRANCH   9  11
ENDBRANCH   7   9
ENDBRANCH   5   7
ENDBRANCH   1   5
BRANCH   2  19
HETATM   19  C   UNL     1      -7.218   0.014 -33.114  1.00  0.00     0.109 C 
BRANCH  19  20
HETATM   20  C   UNL     1      -6.245  -0.379 -34.228  1.00  0.00     0.048 C 
BRANCH  20  21
HETATM   21  C   UNL     1      -5.858  -1.842 -34.300  1.00  0.00    -0.055 A 
HETATM   22  C   UNL     1      -4.646  -2.324 -33.777  1.00  0.00     0.046 A 
HETATM   23  C   UNL     1      -4.322  -3.672 -33.910  1.00  0.00     0.099 A 
HETATM   24  C   UNL     1      -5.207  -4.554 -34.518  1.00  0.00     0.098 A 
HETATM   25  C   UNL     1      -6.424  -4.108 -35.006  1.00  0.00     0.040 A 
HETATM   26  C   UNL     1      -6.749  -2.755 -34.895  1.00  0.00     0.010 A 
BRANCH  23  27
HETATM   27  O   UNL     1      -3.128  -4.171 -33.465  1.00  0.00    -0.358 OA
HETATM   28  H   UNL     1      -2.613  -3.430 -33.100  1.00  0.00     0.218 HD
ENDBRANCH  23  27
BRANCH  24  29
HETATM   29  O   UNL     1      -4.876  -5.872 -34.646  1.00  0.00    -0.358 OA
HETATM   30  H   UNL     1      -5.677  -6.286 -35.027  1.00  0.00     0.218 HD
ENDBRANCH  24  29
ENDBRANCH  20  21
ENDBRANCH  19  20
ENDBRANCH   2  19
TORSDOF 10
ENDMDL
MODEL 10
REMARK VINA RESULT:      -6.9      4.013      7.207
REMARK  10 active torsions:
REMARK  status: ('A' for Active; 'I' for Inactive)
REMARK    1  A    between atoms: C_2  and  C_3 
REMARK    2  A    between atoms: C_3  and  N_4 
REMARK    3  A    between atoms: N_4  and  C_5 
REMARK    4  A    between atoms: C_5  and  N_6 
REMARK    5  A    between atoms: N_6  and  N_7 
REMARK       I    between atoms: N_7  and  C_8 
REMARK    6  A    between atoms: C_8  and  C_9 
REMARK    7  A    between atoms: C_9  and  C_10 
REMARK    8  A    between atoms: C_10  and  C_11 
REMARK    9  A    between atoms: C_13  and  O_14 
REMARK   10  A    between atoms: C_15  and  O_16 
ROOT
HETATM    1  N   UNL     1      -9.510   2.393 -34.668  1.00  0.00    -0.268 N 
HETATM    2  C   UNL     1      -9.951   3.661 -34.343  1.00  0.00     0.236 C 
HETATM    3  O   UNL     1      -9.723   4.198 -33.260  1.00  0.00    -0.272 OA
HETATM    4  H   UNL     1      -9.394   2.106 -35.636  1.00  0.00     0.190 HD
ENDROOT
BRANCH   1   5
HETATM    5  N   UNL     1      -8.697   1.740 -33.722  1.00  0.00    -0.274 N 
HETATM    6  H   UNL     1      -9.013   1.901 -32.767  1.00  0.00     0.189 HD
BRANCH   5   7
HETATM    7  C   UNL     1      -7.338   1.674 -33.915  1.00  0.00     0.186 C 
HETATM    8  S   UNL     1      -6.216   2.725 -33.256  1.00  0.00    -0.040 SA
BRANCH   7   9
HETATM    9  N   UNL     1      -6.895   0.683 -34.741  1.00  0.00    -0.362 N 
HETATM   10  H   UNL     1      -6.159   0.961 -35.379  1.00  0.00     0.162 HD
BRANCH   9  11
HETATM   11  C   UNL     1      -7.422  -0.661 -34.897  1.00  0.00     0.160 C 
BRANCH  11  12
HETATM   12  C   UNL     1      -6.434  -1.764 -34.596  1.00  0.00    -0.040 A 
HETATM   13  C   UNL     1      -6.636  -3.100 -34.975  1.00  0.00     0.010 A 
HETATM   14  C   UNL     1      -5.660  -4.070 -34.727  1.00  0.00     0.024 A 
HETATM   15  C   UNL     1      -4.470  -3.715 -34.100  1.00  0.00     0.034 A 
HETATM   16  C   UNL     1      -4.245  -2.396 -33.722  1.00  0.00     0.024 A 
HETATM   17 CL   UNL     1      -3.268  -4.909 -33.801  1.00  0.00    -0.084 Cl
HETATM   18  C   UNL     1      -5.218  -1.425 -33.973  1.00  0.00     0.010 A 
ENDBRANCH  11  12
ENDBRANCH   9  11
ENDBRANCH   7   9
ENDBRANCH   5   7
ENDBRANCH   1   5
BRANCH   2  19
HETATM   19  C   UNL     1     -10.785   4.329 -35.412  1.00  0.00     0.109 C 
BRANCH  19  20
HETATM   20  C   UNL     1     -11.997   3.488 -35.821  1.00  0.00     0.048 C 
BRANCH  20  21
HETATM   21  C   UNL     1     -12.856   2.952 -34.693  1.00  0.00    -0.055 A 
HETATM   22  C   UNL     1     -13.150   1.585 -34.558  1.00  0.00     0.046 A 
HETATM   23  C   UNL     1     -13.980   1.154 -33.527  1.00  0.00     0.099 A 
HETATM   24  C   UNL     1     -14.488   2.061 -32.604  1.00  0.00     0.098 A 
HETATM   25  C   UNL     1     -14.181   3.407 -32.695  1.00  0.00     0.040 A 
HETATM   26  C   UNL     1     -13.364   3.852 -33.737  1.00  0.00     0.010 A 
BRANCH  23  27
HETATM   27  O   UNL     1     -14.337  -0.161 -33.393  1.00  0.00    -0.358 OA
HETATM   28  H   UNL     1     -15.194  -0.190 -32.933  1.00  0.00     0.218 HD
ENDBRANCH  23  27
BRANCH  24  29
HETATM   29  O   UNL     1     -15.305   1.626 -31.600  1.00  0.00    -0.358 OA
HETATM   30  H   UNL     1     -14.907   1.997 -30.787  1.00  0.00     0.218 HD
ENDBRANCH  24  29
ENDBRANCH  20  21
ENDBRANCH  19  20
ENDBRANCH   2  19
TORSDOF 10
ENDMDL
