MODEL 1
REMARK VINA RESULT:      -9.2      0.000      0.000
REMARK  8 active torsions:
REMARK  status: ('A' for Active; 'I' for Inactive)
REMARK    1  A    between atoms: C_2  and  O_3 
REMARK    2  A    between atoms: O_3  and  C_4 
REMARK    3  A    between atoms: C_4  and  C_5 
REMARK    4  A    between atoms: N_7  and  C_9 
REMARK    5  A    between atoms: C_9  and  C_10 
REMARK       I    between atoms: C_10  and  N_11 
REMARK    6  A    between atoms: N_11  and  C_12 
REMARK    7  A    between atoms: C_20  and  C_21 
REMARK       I    between atoms: C_21  and  N_22 
REMARK    8  A    between atoms: N_22  and  C_23 
ROOT
HETATM    1  C   UNL     1      -4.849   0.868 -31.951  1.00  0.00     0.093 C 
HETATM    2  S   UNL     1      -3.792  -0.365 -31.476  1.00  0.00    -0.075 SA
HETATM    3  C   UNL     1      -4.352  -1.374 -32.718  1.00  0.00    -0.008 C 
HETATM    4  C   UNL     1      -5.433  -0.841 -33.406  1.00  0.00    -0.026 C 
HETATM    5  C   UNL     1      -6.105  -1.642 -34.495  1.00  0.00     0.041 C 
HETATM    6  C   UNL     1      -5.676  -3.118 -34.513  1.00  0.00     0.005 C 
HETATM    7  C   UNL     1      -4.166  -3.274 -34.313  1.00  0.00     0.005 C 
HETATM    8  C   UNL     1      -3.738  -2.722 -32.950  1.00  0.00     0.047 C 
HETATM    9  C   UNL     1      -5.768   0.497 -32.925  1.00  0.00     0.073 C 
ENDROOT
BRANCH   1  10
HETATM   10  N   UNL     1      -4.622   2.049 -31.273  1.00  0.00    -0.319 N 
HETATM   11  C   UNL     1      -3.707   2.948 -31.775  1.00  0.00     0.248 C 
HETATM   12  O   UNL     1      -2.898   2.724 -32.676  1.00  0.00    -0.271 OA
HETATM   13  H   UNL     1      -4.817   2.028 -30.280  1.00  0.00     0.169 HD
BRANCH  11  14
HETATM   14  C   UNL     1      -3.706   4.319 -31.095  1.00  0.00     0.337 C 
BRANCH  14  15
HETATM   15  N   UNL     1      -2.489   5.127 -31.546  1.00  0.00    -0.062 N 
HETATM   16  C   UNL     1      -2.794   6.607 -31.701  1.00  0.00     0.249 C 
HETATM   17  C   UNL     1      -1.656   7.291 -32.450  1.00  0.00     0.111 C 
HETATM   18  C   UNL     1      -0.289   6.992 -31.821  1.00  0.00     0.018 C 
HETATM   19  C   UNL     1      -0.063   5.516 -31.478  1.00  0.00     0.029 C 
HETATM   20  C   UNL     1      -1.244   4.877 -30.758  1.00  0.00     0.235 C 
HETATM   21  H   UNL     1      -2.324   4.782 -32.520  1.00  0.00     0.280 HD
BRANCH  17  22
HETATM   22  C   UNL     1      -1.738   6.822 -33.884  1.00  0.00     0.264 C 
HETATM   23  O   UNL     1      -0.736   6.611 -34.558  1.00  0.00    -0.265 OA
BRANCH  22  24
HETATM   24  O   UNL     1      -3.016   6.561 -34.244  1.00  0.00    -0.322 OA
BRANCH  24  25
HETATM   25  C   UNL     1      -3.180   5.375 -35.036  1.00  0.00     0.174 C 
HETATM   26  C   UNL     1      -4.590   4.859 -34.836  1.00  0.00     0.034 C 
ENDBRANCH  24  25
ENDBRANCH  22  24
ENDBRANCH  17  22
ENDBRANCH  14  15
ENDBRANCH  11  14
ENDBRANCH   1  10
BRANCH   9  27
HETATM   27  C   UNL     1      -6.917   1.367 -33.281  1.00  0.00     0.259 C 
HETATM   28  N   UNL     1      -8.158   0.883 -32.918  1.00  0.00    -0.323 N 
HETATM   29  H   UNL     1      -8.184  -0.056 -32.548  1.00  0.00     0.169 HD
HETATM   30  O   UNL     1      -6.731   2.440 -33.857  1.00  0.00    -0.267 OA
BRANCH  28  31
HETATM   31  C   UNL     1      -9.405   1.541 -32.993  1.00  0.00     0.035 A 
HETATM   32  C   UNL     1      -9.736   2.686 -32.266  1.00  0.00     0.031 A 
HETATM   33  C   UNL     1     -11.005   3.266 -32.389  1.00  0.00     0.026 A 
HETATM   34  C   UNL     1     -11.953   2.694 -33.231  1.00  0.00     0.034 A 
HETATM   35 CL   UNL     1     -13.510   3.407 -33.378  1.00  0.00    -0.084 Cl
HETATM   36  C   UNL     1     -11.643   1.549 -33.957  1.00  0.00     0.026 A 
HETATM   37  C   UNL     1     -10.370   0.979 -33.843  1.00  0.00     0.031 A 
ENDBRANCH  28  31
ENDBRANCH   9  27
TORSDOF 8
ENDMDL
MODEL 2
REMARK VINA RESULT:      -9.1      1.433      2.627
REMARK  8 active torsions:
REMARK  status: ('A' for Active; 'I' for Inactive)
REMARK    1  A    between atoms: C_2  and  O_3 
REMARK    2  A    between atoms: O_3  and  C_4 
REMARK    3  A    between atoms: C_4  and  C_5 
REMARK    4  A    between atoms: N_7  and  C_9 
REMARK    5  A    between atoms: C_9  and  C_10 
REMARK       I    between atoms: C_10  and  N_11 
REMARK    6  A    between atoms: N_11  and  C_12 
REMARK    7  A    between atoms: C_20  and  C_21 
REMARK       I    between atoms: C_21  and  N_22 
REMARK    8  A    between atoms: N_22  and  C_23 
ROOT
HETATM    1  C   UNL     1      -4.496  -0.287 -33.105  1.00  0.00     0.093 C 
HETATM    2  S   UNL     1      -3.474  -1.503 -32.522  1.00  0.00    -0.075 SA
HETATM    3  C   UNL     1      -4.296  -2.678 -33.426  1.00  0.00    -0.008 C 
HETATM    4  C   UNL     1      -5.427  -2.184 -34.059  1.00  0.00    -0.026 C 
HETATM    5  C   UNL     1      -6.320  -3.113 -34.845  1.00  0.00     0.041 C 
HETATM    6  C   UNL     1      -6.013  -4.600 -34.600  1.00  0.00     0.005 C 
HETATM    7  C   UNL     1      -4.506  -4.872 -34.579  1.00  0.00     0.005 C 
HETATM    8  C   UNL     1      -3.830  -4.103 -33.440  1.00  0.00     0.047 C 
HETATM    9  C   UNL     1      -5.581  -0.748 -33.839  1.00  0.00     0.073 C 
ENDROOT
BRANCH   1  10
HETATM   10  N   UNL     1      -4.076   0.976 -32.738  1.00  0.00    -0.319 N 
HETATM   11  C   UNL     1      -4.654   1.588 -31.649  1.00  0.00     0.248 C 
HETATM   12  O   UNL     1      -5.673   1.211 -31.068  1.00  0.00    -0.271 OA
HETATM   13  H   UNL     1      -3.678   1.538 -33.481  1.00  0.00     0.169 HD
BRANCH  11  14
HETATM   14  C   UNL     1      -3.959   2.868 -31.179  1.00  0.00     0.337 C 
BRANCH  14  15
HETATM   15  N   UNL     1      -3.879   3.874 -32.327  1.00  0.00    -0.062 N 
HETATM   16  C   UNL     1      -2.580   3.771 -33.107  1.00  0.00     0.249 C 
HETATM   17  C   UNL     1      -2.424   4.988 -34.011  1.00  0.00     0.111 C 
HETATM   18  C   UNL     1      -3.665   5.223 -34.882  1.00  0.00     0.018 C 
HETATM   19  C   UNL     1      -4.993   5.126 -34.125  1.00  0.00     0.029 C 
HETATM   20  C   UNL     1      -5.080   3.907 -33.215  1.00  0.00     0.235 C 
HETATM   21  H   UNL     1      -3.824   4.794 -31.832  1.00  0.00     0.280 HD
BRANCH  17  22
HETATM   22  C   UNL     1      -2.132   6.163 -33.107  1.00  0.00     0.264 C 
HETATM   23  O   UNL     1      -2.364   7.318 -33.445  1.00  0.00    -0.265 OA
BRANCH  22  24
HETATM   24  O   UNL     1      -1.720   5.754 -31.885  1.00  0.00    -0.322 OA
BRANCH  24  25
HETATM   25  C   UNL     1      -1.150   6.790 -31.072  1.00  0.00     0.174 C 
HETATM   26  C   UNL     1       0.360   6.699 -31.172  1.00  0.00     0.034 C 
ENDBRANCH  24  25
ENDBRANCH  22  24
ENDBRANCH  17  22
ENDBRANCH  14  15
ENDBRANCH  11  14
ENDBRANCH   1  10
BRANCH   9  27
HETATM   27  C   UNL     1      -6.702   0.149 -34.216  1.00  0.00     0.259 C 
HETATM   28  N   UNL     1      -7.664   0.333 -33.242  1.00  0.00    -0.323 N 
HETATM   29  H   UNL     1      -7.580  -0.237 -32.414  1.00  0.00     0.169 HD
HETATM   30  O   UNL     1      -6.732   0.675 -35.329  1.00  0.00    -0.267 OA
BRANCH  28  31
HETATM   31  C   UNL     1      -8.755   1.227 -33.255  1.00  0.00     0.035 A 
HETATM   32  C   UNL     1      -8.649   2.603 -33.034  1.00  0.00     0.031 A 
HETATM   33  C   UNL     1      -9.790   3.416 -33.049  1.00  0.00     0.026 A 
HETATM   34  C   UNL     1     -11.043   2.855 -33.271  1.00  0.00     0.034 A 
HETATM   35 CL   UNL     1     -12.439   3.857 -33.286  1.00  0.00    -0.084 Cl
HETATM   36  C   UNL     1     -11.167   1.487 -33.485  1.00  0.00     0.026 A 
HETATM   37  C   UNL     1     -10.026   0.677 -33.483  1.00  0.00     0.031 A 
ENDBRANCH  28  31
ENDBRANCH   9  27
TORSDOF 8
ENDMDL
MODEL 3
REMARK VINA RESULT:      -9.0      1.990      3.059
REMARK  8 active torsions:
REMARK  status: ('A' for Active; 'I' for Inactive)
REMARK    1  A    between atoms: C_2  and  O_3 
REMARK    2  A    between atoms: O_3  and  C_4 
REMARK    3  A    between atoms: C_4  and  C_5 
REMARK    4  A    between atoms: N_7  and  C_9 
REMARK    5  A    between atoms: C_9  and  C_10 
REMARK       I    between atoms: C_10  and  N_11 
REMARK    6  A    between atoms: N_11  and  C_12 
REMARK    7  A    between atoms: C_20  and  C_21 
REMARK       I    between atoms: C_21  and  N_22 
REMARK    8  A    between atoms: N_22  and  C_23 
ROOT
HETATM    1  C   UNL     1      -4.664  -0.437 -32.807  1.00  0.00     0.093 C 
HETATM    2  S   UNL     1      -3.569  -1.494 -32.067  1.00  0.00    -0.075 SA
HETATM    3  C   UNL     1      -4.044  -2.761 -33.089  1.00  0.00    -0.008 C 
HETATM    4  C   UNL     1      -5.125  -2.433 -33.895  1.00  0.00    -0.026 C 
HETATM    5  C   UNL     1      -5.726  -3.470 -34.812  1.00  0.00     0.041 C 
HETATM    6  C   UNL     1      -5.233  -4.896 -34.519  1.00  0.00     0.005 C 
HETATM    7  C   UNL     1      -3.725  -4.933 -34.258  1.00  0.00     0.005 C 
HETATM    8  C   UNL     1      -3.365  -4.096 -33.027  1.00  0.00     0.047 C 
HETATM    9  C   UNL     1      -5.534  -1.043 -33.704  1.00  0.00     0.073 C 
ENDROOT
BRANCH   1  10
HETATM   10  N   UNL     1      -4.510   0.867 -32.379  1.00  0.00    -0.319 N 
HETATM   11  C   UNL     1      -5.240   1.313 -31.302  1.00  0.00     0.248 C 
HETATM   12  O   UNL     1      -6.192   0.726 -30.784  1.00  0.00    -0.271 OA
HETATM   13  H   UNL     1      -4.195   1.524 -33.083  1.00  0.00     0.169 HD
BRANCH  11  14
HETATM   14  C   UNL     1      -4.823   2.681 -30.757  1.00  0.00     0.337 C 
BRANCH  14  15
HETATM   15  N   UNL     1      -5.423   3.793 -31.618  1.00  0.00    -0.062 N 
HETATM   16  C   UNL     1      -5.198   3.568 -33.103  1.00  0.00     0.249 C 
HETATM   17  C   UNL     1      -5.524   4.844 -33.871  1.00  0.00     0.111 C 
HETATM   18  C   UNL     1      -6.914   5.391 -33.519  1.00  0.00     0.018 C 
HETATM   19  C   UNL     1      -7.214   5.428 -32.017  1.00  0.00     0.029 C 
HETATM   20  C   UNL     1      -6.841   4.138 -31.297  1.00  0.00     0.235 C 
HETATM   21  H   UNL     1      -4.831   4.622 -31.378  1.00  0.00     0.280 HD
BRANCH  17  22
HETATM   22  C   UNL     1      -4.426   5.832 -33.554  1.00  0.00     0.264 C 
HETATM   23  O   UNL     1      -4.251   6.270 -32.423  1.00  0.00    -0.265 OA
BRANCH  22  24
HETATM   24  O   UNL     1      -3.631   6.045 -34.628  1.00  0.00    -0.322 OA
BRANCH  24  25
HETATM   25  C   UNL     1      -2.287   6.431 -34.305  1.00  0.00     0.174 C 
HETATM   26  C   UNL     1      -1.351   5.325 -34.751  1.00  0.00     0.034 C 
ENDBRANCH  24  25
ENDBRANCH  22  24
ENDBRANCH  17  22
ENDBRANCH  14  15
ENDBRANCH  11  14
ENDBRANCH   1  10
BRANCH   9  27
HETATM   27  C   UNL     1      -6.708  -0.321 -34.255  1.00  0.00     0.259 C 
HETATM   28  N   UNL     1      -7.691  -0.006 -33.338  1.00  0.00    -0.323 N 
HETATM   29  H   UNL     1      -7.579  -0.386 -32.410  1.00  0.00     0.169 HD
HETATM   30  O   UNL     1      -6.760  -0.040 -35.454  1.00  0.00    -0.267 OA
BRANCH  28  31
HETATM   31  C   UNL     1      -8.840   0.790 -33.533  1.00  0.00     0.035 A 
HETATM   32  C   UNL     1     -10.148   0.351 -33.318  1.00  0.00     0.031 A 
HETATM   33  C   UNL     1     -11.234   1.205 -33.553  1.00  0.00     0.026 A 
HETATM   34  C   UNL     1     -11.015   2.498 -34.016  1.00  0.00     0.034 A 
HETATM   35 CL   UNL     1     -12.350   3.541 -34.305  1.00  0.00    -0.084 Cl
HETATM   36  C   UNL     1      -9.720   2.949 -34.243  1.00  0.00     0.026 A 
HETATM   37  C   UNL     1      -8.635   2.099 -33.996  1.00  0.00     0.031 A 
ENDBRANCH  28  31
ENDBRANCH   9  27
TORSDOF 8
ENDMDL
MODEL 4
REMARK VINA RESULT:      -9.0      2.286      3.246
REMARK  8 active torsions:
REMARK  status: ('A' for Active; 'I' for Inactive)
REMARK    1  A    between atoms: C_2  and  O_3 
REMARK    2  A    between atoms: O_3  and  C_4 
REMARK    3  A    between atoms: C_4  and  C_5 
REMARK    4  A    between atoms: N_7  and  C_9 
REMARK    5  A    between atoms: C_9  and  C_10 
REMARK       I    between atoms: C_10  and  N_11 
REMARK    6  A    between atoms: N_11  and  C_12 
REMARK    7  A    between atoms: C_20  and  C_21 
REMARK       I    between atoms: C_21  and  N_22 
REMARK    8  A    between atoms: N_22  and  C_23 
ROOT
HETATM    1  C   UNL     1      -4.928  -0.343 -33.107  1.00  0.00     0.093 C 
HETATM    2  S   UNL     1      -3.834  -1.565 -32.694  1.00  0.00    -0.075 SA
HETATM    3  C   UNL     1      -4.669  -2.687 -33.653  1.00  0.00    -0.008 C 
HETATM    4  C   UNL     1      -5.852  -2.183 -34.174  1.00  0.00    -0.026 C 
HETATM    5  C   UNL     1      -6.758  -3.073 -34.990  1.00  0.00     0.041 C 
HETATM    6  C   UNL     1      -6.388  -4.562 -34.897  1.00  0.00     0.005 C 
HETATM    7  C   UNL     1      -4.875  -4.778 -34.986  1.00  0.00     0.005 C 
HETATM    8  C   UNL     1      -4.158  -4.087 -33.822  1.00  0.00     0.047 C 
HETATM    9  C   UNL     1      -6.039  -0.778 -33.818  1.00  0.00     0.073 C 
ENDROOT
BRANCH   1  10
HETATM   10  N   UNL     1      -4.530   0.898 -32.652  1.00  0.00    -0.319 N 
HETATM   11  C   UNL     1      -4.963   1.335 -31.421  1.00  0.00     0.248 C 
HETATM   12  O   UNL     1      -5.854   0.817 -30.745  1.00  0.00    -0.271 OA
HETATM   13  H   UNL     1      -4.287   1.571 -33.370  1.00  0.00     0.169 HD
BRANCH  11  14
HETATM   14  C   UNL     1      -4.277   2.602 -30.904  1.00  0.00     0.337 C 
BRANCH  14  15
HETATM   15  N   UNL     1      -4.690   3.806 -31.751  1.00  0.00    -0.062 N 
HETATM   16  C   UNL     1      -6.067   4.333 -31.387  1.00  0.00     0.249 C 
HETATM   17  C   UNL     1      -6.547   5.303 -32.459  1.00  0.00     0.111 C 
HETATM   18  C   UNL     1      -5.511   6.396 -32.755  1.00  0.00     0.018 C 
HETATM   19  C   UNL     1      -4.080   5.878 -32.923  1.00  0.00     0.029 C 
HETATM   20  C   UNL     1      -3.665   4.890 -31.840  1.00  0.00     0.235 C 
HETATM   21  H   UNL     1      -4.803   3.395 -32.707  1.00  0.00     0.280 HD
BRANCH  17  22
HETATM   22  C   UNL     1      -6.863   4.474 -33.683  1.00  0.00     0.264 C 
HETATM   23  O   UNL     1      -6.431   3.337 -33.828  1.00  0.00    -0.265 OA
BRANCH  22  24
HETATM   24  O   UNL     1      -7.755   5.101 -34.484  1.00  0.00    -0.322 OA
BRANCH  24  25
HETATM   25  C   UNL     1      -8.908   5.616 -33.802  1.00  0.00     0.174 C 
HETATM   26  C   UNL     1     -10.058   5.679 -34.787  1.00  0.00     0.034 C 
ENDBRANCH  24  25
ENDBRANCH  22  24
ENDBRANCH  17  22
ENDBRANCH  14  15
ENDBRANCH  11  14
ENDBRANCH   1  10
BRANCH   9  27
HETATM   27  C   UNL     1      -7.210   0.105 -34.049  1.00  0.00     0.259 C 
HETATM   28  N   UNL     1      -8.047   0.271 -32.963  1.00  0.00    -0.323 N 
HETATM   29  H   UNL     1      -7.854  -0.302 -32.155  1.00  0.00     0.169 HD
HETATM   30  O   UNL     1      -7.383   0.635 -35.147  1.00  0.00    -0.267 OA
BRANCH  28  31
HETATM   31  C   UNL     1      -9.143   1.151 -32.836  1.00  0.00     0.035 A 
HETATM   32  C   UNL     1     -10.287   1.105 -33.638  1.00  0.00     0.031 A 
HETATM   33  C   UNL     1     -11.323   2.029 -33.453  1.00  0.00     0.026 A 
HETATM   34  C   UNL     1     -11.214   3.011 -32.475  1.00  0.00     0.034 A 
HETATM   35 CL   UNL     1     -12.488   4.145 -32.254  1.00  0.00    -0.084 Cl
HETATM   36  C   UNL     1     -10.080   3.076 -31.673  1.00  0.00     0.026 A 
HETATM   37  C   UNL     1      -9.051   2.144 -31.850  1.00  0.00     0.031 A 
ENDBRANCH  28  31
ENDBRANCH   9  27
TORSDOF 8
ENDMDL
MODEL 5
REMARK VINA RESULT:      -8.9      1.718      2.236
REMARK  8 active torsions:
REMARK  status: ('A' for Active; 'I' for Inactive)
REMARK    1  A    between atoms: C_2  and  O_3 
REMARK    2  A    between atoms: O_3  and  C_4 
REMARK    3  A    between atoms: C_4  and  C_5 
REMARK    4  A    between atoms: N_7  and  C_9 
REMARK    5  A    between atoms: C_9  and  C_10 
REMARK       I    between atoms: C_10  and  N_11 
REMARK    6  A    between atoms: N_11  and  C_12 
REMARK    7  A    between atoms: C_20  and  C_21 
REMARK       I    between atoms: C_21  and  N_22 
REMARK    8  A    between atoms: N_22  and  C_23 
ROOT
HETATM    1  C   UNL     1      -5.396   0.555 -32.744  1.00  0.00     0.093 C 
HETATM    2  S   UNL     1      -4.043  -0.410 -33.057  1.00  0.00    -0.075 SA
HETATM    3  C   UNL     1      -5.004  -1.572 -33.831  1.00  0.00    -0.008 C 
HETATM    4  C   UNL     1      -6.362  -1.307 -33.732  1.00  0.00    -0.026 C 
HETATM    5  C   UNL     1      -7.366  -2.281 -34.300  1.00  0.00     0.041 C 
HETATM    6  C   UNL     1      -6.748  -3.637 -34.676  1.00  0.00     0.005 C 
HETATM    7  C   UNL     1      -5.402  -3.470 -35.389  1.00  0.00     0.005 C 
HETATM    8  C   UNL     1      -4.386  -2.776 -34.477  1.00  0.00     0.047 C 
HETATM    9  C   UNL     1      -6.614  -0.043 -33.042  1.00  0.00     0.073 C 
ENDROOT
BRANCH   1  10
HETATM   10  N   UNL     1      -5.056   1.790 -32.227  1.00  0.00    -0.319 N 
HETATM   11  C   UNL     1      -4.916   1.935 -30.866  1.00  0.00     0.248 C 
HETATM   12  O   UNL     1      -5.266   1.116 -30.014  1.00  0.00    -0.271 OA
HETATM   13  H   UNL     1      -5.312   2.588 -32.797  1.00  0.00     0.169 HD
BRANCH  11  14
HETATM   14  C   UNL     1      -4.304   3.263 -30.415  1.00  0.00     0.337 C 
BRANCH  14  15
HETATM   15  N   UNL     1      -3.779   4.036 -31.625  1.00  0.00    -0.062 N 
HETATM   16  C   UNL     1      -4.472   5.375 -31.809  1.00  0.00     0.249 C 
HETATM   17  C   UNL     1      -4.142   5.940 -33.186  1.00  0.00     0.111 C 
HETATM   18  C   UNL     1      -2.631   5.971 -33.451  1.00  0.00     0.018 C 
HETATM   19  C   UNL     1      -1.899   4.679 -33.072  1.00  0.00     0.029 C 
HETATM   20  C   UNL     1      -2.290   4.146 -31.699  1.00  0.00     0.235 C 
HETATM   21  H   UNL     1      -4.097   3.454 -32.434  1.00  0.00     0.280 HD
BRANCH  17  22
HETATM   22  C   UNL     1      -4.879   5.086 -34.191  1.00  0.00     0.264 C 
HETATM   23  O   UNL     1      -4.563   5.055 -35.375  1.00  0.00    -0.265 OA
BRANCH  22  24
HETATM   24  O   UNL     1      -5.806   4.307 -33.589  1.00  0.00    -0.322 OA
BRANCH  24  25
HETATM   25  C   UNL     1      -7.157   4.563 -34.002  1.00  0.00     0.174 C 
HETATM   26  C   UNL     1      -7.807   5.466 -32.974  1.00  0.00     0.034 C 
ENDBRANCH  24  25
ENDBRANCH  22  24
ENDBRANCH  17  22
ENDBRANCH  14  15
ENDBRANCH  11  14
ENDBRANCH   1  10
BRANCH   9  27
HETATM   27  C   UNL     1      -7.901   0.554 -32.608  1.00  0.00     0.259 C 
HETATM   28  N   UNL     1      -8.740   0.954 -33.629  1.00  0.00    -0.323 N 
HETATM   29  H   UNL     1      -8.364   0.908 -34.564  1.00  0.00     0.169 HD
HETATM   30  O   UNL     1      -8.164   0.664 -31.410  1.00  0.00    -0.267 OA
BRANCH  28  31
HETATM   31  C   UNL     1     -10.070   1.417 -33.532  1.00  0.00     0.035 A 
HETATM   32  C   UNL     1     -10.425   2.741 -33.265  1.00  0.00     0.031 A 
HETATM   33  C   UNL     1     -11.773   3.112 -33.170  1.00  0.00     0.026 A 
HETATM   34  C   UNL     1     -12.771   2.156 -33.327  1.00  0.00     0.034 A 
HETATM   35 CL   UNL     1     -14.423   2.615 -33.206  1.00  0.00    -0.084 Cl
HETATM   36  C   UNL     1     -12.435   0.831 -33.585  1.00  0.00     0.026 A 
HETATM   37  C   UNL     1     -11.088   0.465 -33.693  1.00  0.00     0.031 A 
ENDBRANCH  28  31
ENDBRANCH   9  27
TORSDOF 8
ENDMDL
MODEL 6
REMARK VINA RESULT:      -8.9      3.088      8.033
REMARK  8 active torsions:
REMARK  status: ('A' for Active; 'I' for Inactive)
REMARK    1  A    between atoms: C_2  and  O_3 
REMARK    2  A    between atoms: O_3  and  C_4 
REMARK    3  A    between atoms: C_4  and  C_5 
REMARK    4  A    between atoms: N_7  and  C_9 
REMARK    5  A    between atoms: C_9  and  C_10 
REMARK       I    between atoms: C_10  and  N_11 
REMARK    6  A    between atoms: N_11  and  C_12 
REMARK    7  A    between atoms: C_20  and  C_21 
REMARK       I    between atoms: C_21  and  N_22 
REMARK    8  A    between atoms: N_22  and  C_23 
ROOT
HETATM    1  C   UNL     1      -5.965   3.509 -31.110  1.00  0.00     0.093 C 
HETATM    2  S   UNL     1      -5.226   4.606 -30.055  1.00  0.00    -0.075 SA
HETATM    3  C   UNL     1      -3.966   4.873 -31.157  1.00  0.00    -0.008 C 
HETATM    4  C   UNL     1      -4.021   4.034 -32.261  1.00  0.00    -0.026 C 
HETATM    5  C   UNL     1      -2.932   4.085 -33.305  1.00  0.00     0.041 C 
HETATM    6  C   UNL     1      -1.699   4.886 -32.856  1.00  0.00     0.005 C 
HETATM    7  C   UNL     1      -2.094   6.182 -32.143  1.00  0.00     0.005 C 
HETATM    8  C   UNL     1      -2.894   5.883 -30.871  1.00  0.00     0.047 C 
HETATM    9  C   UNL     1      -5.205   3.177 -32.224  1.00  0.00     0.073 C 
ENDROOT
BRANCH   1  10
HETATM   10  N   UNL     1      -7.215   3.117 -30.673  1.00  0.00    -0.319 N 
HETATM   11  C   UNL     1      -8.303   3.918 -30.938  1.00  0.00     0.248 C 
HETATM   12  O   UNL     1      -8.260   5.076 -31.357  1.00  0.00    -0.271 OA
HETATM   13  H   UNL     1      -7.224   2.502 -29.868  1.00  0.00     0.169 HD
BRANCH  11  14
HETATM   14  C   UNL     1      -9.663   3.286 -30.634  1.00  0.00     0.337 C 
BRANCH  14  15
HETATM   15  N   UNL     1     -10.128   2.443 -31.822  1.00  0.00    -0.062 N 
HETATM   16  C   UNL     1     -10.225   3.247 -33.107  1.00  0.00     0.249 C 
HETATM   17  C   UNL     1     -10.988   2.448 -34.157  1.00  0.00     0.111 C 
HETATM   18  C   UNL     1     -10.415   1.037 -34.338  1.00  0.00     0.018 C 
HETATM   19  C   UNL     1     -10.128   0.301 -33.026  1.00  0.00     0.029 C 
HETATM   20  C   UNL     1      -9.390   1.157 -32.004  1.00  0.00     0.235 C 
HETATM   21  H   UNL     1     -11.117   2.211 -31.574  1.00  0.00     0.280 HD
BRANCH  17  22
HETATM   22  C   UNL     1     -12.433   2.423 -33.716  1.00  0.00     0.264 C 
HETATM   23  O   UNL     1     -12.811   2.982 -32.693  1.00  0.00    -0.265 OA
BRANCH  22  24
HETATM   24  O   UNL     1     -13.221   1.832 -34.644  1.00  0.00    -0.322 OA
BRANCH  24  25
HETATM   25  C   UNL     1     -14.307   1.068 -34.100  1.00  0.00     0.174 C 
HETATM   26  C   UNL     1     -13.768  -0.275 -33.648  1.00  0.00     0.034 C 
ENDBRANCH  24  25
ENDBRANCH  22  24
ENDBRANCH  17  22
ENDBRANCH  14  15
ENDBRANCH  11  14
ENDBRANCH   1  10
BRANCH   9  27
HETATM   27  C   UNL     1      -5.585   2.056 -33.119  1.00  0.00     0.259 C 
HETATM   28  N   UNL     1      -5.032   0.832 -32.801  1.00  0.00    -0.323 N 
HETATM   29  H   UNL     1      -4.340   0.829 -32.066  1.00  0.00     0.169 HD
HETATM   30  O   UNL     1      -6.348   2.248 -34.067  1.00  0.00    -0.267 OA
BRANCH  28  31
HETATM   31  C   UNL     1      -5.316  -0.427 -33.372  1.00  0.00     0.035 A 
HETATM   32  C   UNL     1      -4.345  -1.354 -33.757  1.00  0.00     0.031 A 
HETATM   33  C   UNL     1      -4.716  -2.576 -34.333  1.00  0.00     0.026 A 
HETATM   34  C   UNL     1      -6.060  -2.870 -34.539  1.00  0.00     0.034 A 
HETATM   35 CL   UNL     1      -6.510  -4.369 -35.248  1.00  0.00    -0.084 Cl
HETATM   36  C   UNL     1      -7.039  -1.955 -34.168  1.00  0.00     0.026 A 
HETATM   37  C   UNL     1      -6.668  -0.740 -33.581  1.00  0.00     0.031 A 
ENDBRANCH  28  31
ENDBRANCH   9  27
TORSDOF 8
ENDMDL
MODEL 7
REMARK VINA RESULT:      -8.8      1.628      2.879
REMARK  8 active torsions:
REMARK  status: ('A' for Active; 'I' for Inactive)
REMARK    1  A    between atoms: C_2  and  O_3 
REMARK    2  A    between atoms: O_3  and  C_4 
REMARK    3  A    between atoms: C_4  and  C_5 
REMARK    4  A    between atoms: N_7  and  C_9 
REMARK    5  A    between atoms: C_9  and  C_10 
REMARK       I    between atoms: C_10  and  N_11 
REMARK    6  A    between atoms: N_11  and  C_12 
REMARK    7  A    between atoms: C_20  and  C_21 
REMARK       I    between atoms: C_21  and  N_22 
REMARK    8  A    between atoms: N_22  and  C_23 
ROOT
HETATM    1  C   UNL     1      -5.374   0.497 -32.788  1.00  0.00     0.093 C 
HETATM    2  S   UNL     1      -4.020  -0.451 -33.146  1.00  0.00    -0.075 SA
HETATM    3  C   UNL     1      -4.993  -1.637 -33.866  1.00  0.00    -0.008 C 
HETATM    4  C   UNL     1      -6.351  -1.390 -33.716  1.00  0.00    -0.026 C 
HETATM    5  C   UNL     1      -7.361  -2.386 -34.232  1.00  0.00     0.041 C 
HETATM    6  C   UNL     1      -6.738  -3.737 -34.618  1.00  0.00     0.005 C 
HETATM    7  C   UNL     1      -5.426  -3.558 -35.386  1.00  0.00     0.005 C 
HETATM    8  C   UNL     1      -4.384  -2.839 -34.524  1.00  0.00     0.047 C 
HETATM    9  C   UNL     1      -6.593  -0.123 -33.030  1.00  0.00     0.073 C 
ENDROOT
BRANCH   1  10
HETATM   10  N   UNL     1      -5.033   1.743 -32.300  1.00  0.00    -0.319 N 
HETATM   11  C   UNL     1      -5.452   2.868 -32.972  1.00  0.00     0.248 C 
HETATM   12  O   UNL     1      -5.940   2.891 -34.104  1.00  0.00    -0.271 OA
HETATM   13  H   UNL     1      -4.193   1.776 -31.733  1.00  0.00     0.169 HD
BRANCH  11  14
HETATM   14  C   UNL     1      -5.236   4.187 -32.228  1.00  0.00     0.337 C 
BRANCH  14  15
HETATM   15  N   UNL     1      -3.922   4.831 -32.670  1.00  0.00    -0.062 N 
HETATM   16  C   UNL     1      -2.705   4.027 -32.248  1.00  0.00     0.249 C 
HETATM   17  C   UNL     1      -1.446   4.866 -32.429  1.00  0.00     0.111 C 
HETATM   18  C   UNL     1      -1.347   5.465 -33.838  1.00  0.00     0.018 C 
HETATM   19  C   UNL     1      -2.646   6.101 -34.343  1.00  0.00     0.029 C 
HETATM   20  C   UNL     1      -3.874   5.231 -34.109  1.00  0.00     0.235 C 
HETATM   21  H   UNL     1      -3.881   5.704 -32.095  1.00  0.00     0.280 HD
BRANCH  17  22
HETATM   22  C   UNL     1      -1.479   5.932 -31.359  1.00  0.00     0.264 C 
HETATM   23  O   UNL     1      -2.457   6.103 -30.640  1.00  0.00    -0.265 OA
BRANCH  22  24
HETATM   24  O   UNL     1      -0.280   6.548 -31.239  1.00  0.00    -0.322 OA
BRANCH  24  25
HETATM   25  C   UNL     1       0.424   6.247 -30.025  1.00  0.00     0.174 C 
HETATM   26  C   UNL     1       0.474   7.504 -29.179  1.00  0.00     0.034 C 
ENDBRANCH  24  25
ENDBRANCH  22  24
ENDBRANCH  17  22
ENDBRANCH  14  15
ENDBRANCH  11  14
ENDBRANCH   1  10
BRANCH   9  27
HETATM   27  C   UNL     1      -7.871   0.460 -32.550  1.00  0.00     0.259 C 
HETATM   28  N   UNL     1      -8.620   1.111 -33.510  1.00  0.00    -0.323 N 
HETATM   29  H   UNL     1      -8.188   1.228 -34.415  1.00  0.00     0.169 HD
HETATM   30  O   UNL     1      -8.203   0.346 -31.369  1.00  0.00    -0.267 OA
BRANCH  28  31
HETATM   31  C   UNL     1      -9.926   1.632 -33.389  1.00  0.00     0.035 A 
HETATM   32  C   UNL     1     -11.087   0.939 -33.740  1.00  0.00     0.031 A 
HETATM   33  C   UNL     1     -12.345   1.541 -33.602  1.00  0.00     0.026 A 
HETATM   34  C   UNL     1     -12.445   2.843 -33.125  1.00  0.00     0.034 A 
HETATM   35 CL   UNL     1     -13.990   3.578 -32.960  1.00  0.00    -0.084 Cl
HETATM   36  C   UNL     1     -11.299   3.551 -32.778  1.00  0.00     0.026 A 
HETATM   37  C   UNL     1     -10.044   2.944 -32.904  1.00  0.00     0.031 A 
ENDBRANCH  28  31
ENDBRANCH   9  27
TORSDOF 8
ENDMDL
MODEL 8
REMARK VINA RESULT:      -8.6      3.316      7.858
REMARK  8 active torsions:
REMARK  status: ('A' for Active; 'I' for Inactive)
REMARK    1  A    between atoms: C_2  and  O_3 
REMARK    2  A    between atoms: O_3  and  C_4 
REMARK    3  A    between atoms: C_4  and  C_5 
REMARK    4  A    between atoms: N_7  and  C_9 
REMARK    5  A    between atoms: C_9  and  C_10 
REMARK       I    between atoms: C_10  and  N_11 
REMARK    6  A    between atoms: N_11  and  C_12 
REMARK    7  A    between atoms: C_20  and  C_21 
REMARK       I    between atoms: C_21  and  N_22 
REMARK    8  A    between atoms: N_22  and  C_23 
ROOT
HETATM    1  C   UNL     1      -7.287   0.374 -32.793  1.00  0.00     0.093 C 
HETATM    2  S   UNL     1      -8.104  -0.663 -33.852  1.00  0.00    -0.075 SA
HETATM    3  C   UNL     1      -6.736  -1.653 -33.998  1.00  0.00    -0.008 C 
HETATM    4  C   UNL     1      -5.617  -1.132 -33.364  1.00  0.00    -0.026 C 
HETATM    5  C   UNL     1      -4.292  -1.848 -33.458  1.00  0.00     0.041 C 
HETATM    6  C   UNL     1      -4.277  -2.955 -34.525  1.00  0.00     0.005 C 
HETATM    7  C   UNL     1      -5.562  -3.789 -34.496  1.00  0.00     0.005 C 
HETATM    8  C   UNL     1      -6.783  -2.916 -34.804  1.00  0.00     0.047 C 
HETATM    9  C   UNL     1      -5.928   0.114 -32.665  1.00  0.00     0.073 C 
ENDROOT
BRANCH   1  10
HETATM   10  N   UNL     1      -8.120   1.322 -32.234  1.00  0.00    -0.319 N 
HETATM   11  C   UNL     1      -8.256   2.545 -32.851  1.00  0.00     0.248 C 
HETATM   12  O   UNL     1      -7.546   2.977 -33.761  1.00  0.00    -0.271 OA
HETATM   13  H   UNL     1      -8.269   1.241 -31.236  1.00  0.00     0.169 HD
BRANCH  11  14
HETATM   14  C   UNL     1      -9.377   3.429 -32.298  1.00  0.00     0.337 C 
BRANCH  14  15
HETATM   15  N   UNL     1     -10.408   3.713 -33.391  1.00  0.00    -0.062 N 
HETATM   16  C   UNL     1     -11.838   3.595 -32.891  1.00  0.00     0.249 C 
HETATM   17  C   UNL     1     -12.796   3.569 -34.076  1.00  0.00     0.111 C 
HETATM   18  C   UNL     1     -12.559   4.742 -35.037  1.00  0.00     0.018 C 
HETATM   19  C   UNL     1     -11.087   4.985 -35.382  1.00  0.00     0.029 C 
HETATM   20  C   UNL     1     -10.172   4.970 -34.163  1.00  0.00     0.235 C 
HETATM   21  H   UNL     1     -10.285   2.908 -34.048  1.00  0.00     0.280 HD
BRANCH  17  22
HETATM   22  C   UNL     1     -12.611   2.231 -34.753  1.00  0.00     0.264 C 
HETATM   23  O   UNL     1     -12.711   2.097 -35.967  1.00  0.00    -0.265 OA
BRANCH  22  24
HETATM   24  O   UNL     1     -12.210   1.286 -33.873  1.00  0.00    -0.322 OA
BRANCH  24  25
HETATM   25  C   UNL     1     -13.024   0.104 -33.859  1.00  0.00     0.174 C 
HETATM   26  C   UNL     1     -14.445   0.506 -33.519  1.00  0.00     0.034 C 
ENDBRANCH  24  25
ENDBRANCH  22  24
ENDBRANCH  17  22
ENDBRANCH  14  15
ENDBRANCH  11  14
ENDBRANCH   1  10
BRANCH   9  27
HETATM   27  C   UNL     1      -5.017   1.062 -31.978  1.00  0.00     0.259 C 
HETATM   28  N   UNL     1      -4.759   2.234 -32.661  1.00  0.00    -0.323 N 
HETATM   29  H   UNL     1      -5.118   2.293 -33.603  1.00  0.00     0.169 HD
HETATM   30  O   UNL     1      -4.547   0.785 -30.873  1.00  0.00    -0.267 OA
BRANCH  28  31
HETATM   31  C   UNL     1      -4.057   3.370 -32.206  1.00  0.00     0.035 A 
HETATM   32  C   UNL     1      -4.586   4.328 -31.337  1.00  0.00     0.031 A 
HETATM   33  C   UNL     1      -3.822   5.436 -30.949  1.00  0.00     0.026 A 
HETATM   34  C   UNL     1      -2.531   5.598 -31.439  1.00  0.00     0.034 A 
HETATM   35 CL   UNL     1      -1.599   6.961 -30.962  1.00  0.00    -0.084 Cl
HETATM   36  C   UNL     1      -1.991   4.659 -32.311  1.00  0.00     0.026 A 
HETATM   37  C   UNL     1      -2.750   3.545 -32.688  1.00  0.00     0.031 A 
ENDBRANCH  28  31
ENDBRANCH   9  27
TORSDOF 8
ENDMDL
MODEL 9
REMARK VINA RESULT:      -8.5      3.117      5.965
REMARK  8 active torsions:
REMARK  status: ('A' for Active; 'I' for Inactive)
REMARK    1  A    between atoms: C_2  and  O_3 
REMARK    2  A    between atoms: O_3  and  C_4 
REMARK    3  A    between atoms: C_4  and  C_5 
REMARK    4  A    between atoms: N_7  and  C_9 
REMARK    5  A    between atoms: C_9  and  C_10 
REMARK       I    between atoms: C_10  and  N_11 
REMARK    6  A    between atoms: N_11  and  C_12 
REMARK    7  A    between atoms: C_20  and  C_21 
REMARK       I    between atoms: C_21  and  N_22 
REMARK    8  A    between atoms: N_22  and  C_23 
ROOT
HETATM    1  C   UNL     1      -6.750   3.605 -33.862  1.00  0.00     0.093 C 
HETATM    2  S   UNL     1      -7.696   4.979 -33.581  1.00  0.00    -0.075 SA
HETATM    3  C   UNL     1      -9.086   4.029 -33.385  1.00  0.00    -0.008 C 
HETATM    4  C   UNL     1      -8.871   2.688 -33.668  1.00  0.00    -0.026 C 
HETATM    5  C   UNL     1     -10.021   1.711 -33.618  1.00  0.00     0.041 C 
HETATM    6  C   UNL     1     -11.395   2.397 -33.538  1.00  0.00     0.005 C 
HETATM    7  C   UNL     1     -11.386   3.572 -32.556  1.00  0.00     0.005 C 
HETATM    8  C   UNL     1     -10.397   4.651 -33.008  1.00  0.00     0.047 C 
HETATM    9  C   UNL     1      -7.472   2.426 -33.997  1.00  0.00     0.073 C 
ENDROOT
BRANCH   1  10
HETATM   10  N   UNL     1      -5.401   3.894 -33.919  1.00  0.00    -0.319 N 
HETATM   11  C   UNL     1      -4.594   3.554 -32.858  1.00  0.00     0.248 C 
HETATM   12  O   UNL     1      -4.981   3.192 -31.746  1.00  0.00    -0.271 OA
HETATM   13  H   UNL     1      -5.145   4.667 -34.522  1.00  0.00     0.169 HD
BRANCH  11  14
HETATM   14  C   UNL     1      -3.092   3.691 -33.116  1.00  0.00     0.337 C 
BRANCH  14  15
HETATM   15  N   UNL     1      -2.596   5.051 -32.624  1.00  0.00    -0.062 N 
HETATM   16  C   UNL     1      -1.340   5.512 -33.343  1.00  0.00     0.249 C 
HETATM   17  C   UNL     1      -0.725   6.692 -32.600  1.00  0.00     0.111 C 
HETATM   18  C   UNL     1      -1.747   7.806 -32.339  1.00  0.00     0.018 C 
HETATM   19  C   UNL     1      -3.093   7.313 -31.799  1.00  0.00     0.029 C 
HETATM   20  C   UNL     1      -3.644   6.114 -32.561  1.00  0.00     0.235 C 
HETATM   21  H   UNL     1      -2.287   4.850 -31.644  1.00  0.00     0.280 HD
BRANCH  17  22
HETATM   22  C   UNL     1      -0.144   6.140 -31.319  1.00  0.00     0.264 C 
HETATM   23  O   UNL     1      -0.043   4.936 -31.115  1.00  0.00    -0.265 OA
BRANCH  22  24
HETATM   24  O   UNL     1       0.339   7.130 -30.532  1.00  0.00    -0.322 OA
BRANCH  24  25
HETATM   25  C   UNL     1       0.081   6.953 -29.131  1.00  0.00     0.174 C 
HETATM   26  C   UNL     1       0.977   7.901 -28.358  1.00  0.00     0.034 C 
ENDBRANCH  24  25
ENDBRANCH  22  24
ENDBRANCH  17  22
ENDBRANCH  14  15
ENDBRANCH  11  14
ENDBRANCH   1  10
BRANCH   9  27
HETATM   27  C   UNL     1      -6.836   1.177 -34.485  1.00  0.00     0.259 C 
HETATM   28  N   UNL     1      -6.113   0.475 -33.540  1.00  0.00    -0.323 N 
HETATM   29  H   UNL     1      -5.989   0.923 -32.645  1.00  0.00     0.169 HD
HETATM   30  O   UNL     1      -6.971   0.825 -35.658  1.00  0.00    -0.267 OA
BRANCH  28  31
HETATM   31  C   UNL     1      -5.524  -0.801 -33.667  1.00  0.00     0.035 A 
HETATM   32  C   UNL     1      -6.014  -1.817 -34.492  1.00  0.00     0.031 A 
HETATM   33  C   UNL     1      -5.375  -3.062 -34.545  1.00  0.00     0.026 A 
HETATM   34  C   UNL     1      -4.250  -3.302 -33.763  1.00  0.00     0.034 A 
HETATM   35 CL   UNL     1      -3.471  -4.832 -33.829  1.00  0.00    -0.084 Cl
HETATM   36  C   UNL     1      -3.753  -2.305 -32.930  1.00  0.00     0.026 A 
HETATM   37  C   UNL     1      -4.385  -1.057 -32.888  1.00  0.00     0.031 A 
ENDBRANCH  28  31
ENDBRANCH   9  27
TORSDOF 8
ENDMDL
MODEL 10
REMARK VINA RESULT:      -8.5      3.066      5.836
REMARK  8 active torsions:
REMARK  status: ('A' for Active; 'I' for Inactive)
REMARK    1  A    between atoms: C_2  and  O_3 
REMARK    2  A    between atoms: O_3  and  C_4 
REMARK    3  A    between atoms: C_4  and  C_5 
REMARK    4  A    between atoms: N_7  and  C_9 
REMARK    5  A    between atoms: C_9  and  C_10 
REMARK       I    between atoms: C_10  and  N_11 
REMARK    6  A    between atoms: N_11  and  C_12 
REMARK    7  A    between atoms: C_20  and  C_21 
REMARK       I    between atoms: C_21  and  N_22 
REMARK    8  A    between atoms: N_22  and  C_23 
ROOT
HETATM    1  C   UNL     1      -6.701   3.467 -33.738  1.00  0.00     0.093 C 
HETATM    2  S   UNL     1      -7.606   4.873 -33.480  1.00  0.00    -0.075 SA
HETATM    3  C   UNL     1      -9.056   3.999 -33.557  1.00  0.00    -0.008 C 
HETATM    4  C   UNL     1      -8.872   2.671 -33.916  1.00  0.00    -0.026 C 
HETATM    5  C   UNL     1     -10.065   1.767 -34.106  1.00  0.00     0.041 C 
HETATM    6  C   UNL     1     -11.400   2.528 -34.162  1.00  0.00     0.005 C 
HETATM    7  C   UNL     1     -11.472   3.625 -33.096  1.00  0.00     0.005 C 
HETATM    8  C   UNL     1     -10.374   4.671 -33.316  1.00  0.00     0.047 C 
HETATM    9  C   UNL     1      -7.455   2.348 -34.067  1.00  0.00     0.073 C 
ENDROOT
BRANCH   1  10
HETATM   10  N   UNL     1      -5.345   3.676 -33.583  1.00  0.00    -0.319 N 
HETATM   11  C   UNL     1      -4.711   3.184 -32.465  1.00  0.00     0.248 C 
HETATM   12  O   UNL     1      -5.266   2.741 -31.458  1.00  0.00    -0.271 OA
HETATM   13  H   UNL     1      -4.969   4.486 -34.062  1.00  0.00     0.169 HD
BRANCH  11  14
HETATM   14  C   UNL     1      -3.182   3.251 -32.503  1.00  0.00     0.337 C 
BRANCH  14  15
HETATM   15  N   UNL     1      -2.727   4.685 -32.778  1.00  0.00    -0.062 N 
HETATM   16  C   UNL     1      -2.103   5.344 -31.559  1.00  0.00     0.249 C 
HETATM   17  C   UNL     1      -1.970   6.843 -31.797  1.00  0.00     0.111 C 
HETATM   18  C   UNL     1      -1.256   7.158 -33.118  1.00  0.00     0.018 C 
HETATM   19  C   UNL     1      -1.755   6.340 -34.313  1.00  0.00     0.029 C 
HETATM   20  C   UNL     1      -1.897   4.853 -34.009  1.00  0.00     0.235 C 
HETATM   21  H   UNL     1      -3.628   5.195 -32.928  1.00  0.00     0.280 HD
BRANCH  17  22
HETATM   22  C   UNL     1      -3.369   7.413 -31.756  1.00  0.00     0.264 C 
HETATM   23  O   UNL     1      -4.359   6.701 -31.643  1.00  0.00    -0.265 OA
BRANCH  22  24
HETATM   24  O   UNL     1      -3.348   8.766 -31.732  1.00  0.00    -0.322 OA
BRANCH  24  25
HETATM   25  C   UNL     1      -3.644   9.343 -30.452  1.00  0.00     0.174 C 
HETATM   26  C   UNL     1      -2.395  10.030 -29.937  1.00  0.00     0.034 C 
ENDBRANCH  24  25
ENDBRANCH  22  24
ENDBRANCH  17  22
ENDBRANCH  14  15
ENDBRANCH  11  14
ENDBRANCH   1  10
BRANCH   9  27
HETATM   27  C   UNL     1      -6.819   1.101 -34.562  1.00  0.00     0.259 C 
HETATM   28  N   UNL     1      -6.122   0.378 -33.615  1.00  0.00    -0.323 N 
HETATM   29  H   UNL     1      -6.013   0.810 -32.710  1.00  0.00     0.169 HD
HETATM   30  O   UNL     1      -6.934   0.769 -35.743  1.00  0.00    -0.267 OA
BRANCH  28  31
HETATM   31  C   UNL     1      -5.542  -0.902 -33.750  1.00  0.00     0.035 A 
HETATM   32  C   UNL     1      -6.052  -1.916 -34.564  1.00  0.00     0.031 A 
HETATM   33  C   UNL     1      -5.420  -3.165 -34.626  1.00  0.00     0.026 A 
HETATM   34  C   UNL     1      -4.282  -3.408 -33.865  1.00  0.00     0.034 A 
HETATM   35 CL   UNL     1      -3.512  -4.942 -33.943  1.00  0.00    -0.084 Cl
HETATM   36  C   UNL     1      -3.764  -2.412 -33.044  1.00  0.00     0.026 A 
HETATM   37  C   UNL     1      -4.389  -1.161 -32.992  1.00  0.00     0.031 A 
ENDBRANCH  28  31
ENDBRANCH   9  27
TORSDOF 8
ENDMDL
