MODEL 1
REMARK VINA RESULT:      -9.3      0.000      0.000
REMARK  5 active torsions:
REMARK  status: ('A' for Active; 'I' for Inactive)
REMARK    1  A    between atoms: O_2  and  C_3 
REMARK    2  A    between atoms: C_4  and  C_5 
REMARK    3  A    between atoms: C_17  and  N_18 
REMARK       I    between atoms: N_18  and  C_19 
REMARK       I    between atoms: C_19  and  N_20 
REMARK    4  A    between atoms: N_20  and  C_21 
REMARK    5  A    between atoms: C_21  and  C_22 
ROOT
HETATM    1  C   UNL     1      -6.431   0.008 -32.860  1.00  0.00    -0.022 A 
HETATM    2  C   UNL     1      -5.982   1.308 -33.156  1.00  0.00     0.031 A 
HETATM    3  C   UNL     1      -6.551   2.465 -32.572  1.00  0.00     0.059 A 
HETATM    4  C   UNL     1      -7.616   2.315 -31.684  1.00  0.00     0.050 A 
HETATM    5  N   UNL     1      -8.280   3.357 -31.034  1.00  0.00    -0.324 N 
HETATM    6  C   UNL     1      -7.781   4.561 -30.633  1.00  0.00     0.245 C 
HETATM    7  O   UNL     1      -8.542   5.303 -30.006  1.00  0.00    -0.271 OA
HETATM    8  C   UNL     1      -6.281   4.852 -30.838  1.00  0.00     0.181 C 
HETATM    9  N   UNL     1      -5.985   4.912 -32.279  1.00  0.00    -0.334 N 
HETATM   10  C   UNL     1      -6.031   3.761 -33.082  1.00  0.00     0.256 C 
HETATM   11  O   UNL     1      -5.581   3.769 -34.231  1.00  0.00    -0.267 OA
HETATM   12  C   UNL     1      -5.939   6.120 -30.035  1.00  0.00     0.060 C 
HETATM   13  C   UNL     1      -4.669   6.815 -30.499  1.00  0.00     0.090 C 
HETATM   14  C   UNL     1      -4.859   7.175 -31.963  1.00  0.00     0.045 C 
HETATM   15  C   UNL     1      -5.083   5.938 -32.813  1.00  0.00     0.129 C 
HETATM   16  C   UNL     1      -8.106   1.030 -31.417  1.00  0.00     0.031 A 
HETATM   17  C   UNL     1      -7.506  -0.105 -31.973  1.00  0.00     0.014 A 
HETATM   18  H   UNL     1      -9.202   3.180 -30.648  1.00  0.00     0.169 HD
ENDROOT
BRANCH   1  19
HETATM   19  C   UNL     1      -5.779  -1.185 -33.460  1.00  0.00     0.009 A 
HETATM   20  C   UNL     1      -4.389  -1.447 -33.354  1.00  0.00     0.079 A 
HETATM   21  C   UNL     1      -3.841  -2.590 -33.958  1.00  0.00     0.039 A 
HETATM   22  C   UNL     1      -4.652  -3.487 -34.654  1.00  0.00     0.026 A 
HETATM   23  C   UNL     1      -6.014  -3.246 -34.755  1.00  0.00     0.035 A 
HETATM   24  C   UNL     1      -6.573  -2.110 -34.172  1.00  0.00     0.039 A 
HETATM   25 CL   UNL     1      -7.020  -4.355 -35.604  1.00  0.00    -0.084 Cl
BRANCH  20  26
HETATM   26  O   UNL     1      -3.645  -0.546 -32.632  1.00  0.00    -0.355 OA
HETATM   27  C   UNL     1      -2.597  -1.046 -31.813  1.00  0.00     0.210 C 
ENDBRANCH  20  26
ENDBRANCH   1  19
BRANCH  13  28
HETATM   28  N   UNL     1      -3.472   6.019 -30.263  1.00  0.00    -0.338 N 
HETATM   29  C   UNL     1      -2.225   6.591 -30.314  1.00  0.00     0.316 C 
HETATM   30  N   UNL     1      -1.261   5.707 -29.909  1.00  0.00    -0.340 N 
HETATM   31  O   UNL     1      -2.010   7.747 -30.649  1.00  0.00    -0.247 OA
HETATM   32  H   UNL     1      -1.453   4.740 -30.123  1.00  0.00     0.164 HD
HETATM   33  H   UNL     1      -3.541   5.235 -29.629  1.00  0.00     0.164 HD
BRANCH  30  34
HETATM   34  C   UNL     1       0.127   6.096 -29.954  1.00  0.00     0.150 C 
BRANCH  34  35
HETATM   35  C   UNL     1       0.480   6.633 -28.604  1.00  0.00    -0.018 C 
HETATM   36  C   UNL     1       0.878   7.889 -28.359  1.00  0.00     0.008 C 
ENDBRANCH  34  35
ENDBRANCH  30  34
ENDBRANCH  13  28
TORSDOF 5
ENDMDL
MODEL 2
REMARK VINA RESULT:      -9.3      2.817      5.042
REMARK  5 active torsions:
REMARK  status: ('A' for Active; 'I' for Inactive)
REMARK    1  A    between atoms: O_2  and  C_3 
REMARK    2  A    between atoms: C_4  and  C_5 
REMARK    3  A    between atoms: C_17  and  N_18 
REMARK       I    between atoms: N_18  and  C_19 
REMARK       I    between atoms: C_19  and  N_20 
REMARK    4  A    between atoms: N_20  and  C_21 
REMARK    5  A    between atoms: C_21  and  C_22 
ROOT
HETATM    1  C   UNL     1      -5.575   3.133 -33.187  1.00  0.00    -0.022 A 
HETATM    2  C   UNL     1      -4.457   3.385 -32.371  1.00  0.00     0.031 A 
HETATM    3  C   UNL     1      -3.541   4.432 -32.630  1.00  0.00     0.059 A 
HETATM    4  C   UNL     1      -3.739   5.236 -33.752  1.00  0.00     0.050 A 
HETATM    5  N   UNL     1      -2.923   6.300 -34.139  1.00  0.00    -0.324 N 
HETATM    6  C   UNL     1      -2.193   7.139 -33.350  1.00  0.00     0.245 C 
HETATM    7  O   UNL     1      -1.598   8.063 -33.912  1.00  0.00    -0.271 OA
HETATM    8  C   UNL     1      -2.281   6.988 -31.818  1.00  0.00     0.181 C 
HETATM    9  N   UNL     1      -1.711   5.690 -31.419  1.00  0.00    -0.334 N 
HETATM   10  C   UNL     1      -2.357   4.482 -31.733  1.00  0.00     0.256 C 
HETATM   11  O   UNL     1      -1.997   3.418 -31.221  1.00  0.00    -0.267 OA
HETATM   12  C   UNL     1      -1.619   8.227 -31.189  1.00  0.00     0.060 C 
HETATM   13  C   UNL     1      -1.185   8.023 -29.747  1.00  0.00     0.090 C 
HETATM   14  C   UNL     1      -0.210   6.859 -29.727  1.00  0.00     0.045 C 
HETATM   15  C   UNL     1      -0.858   5.583 -30.231  1.00  0.00     0.129 C 
HETATM   16  C   UNL     1      -4.821   4.967 -34.601  1.00  0.00     0.031 A 
HETATM   17  C   UNL     1      -5.738   3.952 -34.308  1.00  0.00     0.014 A 
HETATM   18  H   UNL     1      -2.975   6.630 -35.097  1.00  0.00     0.169 HD
ENDROOT
BRANCH   1  19
HETATM   19  C   UNL     1      -6.539   2.052 -32.858  1.00  0.00     0.009 A 
HETATM   20  C   UNL     1      -7.591   2.207 -31.919  1.00  0.00     0.079 A 
HETATM   21  C   UNL     1      -8.457   1.135 -31.649  1.00  0.00     0.039 A 
HETATM   22  C   UNL     1      -8.306  -0.086 -32.308  1.00  0.00     0.026 A 
HETATM   23  C   UNL     1      -7.287  -0.246 -33.235  1.00  0.00     0.035 A 
HETATM   24  C   UNL     1      -6.411   0.804 -33.506  1.00  0.00     0.039 A 
HETATM   25 CL   UNL     1      -7.104  -1.747 -34.057  1.00  0.00    -0.084 Cl
BRANCH  20  26
HETATM   26  O   UNL     1      -7.709   3.439 -31.324  1.00  0.00    -0.355 OA
HETATM   27  C   UNL     1      -7.558   3.521 -29.914  1.00  0.00     0.210 C 
ENDBRANCH  20  26
ENDBRANCH   1  19
BRANCH  13  28
HETATM   28  N   UNL     1      -2.311   7.833 -28.841  1.00  0.00    -0.338 N 
HETATM   29  C   UNL     1      -2.532   8.702 -27.801  1.00  0.00     0.316 C 
HETATM   30  N   UNL     1      -3.722   8.434 -27.179  1.00  0.00    -0.340 N 
HETATM   31  O   UNL     1      -1.778   9.614 -27.493  1.00  0.00    -0.247 OA
HETATM   32  H   UNL     1      -3.989   7.461 -27.174  1.00  0.00     0.164 HD
HETATM   33  H   UNL     1      -3.151   7.409 -29.210  1.00  0.00     0.164 HD
BRANCH  30  34
HETATM   34  C   UNL     1      -4.106   9.195 -26.016  1.00  0.00     0.150 C 
BRANCH  34  35
HETATM   35  C   UNL     1      -3.819   8.348 -24.818  1.00  0.00    -0.018 C 
HETATM   36  C   UNL     1      -2.821   8.562 -23.950  1.00  0.00     0.008 C 
ENDBRANCH  34  35
ENDBRANCH  30  34
ENDBRANCH  13  28
TORSDOF 5
ENDMDL
MODEL 3
REMARK VINA RESULT:      -8.8      3.713      8.411
REMARK  5 active torsions:
REMARK  status: ('A' for Active; 'I' for Inactive)
REMARK    1  A    between atoms: O_2  and  C_3 
REMARK    2  A    between atoms: C_4  and  C_5 
REMARK    3  A    between atoms: C_17  and  N_18 
REMARK       I    between atoms: N_18  and  C_19 
REMARK       I    between atoms: C_19  and  N_20 
REMARK    4  A    between atoms: N_20  and  C_21 
REMARK    5  A    between atoms: C_21  and  C_22 
ROOT
HETATM    1  C   UNL     1      -3.704   5.674 -31.658  1.00  0.00    -0.022 A 
HETATM    2  C   UNL     1      -4.399   4.523 -31.243  1.00  0.00     0.031 A 
HETATM    3  C   UNL     1      -5.709   4.219 -31.685  1.00  0.00     0.059 A 
HETATM    4  C   UNL     1      -6.349   5.106 -32.549  1.00  0.00     0.050 A 
HETATM    5  N   UNL     1      -7.637   4.946 -33.065  1.00  0.00    -0.324 N 
HETATM    6  C   UNL     1      -8.296   3.788 -33.353  1.00  0.00     0.245 C 
HETATM    7  O   UNL     1      -9.409   3.891 -33.875  1.00  0.00    -0.271 OA
HETATM    8  C   UNL     1      -7.561   2.445 -33.167  1.00  0.00     0.181 C 
HETATM    9  N   UNL     1      -7.276   2.235 -31.738  1.00  0.00    -0.334 N 
HETATM   10  C   UNL     1      -6.333   3.024 -31.058  1.00  0.00     0.256 C 
HETATM   11  O   UNL     1      -5.941   2.715 -29.930  1.00  0.00    -0.267 OA
HETATM   12  C   UNL     1      -8.410   1.353 -33.844  1.00  0.00     0.060 C 
HETATM   13  C   UNL     1      -8.105  -0.052 -33.350  1.00  0.00     0.090 C 
HETATM   14  C   UNL     1      -8.354  -0.069 -31.852  1.00  0.00     0.045 C 
HETATM   15  C   UNL     1      -7.451   0.913 -31.129  1.00  0.00     0.129 C 
HETATM   16  C   UNL     1      -5.689   6.281 -32.933  1.00  0.00     0.031 A 
HETATM   17  C   UNL     1      -4.380   6.546 -32.518  1.00  0.00     0.014 A 
HETATM   18  H   UNL     1      -8.116   5.759 -33.438  1.00  0.00     0.169 HD
ENDROOT
BRANCH   1  19
HETATM   19  C   UNL     1      -2.313   5.936 -31.208  1.00  0.00     0.009 A 
HETATM   20  C   UNL     1      -1.168   5.507 -31.927  1.00  0.00     0.079 A 
HETATM   21  C   UNL     1       0.117   5.780 -31.433  1.00  0.00     0.039 A 
HETATM   22  C   UNL     1       0.287   6.488 -30.242  1.00  0.00     0.026 A 
HETATM   23  C   UNL     1      -0.825   6.921 -29.536  1.00  0.00     0.035 A 
HETATM   24  C   UNL     1      -2.108   6.647 -30.005  1.00  0.00     0.039 A 
HETATM   25 CL   UNL     1      -0.620   7.802 -28.072  1.00  0.00    -0.084 Cl
BRANCH  20  26
HETATM   26  O   UNL     1      -1.396   4.842 -33.108  1.00  0.00    -0.355 OA
HETATM   27  C   UNL     1      -1.254   5.565 -34.323  1.00  0.00     0.210 C 
ENDBRANCH  20  26
ENDBRANCH   1  19
BRANCH  13  28
HETATM   28  N   UNL     1      -6.764  -0.496 -33.706  1.00  0.00    -0.338 N 
HETATM   29  C   UNL     1      -6.530  -1.796 -34.085  1.00  0.00     0.316 C 
HETATM   30  N   UNL     1      -5.244  -1.957 -34.526  1.00  0.00    -0.340 N 
HETATM   31  O   UNL     1      -7.371  -2.683 -34.059  1.00  0.00    -0.247 OA
HETATM   32  H   UNL     1      -4.563  -1.364 -34.076  1.00  0.00     0.164 HD
HETATM   33  H   UNL     1      -6.137   0.174 -34.128  1.00  0.00     0.164 HD
BRANCH  30  34
HETATM   34  C   UNL     1      -4.780  -3.268 -34.906  1.00  0.00     0.150 C 
BRANCH  34  35
HETATM   35  C   UNL     1      -3.858  -3.740 -33.829  1.00  0.00    -0.018 C 
HETATM   36  C   UNL     1      -3.720  -5.016 -33.443  1.00  0.00     0.008 C 
ENDBRANCH  34  35
ENDBRANCH  30  34
ENDBRANCH  13  28
TORSDOF 5
ENDMDL
MODEL 4
REMARK VINA RESULT:      -8.7      1.677      2.120
REMARK  5 active torsions:
REMARK  status: ('A' for Active; 'I' for Inactive)
REMARK    1  A    between atoms: O_2  and  C_3 
REMARK    2  A    between atoms: C_4  and  C_5 
REMARK    3  A    between atoms: C_17  and  N_18 
REMARK       I    between atoms: N_18  and  C_19 
REMARK       I    between atoms: C_19  and  N_20 
REMARK    4  A    between atoms: N_20  and  C_21 
REMARK    5  A    between atoms: C_21  and  C_22 
ROOT
HETATM    1  C   UNL     1      -6.322   0.777 -32.155  1.00  0.00    -0.022 A 
HETATM    2  C   UNL     1      -5.762   2.035 -32.445  1.00  0.00     0.031 A 
HETATM    3  C   UNL     1      -6.249   3.237 -31.879  1.00  0.00     0.059 A 
HETATM    4  C   UNL     1      -7.342   3.180 -31.016  1.00  0.00     0.050 A 
HETATM    5  N   UNL     1      -7.935   4.276 -30.387  1.00  0.00    -0.324 N 
HETATM    6  C   UNL     1      -7.350   5.437 -29.978  1.00  0.00     0.245 C 
HETATM    7  O   UNL     1      -8.062   6.242 -29.373  1.00  0.00    -0.271 OA
HETATM    8  C   UNL     1      -5.826   5.605 -30.148  1.00  0.00     0.181 C 
HETATM    9  N   UNL     1      -5.492   5.632 -31.583  1.00  0.00    -0.334 N 
HETATM   10  C   UNL     1      -5.613   4.484 -32.382  1.00  0.00     0.256 C 
HETATM   11  O   UNL     1      -5.137   4.448 -33.520  1.00  0.00    -0.267 OA
HETATM   12  C   UNL     1      -5.401   6.846 -29.342  1.00  0.00     0.060 C 
HETATM   13  C   UNL     1      -4.069   7.433 -29.779  1.00  0.00     0.090 C 
HETATM   14  C   UNL     1      -4.195   7.798 -31.248  1.00  0.00     0.045 C 
HETATM   15  C   UNL     1      -4.498   6.579 -32.099  1.00  0.00     0.129 C 
HETATM   16  C   UNL     1      -7.942   1.940 -30.756  1.00  0.00     0.031 A 
HETATM   17  C   UNL     1      -7.423   0.757 -31.294  1.00  0.00     0.014 A 
HETATM   18  H   UNL     1      -8.877   4.177 -30.022  1.00  0.00     0.169 HD
ENDROOT
BRANCH   1  19
HETATM   19  C   UNL     1      -5.755  -0.468 -32.734  1.00  0.00     0.009 A 
HETATM   20  C   UNL     1      -6.282  -1.098 -33.890  1.00  0.00     0.079 A 
HETATM   21  C   UNL     1      -5.702  -2.282 -34.374  1.00  0.00     0.039 A 
HETATM   22  C   UNL     1      -4.594  -2.844 -33.737  1.00  0.00     0.026 A 
HETATM   23  C   UNL     1      -4.064  -2.230 -32.612  1.00  0.00     0.035 A 
HETATM   24  C   UNL     1      -4.636  -1.062 -32.111  1.00  0.00     0.039 A 
HETATM   25 CL   UNL     1      -2.692  -2.915 -31.829  1.00  0.00    -0.084 Cl
BRANCH  20  26
HETATM   26  O   UNL     1      -7.353  -0.484 -34.493  1.00  0.00    -0.355 OA
HETATM   27  C   UNL     1      -7.097   0.406 -35.571  1.00  0.00     0.210 C 
ENDBRANCH  20  26
ENDBRANCH   1  19
BRANCH  13  28
HETATM   28  N   UNL     1      -2.947   6.543 -29.511  1.00  0.00    -0.338 N 
HETATM   29  C   UNL     1      -1.668   7.034 -29.410  1.00  0.00     0.316 C 
HETATM   30  N   UNL     1      -0.797   6.060 -29.000  1.00  0.00    -0.340 N 
HETATM   31  O   UNL     1      -1.357   8.196 -29.627  1.00  0.00    -0.247 OA
HETATM   32  H   UNL     1      -1.026   5.127 -29.311  1.00  0.00     0.164 HD
HETATM   33  H   UNL     1      -3.117   5.718 -28.953  1.00  0.00     0.164 HD
BRANCH  30  34
HETATM   34  C   UNL     1       0.609   6.359 -28.897  1.00  0.00     0.150 C 
BRANCH  34  35
HETATM   35  C   UNL     1       0.849   6.886 -27.519  1.00  0.00    -0.018 C 
HETATM   36  C   UNL     1       1.425   8.063 -27.238  1.00  0.00     0.008 C 
ENDBRANCH  34  35
ENDBRANCH  30  34
ENDBRANCH  13  28
TORSDOF 5
ENDMDL
MODEL 5
REMARK VINA RESULT:      -8.6      3.228      8.432
REMARK  5 active torsions:
REMARK  status: ('A' for Active; 'I' for Inactive)
REMARK    1  A    between atoms: O_2  and  C_3 
REMARK    2  A    between atoms: C_4  and  C_5 
REMARK    3  A    between atoms: C_17  and  N_18 
REMARK       I    between atoms: N_18  and  C_19 
REMARK       I    between atoms: C_19  and  N_20 
REMARK    4  A    between atoms: N_20  and  C_21 
REMARK    5  A    between atoms: C_21  and  C_22 
ROOT
HETATM    1  C   UNL     1      -3.505   5.851 -31.218  1.00  0.00    -0.022 A 
HETATM    2  C   UNL     1      -4.325   4.756 -30.891  1.00  0.00     0.031 A 
HETATM    3  C   UNL     1      -5.557   4.502 -31.541  1.00  0.00     0.059 A 
HETATM    4  C   UNL     1      -5.989   5.384 -32.530  1.00  0.00     0.050 A 
HETATM    5  N   UNL     1      -7.178   5.269 -33.253  1.00  0.00    -0.324 N 
HETATM    6  C   UNL     1      -7.845   4.136 -33.613  1.00  0.00     0.245 C 
HETATM    7  O   UNL     1      -8.846   4.274 -34.321  1.00  0.00    -0.271 OA
HETATM    8  C   UNL     1      -7.230   2.765 -33.262  1.00  0.00     0.181 C 
HETATM    9  N   UNL     1      -7.204   2.600 -31.798  1.00  0.00    -0.334 N 
HETATM   10  C   UNL     1      -6.346   3.367 -30.993  1.00  0.00     0.256 C 
HETATM   11  O   UNL     1      -6.169   3.085 -29.805  1.00  0.00    -0.267 OA
HETATM   12  C   UNL     1      -8.014   1.691 -34.039  1.00  0.00     0.060 C 
HETATM   13  C   UNL     1      -7.879   0.294 -33.455  1.00  0.00     0.090 C 
HETATM   14  C   UNL     1      -8.378   0.351 -32.022  1.00  0.00     0.045 C 
HETATM   15  C   UNL     1      -7.556   1.315 -31.186  1.00  0.00     0.129 C 
HETATM   16  C   UNL     1      -5.207   6.507 -32.832  1.00  0.00     0.031 A 
HETATM   17  C   UNL     1      -3.974   6.721 -32.207  1.00  0.00     0.014 A 
HETATM   18  H   UNL     1      -7.539   6.089 -33.728  1.00  0.00     0.169 HD
ENDROOT
BRANCH   1  19
HETATM   19  C   UNL     1      -2.198   6.060 -30.544  1.00  0.00     0.009 A 
HETATM   20  C   UNL     1      -2.015   6.959 -29.462  1.00  0.00     0.079 A 
HETATM   21  C   UNL     1      -0.745   7.114 -28.883  1.00  0.00     0.039 A 
HETATM   22  C   UNL     1       0.346   6.379 -29.350  1.00  0.00     0.026 A 
HETATM   23  C   UNL     1       0.176   5.490 -30.400  1.00  0.00     0.035 A 
HETATM   24  C   UNL     1      -1.074   5.333 -30.996  1.00  0.00     0.039 A 
HETATM   25 CL   UNL     1       1.517   4.574 -30.973  1.00  0.00    -0.084 Cl
BRANCH  20  26
HETATM   26  O   UNL     1      -3.130   7.632 -29.025  1.00  0.00    -0.355 OA
HETATM   27  C   UNL     1      -3.475   7.536 -27.650  1.00  0.00     0.210 C 
ENDBRANCH  20  26
ENDBRANCH   1  19
BRANCH  13  28
HETATM   28  N   UNL     1      -6.524  -0.233 -33.562  1.00  0.00    -0.338 N 
HETATM   29  C   UNL     1      -6.298  -1.498 -34.047  1.00  0.00     0.316 C 
HETATM   30  N   UNL     1      -4.958  -1.730 -34.211  1.00  0.00    -0.340 N 
HETATM   31  O   UNL     1      -7.179  -2.298 -34.324  1.00  0.00    -0.247 OA
HETATM   32  H   UNL     1      -4.361  -1.258 -33.548  1.00  0.00     0.164 HD
HETATM   33  H   UNL     1      -5.774   0.419 -33.744  1.00  0.00     0.164 HD
BRANCH  30  34
HETATM   34  C   UNL     1      -4.508  -3.028 -34.649  1.00  0.00     0.150 C 
BRANCH  34  35
HETATM   35  C   UNL     1      -3.830  -3.676 -33.485  1.00  0.00    -0.018 C 
HETATM   36  C   UNL     1      -3.544  -4.982 -33.395  1.00  0.00     0.008 C 
ENDBRANCH  34  35
ENDBRANCH  30  34
ENDBRANCH  13  28
TORSDOF 5
ENDMDL
MODEL 6
REMARK VINA RESULT:      -8.6      3.414      5.319
REMARK  5 active torsions:
REMARK  status: ('A' for Active; 'I' for Inactive)
REMARK    1  A    between atoms: O_2  and  C_3 
REMARK    2  A    between atoms: C_4  and  C_5 
REMARK    3  A    between atoms: C_17  and  N_18 
REMARK       I    between atoms: N_18  and  C_19 
REMARK       I    between atoms: C_19  and  N_20 
REMARK    4  A    between atoms: N_20  and  C_21 
REMARK    5  A    between atoms: C_21  and  C_22 
ROOT
HETATM    1  C   UNL     1      -5.935   3.382 -33.030  1.00  0.00    -0.022 A 
HETATM    2  C   UNL     1      -4.741   3.439 -32.288  1.00  0.00     0.031 A 
HETATM    3  C   UNL     1      -3.659   4.280 -32.641  1.00  0.00     0.059 A 
HETATM    4  C   UNL     1      -3.769   5.071 -33.784  1.00  0.00     0.050 A 
HETATM    5  N   UNL     1      -2.789   5.945 -34.261  1.00  0.00    -0.324 N 
HETATM    6  C   UNL     1      -1.865   6.651 -33.549  1.00  0.00     0.245 C 
HETATM    7  O   UNL     1      -1.141   7.425 -34.182  1.00  0.00    -0.271 OA
HETATM    8  C   UNL     1      -1.887   6.569 -32.009  1.00  0.00     0.181 C 
HETATM    9  N   UNL     1      -1.552   5.199 -31.586  1.00  0.00    -0.334 N 
HETATM   10  C   UNL     1      -2.434   4.129 -31.812  1.00  0.00     0.256 C 
HETATM   11  O   UNL     1      -2.254   3.033 -31.275  1.00  0.00    -0.267 OA
HETATM   12  C   UNL     1      -0.963   7.677 -31.471  1.00  0.00     0.060 C 
HETATM   13  C   UNL     1      -0.489   7.439 -30.047  1.00  0.00     0.090 C 
HETATM   14  C   UNL     1       0.246   6.109 -30.030  1.00  0.00     0.045 C 
HETATM   15  C   UNL     1      -0.664   4.968 -30.442  1.00  0.00     0.129 C 
HETATM   16  C   UNL     1      -4.932   4.990 -34.561  1.00  0.00     0.031 A 
HETATM   17  C   UNL     1      -6.006   4.181 -34.176  1.00  0.00     0.014 A 
HETATM   18  H   UNL     1      -2.837   6.248 -35.228  1.00  0.00     0.169 HD
ENDROOT
BRANCH   1  19
HETATM   19  C   UNL     1      -7.065   2.519 -32.603  1.00  0.00     0.009 A 
HETATM   20  C   UNL     1      -7.211   1.168 -33.012  1.00  0.00     0.079 A 
HETATM   21  C   UNL     1      -8.313   0.416 -32.578  1.00  0.00     0.039 A 
HETATM   22  C   UNL     1      -9.269   0.977 -31.730  1.00  0.00     0.026 A 
HETATM   23  C   UNL     1      -9.132   2.294 -31.315  1.00  0.00     0.035 A 
HETATM   24  C   UNL     1      -8.050   3.059 -31.747  1.00  0.00     0.039 A 
HETATM   25 CL   UNL     1     -10.303   2.987 -30.261  1.00  0.00    -0.084 Cl
BRANCH  20  26
HETATM   26  O   UNL     1      -6.224   0.660 -33.822  1.00  0.00    -0.355 OA
HETATM   27  C   UNL     1      -6.614  -0.052 -34.988  1.00  0.00     0.210 C 
ENDBRANCH  20  26
ENDBRANCH   1  19
BRANCH  13  28
HETATM   28  N   UNL     1      -1.572   7.499 -29.075  1.00  0.00    -0.338 N 
HETATM   29  C   UNL     1      -1.835   8.657 -28.384  1.00  0.00     0.316 C 
HETATM   30  N   UNL     1      -2.983   8.542 -27.647  1.00  0.00    -0.340 N 
HETATM   31  O   UNL     1      -1.148   9.667 -28.445  1.00  0.00    -0.247 OA
HETATM   32  H   UNL     1      -3.172   7.615 -27.297  1.00  0.00     0.164 HD
HETATM   33  H   UNL     1      -2.385   6.920 -29.232  1.00  0.00     0.164 HD
BRANCH  30  34
HETATM   34  C   UNL     1      -3.396   9.631 -26.797  1.00  0.00     0.150 C 
BRANCH  34  35
HETATM   35  C   UNL     1      -3.063   9.245 -25.392  1.00  0.00    -0.018 C 
HETATM   36  C   UNL     1      -2.961   7.985 -24.947  1.00  0.00     0.008 C 
ENDBRANCH  34  35
ENDBRANCH  30  34
ENDBRANCH  13  28
TORSDOF 5
ENDMDL
MODEL 7
REMARK VINA RESULT:      -8.6      2.523      2.812
REMARK  5 active torsions:
REMARK  status: ('A' for Active; 'I' for Inactive)
REMARK    1  A    between atoms: O_2  and  C_3 
REMARK    2  A    between atoms: C_4  and  C_5 
REMARK    3  A    between atoms: C_17  and  N_18 
REMARK       I    between atoms: N_18  and  C_19 
REMARK       I    between atoms: C_19  and  N_20 
REMARK    4  A    between atoms: N_20  and  C_21 
REMARK    5  A    between atoms: C_21  and  C_22 
ROOT
HETATM    1  C   UNL     1      -7.470  -0.064 -33.260  1.00  0.00    -0.022 A 
HETATM    2  C   UNL     1      -7.228   1.318 -33.366  1.00  0.00     0.031 A 
HETATM    3  C   UNL     1      -8.173   2.293 -32.966  1.00  0.00     0.059 A 
HETATM    4  C   UNL     1      -9.404   1.871 -32.467  1.00  0.00     0.050 A 
HETATM    5  N   UNL     1     -10.434   2.710 -32.038  1.00  0.00    -0.324 N 
HETATM    6  C   UNL     1     -10.340   3.947 -31.471  1.00  0.00     0.245 C 
HETATM    7  O   UNL     1     -11.391   4.477 -31.101  1.00  0.00    -0.271 OA
HETATM    8  C   UNL     1      -8.942   4.529 -31.181  1.00  0.00     0.181 C 
HETATM    9  N   UNL     1      -8.236   4.769 -32.451  1.00  0.00    -0.334 N 
HETATM   10  C   UNL     1      -7.797   3.703 -33.254  1.00  0.00     0.256 C 
HETATM   11  O   UNL     1      -7.028   3.895 -34.200  1.00  0.00    -0.267 OA
HETATM   12  C   UNL     1      -9.130   5.764 -30.281  1.00  0.00     0.060 C 
HETATM   13  C   UNL     1      -7.949   6.721 -30.301  1.00  0.00     0.090 C 
HETATM   14  C   UNL     1      -7.750   7.165 -31.740  1.00  0.00     0.045 C 
HETATM   15  C   UNL     1      -7.444   5.987 -32.646  1.00  0.00     0.129 C 
HETATM   16  C   UNL     1      -9.679   0.498 -32.400  1.00  0.00     0.031 A 
HETATM   17  C   UNL     1      -8.719  -0.451 -32.764  1.00  0.00     0.014 A 
HETATM   18  H   UNL     1     -11.373   2.332 -31.970  1.00  0.00     0.169 HD
ENDROOT
BRANCH   1  19
HETATM   19  C   UNL     1      -6.437  -1.057 -33.648  1.00  0.00     0.009 A 
HETATM   20  C   UNL     1      -5.060  -0.907 -33.343  1.00  0.00     0.079 A 
HETATM   21  C   UNL     1      -4.137  -1.882 -33.754  1.00  0.00     0.039 A 
HETATM   22  C   UNL     1      -4.560  -3.014 -34.452  1.00  0.00     0.026 A 
HETATM   23  C   UNL     1      -5.906  -3.176 -34.748  1.00  0.00     0.035 A 
HETATM   24  C   UNL     1      -6.833  -2.212 -34.358  1.00  0.00     0.039 A 
HETATM   25 CL   UNL     1      -6.433  -4.575 -35.600  1.00  0.00    -0.084 Cl
BRANCH  20  26
HETATM   26  O   UNL     1      -4.705   0.211 -32.628  1.00  0.00    -0.355 OA
HETATM   27  C   UNL     1      -4.289   0.041 -31.280  1.00  0.00     0.210 C 
ENDBRANCH  20  26
ENDBRANCH   1  19
BRANCH  13  28
HETATM   28  N   UNL     1      -6.746   6.144 -29.715  1.00  0.00    -0.338 N 
HETATM   29  C   UNL     1      -6.410   6.396 -28.407  1.00  0.00     0.316 C 
HETATM   30  N   UNL     1      -5.340   5.635 -28.018  1.00  0.00    -0.340 N 
HETATM   31  O   UNL     1      -7.009   7.176 -27.679  1.00  0.00    -0.247 OA
HETATM   32  H   UNL     1      -4.674   5.433 -28.748  1.00  0.00     0.164 HD
HETATM   33  H   UNL     1      -6.437   5.244 -30.054  1.00  0.00     0.164 HD
BRANCH  30  34
HETATM   34  C   UNL     1      -4.790   5.802 -26.696  1.00  0.00     0.150 C 
BRANCH  34  35
HETATM   35  C   UNL     1      -3.689   6.808 -26.799  1.00  0.00    -0.018 C 
HETATM   36  C   UNL     1      -2.533   6.750 -26.124  1.00  0.00     0.008 C 
ENDBRANCH  34  35
ENDBRANCH  30  34
ENDBRANCH  13  28
TORSDOF 5
ENDMDL
MODEL 8
REMARK VINA RESULT:      -8.5      3.152      5.795
REMARK  5 active torsions:
REMARK  status: ('A' for Active; 'I' for Inactive)
REMARK    1  A    between atoms: O_2  and  C_3 
REMARK    2  A    between atoms: C_4  and  C_5 
REMARK    3  A    between atoms: C_17  and  N_18 
REMARK       I    between atoms: N_18  and  C_19 
REMARK       I    between atoms: C_19  and  N_20 
REMARK    4  A    between atoms: N_20  and  C_21 
REMARK    5  A    between atoms: C_21  and  C_22 
ROOT
HETATM    1  C   UNL     1      -4.922   0.059 -32.732  1.00  0.00    -0.022 A 
HETATM    2  C   UNL     1      -5.949   0.849 -32.186  1.00  0.00     0.031 A 
HETATM    3  C   UNL     1      -5.705   2.090 -31.551  1.00  0.00     0.059 A 
HETATM    4  C   UNL     1      -4.391   2.541 -31.440  1.00  0.00     0.050 A 
HETATM    5  N   UNL     1      -3.994   3.737 -30.839  1.00  0.00    -0.324 N 
HETATM    6  C   UNL     1      -4.675   4.916 -30.767  1.00  0.00     0.245 C 
HETATM    7  O   UNL     1      -4.091   5.871 -30.246  1.00  0.00    -0.271 OA
HETATM    8  C   UNL     1      -6.042   5.033 -31.471  1.00  0.00     0.181 C 
HETATM    9  N   UNL     1      -7.008   4.131 -30.820  1.00  0.00    -0.334 N 
HETATM   10  C   UNL     1      -6.893   2.736 -30.931  1.00  0.00     0.256 C 
HETATM   11  O   UNL     1      -7.809   1.992 -30.571  1.00  0.00    -0.267 OA
HETATM   12  C   UNL     1      -6.430   6.522 -31.490  1.00  0.00     0.060 C 
HETATM   13  C   UNL     1      -7.917   6.764 -31.690  1.00  0.00     0.090 C 
HETATM   14  C   UNL     1      -8.647   6.062 -30.558  1.00  0.00     0.045 C 
HETATM   15  C   UNL     1      -8.386   4.568 -30.573  1.00  0.00     0.129 C 
HETATM   16  C   UNL     1      -3.351   1.743 -31.937  1.00  0.00     0.031 A 
HETATM   17  C   UNL     1      -3.615   0.538 -32.595  1.00  0.00     0.014 A 
HETATM   18  H   UNL     1      -3.026   3.840 -30.553  1.00  0.00     0.169 HD
ENDROOT
BRANCH   1  19
HETATM   19  C   UNL     1      -5.222  -1.217 -33.431  1.00  0.00     0.009 A 
HETATM   20  C   UNL     1      -6.429  -1.452 -34.136  1.00  0.00     0.079 A 
HETATM   21  C   UNL     1      -6.649  -2.690 -34.762  1.00  0.00     0.039 A 
HETATM   22  C   UNL     1      -5.682  -3.695 -34.713  1.00  0.00     0.026 A 
HETATM   23  C   UNL     1      -4.493  -3.472 -34.034  1.00  0.00     0.035 A 
HETATM   24  C   UNL     1      -4.264  -2.254 -33.397  1.00  0.00     0.039 A 
HETATM   25 CL   UNL     1      -3.294  -4.706 -33.979  1.00  0.00    -0.084 Cl
BRANCH  20  26
HETATM   26  O   UNL     1      -7.331  -0.417 -34.177  1.00  0.00    -0.355 OA
HETATM   27  C   UNL     1      -7.508   0.270 -35.408  1.00  0.00     0.210 C 
ENDBRANCH  20  26
ENDBRANCH   1  19
BRANCH  13  28
HETATM   28  N   UNL     1      -8.383   6.350 -33.007  1.00  0.00    -0.338 N 
HETATM   29  C   UNL     1      -9.511   6.905 -33.562  1.00  0.00     0.316 C 
HETATM   30  N   UNL     1      -9.677   6.492 -34.857  1.00  0.00    -0.340 N 
HETATM   31  O   UNL     1     -10.250   7.687 -32.983  1.00  0.00    -0.247 OA
HETATM   32  H   UNL     1      -9.347   5.559 -35.052  1.00  0.00     0.164 HD
HETATM   33  H   UNL     1      -7.694   6.054 -33.684  1.00  0.00     0.164 HD
BRANCH  30  34
HETATM   34  C   UNL     1     -10.842   6.912 -35.594  1.00  0.00     0.150 C 
BRANCH  34  35
HETATM   35  C   UNL     1     -10.388   7.917 -36.604  1.00  0.00    -0.018 C 
HETATM   36  C   UNL     1     -11.197   8.745 -37.278  1.00  0.00     0.008 C 
ENDBRANCH  34  35
ENDBRANCH  30  34
ENDBRANCH  13  28
TORSDOF 5
ENDMDL
MODEL 9
REMARK VINA RESULT:      -8.2      3.763      8.634
REMARK  5 active torsions:
REMARK  status: ('A' for Active; 'I' for Inactive)
REMARK    1  A    between atoms: O_2  and  C_3 
REMARK    2  A    between atoms: C_4  and  C_5 
REMARK    3  A    between atoms: C_17  and  N_18 
REMARK       I    between atoms: N_18  and  C_19 
REMARK       I    between atoms: C_19  and  N_20 
REMARK    4  A    between atoms: N_20  and  C_21 
REMARK    5  A    between atoms: C_21  and  C_22 
ROOT
HETATM    1  C   UNL     1      -2.458   6.968 -30.322  1.00  0.00    -0.022 A 
HETATM    2  C   UNL     1      -3.525   6.136 -29.935  1.00  0.00     0.031 A 
HETATM    3  C   UNL     1      -4.576   5.780 -30.812  1.00  0.00     0.059 A 
HETATM    4  C   UNL     1      -4.571   6.292 -32.109  1.00  0.00     0.050 A 
HETATM    5  N   UNL     1      -5.537   6.036 -33.084  1.00  0.00    -0.324 N 
HETATM    6  C   UNL     1      -6.290   4.913 -33.257  1.00  0.00     0.245 C 
HETATM    7  O   UNL     1      -7.035   4.882 -34.240  1.00  0.00    -0.271 OA
HETATM    8  C   UNL     1      -6.053   3.706 -32.326  1.00  0.00     0.181 C 
HETATM    9  N   UNL     1      -6.430   4.066 -30.949  1.00  0.00    -0.334 N 
HETATM   10  C   UNL     1      -5.677   4.987 -30.203  1.00  0.00     0.256 C 
HETATM   11  O   UNL     1      -5.863   5.128 -28.992  1.00  0.00    -0.267 OA
HETATM   12  C   UNL     1      -6.800   2.501 -32.928  1.00  0.00     0.060 C 
HETATM   13  C   UNL     1      -7.082   1.394 -31.925  1.00  0.00     0.090 C 
HETATM   14  C   UNL     1      -7.908   1.997 -30.803  1.00  0.00     0.045 C 
HETATM   15  C   UNL     1      -7.160   3.116 -30.103  1.00  0.00     0.129 C 
HETATM   16  C   UNL     1      -3.541   7.161 -32.496  1.00  0.00     0.031 A 
HETATM   17  C   UNL     1      -2.490   7.470 -31.627  1.00  0.00     0.014 A 
HETATM   18  H   UNL     1      -5.606   6.665 -33.877  1.00  0.00     0.169 HD
ENDROOT
BRANCH   1  19
HETATM   19  C   UNL     1      -1.349   7.283 -29.386  1.00  0.00     0.009 A 
HETATM   20  C   UNL     1      -0.244   6.420 -29.170  1.00  0.00     0.079 A 
HETATM   21  C   UNL     1       0.762   6.779 -28.259  1.00  0.00     0.039 A 
HETATM   22  C   UNL     1       0.698   7.990 -27.567  1.00  0.00     0.026 A 
HETATM   23  C   UNL     1      -0.373   8.846 -27.777  1.00  0.00     0.035 A 
HETATM   24  C   UNL     1      -1.387   8.499 -28.669  1.00  0.00     0.039 A 
HETATM   25 CL   UNL     1      -0.451  10.343 -26.933  1.00  0.00    -0.084 Cl
BRANCH  20  26
HETATM   26  O   UNL     1      -0.219   5.257 -29.901  1.00  0.00    -0.355 OA
HETATM   27  C   UNL     1       0.828   5.082 -30.846  1.00  0.00     0.210 C 
ENDBRANCH  20  26
ENDBRANCH   1  19
BRANCH  13  28
HETATM   28  N   UNL     1      -5.868   0.744 -31.448  1.00  0.00    -0.338 N 
HETATM   29  C   UNL     1      -5.077   0.016 -32.303  1.00  0.00     0.316 C 
HETATM   30  N   UNL     1      -3.915  -0.370 -31.690  1.00  0.00    -0.340 N 
HETATM   31  O   UNL     1      -5.361  -0.227 -33.466  1.00  0.00    -0.247 OA
HETATM   32  H   UNL     1      -3.995  -0.545 -30.699  1.00  0.00     0.164 HD
HETATM   33  H   UNL     1      -5.363   1.179 -30.689  1.00  0.00     0.164 HD
BRANCH  30  34
HETATM   34  C   UNL     1      -2.977  -1.203 -32.400  1.00  0.00     0.150 C 
BRANCH  34  35
HETATM   35  C   UNL     1      -2.988  -2.544 -31.740  1.00  0.00    -0.018 C 
HETATM   36  C   UNL     1      -3.362  -3.687 -32.331  1.00  0.00     0.008 C 
ENDBRANCH  34  35
ENDBRANCH  30  34
ENDBRANCH  13  28
TORSDOF 5
ENDMDL
MODEL 10
REMARK VINA RESULT:      -8.2      4.760      7.537
REMARK  5 active torsions:
REMARK  status: ('A' for Active; 'I' for Inactive)
REMARK    1  A    between atoms: O_2  and  C_3 
REMARK    2  A    between atoms: C_4  and  C_5 
REMARK    3  A    between atoms: C_17  and  N_18 
REMARK       I    between atoms: N_18  and  C_19 
REMARK       I    between atoms: C_19  and  N_20 
REMARK    4  A    between atoms: N_20  and  C_21 
REMARK    5  A    between atoms: C_21  and  C_22 
ROOT
HETATM    1  C   UNL     1     -11.662   3.247 -33.580  1.00  0.00    -0.022 A 
HETATM    2  C   UNL     1     -10.648   3.190 -32.606  1.00  0.00     0.031 A 
HETATM    3  C   UNL     1      -9.718   2.126 -32.530  1.00  0.00     0.059 A 
HETATM    4  C   UNL     1      -9.822   1.077 -33.442  1.00  0.00     0.050 A 
HETATM    5  N   UNL     1      -8.985  -0.040 -33.490  1.00  0.00    -0.324 N 
HETATM    6  C   UNL     1      -7.667  -0.126 -33.151  1.00  0.00     0.245 C 
HETATM    7  O   UNL     1      -7.107  -1.208 -33.346  1.00  0.00    -0.271 OA
HETATM    8  C   UNL     1      -6.926   1.152 -32.707  1.00  0.00     0.181 C 
HETATM    9  N   UNL     1      -7.493   1.631 -31.435  1.00  0.00    -0.334 N 
HETATM   10  C   UNL     1      -8.788   2.172 -31.371  1.00  0.00     0.256 C 
HETATM   11  O   UNL     1      -9.180   2.763 -30.362  1.00  0.00    -0.267 OA
HETATM   12  C   UNL     1      -5.420   0.832 -32.686  1.00  0.00     0.060 C 
HETATM   13  C   UNL     1      -4.604   1.784 -31.826  1.00  0.00     0.090 C 
HETATM   14  C   UNL     1      -5.161   1.710 -30.415  1.00  0.00     0.045 C 
HETATM   15  C   UNL     1      -6.618   2.132 -30.370  1.00  0.00     0.129 C 
HETATM   16  C   UNL     1     -10.857   1.094 -34.387  1.00  0.00     0.031 A 
HETATM   17  C   UNL     1     -11.743   2.173 -34.472  1.00  0.00     0.014 A 
HETATM   18  H   UNL     1      -9.306  -0.867 -33.981  1.00  0.00     0.169 HD
ENDROOT
BRANCH   1  19
HETATM   19  C   UNL     1     -12.592   4.402 -33.655  1.00  0.00     0.009 A 
HETATM   20  C   UNL     1     -13.692   4.574 -32.776  1.00  0.00     0.079 A 
HETATM   21  C   UNL     1     -14.537   5.687 -32.916  1.00  0.00     0.039 A 
HETATM   22  C   UNL     1     -14.300   6.642 -33.905  1.00  0.00     0.026 A 
HETATM   23  C   UNL     1     -13.221   6.490 -34.763  1.00  0.00     0.035 A 
HETATM   24  C   UNL     1     -12.380   5.385 -34.647  1.00  0.00     0.039 A 
HETATM   25 CL   UNL     1     -12.919   7.671 -35.978  1.00  0.00    -0.084 Cl
BRANCH  20  26
HETATM   26  O   UNL     1     -13.858   3.619 -31.804  1.00  0.00    -0.355 OA
HETATM   27  C   UNL     1     -14.898   2.664 -31.972  1.00  0.00     0.210 C 
ENDBRANCH  20  26
ENDBRANCH   1  19
BRANCH  13  28
HETATM   28  N   UNL     1      -4.583   3.142 -32.355  1.00  0.00    -0.338 N 
HETATM   29  C   UNL     1      -3.474   3.938 -32.203  1.00  0.00     0.316 C 
HETATM   30  N   UNL     1      -3.606   5.106 -32.906  1.00  0.00    -0.340 N 
HETATM   31  O   UNL     1      -2.488   3.630 -31.550  1.00  0.00    -0.247 OA
HETATM   32  H   UNL     1      -4.550   5.453 -32.981  1.00  0.00     0.164 HD
HETATM   33  H   UNL     1      -5.118   3.336 -33.190  1.00  0.00     0.164 HD
BRANCH  30  34
HETATM   34  C   UNL     1      -2.574   6.109 -32.822  1.00  0.00     0.150 C 
BRANCH  34  35
HETATM   35  C   UNL     1      -1.986   6.255 -34.189  1.00  0.00    -0.018 C 
HETATM   36  C   UNL     1      -1.489   5.249 -34.921  1.00  0.00     0.008 C 
ENDBRANCH  34  35
ENDBRANCH  30  34
ENDBRANCH  13  28
TORSDOF 5
ENDMDL
