MODEL 1
REMARK VINA RESULT:      -9.0      0.000      0.000
REMARK  6 active torsions:
REMARK  status: ('A' for Active; 'I' for Inactive)
REMARK    1  A    between atoms: O_2  and  C_3 
REMARK    2  A    between atoms: C_6  and  C_7 
REMARK    3  A    between atoms: C_12  and  C_13 
REMARK       I    between atoms: C_13  and  N_14 
REMARK    4  A    between atoms: N_14  and  C_15 
REMARK    5  A    between atoms: C_15  and  C_16 
REMARK    6  A    between atoms: C_24  and  C_25 
ROOT
HETATM    1  C   UNL     1      -0.603   6.228 -32.064  1.00  0.00     0.118 C 
HETATM    2  N   UNL     1      -1.085   4.880 -32.346  1.00  0.00    -0.366 N 
HETATM    3  C   UNL     1      -2.389   4.590 -32.526  1.00  0.00     0.123 A 
HETATM    4  N   UNL     1      -3.358   5.551 -32.454  1.00  0.00    -0.240 N 
HETATM    5  N   UNL     1      -4.599   5.100 -32.709  1.00  0.00    -0.165 NA
HETATM    6  C   UNL     1      -4.420   3.771 -32.894  1.00  0.00     0.148 A 
HETATM    7  C   UNL     1      -3.046   3.418 -32.795  1.00  0.00     0.088 A 
HETATM    8  C   UNL     1      -3.095   6.948 -32.174  1.00  0.00     0.221 C 
HETATM    9  C   UNL     1      -1.630   7.289 -32.503  1.00  0.00     0.066 C 
HETATM   10  H   UNL     1      -0.377   4.146 -32.318  1.00  0.00     0.161 HD
ENDROOT
BRANCH   6  11
HETATM   11  C   UNL     1      -5.544   2.858 -33.155  1.00  0.00     0.272 C 
HETATM   12  N   UNL     1      -5.636   1.840 -32.238  1.00  0.00    -0.351 N 
HETATM   13  H   UNL     1      -4.967   1.866 -31.474  1.00  0.00     0.163 HD
HETATM   14  O   UNL     1      -6.304   2.995 -34.109  1.00  0.00    -0.266 OA
BRANCH  12  15
HETATM   15  C   UNL     1      -6.640   0.811 -32.293  1.00  0.00     0.161 C 
BRANCH  15  16
HETATM   16  C   UNL     1      -6.157  -0.374 -33.086  1.00  0.00    -0.041 A 
HETATM   17  C   UNL     1      -7.045  -1.084 -33.906  1.00  0.00     0.009 A 
HETATM   18  C   UNL     1      -6.604  -2.185 -34.640  1.00  0.00     0.001 A 
HETATM   19  C   UNL     1      -5.274  -2.594 -34.555  1.00  0.00     0.000 A 
HETATM   20  C   UNL     1      -4.385  -1.904 -33.732  1.00  0.00     0.001 A 
HETATM   21  C   UNL     1      -4.825  -0.801 -32.998  1.00  0.00     0.009 A 
ENDBRANCH  15  16
ENDBRANCH  12  15
ENDBRANCH   6  11
BRANCH   8  22
HETATM   22  C   UNL     1      -3.512   7.280 -30.760  1.00  0.00     0.409 C 
HETATM   23  F   UNL     1      -3.178   6.345 -29.853  1.00  0.00    -0.169 F 
HETATM   24  F   UNL     1      -2.942   8.448 -30.365  1.00  0.00    -0.169 F 
HETATM   25  F   UNL     1      -4.851   7.468 -30.666  1.00  0.00    -0.169 F 
ENDBRANCH   8  22
BRANCH   1  26
HETATM   26  C   UNL     1      -0.099   6.388 -30.641  1.00  0.00    -0.035 A 
HETATM   27  C   UNL     1       0.129   7.681 -30.140  1.00  0.00     0.012 A 
HETATM   28  C   UNL     1       0.589   7.873 -28.833  1.00  0.00     0.037 A 
HETATM   29  C   UNL     1       0.822   6.785 -27.994  1.00  0.00     0.068 A 
HETATM   30  C   UNL     1       0.622   5.497 -28.484  1.00  0.00     0.037 A 
HETATM   31  C   UNL     1       0.173   5.302 -29.796  1.00  0.00     0.012 A 
BRANCH  29  32
HETATM   32  O   UNL     1       1.250   7.109 -26.736  1.00  0.00    -0.356 OA
HETATM   33  C   UNL     1       1.892   8.371 -26.591  1.00  0.00     0.210 C 
ENDBRANCH  29  32
ENDBRANCH   1  26
TORSDOF 6
ENDMDL
MODEL 2
REMARK VINA RESULT:      -8.9      3.120      8.994
REMARK  6 active torsions:
REMARK  status: ('A' for Active; 'I' for Inactive)
REMARK    1  A    between atoms: O_2  and  C_3 
REMARK    2  A    between atoms: C_6  and  C_7 
REMARK    3  A    between atoms: C_12  and  C_13 
REMARK       I    between atoms: C_13  and  N_14 
REMARK    4  A    between atoms: N_14  and  C_15 
REMARK    5  A    between atoms: C_15  and  C_16 
REMARK    6  A    between atoms: C_24  and  C_25 
ROOT
HETATM    1  C   UNL     1      -7.686   0.336 -32.002  1.00  0.00     0.118 C 
HETATM    2  N   UNL     1      -7.060   0.846 -30.787  1.00  0.00    -0.366 N 
HETATM    3  C   UNL     1      -6.650   2.123 -30.654  1.00  0.00     0.123 A 
HETATM    4  N   UNL     1      -6.795   3.036 -31.661  1.00  0.00    -0.240 N 
HETATM    5  N   UNL     1      -6.381   4.275 -31.342  1.00  0.00    -0.165 NA
HETATM    6  C   UNL     1      -5.891   4.132 -30.088  1.00  0.00     0.148 A 
HETATM    7  C   UNL     1      -6.051   2.798 -29.622  1.00  0.00     0.088 A 
HETATM    8  C   UNL     1      -7.381   2.733 -32.951  1.00  0.00     0.221 C 
HETATM    9  C   UNL     1      -8.271   1.482 -32.850  1.00  0.00     0.066 C 
HETATM   10  H   UNL     1      -6.873   0.150 -30.065  1.00  0.00     0.161 HD
ENDROOT
BRANCH   6  11
HETATM   11  C   UNL     1      -5.277   5.250 -29.355  1.00  0.00     0.272 C 
HETATM   12  N   UNL     1      -4.214   5.812 -30.019  1.00  0.00    -0.351 N 
HETATM   13  H   UNL     1      -4.015   5.436 -30.940  1.00  0.00     0.163 HD
HETATM   14  O   UNL     1      -5.674   5.620 -28.254  1.00  0.00    -0.266 OA
BRANCH  12  15
HETATM   15  C   UNL     1      -3.441   6.906 -29.495  1.00  0.00     0.161 C 
BRANCH  15  16
HETATM   16  C   UNL     1      -2.043   6.896 -30.054  1.00  0.00    -0.041 A 
HETATM   17  C   UNL     1      -1.830   6.665 -31.421  1.00  0.00     0.009 A 
HETATM   18  C   UNL     1      -0.537   6.651 -31.943  1.00  0.00     0.001 A 
HETATM   19  C   UNL     1       0.557   6.857 -31.105  1.00  0.00     0.000 A 
HETATM   20  C   UNL     1       0.359   7.073 -29.742  1.00  0.00     0.001 A 
HETATM   21  C   UNL     1      -0.934   7.089 -29.218  1.00  0.00     0.009 A 
ENDBRANCH  15  16
ENDBRANCH  12  15
ENDBRANCH   6  11
BRANCH   8  22
HETATM   22  C   UNL     1      -6.299   2.648 -34.003  1.00  0.00     0.409 C 
HETATM   23  F   UNL     1      -6.013   3.822 -34.595  1.00  0.00    -0.169 F 
HETATM   24  F   UNL     1      -5.147   2.182 -33.455  1.00  0.00    -0.169 F 
HETATM   25  F   UNL     1      -6.626   1.774 -34.986  1.00  0.00    -0.169 F 
ENDBRANCH   8  22
BRANCH   1  26
HETATM   26  C   UNL     1      -6.791  -0.622 -32.769  1.00  0.00    -0.035 A 
HETATM   27  C   UNL     1      -5.467  -0.811 -32.339  1.00  0.00     0.012 A 
HETATM   28  C   UNL     1      -4.611  -1.687 -33.014  1.00  0.00     0.037 A 
HETATM   29  C   UNL     1      -5.057  -2.402 -34.124  1.00  0.00     0.068 A 
HETATM   30  C   UNL     1      -6.361  -2.209 -34.575  1.00  0.00     0.037 A 
HETATM   31  C   UNL     1      -7.214  -1.323 -33.908  1.00  0.00     0.012 A 
BRANCH  29  32
HETATM   32  O   UNL     1      -4.130  -3.240 -34.679  1.00  0.00    -0.356 OA
HETATM   33  C   UNL     1      -3.762  -4.378 -33.907  1.00  0.00     0.210 C 
ENDBRANCH  29  32
ENDBRANCH   1  26
TORSDOF 6
ENDMDL
MODEL 3
REMARK VINA RESULT:      -8.8      2.726      9.331
REMARK  6 active torsions:
REMARK  status: ('A' for Active; 'I' for Inactive)
REMARK    1  A    between atoms: O_2  and  C_3 
REMARK    2  A    between atoms: C_6  and  C_7 
REMARK    3  A    between atoms: C_12  and  C_13 
REMARK       I    between atoms: C_13  and  N_14 
REMARK    4  A    between atoms: N_14  and  C_15 
REMARK    5  A    between atoms: C_15  and  C_16 
REMARK    6  A    between atoms: C_24  and  C_25 
ROOT
HETATM    1  C   UNL     1      -5.711   0.540 -31.226  1.00  0.00     0.118 C 
HETATM    2  N   UNL     1      -4.382   1.116 -31.052  1.00  0.00    -0.366 N 
HETATM    3  C   UNL     1      -4.092   2.397 -31.354  1.00  0.00     0.123 A 
HETATM    4  N   UNL     1      -5.036   3.252 -31.851  1.00  0.00    -0.240 N 
HETATM    5  N   UNL     1      -4.591   4.506 -32.049  1.00  0.00    -0.165 NA
HETATM    6  C   UNL     1      -3.281   4.432 -31.717  1.00  0.00     0.148 A 
HETATM    7  C   UNL     1      -2.935   3.127 -31.270  1.00  0.00     0.088 A 
HETATM    8  C   UNL     1      -6.411   2.879 -32.109  1.00  0.00     0.221 C 
HETATM    9  C   UNL     1      -6.790   1.638 -31.280  1.00  0.00     0.066 C 
HETATM   10  H   UNL     1      -3.655   0.462 -30.762  1.00  0.00     0.161 HD
ENDROOT
BRANCH   6  11
HETATM   11  C   UNL     1      -2.377   5.587 -31.834  1.00  0.00     0.272 C 
HETATM   12  N   UNL     1      -1.131   5.353 -31.306  1.00  0.00    -0.351 N 
HETATM   13  H   UNL     1      -0.965   4.415 -30.953  1.00  0.00     0.163 HD
HETATM   14  O   UNL     1      -2.721   6.652 -32.339  1.00  0.00    -0.266 OA
BRANCH  12  15
HETATM   15  C   UNL     1      -0.081   6.336 -31.284  1.00  0.00     0.161 C 
BRANCH  15  16
HETATM   16  C   UNL     1       0.331   6.656 -29.872  1.00  0.00    -0.041 A 
HETATM   17  C   UNL     1       0.326   5.654 -28.890  1.00  0.00     0.009 A 
HETATM   18  C   UNL     1       0.703   5.946 -27.580  1.00  0.00     0.001 A 
HETATM   19  C   UNL     1       1.079   7.242 -27.233  1.00  0.00     0.000 A 
HETATM   20  C   UNL     1       1.075   8.249 -28.197  1.00  0.00     0.001 A 
HETATM   21  C   UNL     1       0.699   7.959 -29.509  1.00  0.00     0.009 A 
ENDBRANCH  15  16
ENDBRANCH  12  15
ENDBRANCH   6  11
BRANCH   8  22
HETATM   22  C   UNL     1      -6.638   2.731 -33.597  1.00  0.00     0.409 C 
HETATM   23  F   UNL     1      -5.687   2.021 -34.230  1.00  0.00    -0.169 F 
HETATM   24  F   UNL     1      -7.825   2.114 -33.831  1.00  0.00    -0.169 F 
HETATM   25  F   UNL     1      -6.715   3.935 -34.212  1.00  0.00    -0.169 F 
ENDBRANCH   8  22
BRANCH   1  26
HETATM   26  C   UNL     1      -5.774  -0.463 -32.364  1.00  0.00    -0.035 A 
HETATM   27  C   UNL     1      -4.583  -1.051 -32.822  1.00  0.00     0.012 A 
HETATM   28  C   UNL     1      -4.597  -1.983 -33.865  1.00  0.00     0.037 A 
HETATM   29  C   UNL     1      -5.797  -2.357 -34.468  1.00  0.00     0.068 A 
HETATM   30  C   UNL     1      -6.983  -1.767 -34.040  1.00  0.00     0.037 A 
HETATM   31  C   UNL     1      -6.969  -0.824 -33.004  1.00  0.00     0.012 A 
BRANCH  29  32
HETATM   32  O   UNL     1      -5.676  -3.291 -35.459  1.00  0.00    -0.356 OA
HETATM   33  C   UNL     1      -6.345  -4.530 -35.248  1.00  0.00     0.210 C 
ENDBRANCH  29  32
ENDBRANCH   1  26
TORSDOF 6
ENDMDL
MODEL 4
REMARK VINA RESULT:      -8.7      1.561      2.105
REMARK  6 active torsions:
REMARK  status: ('A' for Active; 'I' for Inactive)
REMARK    1  A    between atoms: O_2  and  C_3 
REMARK    2  A    between atoms: C_6  and  C_7 
REMARK    3  A    between atoms: C_12  and  C_13 
REMARK       I    between atoms: C_13  and  N_14 
REMARK    4  A    between atoms: N_14  and  C_15 
REMARK    5  A    between atoms: C_15  and  C_16 
REMARK    6  A    between atoms: C_24  and  C_25 
ROOT
HETATM    1  C   UNL     1      -0.308   5.293 -30.706  1.00  0.00     0.118 C 
HETATM    2  N   UNL     1      -1.438   4.380 -30.582  1.00  0.00    -0.366 N 
HETATM    3  C   UNL     1      -2.366   4.226 -31.548  1.00  0.00     0.123 A 
HETATM    4  N   UNL     1      -2.309   4.926 -32.720  1.00  0.00    -0.240 N 
HETATM    5  N   UNL     1      -3.283   4.614 -33.594  1.00  0.00    -0.165 NA
HETATM    6  C   UNL     1      -4.035   3.713 -32.920  1.00  0.00     0.148 A 
HETATM    7  C   UNL     1      -3.485   3.440 -31.636  1.00  0.00     0.088 A 
HETATM    8  C   UNL     1      -1.276   5.890 -33.039  1.00  0.00     0.221 C 
HETATM    9  C   UNL     1      -0.024   5.631 -32.182  1.00  0.00     0.066 C 
HETATM   10  H   UNL     1      -1.533   3.919 -29.677  1.00  0.00     0.161 HD
ENDROOT
BRANCH   6  11
HETATM   11  C   UNL     1      -5.260   3.130 -33.491  1.00  0.00     0.272 C 
HETATM   12  N   UNL     1      -5.520   1.863 -33.031  1.00  0.00    -0.351 N 
HETATM   13  H   UNL     1      -4.882   1.504 -32.326  1.00  0.00     0.163 HD
HETATM   14  O   UNL     1      -5.958   3.723 -34.307  1.00  0.00    -0.266 OA
BRANCH  12  15
HETATM   15  C   UNL     1      -6.649   1.080 -33.458  1.00  0.00     0.161 C 
BRANCH  15  16
HETATM   16  C   UNL     1      -6.230  -0.319 -33.821  1.00  0.00    -0.041 A 
HETATM   17  C   UNL     1      -4.950  -0.783 -33.484  1.00  0.00     0.009 A 
HETATM   18  C   UNL     1      -4.555  -2.078 -33.821  1.00  0.00     0.001 A 
HETATM   19  C   UNL     1      -5.430  -2.919 -34.507  1.00  0.00     0.000 A 
HETATM   20  C   UNL     1      -6.700  -2.464 -34.859  1.00  0.00     0.001 A 
HETATM   21  C   UNL     1      -7.097  -1.169 -34.522  1.00  0.00     0.009 A 
ENDBRANCH  15  16
ENDBRANCH  12  15
ENDBRANCH   6  11
BRANCH   8  22
HETATM   22  C   UNL     1      -1.828   7.294 -32.933  1.00  0.00     0.409 C 
HETATM   23  F   UNL     1      -0.987   8.174 -32.362  1.00  0.00    -0.169 F 
HETATM   24  F   UNL     1      -2.134   7.771 -34.167  1.00  0.00    -0.169 F 
HETATM   25  F   UNL     1      -2.982   7.324 -32.224  1.00  0.00    -0.169 F 
ENDBRANCH   8  22
BRANCH   1  26
HETATM   26  C   UNL     1      -0.423   6.501 -29.793  1.00  0.00    -0.035 A 
HETATM   27  C   UNL     1       0.750   7.137 -29.352  1.00  0.00     0.012 A 
HETATM   28  C   UNL     1       0.688   8.255 -28.514  1.00  0.00     0.037 A 
HETATM   29  C   UNL     1      -0.540   8.771 -28.105  1.00  0.00     0.068 A 
HETATM   30  C   UNL     1      -1.711   8.138 -28.516  1.00  0.00     0.037 A 
HETATM   31  C   UNL     1      -1.650   7.011 -29.345  1.00  0.00     0.012 A 
BRANCH  29  32
HETATM   32  O   UNL     1      -0.463   9.877 -27.305  1.00  0.00    -0.356 OA
HETATM   33  C   UNL     1       0.576   9.884 -26.332  1.00  0.00     0.210 C 
ENDBRANCH  29  32
ENDBRANCH   1  26
TORSDOF 6
ENDMDL
MODEL 5
REMARK VINA RESULT:      -8.7      1.241      2.057
REMARK  6 active torsions:
REMARK  status: ('A' for Active; 'I' for Inactive)
REMARK    1  A    between atoms: O_2  and  C_3 
REMARK    2  A    between atoms: C_6  and  C_7 
REMARK    3  A    between atoms: C_12  and  C_13 
REMARK       I    between atoms: C_13  and  N_14 
REMARK    4  A    between atoms: N_14  and  C_15 
REMARK    5  A    between atoms: C_15  and  C_16 
REMARK    6  A    between atoms: C_24  and  C_25 
ROOT
HETATM    1  C   UNL     1      -1.710   5.564 -32.824  1.00  0.00     0.118 C 
HETATM    2  N   UNL     1      -2.059   4.148 -32.792  1.00  0.00    -0.366 N 
HETATM    3  C   UNL     1      -3.327   3.708 -32.662  1.00  0.00     0.123 A 
HETATM    4  N   UNL     1      -4.381   4.570 -32.550  1.00  0.00    -0.240 N 
HETATM    5  N   UNL     1      -5.580   3.964 -32.481  1.00  0.00    -0.165 NA
HETATM    6  C   UNL     1      -5.270   2.647 -32.489  1.00  0.00     0.148 A 
HETATM    7  C   UNL     1      -3.866   2.449 -32.609  1.00  0.00     0.088 A 
HETATM    8  C   UNL     1      -4.252   6.013 -32.550  1.00  0.00     0.221 C 
HETATM    9  C   UNL     1      -2.926   6.428 -33.211  1.00  0.00     0.066 C 
HETATM   10  H   UNL     1      -1.270   3.502 -32.790  1.00  0.00     0.161 HD
ENDROOT
BRANCH   6  11
HETATM   11  C   UNL     1      -6.297   1.599 -32.376  1.00  0.00     0.272 C 
HETATM   12  N   UNL     1      -6.248   0.683 -33.399  1.00  0.00    -0.351 N 
HETATM   13  H   UNL     1      -5.494   0.803 -34.068  1.00  0.00     0.163 HD
HETATM   14  O   UNL     1      -7.117   1.569 -31.464  1.00  0.00    -0.266 OA
BRANCH  12  15
HETATM   15  C   UNL     1      -7.161  -0.422 -33.517  1.00  0.00     0.161 C 
BRANCH  15  16
HETATM   16  C   UNL     1      -6.440  -1.677 -33.931  1.00  0.00    -0.041 A 
HETATM   17  C   UNL     1      -5.047  -1.768 -33.797  1.00  0.00     0.009 A 
HETATM   18  C   UNL     1      -4.373  -2.927 -34.182  1.00  0.00     0.001 A 
HETATM   19  C   UNL     1      -5.082  -4.003 -34.714  1.00  0.00     0.000 A 
HETATM   20  C   UNL     1      -6.466  -3.919 -34.864  1.00  0.00     0.001 A 
HETATM   21  C   UNL     1      -7.142  -2.760 -34.478  1.00  0.00     0.009 A 
ENDBRANCH  15  16
ENDBRANCH  12  15
ENDBRANCH   6  11
BRANCH   8  22
HETATM   22  C   UNL     1      -4.449   6.549 -31.150  1.00  0.00     0.409 C 
HETATM   23  F   UNL     1      -3.928   7.774 -30.952  1.00  0.00    -0.169 F 
HETATM   24  F   UNL     1      -5.773   6.622 -30.858  1.00  0.00    -0.169 F 
HETATM   25  F   UNL     1      -3.905   5.728 -30.220  1.00  0.00    -0.169 F 
ENDBRANCH   8  22
BRANCH   1  26
HETATM   26  C   UNL     1      -0.984   6.021 -31.572  1.00  0.00    -0.035 A 
HETATM   27  C   UNL     1      -0.536   5.058 -30.653  1.00  0.00     0.012 A 
HETATM   28  C   UNL     1       0.141   5.436 -29.489  1.00  0.00     0.037 A 
HETATM   29  C   UNL     1       0.396   6.779 -29.219  1.00  0.00     0.068 A 
HETATM   30  C   UNL     1      -0.061   7.747 -30.110  1.00  0.00     0.037 A 
HETATM   31  C   UNL     1      -0.750   7.371 -31.269  1.00  0.00     0.012 A 
BRANCH  29  32
HETATM   32  O   UNL     1       1.084   7.013 -28.061  1.00  0.00    -0.356 OA
HETATM   33  C   UNL     1       1.338   8.376 -27.740  1.00  0.00     0.210 C 
ENDBRANCH  29  32
ENDBRANCH   1  26
TORSDOF 6
ENDMDL
MODEL 6
REMARK VINA RESULT:      -8.5      2.182      3.845
REMARK  6 active torsions:
REMARK  status: ('A' for Active; 'I' for Inactive)
REMARK    1  A    between atoms: O_2  and  C_3 
REMARK    2  A    between atoms: C_6  and  C_7 
REMARK    3  A    between atoms: C_12  and  C_13 
REMARK       I    between atoms: C_13  and  N_14 
REMARK    4  A    between atoms: N_14  and  C_15 
REMARK    5  A    between atoms: C_15  and  C_16 
REMARK    6  A    between atoms: C_24  and  C_25 
ROOT
HETATM    1  C   UNL     1      -4.999   5.905 -33.254  1.00  0.00     0.118 C 
HETATM    2  N   UNL     1      -5.231   4.729 -34.085  1.00  0.00    -0.366 N 
HETATM    3  C   UNL     1      -5.921   3.652 -33.658  1.00  0.00     0.123 A 
HETATM    4  N   UNL     1      -6.454   3.591 -32.401  1.00  0.00    -0.240 N 
HETATM    5  N   UNL     1      -7.155   2.469 -32.157  1.00  0.00    -0.165 NA
HETATM    6  C   UNL     1      -7.010   1.751 -33.296  1.00  0.00     0.148 A 
HETATM    7  C   UNL     1      -6.249   2.467 -34.261  1.00  0.00     0.088 A 
HETATM    8  C   UNL     1      -6.330   4.645 -31.415  1.00  0.00     0.221 C 
HETATM    9  C   UNL     1      -6.025   5.986 -32.107  1.00  0.00     0.066 C 
HETATM   10  H   UNL     1      -4.764   4.734 -34.992  1.00  0.00     0.161 HD
ENDROOT
BRANCH   6  11
HETATM   11  C   UNL     1      -7.583   0.405 -33.452  1.00  0.00     0.272 C 
HETATM   12  N   UNL     1      -6.960  -0.337 -34.426  1.00  0.00    -0.351 N 
HETATM   13  H   UNL     1      -6.162   0.100 -34.877  1.00  0.00     0.163 HD
HETATM   14  O   UNL     1      -8.532   0.006 -32.785  1.00  0.00    -0.266 OA
BRANCH  12  15
HETATM   15  C   UNL     1      -7.354  -1.675 -34.777  1.00  0.00     0.161 C 
BRANCH  15  16
HETATM   16  C   UNL     1      -6.237  -2.651 -34.524  1.00  0.00    -0.041 A 
HETATM   17  C   UNL     1      -5.030  -2.213 -33.961  1.00  0.00     0.009 A 
HETATM   18  C   UNL     1      -3.990  -3.113 -33.728  1.00  0.00     0.001 A 
HETATM   19  C   UNL     1      -4.141  -4.457 -34.065  1.00  0.00     0.000 A 
HETATM   20  C   UNL     1      -5.331  -4.902 -34.638  1.00  0.00     0.001 A 
HETATM   21  C   UNL     1      -6.373  -4.003 -34.870  1.00  0.00     0.009 A 
ENDBRANCH  15  16
ENDBRANCH  12  15
ENDBRANCH   6  11
BRANCH   8  22
HETATM   22  C   UNL     1      -5.331   4.246 -30.353  1.00  0.00     0.409 C 
HETATM   23  F   UNL     1      -4.707   5.283 -29.767  1.00  0.00    -0.169 F 
HETATM   24  F   UNL     1      -5.949   3.539 -29.371  1.00  0.00    -0.169 F 
HETATM   25  F   UNL     1      -4.371   3.431 -30.852  1.00  0.00    -0.169 F 
ENDBRANCH   8  22
BRANCH   1  26
HETATM   26  C   UNL     1      -3.552   6.042 -32.817  1.00  0.00    -0.035 A 
HETATM   27  C   UNL     1      -3.164   7.181 -32.091  1.00  0.00     0.012 A 
HETATM   28  C   UNL     1      -1.842   7.345 -31.665  1.00  0.00     0.037 A 
HETATM   29  C   UNL     1      -0.880   6.376 -31.943  1.00  0.00     0.068 A 
HETATM   30  C   UNL     1      -1.244   5.252 -32.681  1.00  0.00     0.037 A 
HETATM   31  C   UNL     1      -2.565   5.093 -33.119  1.00  0.00     0.012 A 
BRANCH  29  32
HETATM   32  O   UNL     1       0.368   6.646 -31.454  1.00  0.00    -0.356 OA
HETATM   33  C   UNL     1       0.438   7.069 -30.097  1.00  0.00     0.210 C 
ENDBRANCH  29  32
ENDBRANCH   1  26
TORSDOF 6
ENDMDL
MODEL 7
REMARK VINA RESULT:      -8.3      5.004      7.483
REMARK  6 active torsions:
REMARK  status: ('A' for Active; 'I' for Inactive)
REMARK    1  A    between atoms: O_2  and  C_3 
REMARK    2  A    between atoms: C_6  and  C_7 
REMARK    3  A    between atoms: C_12  and  C_13 
REMARK       I    between atoms: C_13  and  N_14 
REMARK    4  A    between atoms: N_14  and  C_15 
REMARK    5  A    between atoms: C_15  and  C_16 
REMARK    6  A    between atoms: C_24  and  C_25 
ROOT
HETATM    1  C   UNL     1      -5.350   2.612 -30.750  1.00  0.00     0.118 C 
HETATM    2  N   UNL     1      -6.773   2.840 -30.970  1.00  0.00    -0.366 N 
HETATM    3  C   UNL     1      -7.591   1.912 -31.505  1.00  0.00     0.123 A 
HETATM    4  N   UNL     1      -7.134   0.680 -31.882  1.00  0.00    -0.240 N 
HETATM    5  N   UNL     1      -8.092  -0.142 -32.348  1.00  0.00    -0.165 NA
HETATM    6  C   UNL     1      -9.206   0.626 -32.323  1.00  0.00     0.148 A 
HETATM    7  C   UNL     1      -8.931   1.917 -31.793  1.00  0.00     0.088 A 
HETATM    8  C   UNL     1      -5.755   0.254 -31.759  1.00  0.00     0.221 C 
HETATM    9  C   UNL     1      -5.028   1.106 -30.702  1.00  0.00     0.066 C 
HETATM   10  H   UNL     1      -7.102   3.784 -30.769  1.00  0.00     0.161 HD
ENDROOT
BRANCH   6  11
HETATM   11  C   UNL     1     -10.507   0.134 -32.804  1.00  0.00     0.272 C 
HETATM   12  N   UNL     1     -11.286   1.121 -33.358  1.00  0.00    -0.351 N 
HETATM   13  H   UNL     1     -10.862   2.042 -33.417  1.00  0.00     0.163 HD
HETATM   14  O   UNL     1     -10.854  -1.038 -32.700  1.00  0.00    -0.266 OA
BRANCH  12  15
HETATM   15  C   UNL     1     -12.606   0.891 -33.880  1.00  0.00     0.161 C 
BRANCH  15  16
HETATM   16  C   UNL     1     -13.616   1.783 -33.209  1.00  0.00    -0.041 A 
HETATM   17  C   UNL     1     -14.949   1.369 -33.080  1.00  0.00     0.009 A 
HETATM   18  C   UNL     1     -15.890   2.193 -32.463  1.00  0.00     0.001 A 
HETATM   19  C   UNL     1     -15.512   3.445 -31.979  1.00  0.00     0.000 A 
HETATM   20  C   UNL     1     -14.192   3.873 -32.114  1.00  0.00     0.001 A 
HETATM   21  C   UNL     1     -13.249   3.049 -32.730  1.00  0.00     0.009 A 
ENDBRANCH  15  16
ENDBRANCH  12  15
ENDBRANCH   6  11
BRANCH   8  22
HETATM   22  C   UNL     1      -5.093   0.245 -33.118  1.00  0.00     0.409 C 
HETATM   23  F   UNL     1      -5.206  -0.922 -33.777  1.00  0.00    -0.169 F 
HETATM   24  F   UNL     1      -5.632   1.209 -33.908  1.00  0.00    -0.169 F 
HETATM   25  F   UNL     1      -3.771   0.530 -33.031  1.00  0.00    -0.169 F 
ENDBRANCH   8  22
BRANCH   1  26
HETATM   26  C   UNL     1      -4.471   3.414 -31.692  1.00  0.00    -0.035 A 
HETATM   27  C   UNL     1      -5.077   4.209 -32.680  1.00  0.00     0.012 A 
HETATM   28  C   UNL     1      -4.305   4.967 -33.565  1.00  0.00     0.037 A 
HETATM   29  C   UNL     1      -2.914   4.959 -33.482  1.00  0.00     0.068 A 
HETATM   30  C   UNL     1      -2.297   4.159 -32.523  1.00  0.00     0.037 A 
HETATM   31  C   UNL     1      -3.069   3.390 -31.643  1.00  0.00     0.012 A 
BRANCH  29  32
HETATM   32  O   UNL     1      -2.278   5.759 -34.391  1.00  0.00    -0.356 OA
HETATM   33  C   UNL     1      -1.981   7.085 -33.969  1.00  0.00     0.210 C 
ENDBRANCH  29  32
ENDBRANCH   1  26
TORSDOF 6
ENDMDL
MODEL 8
REMARK VINA RESULT:      -8.2      7.250      9.294
REMARK  6 active torsions:
REMARK  status: ('A' for Active; 'I' for Inactive)
REMARK    1  A    between atoms: O_2  and  C_3 
REMARK    2  A    between atoms: C_6  and  C_7 
REMARK    3  A    between atoms: C_12  and  C_13 
REMARK       I    between atoms: C_13  and  N_14 
REMARK    4  A    between atoms: N_14  and  C_15 
REMARK    5  A    between atoms: C_15  and  C_16 
REMARK    6  A    between atoms: C_24  and  C_25 
ROOT
HETATM    1  C   UNL     1     -12.051   3.288 -34.795  1.00  0.00     0.118 C 
HETATM    2  N   UNL     1     -10.871   2.506 -35.143  1.00  0.00    -0.366 N 
HETATM    3  C   UNL     1     -10.026   2.003 -34.221  1.00  0.00     0.123 A 
HETATM    4  N   UNL     1     -10.222   2.196 -32.882  1.00  0.00    -0.240 N 
HETATM    5  N   UNL     1      -9.315   1.583 -32.101  1.00  0.00    -0.165 NA
HETATM    6  C   UNL     1      -8.462   1.020 -32.989  1.00  0.00     0.148 A 
HETATM    7  C   UNL     1      -8.882   1.256 -34.327  1.00  0.00     0.088 A 
HETATM    8  C   UNL     1     -11.326   2.951 -32.325  1.00  0.00     0.221 C 
HETATM    9  C   UNL     1     -12.482   3.028 -33.339  1.00  0.00     0.066 C 
HETATM   10  H   UNL     1     -10.673   2.431 -36.141  1.00  0.00     0.161 HD
ENDROOT
BRANCH   6  11
HETATM   11  C   UNL     1      -7.266   0.276 -32.563  1.00  0.00     0.272 C 
HETATM   12  N   UNL     1      -6.437  -0.057 -33.607  1.00  0.00    -0.351 N 
HETATM   13  H   UNL     1      -6.714   0.286 -34.522  1.00  0.00     0.163 HD
HETATM   14  O   UNL     1      -7.051  -0.023 -31.392  1.00  0.00    -0.266 OA
BRANCH  12  15
HETATM   15  C   UNL     1      -5.218  -0.802 -33.444  1.00  0.00     0.161 C 
BRANCH  15  16
HETATM   16  C   UNL     1      -5.373  -2.211 -33.949  1.00  0.00    -0.041 A 
HETATM   17  C   UNL     1      -6.590  -2.633 -34.503  1.00  0.00     0.009 A 
HETATM   18  C   UNL     1      -6.741  -3.939 -34.969  1.00  0.00     0.001 A 
HETATM   19  C   UNL     1      -5.682  -4.840 -34.877  1.00  0.00     0.000 A 
HETATM   20  C   UNL     1      -4.471  -4.436 -34.315  1.00  0.00     0.001 A 
HETATM   21  C   UNL     1      -4.318  -3.130 -33.850  1.00  0.00     0.009 A 
ENDBRANCH  15  16
ENDBRANCH  12  15
ENDBRANCH   6  11
BRANCH   8  22
HETATM   22  C   UNL     1     -10.837   4.293 -31.830  1.00  0.00     0.409 C 
HETATM   23  F   UNL     1      -9.712   4.724 -32.427  1.00  0.00    -0.169 F 
HETATM   24  F   UNL     1     -11.789   5.241 -32.030  1.00  0.00    -0.169 F 
HETATM   25  F   UNL     1     -10.601   4.277 -30.496  1.00  0.00    -0.169 F 
ENDBRANCH   8  22
BRANCH   1  26
HETATM   26  C   UNL     1     -11.916   4.756 -35.159  1.00  0.00    -0.035 A 
HETATM   27  C   UNL     1     -10.634   5.289 -35.377  1.00  0.00     0.012 A 
HETATM   28  C   UNL     1     -10.464   6.634 -35.719  1.00  0.00     0.037 A 
HETATM   29  C   UNL     1     -11.566   7.476 -35.861  1.00  0.00     0.068 A 
HETATM   30  C   UNL     1     -12.841   6.968 -35.627  1.00  0.00     0.037 A 
HETATM   31  C   UNL     1     -13.011   5.624 -35.272  1.00  0.00     0.012 A 
BRANCH  29  32
HETATM   32  O   UNL     1     -11.266   8.761 -36.218  1.00  0.00    -0.356 OA
HETATM   33  C   UNL     1     -10.465   8.925 -37.384  1.00  0.00     0.210 C 
ENDBRANCH  29  32
ENDBRANCH   1  26
TORSDOF 6
ENDMDL
MODEL 9
REMARK VINA RESULT:      -8.2      3.047      9.439
REMARK  6 active torsions:
REMARK  status: ('A' for Active; 'I' for Inactive)
REMARK    1  A    between atoms: O_2  and  C_3 
REMARK    2  A    between atoms: C_6  and  C_7 
REMARK    3  A    between atoms: C_12  and  C_13 
REMARK       I    between atoms: C_13  and  N_14 
REMARK    4  A    between atoms: N_14  and  C_15 
REMARK    5  A    between atoms: C_15  and  C_16 
REMARK    6  A    between atoms: C_24  and  C_25 
ROOT
HETATM    1  C   UNL     1      -6.873   0.678 -32.332  1.00  0.00     0.118 C 
HETATM    2  N   UNL     1      -5.841   1.439 -33.026  1.00  0.00    -0.366 N 
HETATM    3  C   UNL     1      -5.201   2.486 -32.468  1.00  0.00     0.123 A 
HETATM    4  N   UNL     1      -5.481   2.908 -31.199  1.00  0.00    -0.240 N 
HETATM    5  N   UNL     1      -4.715   3.931 -30.779  1.00  0.00    -0.165 NA
HETATM    6  C   UNL     1      -3.948   4.214 -31.857  1.00  0.00     0.148 A 
HETATM    7  C   UNL     1      -4.220   3.322 -32.932  1.00  0.00     0.088 A 
HETATM    8  C   UNL     1      -6.478   2.298 -30.343  1.00  0.00     0.221 C 
HETATM    9  C   UNL     1      -6.767   0.859 -30.806  1.00  0.00     0.066 C 
HETATM   10  H   UNL     1      -5.688   1.182 -34.001  1.00  0.00     0.161 HD
ENDROOT
BRANCH   6  11
HETATM   11  C   UNL     1      -2.979   5.321 -31.861  1.00  0.00     0.272 C 
HETATM   12  N   UNL     1      -1.687   4.907 -32.079  1.00  0.00    -0.351 N 
HETATM   13  H   UNL     1      -1.561   3.916 -32.261  1.00  0.00     0.163 HD
HETATM   14  O   UNL     1      -3.304   6.489 -31.670  1.00  0.00    -0.266 OA
BRANCH  12  15
HETATM   15  C   UNL     1      -0.562   5.802 -32.107  1.00  0.00     0.161 C 
BRANCH  15  16
HETATM   16  C   UNL     1      -0.087   6.119 -30.713  1.00  0.00    -0.041 A 
HETATM   17  C   UNL     1       0.391   5.096 -29.881  1.00  0.00     0.009 A 
HETATM   18  C   UNL     1       0.829   5.383 -28.588  1.00  0.00     0.001 A 
HETATM   19  C   UNL     1       0.782   6.691 -28.109  1.00  0.00     0.000 A 
HETATM   20  C   UNL     1       0.295   7.713 -28.922  1.00  0.00     0.001 A 
HETATM   21  C   UNL     1      -0.142   7.429 -30.217  1.00  0.00     0.009 A 
ENDBRANCH  15  16
ENDBRANCH  12  15
ENDBRANCH   6  11
BRANCH   8  22
HETATM   22  C   UNL     1      -7.699   3.185 -30.257  1.00  0.00     0.409 C 
HETATM   23  F   UNL     1      -8.860   2.514 -30.151  1.00  0.00    -0.169 F 
HETATM   24  F   UNL     1      -7.607   4.006 -29.179  1.00  0.00    -0.169 F 
HETATM   25  F   UNL     1      -7.804   3.997 -31.337  1.00  0.00    -0.169 F 
ENDBRANCH   8  22
BRANCH   1  26
HETATM   26  C   UNL     1      -8.262   0.913 -32.900  1.00  0.00    -0.035 A 
HETATM   27  C   UNL     1      -8.455   1.958 -33.819  1.00  0.00     0.012 A 
HETATM   28  C   UNL     1      -9.716   2.205 -34.370  1.00  0.00     0.037 A 
HETATM   29  C   UNL     1     -10.811   1.414 -34.025  1.00  0.00     0.068 A 
HETATM   30  C   UNL     1     -10.640   0.389 -33.098  1.00  0.00     0.037 A 
HETATM   31  C   UNL     1      -9.380   0.147 -32.537  1.00  0.00     0.012 A 
BRANCH  29  32
HETATM   32  O   UNL     1     -11.981   1.747 -34.649  1.00  0.00    -0.356 OA
HETATM   33  C   UNL     1     -13.076   0.859 -34.456  1.00  0.00     0.210 C 
ENDBRANCH  29  32
ENDBRANCH   1  26
TORSDOF 6
ENDMDL
MODEL 10
REMARK VINA RESULT:      -8.1      5.746      8.375
REMARK  6 active torsions:
REMARK  status: ('A' for Active; 'I' for Inactive)
REMARK    1  A    between atoms: O_2  and  C_3 
REMARK    2  A    between atoms: C_6  and  C_7 
REMARK    3  A    between atoms: C_12  and  C_13 
REMARK       I    between atoms: C_13  and  N_14 
REMARK    4  A    between atoms: N_14  and  C_15 
REMARK    5  A    between atoms: C_15  and  C_16 
REMARK    6  A    between atoms: C_24  and  C_25 
ROOT
HETATM    1  C   UNL     1      -6.491   1.535 -31.015  1.00  0.00     0.118 C 
HETATM    2  N   UNL     1      -7.809   2.147 -31.145  1.00  0.00    -0.366 N 
HETATM    3  C   UNL     1      -8.739   1.709 -32.017  1.00  0.00     0.123 A 
HETATM    4  N   UNL     1      -8.505   0.650 -32.848  1.00  0.00    -0.240 N 
HETATM    5  N   UNL     1      -9.556   0.312 -33.616  1.00  0.00    -0.165 NA
HETATM    6  C   UNL     1     -10.489   1.242 -33.302  1.00  0.00     0.148 A 
HETATM    7  C   UNL     1     -10.013   2.129 -32.297  1.00  0.00     0.088 A 
HETATM    8  C   UNL     1      -7.261  -0.091 -32.887  1.00  0.00     0.221 C 
HETATM    9  C   UNL     1      -6.489   0.097 -31.568  1.00  0.00     0.066 C 
HETATM   10  H   UNL     1      -7.958   2.989 -30.589  1.00  0.00     0.161 HD
ENDROOT
BRANCH   6  11
HETATM   11  C   UNL     1     -11.806   1.283 -33.957  1.00  0.00     0.272 C 
HETATM   12  N   UNL     1     -12.851   1.137 -33.077  1.00  0.00    -0.351 N 
HETATM   13  H   UNL     1     -12.601   1.072 -32.095  1.00  0.00     0.163 HD
HETATM   14  O   UNL     1     -11.941   1.419 -35.169  1.00  0.00    -0.266 OA
BRANCH  12  15
HETATM   15  C   UNL     1     -14.231   1.125 -33.481  1.00  0.00     0.161 C 
BRANCH  15  16
HETATM   16  C   UNL     1     -14.985   2.273 -32.865  1.00  0.00    -0.041 A 
HETATM   17  C   UNL     1     -14.311   3.450 -32.508  1.00  0.00     0.009 A 
HETATM   18  C   UNL     1     -15.004   4.515 -31.933  1.00  0.00     0.001 A 
HETATM   19  C   UNL     1     -16.374   4.413 -31.700  1.00  0.00     0.000 A 
HETATM   20  C   UNL     1     -17.052   3.243 -32.038  1.00  0.00     0.001 A 
HETATM   21  C   UNL     1     -16.361   2.176 -32.614  1.00  0.00     0.009 A 
ENDBRANCH  15  16
ENDBRANCH  12  15
ENDBRANCH   6  11
BRANCH   8  22
HETATM   22  C   UNL     1      -6.479   0.275 -34.127  1.00  0.00     0.409 C 
HETATM   23  F   UNL     1      -6.620   1.557 -34.509  1.00  0.00    -0.169 F 
HETATM   24  F   UNL     1      -5.153   0.058 -33.927  1.00  0.00    -0.169 F 
HETATM   25  F   UNL     1      -6.828  -0.499 -35.184  1.00  0.00    -0.169 F 
ENDBRANCH   8  22
BRANCH   1  26
HETATM   26  C   UNL     1      -5.376   2.418 -31.548  1.00  0.00    -0.035 A 
HETATM   27  C   UNL     1      -5.707   3.630 -32.177  1.00  0.00     0.012 A 
HETATM   28  C   UNL     1      -4.711   4.474 -32.677  1.00  0.00     0.037 A 
HETATM   29  C   UNL     1      -3.364   4.136 -32.554  1.00  0.00     0.068 A 
HETATM   30  C   UNL     1      -3.022   2.928 -31.952  1.00  0.00     0.037 A 
HETATM   31  C   UNL     1      -4.019   2.076 -31.461  1.00  0.00     0.012 A 
BRANCH  29  32
HETATM   32  O   UNL     1      -2.490   5.055 -33.065  1.00  0.00    -0.356 OA
HETATM   33  C   UNL     1      -2.959   6.397 -33.147  1.00  0.00     0.210 C 
ENDBRANCH  29  32
ENDBRANCH   1  26
TORSDOF 6
ENDMDL
