MODEL 1
REMARK VINA RESULT:      -7.4      0.000      0.000
REMARK  5 active torsions:
REMARK  status: ('A' for Active; 'I' for Inactive)
REMARK    1  A    between atoms: C_2  and  C_3 
REMARK    2  A    between atoms: C_3  and  N_4 
REMARK    3  A    between atoms: C_3  and  C_14 
REMARK       I    between atoms: N_4  and  C_5 
REMARK    4  A    between atoms: C_5  and  C_6 
REMARK    5  A    between atoms: C_17  and  O_18 
ROOT
HETATM    1  C   UNL     1      -7.078   0.386 -33.393  1.00  0.00     0.117 C 
ENDROOT
BRANCH   1   2
HETATM    2  C   UNL     1      -8.426   0.497 -34.131  1.00  0.00     0.025 C 
HETATM    3  C   UNL     1      -9.631   0.412 -33.203  1.00  0.00     0.007 C 
ENDBRANCH   1   2
BRANCH   1   4
HETATM    4  N   UNL     1      -6.190   1.496 -33.716  1.00  0.00    -0.348 N 
HETATM    5  C   UNL     1      -5.794   2.423 -32.776  1.00  0.00     0.253 C 
HETATM    6  O   UNL     1      -6.152   2.400 -31.606  1.00  0.00    -0.268 OA
HETATM    7  H   UNL     1      -5.972   1.637 -34.689  1.00  0.00     0.163 HD
BRANCH   5   8
HETATM    8  C   UNL     1      -4.912   3.515 -33.254  1.00  0.00     0.050 A 
HETATM    9  C   UNL     1      -5.371   4.337 -34.278  1.00  0.00     0.133 A 
HETATM   10  N   UNL     1      -4.653   5.359 -34.810  1.00  0.00    -0.271 NA
HETATM   11  C   UNL     1      -3.427   5.576 -34.283  1.00  0.00     0.135 A 
HETATM   12  C   UNL     1      -2.894   4.821 -33.248  1.00  0.00     0.029 A 
HETATM   13 BR   UNL     1      -1.177   5.201 -32.565  1.00  0.00    -0.050 Br
HETATM   14  C   UNL     1      -3.647   3.776 -32.719  1.00  0.00     0.039 A 
ENDBRANCH   5   8
ENDBRANCH   1   4
BRANCH   1  15
HETATM   15  C   UNL     1      -6.383  -0.927 -33.725  1.00  0.00    -0.035 A 
HETATM   16  C   UNL     1      -5.052  -1.126 -33.336  1.00  0.00     0.012 A 
HETATM   17  C   UNL     1      -4.394  -2.322 -33.637  1.00  0.00     0.037 A 
HETATM   18  C   UNL     1      -5.044  -3.336 -34.342  1.00  0.00     0.068 A 
HETATM   19  C   UNL     1      -6.370  -3.152 -34.729  1.00  0.00     0.037 A 
HETATM   20  C   UNL     1      -7.035  -1.959 -34.419  1.00  0.00     0.012 A 
BRANCH  18  21
HETATM   21  O   UNL     1      -4.283  -4.447 -34.578  1.00  0.00    -0.356 OA
HETATM   22  C   UNL     1      -3.380  -4.837 -33.551  1.00  0.00     0.210 C 
ENDBRANCH  18  21
ENDBRANCH   1  15
TORSDOF 5
ENDMDL
MODEL 2
REMARK VINA RESULT:      -7.2      3.972      5.347
REMARK  5 active torsions:
REMARK  status: ('A' for Active; 'I' for Inactive)
REMARK    1  A    between atoms: C_2  and  C_3 
REMARK    2  A    between atoms: C_3  and  N_4 
REMARK    3  A    between atoms: C_3  and  C_14 
REMARK       I    between atoms: N_4  and  C_5 
REMARK    4  A    between atoms: C_5  and  C_6 
REMARK    5  A    between atoms: C_17  and  O_18 
ROOT
HETATM    1  C   UNL     1      -6.621   0.908 -33.405  1.00  0.00     0.117 C 
ENDROOT
BRANCH   1   2
HETATM    2  C   UNL     1      -6.305   1.233 -31.933  1.00  0.00     0.025 C 
HETATM    3  C   UNL     1      -7.078   0.366 -30.945  1.00  0.00     0.007 C 
ENDBRANCH   1   2
BRANCH   1   4
HETATM    4  N   UNL     1      -8.041   1.057 -33.700  1.00  0.00    -0.348 N 
HETATM    5  C   UNL     1      -8.617   2.280 -33.965  1.00  0.00     0.253 C 
HETATM    6  O   UNL     1      -7.998   3.336 -33.970  1.00  0.00    -0.268 OA
HETATM    7  H   UNL     1      -8.619   0.240 -33.581  1.00  0.00     0.163 HD
BRANCH   5   8
HETATM    8  C   UNL     1     -10.078   2.283 -34.220  1.00  0.00     0.050 A 
HETATM    9  C   UNL     1     -10.641   3.398 -34.832  1.00  0.00     0.133 A 
HETATM   10  N   UNL     1     -11.965   3.526 -35.104  1.00  0.00    -0.271 NA
HETATM   11  C   UNL     1     -12.757   2.485 -34.761  1.00  0.00     0.135 A 
HETATM   12  C   UNL     1     -12.283   1.326 -34.166  1.00  0.00     0.029 A 
HETATM   13 BR   UNL     1     -13.458  -0.084 -33.731  1.00  0.00    -0.050 Br
HETATM   14  C   UNL     1     -10.922   1.217 -33.893  1.00  0.00     0.039 A 
ENDBRANCH   5   8
ENDBRANCH   1   4
BRANCH   1  15
HETATM   15  C   UNL     1      -6.179  -0.505 -33.758  1.00  0.00    -0.035 A 
HETATM   16  C   UNL     1      -4.849  -0.890 -33.543  1.00  0.00     0.012 A 
HETATM   17  C   UNL     1      -4.421  -2.181 -33.866  1.00  0.00     0.037 A 
HETATM   18  C   UNL     1      -5.306  -3.108 -34.419  1.00  0.00     0.068 A 
HETATM   19  C   UNL     1      -6.632  -2.738 -34.631  1.00  0.00     0.037 A 
HETATM   20  C   UNL     1      -7.066  -1.449 -34.299  1.00  0.00     0.012 A 
BRANCH  18  21
HETATM   21  O   UNL     1      -4.756  -4.329 -34.696  1.00  0.00    -0.356 OA
HETATM   22  C   UNL     1      -3.637  -4.722 -33.912  1.00  0.00     0.210 C 
ENDBRANCH  18  21
ENDBRANCH   1  15
TORSDOF 5
ENDMDL
MODEL 3
REMARK VINA RESULT:      -7.2      1.660      2.249
REMARK  5 active torsions:
REMARK  status: ('A' for Active; 'I' for Inactive)
REMARK    1  A    between atoms: C_2  and  C_3 
REMARK    2  A    between atoms: C_3  and  N_4 
REMARK    3  A    between atoms: C_3  and  C_14 
REMARK       I    between atoms: N_4  and  C_5 
REMARK    4  A    between atoms: C_5  and  C_6 
REMARK    5  A    between atoms: C_17  and  O_18 
ROOT
HETATM    1  C   UNL     1      -5.542   0.705 -31.549  1.00  0.00     0.117 C 
ENDROOT
BRANCH   1   2
HETATM    2  C   UNL     1      -6.945   0.825 -30.925  1.00  0.00     0.025 C 
HETATM    3  C   UNL     1      -7.448   2.262 -30.842  1.00  0.00     0.007 C 
ENDBRANCH   1   2
BRANCH   1   4
HETATM    4  N   UNL     1      -5.107   1.961 -32.151  1.00  0.00    -0.348 N 
HETATM    5  C   UNL     1      -3.836   2.463 -31.977  1.00  0.00     0.253 C 
HETATM    6  O   UNL     1      -2.973   1.911 -31.307  1.00  0.00    -0.268 OA
HETATM    7  H   UNL     1      -5.815   2.518 -32.603  1.00  0.00     0.163 HD
BRANCH   5   8
HETATM    8  C   UNL     1      -3.544   3.764 -32.625  1.00  0.00     0.050 A 
HETATM    9  C   UNL     1      -4.436   4.244 -33.579  1.00  0.00     0.133 A 
HETATM   10  N   UNL     1      -4.272   5.413 -34.251  1.00  0.00    -0.271 NA
HETATM   11  C   UNL     1      -3.173   6.138 -33.943  1.00  0.00     0.135 A 
HETATM   12  C   UNL     1      -2.239   5.749 -32.994  1.00  0.00     0.029 A 
HETATM   13 BR   UNL     1      -0.739   6.830 -32.619  1.00  0.00    -0.050 Br
HETATM   14  C   UNL     1      -2.427   4.546 -32.318  1.00  0.00     0.039 A 
ENDBRANCH   5   8
ENDBRANCH   1   4
BRANCH   1  15
HETATM   15  C   UNL     1      -5.507  -0.395 -32.600  1.00  0.00    -0.035 A 
HETATM   16  C   UNL     1      -6.653  -0.668 -33.358  1.00  0.00     0.012 A 
HETATM   17  C   UNL     1      -6.644  -1.678 -34.323  1.00  0.00     0.037 A 
HETATM   18  C   UNL     1      -5.498  -2.444 -34.544  1.00  0.00     0.068 A 
HETATM   19  C   UNL     1      -4.350  -2.178 -33.801  1.00  0.00     0.037 A 
HETATM   20  C   UNL     1      -4.353  -1.159 -32.840  1.00  0.00     0.012 A 
BRANCH  18  21
HETATM   21  O   UNL     1      -5.628  -3.404 -35.509  1.00  0.00    -0.356 OA
HETATM   22  C   UNL     1      -6.429  -4.534 -35.187  1.00  0.00     0.210 C 
ENDBRANCH  18  21
ENDBRANCH   1  15
TORSDOF 5
ENDMDL
MODEL 4
REMARK VINA RESULT:      -7.0      3.342      7.188
REMARK  5 active torsions:
REMARK  status: ('A' for Active; 'I' for Inactive)
REMARK    1  A    between atoms: C_2  and  C_3 
REMARK    2  A    between atoms: C_3  and  N_4 
REMARK    3  A    between atoms: C_3  and  C_14 
REMARK       I    between atoms: N_4  and  C_5 
REMARK    4  A    between atoms: C_5  and  C_6 
REMARK    5  A    between atoms: C_17  and  O_18 
ROOT
HETATM    1  C   UNL     1      -5.882   2.596 -32.535  1.00  0.00     0.117 C 
ENDROOT
BRANCH   1   2
HETATM    2  C   UNL     1      -6.231   2.882 -31.062  1.00  0.00     0.025 C 
HETATM    3  C   UNL     1      -6.091   1.661 -30.162  1.00  0.00     0.007 C 
ENDBRANCH   1   2
BRANCH   1   4
HETATM    4  N   UNL     1      -5.470   1.212 -32.736  1.00  0.00    -0.348 N 
HETATM    5  C   UNL     1      -5.878   0.470 -33.823  1.00  0.00     0.253 C 
HETATM    6  O   UNL     1      -6.617   0.899 -34.700  1.00  0.00    -0.268 OA
HETATM    7  H   UNL     1      -4.971   0.771 -31.980  1.00  0.00     0.163 HD
BRANCH   5   8
HETATM    8  C   UNL     1      -5.404  -0.934 -33.882  1.00  0.00     0.050 A 
HETATM    9  C   UNL     1      -4.236  -1.267 -33.204  1.00  0.00     0.133 A 
HETATM   10  N   UNL     1      -3.694  -2.512 -33.194  1.00  0.00    -0.271 NA
HETATM   11  C   UNL     1      -4.360  -3.468 -33.882  1.00  0.00     0.135 A 
HETATM   12  C   UNL     1      -5.540  -3.233 -34.570  1.00  0.00     0.029 A 
HETATM   13 BR   UNL     1      -6.410  -4.629 -35.494  1.00  0.00    -0.050 Br
HETATM   14  C   UNL     1      -6.077  -1.948 -34.569  1.00  0.00     0.039 A 
ENDBRANCH   5   8
ENDBRANCH   1   4
BRANCH   1  15
HETATM   15  C   UNL     1      -4.778   3.525 -33.022  1.00  0.00    -0.035 A 
HETATM   16  C   UNL     1      -3.459   3.318 -32.597  1.00  0.00     0.012 A 
HETATM   17  C   UNL     1      -2.433   4.163 -33.028  1.00  0.00     0.037 A 
HETATM   18  C   UNL     1      -2.701   5.237 -33.878  1.00  0.00     0.068 A 
HETATM   19  C   UNL     1      -4.008   5.448 -34.312  1.00  0.00     0.037 A 
HETATM   20  C   UNL     1      -5.037   4.597 -33.891  1.00  0.00     0.012 A 
BRANCH  18  21
HETATM   21  O   UNL     1      -1.609   5.988 -34.214  1.00  0.00    -0.356 OA
HETATM   22  C   UNL     1      -1.550   7.306 -33.685  1.00  0.00     0.210 C 
ENDBRANCH  18  21
ENDBRANCH   1  15
TORSDOF 5
ENDMDL
MODEL 5
REMARK VINA RESULT:      -6.9      1.209      1.687
REMARK  5 active torsions:
REMARK  status: ('A' for Active; 'I' for Inactive)
REMARK    1  A    between atoms: C_2  and  C_3 
REMARK    2  A    between atoms: C_3  and  N_4 
REMARK    3  A    between atoms: C_3  and  C_14 
REMARK       I    between atoms: N_4  and  C_5 
REMARK    4  A    between atoms: C_5  and  C_6 
REMARK    5  A    between atoms: C_17  and  O_18 
ROOT
HETATM    1  C   UNL     1      -7.003   0.740 -33.609  1.00  0.00     0.117 C 
ENDROOT
BRANCH   1   2
HETATM    2  C   UNL     1      -8.039   0.958 -34.728  1.00  0.00     0.025 C 
HETATM    3  C   UNL     1      -9.257   1.755 -34.274  1.00  0.00     0.007 C 
ENDBRANCH   1   2
BRANCH   1   4
HETATM    4  N   UNL     1      -6.071   1.857 -33.507  1.00  0.00    -0.348 N 
HETATM    5  C   UNL     1      -6.018   2.676 -32.401  1.00  0.00     0.253 C 
HETATM    6  O   UNL     1      -6.741   2.544 -31.422  1.00  0.00    -0.268 OA
HETATM    7  H   UNL     1      -5.546   2.089 -34.335  1.00  0.00     0.163 HD
BRANCH   5   8
HETATM    8  C   UNL     1      -5.041   3.791 -32.448  1.00  0.00     0.050 A 
HETATM    9  C   UNL     1      -5.100   4.766 -31.457  1.00  0.00     0.133 A 
HETATM   10  N   UNL     1      -4.272   5.840 -31.400  1.00  0.00    -0.271 NA
HETATM   11  C   UNL     1      -3.334   5.934 -32.371  1.00  0.00     0.135 A 
HETATM   12  C   UNL     1      -3.188   5.001 -33.386  1.00  0.00     0.029 A 
HETATM   13 BR   UNL     1      -1.844   5.205 -34.694  1.00  0.00    -0.050 Br
HETATM   14  C   UNL     1      -4.049   3.908 -33.427  1.00  0.00     0.039 A 
ENDBRANCH   5   8
ENDBRANCH   1   4
BRANCH   1  15
HETATM   15  C   UNL     1      -6.222  -0.547 -33.836  1.00  0.00    -0.035 A 
HETATM   16  C   UNL     1      -6.838  -1.630 -34.477  1.00  0.00     0.012 A 
HETATM   17  C   UNL     1      -6.141  -2.822 -34.689  1.00  0.00     0.037 A 
HETATM   18  C   UNL     1      -4.821  -2.963 -34.257  1.00  0.00     0.068 A 
HETATM   19  C   UNL     1      -4.195  -1.891 -33.624  1.00  0.00     0.037 A 
HETATM   20  C   UNL     1      -4.889  -0.691 -33.419  1.00  0.00     0.012 A 
BRANCH  18  21
HETATM   21  O   UNL     1      -4.260  -4.183 -34.519  1.00  0.00    -0.356 OA
HETATM   22  C   UNL     1      -3.455  -4.752 -33.495  1.00  0.00     0.210 C 
ENDBRANCH  18  21
ENDBRANCH   1  15
TORSDOF 5
ENDMDL
MODEL 6
REMARK VINA RESULT:      -6.7      3.706      6.059
REMARK  5 active torsions:
REMARK  status: ('A' for Active; 'I' for Inactive)
REMARK    1  A    between atoms: C_2  and  C_3 
REMARK    2  A    between atoms: C_3  and  N_4 
REMARK    3  A    between atoms: C_3  and  C_14 
REMARK       I    between atoms: N_4  and  C_5 
REMARK    4  A    between atoms: C_5  and  C_6 
REMARK    5  A    between atoms: C_17  and  O_18 
ROOT
HETATM    1  C   UNL     1      -7.617  -0.351 -32.883  1.00  0.00     0.117 C 
ENDROOT
BRANCH   1   2
HETATM    2  C   UNL     1      -7.284  -1.548 -33.793  1.00  0.00     0.025 C 
HETATM    3  C   UNL     1      -6.614  -1.145 -35.100  1.00  0.00     0.007 C 
ENDBRANCH   1   2
BRANCH   1   4
HETATM    4  N   UNL     1      -8.467   0.623 -33.558  1.00  0.00    -0.348 N 
HETATM    5  C   UNL     1      -9.840   0.607 -33.447  1.00  0.00     0.253 C 
HETATM    6  O   UNL     1     -10.460  -0.217 -32.787  1.00  0.00    -0.268 OA
HETATM    7  H   UNL     1      -8.019   1.241 -34.215  1.00  0.00     0.163 HD
BRANCH   5   8
HETATM    8  C   UNL     1     -10.579   1.641 -34.212  1.00  0.00     0.050 A 
HETATM    9  C   UNL     1     -11.772   1.281 -34.831  1.00  0.00     0.133 A 
HETATM   10  N   UNL     1     -12.530   2.131 -35.569  1.00  0.00    -0.271 NA
HETATM   11  C   UNL     1     -12.080   3.402 -35.681  1.00  0.00     0.135 A 
HETATM   12  C   UNL     1     -10.913   3.856 -35.085  1.00  0.00     0.029 A 
HETATM   13 BR   UNL     1     -10.365   5.650 -35.284  1.00  0.00    -0.050 Br
HETATM   14  C   UNL     1     -10.150   2.966 -34.333  1.00  0.00     0.039 A 
ENDBRANCH   5   8
ENDBRANCH   1   4
BRANCH   1  15
HETATM   15  C   UNL     1      -6.347   0.337 -32.404  1.00  0.00    -0.035 A 
HETATM   16  C   UNL     1      -6.106   1.673 -32.753  1.00  0.00     0.012 A 
HETATM   17  C   UNL     1      -4.943   2.321 -32.330  1.00  0.00     0.037 A 
HETATM   18  C   UNL     1      -3.991   1.649 -31.561  1.00  0.00     0.068 A 
HETATM   19  C   UNL     1      -4.222   0.323 -31.202  1.00  0.00     0.037 A 
HETATM   20  C   UNL     1      -5.392  -0.326 -31.616  1.00  0.00     0.012 A 
BRANCH  18  21
HETATM   21  O   UNL     1      -2.897   2.396 -31.223  1.00  0.00    -0.356 OA
HETATM   22  C   UNL     1      -2.792   3.684 -31.814  1.00  0.00     0.210 C 
ENDBRANCH  18  21
ENDBRANCH   1  15
TORSDOF 5
ENDMDL
MODEL 7
REMARK VINA RESULT:      -6.5      3.609      6.935
REMARK  5 active torsions:
REMARK  status: ('A' for Active; 'I' for Inactive)
REMARK    1  A    between atoms: C_2  and  C_3 
REMARK    2  A    between atoms: C_3  and  N_4 
REMARK    3  A    between atoms: C_3  and  C_14 
REMARK       I    between atoms: N_4  and  C_5 
REMARK    4  A    between atoms: C_5  and  C_6 
REMARK    5  A    between atoms: C_17  and  O_18 
ROOT
HETATM    1  C   UNL     1      -7.465   2.057 -33.294  1.00  0.00     0.117 C 
ENDROOT
BRANCH   1   2
HETATM    2  C   UNL     1      -6.791   3.209 -34.062  1.00  0.00     0.025 C 
HETATM    3  C   UNL     1      -5.532   3.734 -33.382  1.00  0.00     0.007 C 
ENDBRANCH   1   2
BRANCH   1   4
HETATM    4  N   UNL     1      -6.854   0.769 -33.604  1.00  0.00    -0.348 N 
HETATM    5  C   UNL     1      -6.064   0.090 -32.703  1.00  0.00     0.253 C 
HETATM    6  O   UNL     1      -5.801   0.505 -31.582  1.00  0.00    -0.268 OA
HETATM    7  H   UNL     1      -6.931   0.446 -34.555  1.00  0.00     0.163 HD
BRANCH   5   8
HETATM    8  C   UNL     1      -5.486  -1.195 -33.166  1.00  0.00     0.050 A 
HETATM    9  C   UNL     1      -4.221  -1.554 -32.712  1.00  0.00     0.133 A 
HETATM   10  N   UNL     1      -3.581  -2.696 -33.074  1.00  0.00    -0.271 NA
HETATM   11  C   UNL     1      -4.244  -3.520 -33.917  1.00  0.00     0.135 A 
HETATM   12  C   UNL     1      -5.514  -3.255 -34.406  1.00  0.00     0.029 A 
HETATM   13 BR   UNL     1      -6.371  -4.467 -35.570  1.00  0.00    -0.050 Br
HETATM   14  C   UNL     1      -6.151  -2.077 -34.023  1.00  0.00     0.039 A 
ENDBRANCH   5   8
ENDBRANCH   1   4
BRANCH   1  15
HETATM   15  C   UNL     1      -8.954   1.995 -33.602  1.00  0.00    -0.035 A 
HETATM   16  C   UNL     1      -9.696   0.869 -33.222  1.00  0.00     0.012 A 
HETATM   17  C   UNL     1     -11.063   0.791 -33.501  1.00  0.00     0.037 A 
HETATM   18  C   UNL     1     -11.714   1.825 -34.176  1.00  0.00     0.068 A 
HETATM   19  C   UNL     1     -10.988   2.952 -34.553  1.00  0.00     0.037 A 
HETATM   20  C   UNL     1      -9.620   3.039 -34.265  1.00  0.00     0.012 A 
BRANCH  18  21
HETATM   21  O   UNL     1     -13.048   1.615 -34.393  1.00  0.00    -0.356 OA
HETATM   22  C   UNL     1     -13.551   0.319 -34.097  1.00  0.00     0.210 C 
ENDBRANCH  18  21
ENDBRANCH   1  15
TORSDOF 5
ENDMDL
MODEL 8
REMARK VINA RESULT:      -6.5      1.834      2.186
REMARK  5 active torsions:
REMARK  status: ('A' for Active; 'I' for Inactive)
REMARK    1  A    between atoms: C_2  and  C_3 
REMARK    2  A    between atoms: C_3  and  N_4 
REMARK    3  A    between atoms: C_3  and  C_14 
REMARK       I    between atoms: N_4  and  C_5 
REMARK    4  A    between atoms: C_5  and  C_6 
REMARK    5  A    between atoms: C_17  and  O_18 
ROOT
HETATM    1  C   UNL     1      -6.740   1.120 -31.952  1.00  0.00     0.117 C 
ENDROOT
BRANCH   1   2
HETATM    2  C   UNL     1      -7.966   1.916 -32.439  1.00  0.00     0.025 C 
HETATM    3  C   UNL     1      -9.144   1.860 -31.474  1.00  0.00     0.007 C 
ENDBRANCH   1   2
BRANCH   1   4
HETATM    4  N   UNL     1      -5.556   1.963 -31.842  1.00  0.00    -0.348 N 
HETATM    5  C   UNL     1      -5.192   2.859 -32.823  1.00  0.00     0.253 C 
HETATM    6  O   UNL     1      -5.818   3.020 -33.863  1.00  0.00    -0.268 OA
HETATM    7  H   UNL     1      -4.936   1.779 -31.069  1.00  0.00     0.163 HD
BRANCH   5   8
HETATM    8  C   UNL     1      -3.947   3.630 -32.588  1.00  0.00     0.050 A 
HETATM    9  C   UNL     1      -3.077   3.195 -31.592  1.00  0.00     0.133 A 
HETATM   10  N   UNL     1      -1.916   3.823 -31.274  1.00  0.00    -0.271 NA
HETATM   11  C   UNL     1      -1.606   4.925 -31.993  1.00  0.00     0.135 A 
HETATM   12  C   UNL     1      -2.401   5.420 -33.016  1.00  0.00     0.029 A 
HETATM   13 BR   UNL     1      -1.885   6.960 -33.977  1.00  0.00    -0.050 Br
HETATM   14  C   UNL     1      -3.589   4.762 -33.325  1.00  0.00     0.039 A 
ENDBRANCH   5   8
ENDBRANCH   1   4
BRANCH   1  15
HETATM   15  C   UNL     1      -6.444  -0.045 -32.885  1.00  0.00    -0.035 A 
HETATM   16  C   UNL     1      -5.245  -0.757 -32.748  1.00  0.00     0.012 A 
HETATM   17  C   UNL     1      -4.951  -1.826 -33.599  1.00  0.00     0.037 A 
HETATM   18  C   UNL     1      -5.838  -2.198 -34.610  1.00  0.00     0.068 A 
HETATM   19  C   UNL     1      -7.036  -1.501 -34.752  1.00  0.00     0.037 A 
HETATM   20  C   UNL     1      -7.338  -0.437 -33.894  1.00  0.00     0.012 A 
BRANCH  18  21
HETATM   21  O   UNL     1      -5.424  -3.253 -35.375  1.00  0.00    -0.356 OA
HETATM   22  C   UNL     1      -5.961  -4.529 -35.054  1.00  0.00     0.210 C 
ENDBRANCH  18  21
ENDBRANCH   1  15
TORSDOF 5
ENDMDL
MODEL 9
REMARK VINA RESULT:      -6.5      3.609      4.843
REMARK  5 active torsions:
REMARK  status: ('A' for Active; 'I' for Inactive)
REMARK    1  A    between atoms: C_2  and  C_3 
REMARK    2  A    between atoms: C_3  and  N_4 
REMARK    3  A    between atoms: C_3  and  C_14 
REMARK       I    between atoms: N_4  and  C_5 
REMARK    4  A    between atoms: C_5  and  C_6 
REMARK    5  A    between atoms: C_17  and  O_18 
ROOT
HETATM    1  C   UNL     1      -5.770   1.206 -32.722  1.00  0.00     0.117 C 
ENDROOT
BRANCH   1   2
HETATM    2  C   UNL     1      -5.146   1.235 -31.314  1.00  0.00     0.025 C 
HETATM    3  C   UNL     1      -6.044   0.627 -30.243  1.00  0.00     0.007 C 
ENDBRANCH   1   2
BRANCH   1   4
HETATM    4  N   UNL     1      -7.160   1.648 -32.707  1.00  0.00    -0.348 N 
HETATM    5  C   UNL     1      -7.579   2.791 -33.352  1.00  0.00     0.253 C 
HETATM    6  O   UNL     1      -6.831   3.530 -33.980  1.00  0.00    -0.268 OA
HETATM    7  H   UNL     1      -7.790   1.150 -32.099  1.00  0.00     0.163 HD
BRANCH   5   8
HETATM    8  C   UNL     1      -9.016   3.133 -33.227  1.00  0.00     0.050 A 
HETATM    9  C   UNL     1      -9.505   3.497 -31.976  1.00  0.00     0.133 A 
HETATM   10  N   UNL     1     -10.801   3.818 -31.732  1.00  0.00    -0.271 NA
HETATM   11  C   UNL     1     -11.642   3.786 -32.791  1.00  0.00     0.135 A 
HETATM   12  C   UNL     1     -11.243   3.454 -34.076  1.00  0.00     0.029 A 
HETATM   13 BR   UNL     1     -12.482   3.446 -35.498  1.00  0.00    -0.050 Br
HETATM   14  C   UNL     1      -9.908   3.127 -34.304  1.00  0.00     0.039 A 
ENDBRANCH   5   8
ENDBRANCH   1   4
BRANCH   1  15
HETATM   15  C   UNL     1      -5.693  -0.190 -33.322  1.00  0.00    -0.035 A 
HETATM   16  C   UNL     1      -4.465  -0.864 -33.357  1.00  0.00     0.012 A 
HETATM   17  C   UNL     1      -4.372  -2.144 -33.910  1.00  0.00     0.037 A 
HETATM   18  C   UNL     1      -5.495  -2.772 -34.449  1.00  0.00     0.068 A 
HETATM   19  C   UNL     1      -6.723  -2.115 -34.414  1.00  0.00     0.037 A 
HETATM   20  C   UNL     1      -6.822  -0.836 -33.852  1.00  0.00     0.012 A 
BRANCH  18  21
HETATM   21  O   UNL     1      -5.262  -4.017 -34.965  1.00  0.00    -0.356 OA
HETATM   22  C   UNL     1      -6.383  -4.712 -35.494  1.00  0.00     0.210 C 
ENDBRANCH  18  21
ENDBRANCH   1  15
TORSDOF 5
ENDMDL
MODEL 10
REMARK VINA RESULT:      -6.5      3.973      6.464
REMARK  5 active torsions:
REMARK  status: ('A' for Active; 'I' for Inactive)
REMARK    1  A    between atoms: C_2  and  C_3 
REMARK    2  A    between atoms: C_3  and  N_4 
REMARK    3  A    between atoms: C_3  and  C_14 
REMARK       I    between atoms: N_4  and  C_5 
REMARK    4  A    between atoms: C_5  and  C_6 
REMARK    5  A    between atoms: C_17  and  O_18 
ROOT
HETATM    1  C   UNL     1      -6.687  -0.416 -33.337  1.00  0.00     0.117 C 
ENDROOT
BRANCH   1   2
HETATM    2  C   UNL     1      -6.210  -1.082 -34.642  1.00  0.00     0.025 C 
HETATM    3  C   UNL     1      -5.664  -2.490 -34.437  1.00  0.00     0.007 C 
ENDBRANCH   1   2
BRANCH   1   4
HETATM    4  N   UNL     1      -7.895   0.374 -33.542  1.00  0.00    -0.348 N 
HETATM    5  C   UNL     1      -8.823   0.578 -32.544  1.00  0.00     0.253 C 
HETATM    6  O   UNL     1      -8.721   0.115 -31.416  1.00  0.00    -0.268 OA
HETATM    7  H   UNL     1      -8.093   0.668 -34.485  1.00  0.00     0.163 HD
BRANCH   5   8
HETATM    8  C   UNL     1     -10.018   1.379 -32.905  1.00  0.00     0.050 A 
HETATM    9  C   UNL     1      -9.963   2.760 -32.741  1.00  0.00     0.133 A 
HETATM   10  N   UNL     1     -10.993   3.598 -33.021  1.00  0.00    -0.271 NA
HETATM   11  C   UNL     1     -12.124   3.030 -33.500  1.00  0.00     0.135 A 
HETATM   12  C   UNL     1     -12.264   1.666 -33.713  1.00  0.00     0.029 A 
HETATM   13 BR   UNL     1     -13.874   0.959 -34.395  1.00  0.00    -0.050 Br
HETATM   14  C   UNL     1     -11.194   0.825 -33.417  1.00  0.00     0.039 A 
ENDBRANCH   5   8
ENDBRANCH   1   4
BRANCH   1  15
HETATM   15  C   UNL     1      -5.599   0.471 -32.750  1.00  0.00    -0.035 A 
HETATM   16  C   UNL     1      -5.486   1.803 -33.171  1.00  0.00     0.012 A 
HETATM   17  C   UNL     1      -4.490   2.632 -32.650  1.00  0.00     0.037 A 
HETATM   18  C   UNL     1      -3.579   2.149 -31.709  1.00  0.00     0.068 A 
HETATM   19  C   UNL     1      -3.685   0.829 -31.278  1.00  0.00     0.037 A 
HETATM   20  C   UNL     1      -4.689  -0.002 -31.791  1.00  0.00     0.012 A 
BRANCH  18  21
HETATM   21  O   UNL     1      -2.651   3.062 -31.289  1.00  0.00    -0.356 OA
HETATM   22  C   UNL     1      -2.394   4.159 -32.155  1.00  0.00     0.210 C 
ENDBRANCH  18  21
ENDBRANCH   1  15
TORSDOF 5
ENDMDL
