MODEL 1
REMARK VINA RESULT:      -8.8      0.000      0.000
REMARK  4 active torsions:
REMARK  status: ('A' for Active; 'I' for Inactive)
REMARK    1  A    between atoms: N_4  and  C_5 
REMARK    2  A    between atoms: C_16  and  C_17 
REMARK    3  A    between atoms: C_24  and  C_25 
REMARK    4  A    between atoms: C_25  and  O_26 
ROOT
HETATM    1  C   UNL     1      -3.555   1.723 -32.341  1.00  0.00     0.073 C 
HETATM    2  C   UNL     1      -4.591   0.730 -32.720  1.00  0.00     0.065 A 
HETATM    3  N   UNL     1      -4.238  -0.429 -33.279  1.00  0.00    -0.170 NA
HETATM    4  N   UNL     1      -5.411  -1.108 -33.478  1.00  0.00    -0.215 N 
HETATM    5  C   UNL     1      -6.508  -0.341 -33.079  1.00  0.00     0.165 A 
HETATM    6  C   UNL     1      -5.989   0.837 -32.561  1.00  0.00     0.039 A 
HETATM    7  N   UNL     1      -7.823  -0.652 -33.141  1.00  0.00    -0.216 NA
HETATM    8  C   UNL     1      -8.646   0.284 -32.614  1.00  0.00     0.137 A 
HETATM    9 CL   UNL     1     -10.293  -0.216 -32.720  1.00  0.00    -0.062 Cl
HETATM   10  C   UNL     1      -8.261   1.494 -32.036  1.00  0.00     0.011 A 
HETATM   11  C   UNL     1      -6.882   1.780 -32.029  1.00  0.00     0.030 A 
ENDROOT
BRANCH  10  12
HETATM   12  C   UNL     1      -9.240   2.458 -31.389  1.00  0.00     0.164 C 
HETATM   13  N   UNL     1      -8.664   2.956 -30.147  1.00  0.00    -0.330 N 
HETATM   14  C   UNL     1      -8.133   4.192 -29.985  1.00  0.00     0.321 C 
HETATM   15  H   UNL     1      -8.439   2.301 -29.409  1.00  0.00     0.165 HD
HETATM   16  O   UNL     1      -7.474   4.484 -28.994  1.00  0.00    -0.247 OA
HETATM   17  N   UNL     1      -8.398   5.095 -30.970  1.00  0.00    -0.312 N 
HETATM   18  C   UNL     1      -9.184   4.858 -32.076  1.00  0.00     0.024 C 
HETATM   19  H   UNL     1      -8.037   6.025 -30.790  1.00  0.00     0.170 HD
HETATM   20  C   UNL     1      -9.486   6.054 -32.935  1.00  0.00     0.069 C 
HETATM   21  C   UNL     1      -9.630   3.604 -32.287  1.00  0.00     0.067 C 
BRANCH  21  22
HETATM   22  C   UNL     1     -10.500   3.297 -33.447  1.00  0.00     0.293 C 
HETATM   23  O   UNL     1     -10.097   3.068 -34.575  1.00  0.00    -0.259 OA
BRANCH  22  24
HETATM   24  O   UNL     1     -11.798   3.338 -33.060  1.00  0.00    -0.323 OA
HETATM   25  C   UNL     1     -12.634   2.377 -33.709  1.00  0.00     0.213 C 
ENDBRANCH  22  24
ENDBRANCH  21  22
ENDBRANCH  10  12
BRANCH   4  26
HETATM   26  C   UNL     1      -5.372  -2.436 -34.004  1.00  0.00     0.060 A 
HETATM   27  C   UNL     1      -4.248  -3.241 -33.744  1.00  0.00     0.031 A 
HETATM   28  C   UNL     1      -4.186  -4.553 -34.219  1.00  0.00     0.002 A 
HETATM   29  C   UNL     1      -5.240  -5.075 -34.962  1.00  0.00     0.000 A 
HETATM   30  C   UNL     1      -6.356  -4.285 -35.231  1.00  0.00     0.002 A 
HETATM   31  C   UNL     1      -6.426  -2.970 -34.756  1.00  0.00     0.031 A 
ENDBRANCH   4  26
TORSDOF 4
ENDMDL
MODEL 2
REMARK VINA RESULT:      -8.5      4.205      7.681
REMARK  4 active torsions:
REMARK  status: ('A' for Active; 'I' for Inactive)
REMARK    1  A    between atoms: N_4  and  C_5 
REMARK    2  A    between atoms: C_16  and  C_17 
REMARK    3  A    between atoms: C_24  and  C_25 
REMARK    4  A    between atoms: C_25  and  O_26 
ROOT
HETATM    1  C   UNL     1      -6.486   5.678 -32.982  1.00  0.00     0.073 C 
HETATM    2  C   UNL     1      -5.212   5.121 -32.462  1.00  0.00     0.065 A 
HETATM    3  N   UNL     1      -4.169   5.922 -32.240  1.00  0.00    -0.170 NA
HETATM    4  N   UNL     1      -3.183   5.107 -31.750  1.00  0.00    -0.215 N 
HETATM    5  C   UNL     1      -3.606   3.777 -31.711  1.00  0.00     0.165 A 
HETATM    6  C   UNL     1      -4.925   3.777 -32.142  1.00  0.00     0.039 A 
HETATM    7  N   UNL     1      -2.915   2.683 -31.316  1.00  0.00    -0.216 NA
HETATM    8  C   UNL     1      -3.627   1.533 -31.337  1.00  0.00     0.137 A 
HETATM    9 CL   UNL     1      -2.667   0.205 -30.796  1.00  0.00    -0.062 Cl
HETATM   10  C   UNL     1      -4.962   1.393 -31.715  1.00  0.00     0.011 A 
HETATM   11  C   UNL     1      -5.622   2.559 -32.148  1.00  0.00     0.030 A 
ENDROOT
BRANCH  10  12
HETATM   12  C   UNL     1      -5.720   0.078 -31.631  1.00  0.00     0.164 C 
HETATM   13  N   UNL     1      -7.085   0.346 -31.200  1.00  0.00    -0.330 N 
HETATM   14  C   UNL     1      -8.169   0.326 -32.013  1.00  0.00     0.321 C 
HETATM   15  H   UNL     1      -7.243   0.779 -30.299  1.00  0.00     0.165 HD
HETATM   16  O   UNL     1      -9.254   0.765 -31.649  1.00  0.00    -0.247 OA
HETATM   17  N   UNL     1      -7.988  -0.232 -33.242  1.00  0.00    -0.312 N 
HETATM   18  C   UNL     1      -6.819  -0.802 -33.694  1.00  0.00     0.024 C 
HETATM   19  H   UNL     1      -8.831  -0.284 -33.804  1.00  0.00     0.170 HD
HETATM   20  C   UNL     1      -6.902  -1.517 -35.013  1.00  0.00     0.069 C 
HETATM   21  C   UNL     1      -5.717  -0.695 -32.925  1.00  0.00     0.067 C 
BRANCH  21  22
HETATM   22  C   UNL     1      -4.438  -1.312 -33.348  1.00  0.00     0.293 C 
HETATM   23  O   UNL     1      -3.585  -0.752 -34.017  1.00  0.00    -0.259 OA
BRANCH  22  24
HETATM   24  O   UNL     1      -4.383  -2.590 -32.900  1.00  0.00    -0.323 OA
HETATM   25  C   UNL     1      -4.039  -3.548 -33.903  1.00  0.00     0.213 C 
ENDBRANCH  22  24
ENDBRANCH  21  22
ENDBRANCH  10  12
BRANCH   4  26
HETATM   26  C   UNL     1      -1.940   5.681 -31.339  1.00  0.00     0.060 A 
HETATM   27  C   UNL     1      -1.945   6.707 -30.377  1.00  0.00     0.031 A 
HETATM   28  C   UNL     1      -0.748   7.272 -29.931  1.00  0.00     0.002 A 
HETATM   29  C   UNL     1       0.466   6.824 -30.444  1.00  0.00     0.000 A 
HETATM   30  C   UNL     1       0.483   5.813 -31.401  1.00  0.00     0.002 A 
HETATM   31  C   UNL     1      -0.712   5.240 -31.850  1.00  0.00     0.031 A 
ENDBRANCH   4  26
TORSDOF 4
ENDMDL
MODEL 3
REMARK VINA RESULT:      -8.4      2.860      4.329
REMARK  4 active torsions:
REMARK  status: ('A' for Active; 'I' for Inactive)
REMARK    1  A    between atoms: N_4  and  C_5 
REMARK    2  A    between atoms: C_16  and  C_17 
REMARK    3  A    between atoms: C_24  and  C_25 
REMARK    4  A    between atoms: C_25  and  O_26 
ROOT
HETATM    1  C   UNL     1      -9.008   1.200 -34.808  1.00  0.00     0.073 C 
HETATM    2  C   UNL     1      -7.796   0.497 -34.316  1.00  0.00     0.065 A 
HETATM    3  N   UNL     1      -7.609  -0.794 -34.593  1.00  0.00    -0.170 NA
HETATM    4  N   UNL     1      -6.407  -1.118 -34.022  1.00  0.00    -0.215 N 
HETATM    5  C   UNL     1      -5.865  -0.025 -33.343  1.00  0.00     0.165 A 
HETATM    6  C   UNL     1      -6.740   1.033 -33.550  1.00  0.00     0.039 A 
HETATM    7  N   UNL     1      -4.713   0.044 -32.637  1.00  0.00    -0.216 NA
HETATM    8  C   UNL     1      -4.430   1.272 -32.144  1.00  0.00     0.137 A 
HETATM    9 CL   UNL     1      -2.935   1.259 -31.283  1.00  0.00    -0.062 Cl
HETATM   10  C   UNL     1      -5.200   2.424 -32.301  1.00  0.00     0.011 A 
HETATM   11  C   UNL     1      -6.405   2.287 -33.017  1.00  0.00     0.030 A 
ENDROOT
BRANCH  10  12
HETATM   12  C   UNL     1      -4.772   3.789 -31.788  1.00  0.00     0.164 C 
HETATM   13  N   UNL     1      -4.062   4.492 -32.847  1.00  0.00    -0.330 N 
HETATM   14  C   UNL     1      -4.582   5.503 -33.586  1.00  0.00     0.321 C 
HETATM   15  H   UNL     1      -3.211   4.093 -33.221  1.00  0.00     0.165 HD
HETATM   16  O   UNL     1      -4.026   5.912 -34.598  1.00  0.00    -0.247 OA
HETATM   17  N   UNL     1      -5.740   6.052 -33.123  1.00  0.00    -0.312 N 
HETATM   18  C   UNL     1      -6.384   5.689 -31.961  1.00  0.00     0.024 C 
HETATM   19  H   UNL     1      -6.071   6.843 -33.664  1.00  0.00     0.170 HD
HETATM   20  C   UNL     1      -7.545   6.553 -31.556  1.00  0.00     0.069 C 
HETATM   21  C   UNL     1      -5.922   4.621 -31.280  1.00  0.00     0.067 C 
BRANCH  21  22
HETATM   22  C   UNL     1      -6.560   4.201 -30.010  1.00  0.00     0.293 C 
HETATM   23  O   UNL     1      -7.560   3.506 -29.932  1.00  0.00    -0.259 OA
BRANCH  22  24
HETATM   24  O   UNL     1      -5.878   4.730 -28.966  1.00  0.00    -0.323 OA
HETATM   25  C   UNL     1      -6.681   5.508 -28.075  1.00  0.00     0.213 C 
ENDBRANCH  22  24
ENDBRANCH  21  22
ENDBRANCH  10  12
BRANCH   4  26
HETATM   26  C   UNL     1      -5.877  -2.433 -34.201  1.00  0.00     0.060 A 
HETATM   27  C   UNL     1      -6.720  -3.449 -34.688  1.00  0.00     0.031 A 
HETATM   28  C   UNL     1      -6.230  -4.739 -34.902  1.00  0.00     0.002 A 
HETATM   29  C   UNL     1      -4.897  -5.032 -34.629  1.00  0.00     0.000 A 
HETATM   30  C   UNL     1      -4.055  -4.035 -34.141  1.00  0.00     0.002 A 
HETATM   31  C   UNL     1      -4.538  -2.739 -33.928  1.00  0.00     0.031 A 
ENDBRANCH   4  26
TORSDOF 4
ENDMDL
MODEL 4
REMARK VINA RESULT:      -8.0      2.885      4.104
REMARK  4 active torsions:
REMARK  status: ('A' for Active; 'I' for Inactive)
REMARK    1  A    between atoms: N_4  and  C_5 
REMARK    2  A    between atoms: C_16  and  C_17 
REMARK    3  A    between atoms: C_24  and  C_25 
REMARK    4  A    between atoms: C_25  and  O_26 
ROOT
HETATM    1  C   UNL     1      -2.195  -0.232 -31.035  1.00  0.00     0.073 C 
HETATM    2  C   UNL     1      -3.303  -0.493 -31.987  1.00  0.00     0.065 A 
HETATM    3  N   UNL     1      -3.474  -1.712 -32.502  1.00  0.00    -0.170 NA
HETATM    4  N   UNL     1      -4.577  -1.614 -33.308  1.00  0.00    -0.215 N 
HETATM    5  C   UNL     1      -5.068  -0.307 -33.329  1.00  0.00     0.165 A 
HETATM    6  C   UNL     1      -4.271   0.420 -32.456  1.00  0.00     0.039 A 
HETATM    7  N   UNL     1      -6.120   0.188 -34.020  1.00  0.00    -0.216 NA
HETATM    8  C   UNL     1      -6.384   1.493 -33.779  1.00  0.00     0.137 A 
HETATM    9 CL   UNL     1      -7.752   2.022 -34.688  1.00  0.00    -0.062 Cl
HETATM   10  C   UNL     1      -5.688   2.332 -32.909  1.00  0.00     0.011 A 
HETATM   11  C   UNL     1      -4.582   1.771 -32.240  1.00  0.00     0.030 A 
ENDROOT
BRANCH  10  12
HETATM   12  C   UNL     1      -6.098   3.767 -32.627  1.00  0.00     0.164 C 
HETATM   13  N   UNL     1      -6.984   3.788 -31.471  1.00  0.00    -0.330 N 
HETATM   14  C   UNL     1      -6.621   4.190 -30.228  1.00  0.00     0.321 C 
HETATM   15  H   UNL     1      -7.861   3.286 -31.510  1.00  0.00     0.165 HD
HETATM   16  O   UNL     1      -7.335   3.987 -29.253  1.00  0.00    -0.247 OA
HETATM   17  N   UNL     1      -5.435   4.853 -30.133  1.00  0.00    -0.312 N 
HETATM   18  C   UNL     1      -4.615   5.173 -31.191  1.00  0.00     0.024 C 
HETATM   19  H   UNL     1      -5.221   5.191 -29.201  1.00  0.00     0.170 HD
HETATM   20  C   UNL     1      -3.448   6.065 -30.873  1.00  0.00     0.069 C 
HETATM   21  C   UNL     1      -4.926   4.690 -32.411  1.00  0.00     0.067 C 
BRANCH  21  22
HETATM   22  C   UNL     1      -4.094   5.024 -33.591  1.00  0.00     0.293 C 
HETATM   23  O   UNL     1      -4.442   5.761 -34.499  1.00  0.00    -0.259 OA
BRANCH  22  24
HETATM   24  O   UNL     1      -2.911   4.368 -33.510  1.00  0.00    -0.323 OA
HETATM   25  C   UNL     1      -1.858   4.963 -34.271  1.00  0.00     0.213 C 
ENDBRANCH  22  24
ENDBRANCH  21  22
ENDBRANCH  10  12
BRANCH   4  26
HETATM   26  C   UNL     1      -5.073  -2.784 -33.961  1.00  0.00     0.060 A 
HETATM   27  C   UNL     1      -6.363  -2.759 -34.523  1.00  0.00     0.031 A 
HETATM   28  C   UNL     1      -6.871  -3.874 -35.193  1.00  0.00     0.002 A 
HETATM   29  C   UNL     1      -6.101  -5.029 -35.304  1.00  0.00     0.000 A 
HETATM   30  C   UNL     1      -4.826  -5.068 -34.746  1.00  0.00     0.002 A 
HETATM   31  C   UNL     1      -4.309  -3.953 -34.077  1.00  0.00     0.031 A 
ENDBRANCH   4  26
TORSDOF 4
ENDMDL
MODEL 5
REMARK VINA RESULT:      -7.9      7.248     10.652
REMARK  4 active torsions:
REMARK  status: ('A' for Active; 'I' for Inactive)
REMARK    1  A    between atoms: N_4  and  C_5 
REMARK    2  A    between atoms: C_16  and  C_17 
REMARK    3  A    between atoms: C_24  and  C_25 
REMARK    4  A    between atoms: C_25  and  O_26 
ROOT
HETATM    1  C   UNL     1      -4.692   8.204 -28.660  1.00  0.00     0.073 C 
HETATM    2  C   UNL     1      -3.229   7.950 -28.664  1.00  0.00     0.065 A 
HETATM    3  N   UNL     1      -2.427   8.629 -27.843  1.00  0.00    -0.170 NA
HETATM    4  N   UNL     1      -1.168   8.143 -28.081  1.00  0.00    -0.215 N 
HETATM    5  C   UNL     1      -1.186   7.182 -29.094  1.00  0.00     0.165 A 
HETATM    6  C   UNL     1      -2.516   7.027 -29.458  1.00  0.00     0.039 A 
HETATM    7  N   UNL     1      -0.147   6.496 -29.625  1.00  0.00    -0.216 NA
HETATM    8  C   UNL     1      -0.499   5.581 -30.558  1.00  0.00     0.137 A 
HETATM    9 CL   UNL     1       0.888   4.747 -31.154  1.00  0.00    -0.062 Cl
HETATM   10  C   UNL     1      -1.793   5.301 -30.997  1.00  0.00     0.011 A 
HETATM   11  C   UNL     1      -2.831   6.069 -30.433  1.00  0.00     0.030 A 
ENDROOT
BRANCH  10  12
HETATM   12  C   UNL     1      -2.117   4.198 -31.990  1.00  0.00     0.164 C 
HETATM   13  N   UNL     1      -2.806   3.121 -31.292  1.00  0.00    -0.330 N 
HETATM   14  C   UNL     1      -4.137   2.877 -31.372  1.00  0.00     0.321 C 
HETATM   15  H   UNL     1      -2.335   2.640 -30.537  1.00  0.00     0.165 HD
HETATM   16  O   UNL     1      -4.695   2.101 -30.606  1.00  0.00    -0.247 OA
HETATM   17  N   UNL     1      -4.808   3.523 -32.366  1.00  0.00    -0.312 N 
HETATM   18  C   UNL     1      -4.236   4.356 -33.302  1.00  0.00     0.024 C 
HETATM   19  H   UNL     1      -5.789   3.275 -32.435  1.00  0.00     0.170 HD
HETATM   20  C   UNL     1      -5.138   4.813 -34.413  1.00  0.00     0.069 C 
HETATM   21  C   UNL     1      -2.933   4.674 -33.164  1.00  0.00     0.067 C 
BRANCH  21  22
HETATM   22  C   UNL     1      -2.260   5.545 -34.155  1.00  0.00     0.293 C 
HETATM   23  O   UNL     1      -1.449   5.158 -34.982  1.00  0.00    -0.259 OA
BRANCH  22  24
HETATM   24  O   UNL     1      -2.664   6.826 -33.980  1.00  0.00    -0.323 OA
HETATM   25  C   UNL     1      -1.653   7.695 -33.463  1.00  0.00     0.213 C 
ENDBRANCH  22  24
ENDBRANCH  21  22
ENDBRANCH  10  12
BRANCH   4  26
HETATM   26  C   UNL     1      -0.073   8.622 -27.299  1.00  0.00     0.060 A 
HETATM   27  C   UNL     1       0.001   9.993 -26.993  1.00  0.00     0.031 A 
HETATM   28  C   UNL     1       1.043  10.493 -26.208  1.00  0.00     0.002 A 
HETATM   29  C   UNL     1       2.024   9.633 -25.724  1.00  0.00     0.000 A 
HETATM   30  C   UNL     1       1.964   8.274 -26.024  1.00  0.00     0.002 A 
HETATM   31  C   UNL     1       0.922   7.766 -26.808  1.00  0.00     0.031 A 
ENDBRANCH   4  26
TORSDOF 4
ENDMDL
MODEL 6
REMARK VINA RESULT:      -7.8      5.093      7.377
REMARK  4 active torsions:
REMARK  status: ('A' for Active; 'I' for Inactive)
REMARK    1  A    between atoms: N_4  and  C_5 
REMARK    2  A    between atoms: C_16  and  C_17 
REMARK    3  A    between atoms: C_24  and  C_25 
REMARK    4  A    between atoms: C_25  and  O_26 
ROOT
HETATM    1  C   UNL     1      -7.064   4.431 -29.364  1.00  0.00     0.073 C 
HETATM    2  C   UNL     1      -6.292   3.896 -30.514  1.00  0.00     0.065 A 
HETATM    3  N   UNL     1      -6.634   2.735 -31.071  1.00  0.00    -0.170 NA
HETATM    4  N   UNL     1      -5.749   2.551 -32.100  1.00  0.00    -0.215 N 
HETATM    5  C   UNL     1      -4.819   3.590 -32.152  1.00  0.00     0.165 A 
HETATM    6  C   UNL     1      -5.177   4.481 -31.150  1.00  0.00     0.039 A 
HETATM    7  N   UNL     1      -3.780   3.752 -33.004  1.00  0.00    -0.216 NA
HETATM    8  C   UNL     1      -3.093   4.905 -32.837  1.00  0.00     0.137 A 
HETATM    9 CL   UNL     1      -1.808   5.027 -33.982  1.00  0.00    -0.062 Cl
HETATM   10  C   UNL     1      -3.359   5.899 -31.895  1.00  0.00     0.011 A 
HETATM   11  C   UNL     1      -4.431   5.662 -31.012  1.00  0.00     0.030 A 
ENDROOT
BRANCH  10  12
HETATM   12  C   UNL     1      -2.592   7.208 -31.824  1.00  0.00     0.164 C 
HETATM   13  N   UNL     1      -3.533   8.297 -31.598  1.00  0.00    -0.330 N 
HETATM   14  C   UNL     1      -3.710   8.930 -30.413  1.00  0.00     0.321 C 
HETATM   15  H   UNL     1      -4.257   8.474 -32.281  1.00  0.00     0.165 HD
HETATM   16  O   UNL     1      -4.655   9.685 -30.222  1.00  0.00    -0.247 OA
HETATM   17  N   UNL     1      -2.763   8.699 -29.460  1.00  0.00    -0.312 N 
HETATM   18  C   UNL     1      -1.642   7.918 -29.625  1.00  0.00     0.024 C 
HETATM   19  H   UNL     1      -2.892   9.233 -28.607  1.00  0.00     0.170 HD
HETATM   20  C   UNL     1      -0.645   7.953 -28.501  1.00  0.00     0.069 C 
HETATM   21  C   UNL     1      -1.517   7.211 -30.767  1.00  0.00     0.067 C 
BRANCH  21  22
HETATM   22  C   UNL     1      -0.319   6.374 -31.009  1.00  0.00     0.293 C 
HETATM   23  O   UNL     1       0.625   6.699 -31.711  1.00  0.00    -0.259 OA
BRANCH  22  24
HETATM   24  O   UNL     1      -0.452   5.195 -30.355  1.00  0.00    -0.323 OA
HETATM   25  C   UNL     1       0.744   4.740 -29.718  1.00  0.00     0.213 C 
ENDBRANCH  22  24
ENDBRANCH  21  22
ENDBRANCH  10  12
BRANCH   4  26
HETATM   26  C   UNL     1      -5.893   1.413 -32.954  1.00  0.00     0.060 A 
HETATM   27  C   UNL     1      -5.313   0.192 -32.568  1.00  0.00     0.031 A 
HETATM   28  C   UNL     1      -5.456  -0.948 -33.364  1.00  0.00     0.002 A 
HETATM   29  C   UNL     1      -6.175  -0.880 -34.554  1.00  0.00     0.000 A 
HETATM   30  C   UNL     1      -6.749   0.326 -34.948  1.00  0.00     0.002 A 
HETATM   31  C   UNL     1      -6.612   1.471 -34.154  1.00  0.00     0.031 A 
ENDBRANCH   4  26
TORSDOF 4
ENDMDL
MODEL 7
REMARK VINA RESULT:      -7.7      3.098      7.038
REMARK  4 active torsions:
REMARK  status: ('A' for Active; 'I' for Inactive)
REMARK    1  A    between atoms: N_4  and  C_5 
REMARK    2  A    between atoms: C_16  and  C_17 
REMARK    3  A    between atoms: C_24  and  C_25 
REMARK    4  A    between atoms: C_25  and  O_26 
ROOT
HETATM    1  C   UNL     1     -10.141   5.990 -31.503  1.00  0.00     0.073 C 
HETATM    2  C   UNL     1     -10.492   4.698 -32.145  1.00  0.00     0.065 A 
HETATM    3  N   UNL     1     -11.761   4.292 -32.188  1.00  0.00    -0.170 NA
HETATM    4  N   UNL     1     -11.738   3.096 -32.856  1.00  0.00    -0.215 N 
HETATM    5  C   UNL     1     -10.431   2.735 -33.190  1.00  0.00     0.165 A 
HETATM    6  C   UNL     1      -9.620   3.776 -32.762  1.00  0.00     0.039 A 
HETATM    7  N   UNL     1     -10.000   1.622 -33.827  1.00  0.00    -0.216 NA
HETATM    8  C   UNL     1      -8.667   1.591 -34.061  1.00  0.00     0.137 A 
HETATM    9 CL   UNL     1      -8.222   0.147 -34.893  1.00  0.00    -0.062 Cl
HETATM   10  C   UNL     1      -7.743   2.576 -33.714  1.00  0.00     0.011 A 
HETATM   11  C   UNL     1      -8.243   3.698 -33.025  1.00  0.00     0.030 A 
ENDROOT
BRANCH  10  12
HETATM   12  C   UNL     1      -6.272   2.508 -34.087  1.00  0.00     0.164 C 
HETATM   13  N   UNL     1      -5.818   3.839 -34.469  1.00  0.00    -0.330 N 
HETATM   14  C   UNL     1      -5.055   4.646 -33.693  1.00  0.00     0.321 C 
HETATM   15  H   UNL     1      -6.251   4.301 -35.258  1.00  0.00     0.165 HD
HETATM   16  O   UNL     1      -4.883   5.827 -33.968  1.00  0.00    -0.247 OA
HETATM   17  N   UNL     1      -4.472   4.062 -32.608  1.00  0.00    -0.312 N 
HETATM   18  C   UNL     1      -4.568   2.730 -32.275  1.00  0.00     0.024 C 
HETATM   19  H   UNL     1      -3.862   4.677 -32.082  1.00  0.00     0.170 HD
HETATM   20  C   UNL     1      -3.695   2.272 -31.140  1.00  0.00     0.069 C 
HETATM   21  C   UNL     1      -5.404   1.950 -32.989  1.00  0.00     0.067 C 
BRANCH  21  22
HETATM   22  C   UNL     1      -5.527   0.503 -32.691  1.00  0.00     0.293 C 
HETATM   23  O   UNL     1      -6.254   0.031 -31.832  1.00  0.00    -0.259 OA
BRANCH  22  24
HETATM   24  O   UNL     1      -4.693  -0.196 -33.497  1.00  0.00    -0.323 OA
HETATM   25  C   UNL     1      -5.146  -1.517 -33.805  1.00  0.00     0.213 C 
ENDBRANCH  22  24
ENDBRANCH  21  22
ENDBRANCH  10  12
BRANCH   4  26
HETATM   26  C   UNL     1     -12.968   2.425 -33.136  1.00  0.00     0.060 A 
HETATM   27  C   UNL     1     -14.095   2.706 -32.342  1.00  0.00     0.031 A 
HETATM   28  C   UNL     1     -15.322   2.090 -32.603  1.00  0.00     0.002 A 
HETATM   29  C   UNL     1     -15.436   1.185 -33.654  1.00  0.00     0.000 A 
HETATM   30  C   UNL     1     -14.325   0.895 -34.443  1.00  0.00     0.002 A 
HETATM   31  C   UNL     1     -13.095   1.511 -34.189  1.00  0.00     0.031 A 
ENDBRANCH   4  26
TORSDOF 4
ENDMDL
MODEL 8
REMARK VINA RESULT:      -7.6      2.637      3.495
REMARK  4 active torsions:
REMARK  status: ('A' for Active; 'I' for Inactive)
REMARK    1  A    between atoms: N_4  and  C_5 
REMARK    2  A    between atoms: C_16  and  C_17 
REMARK    3  A    between atoms: C_24  and  C_25 
REMARK    4  A    between atoms: C_25  and  O_26 
ROOT
HETATM    1  C   UNL     1      -2.615   3.604 -31.615  1.00  0.00     0.073 C 
HETATM    2  C   UNL     1      -3.878   2.867 -31.874  1.00  0.00     0.065 A 
HETATM    3  N   UNL     1      -3.880   1.797 -32.669  1.00  0.00    -0.170 NA
HETATM    4  N   UNL     1      -5.175   1.351 -32.675  1.00  0.00    -0.215 N 
HETATM    5  C   UNL     1      -5.994   2.183 -31.910  1.00  0.00     0.165 A 
HETATM    6  C   UNL     1      -5.162   3.150 -31.363  1.00  0.00     0.039 A 
HETATM    7  N   UNL     1      -7.327   2.089 -31.694  1.00  0.00    -0.216 NA
HETATM    8  C   UNL     1      -7.824   3.021 -30.848  1.00  0.00     0.137 A 
HETATM    9 CL   UNL     1      -9.520   2.802 -30.621  1.00  0.00    -0.062 Cl
HETATM   10  C   UNL     1      -7.102   4.027 -30.207  1.00  0.00     0.011 A 
HETATM   11  C   UNL     1      -5.724   4.097 -30.494  1.00  0.00     0.030 A 
ENDROOT
BRANCH  10  12
HETATM   12  C   UNL     1      -7.718   4.986 -29.202  1.00  0.00     0.164 C 
HETATM   13  N   UNL     1      -6.889   5.014 -28.005  1.00  0.00    -0.330 N 
HETATM   14  C   UNL     1      -6.045   6.022 -27.674  1.00  0.00     0.321 C 
HETATM   15  H   UNL     1      -6.752   4.161 -27.478  1.00  0.00     0.165 HD
HETATM   16  O   UNL     1      -5.219   5.901 -26.777  1.00  0.00    -0.247 OA
HETATM   17  N   UNL     1      -6.187   7.180 -28.377  1.00  0.00    -0.312 N 
HETATM   18  C   UNL     1      -7.133   7.409 -29.351  1.00  0.00     0.024 C 
HETATM   19  H   UNL     1      -5.582   7.932 -28.067  1.00  0.00     0.170 HD
HETATM   20  C   UNL     1      -7.221   8.820 -29.863  1.00  0.00     0.069 C 
HETATM   21  C   UNL     1      -7.906   6.379 -29.747  1.00  0.00     0.067 C 
BRANCH  21  22
HETATM   22  C   UNL     1      -8.959   6.574 -30.772  1.00  0.00     0.293 C 
HETATM   23  O   UNL     1      -8.766   6.557 -31.977  1.00  0.00    -0.259 OA
BRANCH  22  24
HETATM   24  O   UNL     1     -10.148   6.797 -30.161  1.00  0.00    -0.323 OA
HETATM   25  C   UNL     1     -11.237   6.051 -30.709  1.00  0.00     0.213 C 
ENDBRANCH  22  24
ENDBRANCH  21  22
ENDBRANCH  10  12
BRANCH   4  26
HETATM   26  C   UNL     1      -5.502   0.156 -33.388  1.00  0.00     0.060 A 
HETATM   27  C   UNL     1      -4.659  -0.963 -33.269  1.00  0.00     0.031 A 
HETATM   28  C   UNL     1      -4.961  -2.156 -33.930  1.00  0.00     0.002 A 
HETATM   29  C   UNL     1      -6.103  -2.244 -34.720  1.00  0.00     0.000 A 
HETATM   30  C   UNL     1      -6.943  -1.140 -34.850  1.00  0.00     0.002 A 
HETATM   31  C   UNL     1      -6.647   0.057 -34.188  1.00  0.00     0.031 A 
ENDBRANCH   4  26
TORSDOF 4
ENDMDL
MODEL 9
REMARK VINA RESULT:      -7.6      2.455      3.367
REMARK  4 active torsions:
REMARK  status: ('A' for Active; 'I' for Inactive)
REMARK    1  A    between atoms: N_4  and  C_5 
REMARK    2  A    between atoms: C_16  and  C_17 
REMARK    3  A    between atoms: C_24  and  C_25 
REMARK    4  A    between atoms: C_25  and  O_26 
ROOT
HETATM    1  C   UNL     1      -7.260   2.985 -30.070  1.00  0.00     0.073 C 
HETATM    2  C   UNL     1      -7.595   2.145 -31.247  1.00  0.00     0.065 A 
HETATM    3  N   UNL     1      -6.749   1.202 -31.662  1.00  0.00    -0.170 NA
HETATM    4  N   UNL     1      -7.363   0.609 -32.734  1.00  0.00    -0.215 N 
HETATM    5  C   UNL     1      -8.585   1.224 -33.014  1.00  0.00     0.165 A 
HETATM    6  C   UNL     1      -8.759   2.199 -32.042  1.00  0.00     0.039 A 
HETATM    7  N   UNL     1      -9.464   0.942 -34.002  1.00  0.00    -0.216 NA
HETATM    8  C   UNL     1     -10.597   1.682 -33.972  1.00  0.00     0.137 A 
HETATM    9 CL   UNL     1     -11.659   1.233 -35.255  1.00  0.00    -0.062 Cl
HETATM   10  C   UNL     1     -10.916   2.670 -33.041  1.00  0.00     0.011 A 
HETATM   11  C   UNL     1      -9.949   2.944 -32.053  1.00  0.00     0.030 A 
ENDROOT
BRANCH  10  12
HETATM   12  C   UNL     1     -12.248   3.400 -33.022  1.00  0.00     0.164 C 
HETATM   13  N   UNL     1     -12.805   3.336 -31.678  1.00  0.00    -0.330 N 
HETATM   14  C   UNL     1     -12.813   4.364 -30.796  1.00  0.00     0.321 C 
HETATM   15  H   UNL     1     -13.015   2.433 -31.273  1.00  0.00     0.165 HD
HETATM   16  O   UNL     1     -13.096   4.197 -29.616  1.00  0.00    -0.247 OA
HETATM   17  N   UNL     1     -12.515   5.593 -31.303  1.00  0.00    -0.312 N 
HETATM   18  C   UNL     1     -12.252   5.866 -32.626  1.00  0.00     0.024 C 
HETATM   19  H   UNL     1     -12.587   6.349 -30.630  1.00  0.00     0.170 HD
HETATM   20  C   UNL     1     -12.128   7.320 -32.986  1.00  0.00     0.069 C 
HETATM   21  C   UNL     1     -12.148   4.832 -33.484  1.00  0.00     0.067 C 
BRANCH  21  22
HETATM   22  C   UNL     1     -11.892   5.068 -34.925  1.00  0.00     0.293 C 
HETATM   23  O   UNL     1     -10.789   5.246 -35.414  1.00  0.00    -0.259 OA
BRANCH  22  24
HETATM   24  O   UNL     1     -13.069   5.080 -35.596  1.00  0.00    -0.323 OA
HETATM   25  C   UNL     1     -13.339   6.303 -36.284  1.00  0.00     0.213 C 
ENDBRANCH  22  24
ENDBRANCH  21  22
ENDBRANCH  10  12
BRANCH   4  26
HETATM   26  C   UNL     1      -6.737  -0.506 -33.371  1.00  0.00     0.060 A 
HETATM   27  C   UNL     1      -5.334  -0.612 -33.341  1.00  0.00     0.031 A 
HETATM   28  C   UNL     1      -4.689  -1.702 -33.930  1.00  0.00     0.002 A 
HETATM   29  C   UNL     1      -5.434  -2.695 -34.558  1.00  0.00     0.000 A 
HETATM   30  C   UNL     1      -6.824  -2.598 -34.599  1.00  0.00     0.002 A 
HETATM   31  C   UNL     1      -7.476  -1.510 -34.009  1.00  0.00     0.031 A 
ENDBRANCH   4  26
TORSDOF 4
ENDMDL
MODEL 10
REMARK VINA RESULT:      -7.5      3.468      6.639
REMARK  4 active torsions:
REMARK  status: ('A' for Active; 'I' for Inactive)
REMARK    1  A    between atoms: N_4  and  C_5 
REMARK    2  A    between atoms: C_16  and  C_17 
REMARK    3  A    between atoms: C_24  and  C_25 
REMARK    4  A    between atoms: C_25  and  O_26 
ROOT
HETATM    1  C   UNL     1      -2.968   0.300 -31.166  1.00  0.00     0.073 C 
HETATM    2  C   UNL     1      -3.307   1.709 -31.490  1.00  0.00     0.065 A 
HETATM    3  N   UNL     1      -2.520   2.702 -31.072  1.00  0.00    -0.170 NA
HETATM    4  N   UNL     1      -3.096   3.848 -31.553  1.00  0.00    -0.215 N 
HETATM    5  C   UNL     1      -4.279   3.564 -32.239  1.00  0.00     0.165 A 
HETATM    6  C   UNL     1      -4.411   2.183 -32.230  1.00  0.00     0.039 A 
HETATM    7  N   UNL     1      -5.139   4.425 -32.831  1.00  0.00    -0.216 NA
HETATM    8  C   UNL     1      -6.172   3.832 -33.473  1.00  0.00     0.137 A 
HETATM    9 CL   UNL     1      -7.194   5.010 -34.211  1.00  0.00    -0.062 Cl
HETATM   10  C   UNL     1      -6.410   2.461 -33.570  1.00  0.00     0.011 A 
HETATM   11  C   UNL     1      -5.500   1.614 -32.907  1.00  0.00     0.030 A 
ENDROOT
BRANCH  10  12
HETATM   12  C   UNL     1      -7.548   1.867 -34.382  1.00  0.00     0.164 C 
HETATM   13  N   UNL     1      -7.043   0.733 -35.144  1.00  0.00    -0.330 N 
HETATM   14  C   UNL     1      -7.270  -0.567 -34.834  1.00  0.00     0.321 C 
HETATM   15  H   UNL     1      -6.309   0.881 -35.824  1.00  0.00     0.165 HD
HETATM   16  O   UNL     1      -6.651  -1.474 -35.378  1.00  0.00    -0.247 OA
HETATM   17  N   UNL     1      -8.240  -0.804 -33.908  1.00  0.00    -0.312 N 
HETATM   18  C   UNL     1      -9.018   0.159 -33.306  1.00  0.00     0.024 C 
HETATM   19  H   UNL     1      -8.425  -1.787 -33.741  1.00  0.00     0.170 HD
HETATM   20  C   UNL     1     -10.147  -0.347 -32.452  1.00  0.00     0.069 C 
HETATM   21  C   UNL     1      -8.728   1.454 -33.540  1.00  0.00     0.067 C 
BRANCH  21  22
HETATM   22  C   UNL     1      -9.549   2.533 -32.940  1.00  0.00     0.293 C 
HETATM   23  O   UNL     1      -9.367   3.008 -31.831  1.00  0.00    -0.259 OA
BRANCH  22  24
HETATM   24  O   UNL     1     -10.535   2.881 -33.801  1.00  0.00    -0.323 OA
HETATM   25  C   UNL     1     -11.779   3.196 -33.170  1.00  0.00     0.213 C 
ENDBRANCH  22  24
ENDBRANCH  21  22
ENDBRANCH  10  12
BRANCH   4  26
HETATM   26  C   UNL     1      -2.448   5.103 -31.336  1.00  0.00     0.060 A 
HETATM   27  C   UNL     1      -3.108   6.093 -30.587  1.00  0.00     0.031 A 
HETATM   28  C   UNL     1      -2.494   7.321 -30.331  1.00  0.00     0.002 A 
HETATM   29  C   UNL     1      -1.218   7.577 -30.824  1.00  0.00     0.000 A 
HETATM   30  C   UNL     1      -0.556   6.606 -31.572  1.00  0.00     0.002 A 
HETATM   31  C   UNL     1      -1.165   5.372 -31.829  1.00  0.00     0.031 A 
ENDBRANCH   4  26
TORSDOF 4
ENDMDL
