MODEL 1
REMARK VINA RESULT:      -7.5      0.000      0.000
REMARK  2 active torsions:
REMARK  status: ('A' for Active; 'I' for Inactive)
REMARK    1  A    between atoms: C_8  and  S_9 
REMARK    2  A    between atoms: S_9  and  C_10 
ROOT
HETATM    1  C   UNL     1      -3.697  -4.773 -33.514  1.00  0.00     0.002 A 
HETATM    2  C   UNL     1      -3.612  -3.475 -33.013  1.00  0.00     0.034 A 
HETATM    3  C   UNL     1      -4.463  -2.472 -33.459  1.00  0.00     0.087 A 
HETATM    4  C   UNL     1      -5.440  -2.780 -34.442  1.00  0.00     0.087 A 
HETATM    5  N   UNL     1      -6.287  -1.843 -34.906  1.00  0.00    -0.232 NA
HETATM    6  C   UNL     1      -6.189  -0.606 -34.368  1.00  0.00     0.164 A 
HETATM    7 CL   UNL     1      -7.263   0.527 -35.074  1.00  0.00    -0.059 Cl
HETATM    8  C   UNL     1      -5.236  -0.307 -33.411  1.00  0.00     0.165 A 
HETATM    9  N   UNL     1      -4.344  -1.226 -32.956  1.00  0.00    -0.234 NA
HETATM   10  C   UNL     1      -5.511  -4.077 -34.935  1.00  0.00     0.034 A 
HETATM   11  C   UNL     1      -4.649  -5.075 -34.480  1.00  0.00     0.002 A 
ENDROOT
BRANCH   8  12
HETATM   12  S   UNL     1      -4.926   1.258 -32.619  1.00  0.00     0.076 S 
HETATM   13  O   UNL     1      -3.446   1.457 -32.526  1.00  0.00    -0.251 OA
BRANCH  12  14
HETATM   14  C   UNL     1      -5.522   0.843 -30.929  1.00  0.00     0.089 C 
HETATM   15  C   UNL     1      -6.897   0.168 -30.968  1.00  0.00     0.045 C 
HETATM   16  C   UNL     1      -8.007   1.118 -31.399  1.00  0.00     0.233 C 
HETATM   17  N   UNL     1      -7.989   2.330 -30.529  1.00  0.00    -0.075 N 
HETATM   18  H   UNL     1      -8.254   2.075 -29.566  1.00  0.00     0.277 HD
HETATM   19  H   UNL     1      -8.728   2.976 -30.846  1.00  0.00     0.277 HD
HETATM   20  C   UNL     1      -6.689   3.067 -30.512  1.00  0.00     0.233 C 
HETATM   21  C   UNL     1      -5.582   2.119 -30.074  1.00  0.00     0.045 C 
ENDBRANCH  12  14
ENDBRANCH   8  12
TORSDOF 2
ENDMDL
MODEL 2
REMARK VINA RESULT:      -7.5      2.150      2.816
REMARK  2 active torsions:
REMARK  status: ('A' for Active; 'I' for Inactive)
REMARK    1  A    between atoms: C_8  and  S_9 
REMARK    2  A    between atoms: S_9  and  C_10 
ROOT
HETATM    1  C   UNL     1      -5.874  -4.858 -35.010  1.00  0.00     0.002 A 
HETATM    2  C   UNL     1      -6.581  -3.657 -35.060  1.00  0.00     0.034 A 
HETATM    3  C   UNL     1      -6.068  -2.495 -34.498  1.00  0.00     0.087 A 
HETATM    4  C   UNL     1      -4.798  -2.535 -33.865  1.00  0.00     0.087 A 
HETATM    5  N   UNL     1      -4.260  -1.435 -33.305  1.00  0.00    -0.232 NA
HETATM    6  C   UNL     1      -4.966  -0.286 -33.406  1.00  0.00     0.164 A 
HETATM    7 CL   UNL     1      -4.227   1.036 -32.605  1.00  0.00    -0.059 Cl
HETATM    8  C   UNL     1      -6.203  -0.250 -34.022  1.00  0.00     0.165 A 
HETATM    9  N   UNL     1      -6.786  -1.354 -34.559  1.00  0.00    -0.234 NA
HETATM   10  C   UNL     1      -4.107  -3.739 -33.819  1.00  0.00     0.034 A 
HETATM   11  C   UNL     1      -4.634  -4.900 -34.386  1.00  0.00     0.002 A 
ENDROOT
BRANCH   8  12
HETATM   12  S   UNL     1      -7.295   1.145 -34.218  1.00  0.00     0.076 S 
HETATM   13  O   UNL     1      -6.464   2.377 -34.391  1.00  0.00    -0.251 OA
BRANCH  12  14
HETATM   14  C   UNL     1      -7.995   1.199 -32.519  1.00  0.00     0.089 C 
HETATM   15  C   UNL     1      -9.140   0.194 -32.350  1.00  0.00     0.045 C 
HETATM   16  C   UNL     1     -10.381   0.578 -33.144  1.00  0.00     0.233 C 
HETATM   17  N   UNL     1     -10.785   1.971 -32.791  1.00  0.00    -0.075 N 
HETATM   18  H   UNL     1     -11.108   2.005 -31.813  1.00  0.00     0.277 HD
HETATM   19  H   UNL     1     -11.611   2.228 -33.353  1.00  0.00     0.277 HD
HETATM   20  C   UNL     1      -9.725   3.002 -33.006  1.00  0.00     0.233 C 
HETATM   21  C   UNL     1      -8.487   2.620 -32.207  1.00  0.00     0.045 C 
ENDBRANCH  12  14
ENDBRANCH   8  12
TORSDOF 2
ENDMDL
MODEL 3
REMARK VINA RESULT:      -7.3      1.712      2.283
REMARK  2 active torsions:
REMARK  status: ('A' for Active; 'I' for Inactive)
REMARK    1  A    between atoms: C_8  and  S_9 
REMARK    2  A    between atoms: S_9  and  C_10 
ROOT
HETATM    1  C   UNL     1      -5.625  -4.485 -34.973  1.00  0.00     0.002 A 
HETATM    2  C   UNL     1      -5.998  -3.162 -34.737  1.00  0.00     0.034 A 
HETATM    3  C   UNL     1      -5.264  -2.346 -33.886  1.00  0.00     0.087 A 
HETATM    4  C   UNL     1      -4.110  -2.872 -33.249  1.00  0.00     0.087 A 
HETATM    5  N   UNL     1      -3.366  -2.121 -32.415  1.00  0.00    -0.232 NA
HETATM    6  C   UNL     1      -3.748  -0.835 -32.242  1.00  0.00     0.164 A 
HETATM    7 CL   UNL     1      -2.778   0.013 -31.113  1.00  0.00    -0.059 Cl
HETATM    8  C   UNL     1      -4.873  -0.325 -32.863  1.00  0.00     0.165 A 
HETATM    9  N   UNL     1      -5.662  -1.074 -33.677  1.00  0.00    -0.234 NA
HETATM   10  C   UNL     1      -3.752  -4.192 -33.489  1.00  0.00     0.034 A 
HETATM   11  C   UNL     1      -4.499  -5.002 -34.345  1.00  0.00     0.002 A 
ENDROOT
BRANCH   8  12
HETATM   12  S   UNL     1      -5.555   1.316 -32.730  1.00  0.00     0.076 S 
HETATM   13  O   UNL     1      -4.427   2.299 -32.721  1.00  0.00    -0.251 OA
BRANCH  12  14
HETATM   14  C   UNL     1      -6.200   1.217 -31.011  1.00  0.00     0.089 C 
HETATM   15  C   UNL     1      -7.206   0.072 -30.853  1.00  0.00     0.045 C 
HETATM   16  C   UNL     1      -8.511   0.329 -31.596  1.00  0.00     0.233 C 
HETATM   17  N   UNL     1      -9.072   1.646 -31.174  1.00  0.00    -0.075 N 
HETATM   18  H   UNL     1      -9.364   1.602 -30.187  1.00  0.00     0.277 HD
HETATM   19  H   UNL     1      -9.941   1.819 -31.701  1.00  0.00     0.277 HD
HETATM   20  C   UNL     1      -8.154   2.808 -31.375  1.00  0.00     0.233 C 
HETATM   21  C   UNL     1      -6.853   2.553 -30.627  1.00  0.00     0.045 C 
ENDBRANCH  12  14
ENDBRANCH   8  12
TORSDOF 2
ENDMDL
MODEL 4
REMARK VINA RESULT:      -6.9      2.889      3.603
REMARK  2 active torsions:
REMARK  status: ('A' for Active; 'I' for Inactive)
REMARK    1  A    between atoms: C_8  and  S_9 
REMARK    2  A    between atoms: S_9  and  C_10 
ROOT
HETATM    1  C   UNL     1      -6.627  -3.373 -34.830  1.00  0.00     0.002 A 
HETATM    2  C   UNL     1      -7.132  -2.178 -34.318  1.00  0.00     0.034 A 
HETATM    3  C   UNL     1      -6.293  -1.221 -33.761  1.00  0.00     0.087 A 
HETATM    4  C   UNL     1      -4.896  -1.467 -33.718  1.00  0.00     0.087 A 
HETATM    5  N   UNL     1      -4.043  -0.570 -33.188  1.00  0.00    -0.232 NA
HETATM    6  C   UNL     1      -4.573   0.588 -32.733  1.00  0.00     0.164 A 
HETATM    7 CL   UNL     1      -3.416   1.629 -32.019  1.00  0.00    -0.059 Cl
HETATM    8  C   UNL     1      -5.935   0.825 -32.776  1.00  0.00     0.165 A 
HETATM    9  N   UNL     1      -6.820  -0.080 -33.269  1.00  0.00    -0.234 NA
HETATM   10  C   UNL     1      -4.407  -2.663 -34.227  1.00  0.00     0.034 A 
HETATM   11  C   UNL     1      -5.260  -3.617 -34.782  1.00  0.00     0.002 A 
ENDROOT
BRANCH   8  12
HETATM   12  S   UNL     1      -6.821   2.258 -32.196  1.00  0.00     0.076 S 
HETATM   13  O   UNL     1      -8.167   1.819 -31.712  1.00  0.00    -0.251 OA
BRANCH  12  14
HETATM   14  C   UNL     1      -7.076   3.106 -33.807  1.00  0.00     0.089 C 
HETATM   15  C   UNL     1      -5.848   3.931 -34.209  1.00  0.00     0.045 C 
HETATM   16  C   UNL     1      -5.639   5.147 -33.317  1.00  0.00     0.233 C 
HETATM   17  N   UNL     1      -6.890   5.961 -33.285  1.00  0.00    -0.075 N 
HETATM   18  H   UNL     1      -7.064   6.373 -34.213  1.00  0.00     0.277 HD
HETATM   19  H   UNL     1      -6.744   6.767 -32.658  1.00  0.00     0.277 HD
HETATM   20  C   UNL     1      -8.105   5.219 -32.830  1.00  0.00     0.233 C 
HETATM   21  C   UNL     1      -8.317   4.008 -33.727  1.00  0.00     0.045 C 
ENDBRANCH  12  14
ENDBRANCH   8  12
TORSDOF 2
ENDMDL
MODEL 5
REMARK VINA RESULT:      -6.8      2.061      2.370
REMARK  2 active torsions:
REMARK  status: ('A' for Active; 'I' for Inactive)
REMARK    1  A    between atoms: C_8  and  S_9 
REMARK    2  A    between atoms: S_9  and  C_10 
ROOT
HETATM    1  C   UNL     1      -4.355  -3.459 -34.264  1.00  0.00     0.002 A 
HETATM    2  C   UNL     1      -4.322  -2.115 -33.894  1.00  0.00     0.034 A 
HETATM    3  C   UNL     1      -5.457  -1.318 -33.969  1.00  0.00     0.087 A 
HETATM    4  C   UNL     1      -6.673  -1.888 -34.428  1.00  0.00     0.087 A 
HETATM    5  N   UNL     1      -7.800  -1.156 -34.518  1.00  0.00    -0.232 NA
HETATM    6  C   UNL     1      -7.728   0.134 -34.118  1.00  0.00     0.164 A 
HETATM    7 CL   UNL     1      -9.194   0.993 -34.336  1.00  0.00    -0.059 Cl
HETATM    8  C   UNL     1      -6.542   0.687 -33.672  1.00  0.00     0.165 A 
HETATM    9  N   UNL     1      -5.383  -0.019 -33.609  1.00  0.00    -0.234 NA
HETATM   10  C   UNL     1      -6.691  -3.227 -34.797  1.00  0.00     0.034 A 
HETATM   11  C   UNL     1      -5.543  -4.016 -34.719  1.00  0.00     0.002 A 
ENDROOT
BRANCH   8  12
HETATM   12  S   UNL     1      -6.239   2.362 -33.144  1.00  0.00     0.076 S 
HETATM   13  O   UNL     1      -5.905   3.185 -34.348  1.00  0.00    -0.251 OA
BRANCH  12  14
HETATM   14  C   UNL     1      -4.670   2.090 -32.224  1.00  0.00     0.089 C 
HETATM   15  C   UNL     1      -4.925   1.883 -30.726  1.00  0.00     0.045 C 
HETATM   16  C   UNL     1      -5.407   3.149 -30.031  1.00  0.00     0.233 C 
HETATM   17  N   UNL     1      -4.447   4.259 -30.300  1.00  0.00    -0.075 N 
HETATM   18  H   UNL     1      -3.546   4.063 -29.840  1.00  0.00     0.277 HD
HETATM   19  H   UNL     1      -4.796   5.117 -29.845  1.00  0.00     0.277 HD
HETATM   20  C   UNL     1      -4.218   4.550 -31.748  1.00  0.00     0.233 C 
HETATM   21  C   UNL     1      -3.730   3.285 -32.440  1.00  0.00     0.045 C 
ENDBRANCH  12  14
ENDBRANCH   8  12
TORSDOF 2
ENDMDL
MODEL 6
REMARK VINA RESULT:      -6.8      3.379      4.325
REMARK  2 active torsions:
REMARK  status: ('A' for Active; 'I' for Inactive)
REMARK    1  A    between atoms: C_8  and  S_9 
REMARK    2  A    between atoms: S_9  and  C_10 
ROOT
HETATM    1  C   UNL     1      -5.458  -3.248 -34.952  1.00  0.00     0.002 A 
HETATM    2  C   UNL     1      -6.679  -2.641 -34.662  1.00  0.00     0.034 A 
HETATM    3  C   UNL     1      -6.752  -1.522 -33.842  1.00  0.00     0.087 A 
HETATM    4  C   UNL     1      -5.557  -0.986 -33.295  1.00  0.00     0.087 A 
HETATM    5  N   UNL     1      -5.576   0.097 -32.495  1.00  0.00    -0.232 NA
HETATM    6  C   UNL     1      -6.779   0.671 -32.268  1.00  0.00     0.164 A 
HETATM    7 CL   UNL     1      -6.703   1.997 -31.186  1.00  0.00    -0.059 Cl
HETATM    8  C   UNL     1      -7.943   0.147 -32.801  1.00  0.00     0.165 A 
HETATM    9  N   UNL     1      -7.954  -0.968 -33.579  1.00  0.00    -0.234 NA
HETATM   10  C   UNL     1      -4.348  -1.603 -33.589  1.00  0.00     0.034 A 
HETATM   11  C   UNL     1      -4.288  -2.728 -34.411  1.00  0.00     0.002 A 
ENDROOT
BRANCH   8  12
HETATM   12  S   UNL     1      -9.612   0.731 -32.587  1.00  0.00     0.076 S 
HETATM   13  O   UNL     1     -10.544  -0.430 -32.737  1.00  0.00    -0.251 OA
BRANCH  12  14
HETATM   14  C   UNL     1      -9.758   1.743 -34.115  1.00  0.00     0.089 C 
HETATM   15  C   UNL     1      -9.121   3.126 -33.938  1.00  0.00     0.045 C 
HETATM   16  C   UNL     1      -9.901   4.013 -32.976  1.00  0.00     0.233 C 
HETATM   17  N   UNL     1     -11.325   4.090 -33.415  1.00  0.00    -0.075 N 
HETATM   18  H   UNL     1     -11.389   4.596 -34.310  1.00  0.00     0.277 HD
HETATM   19  H   UNL     1     -11.848   4.673 -32.743  1.00  0.00     0.277 HD
HETATM   20  C   UNL     1     -12.014   2.769 -33.535  1.00  0.00     0.233 C 
HETATM   21  C   UNL     1     -11.238   1.887 -34.502  1.00  0.00     0.045 C 
ENDBRANCH  12  14
ENDBRANCH   8  12
TORSDOF 2
ENDMDL
MODEL 7
REMARK VINA RESULT:      -6.8      4.338      5.534
REMARK  2 active torsions:
REMARK  status: ('A' for Active; 'I' for Inactive)
REMARK    1  A    between atoms: C_8  and  S_9 
REMARK    2  A    between atoms: S_9  and  C_10 
ROOT
HETATM    1  C   UNL     1      -7.434  -0.431 -35.010  1.00  0.00     0.002 A 
HETATM    2  C   UNL     1      -6.873   0.844 -35.080  1.00  0.00     0.034 A 
HETATM    3  C   UNL     1      -6.397   1.486 -33.944  1.00  0.00     0.087 A 
HETATM    4  C   UNL     1      -6.483   0.827 -32.690  1.00  0.00     0.087 A 
HETATM    5  N   UNL     1      -6.036   1.408 -31.561  1.00  0.00    -0.232 NA
HETATM    6  C   UNL     1      -5.471   2.631 -31.682  1.00  0.00     0.164 A 
HETATM    7 CL   UNL     1      -4.998   3.310 -30.182  1.00  0.00    -0.059 Cl
HETATM    8  C   UNL     1      -5.389   3.272 -32.905  1.00  0.00     0.165 A 
HETATM    9  N   UNL     1      -5.869   2.723 -34.052  1.00  0.00    -0.234 NA
HETATM   10  C   UNL     1      -7.047  -0.441 -32.634  1.00  0.00     0.034 A 
HETATM   11  C   UNL     1      -7.523  -1.075 -33.782  1.00  0.00     0.002 A 
ENDROOT
BRANCH   8  12
HETATM   12  S   UNL     1      -4.723   4.886 -33.259  1.00  0.00     0.076 S 
HETATM   13  O   UNL     1      -5.284   5.355 -34.564  1.00  0.00    -0.251 OA
BRANCH  12  14
HETATM   14  C   UNL     1      -2.973   4.410 -33.562  1.00  0.00     0.089 C 
HETATM   15  C   UNL     1      -2.147   4.448 -32.271  1.00  0.00     0.045 C 
HETATM   16  C   UNL     1      -1.935   5.864 -31.751  1.00  0.00     0.233 C 
HETATM   17  N   UNL     1      -1.346   6.708 -32.831  1.00  0.00    -0.075 N 
HETATM   18  H   UNL     1      -0.391   6.387 -33.045  1.00  0.00     0.277 HD
HETATM   19  H   UNL     1      -1.230   7.669 -32.475  1.00  0.00     0.277 HD
HETATM   20  C   UNL     1      -2.151   6.762 -34.090  1.00  0.00     0.233 C 
HETATM   21  C   UNL     1      -2.357   5.347 -34.613  1.00  0.00     0.045 C 
ENDBRANCH  12  14
ENDBRANCH   8  12
TORSDOF 2
ENDMDL
MODEL 8
REMARK VINA RESULT:      -6.5     13.055     14.388
REMARK  2 active torsions:
REMARK  status: ('A' for Active; 'I' for Inactive)
REMARK    1  A    between atoms: C_8  and  S_9 
REMARK    2  A    between atoms: S_9  and  C_10 
ROOT
HETATM    1  C   UNL     1     -10.368 -13.295 -39.755  1.00  0.00     0.002 A 
HETATM    2  C   UNL     1      -9.728 -14.035 -38.761  1.00  0.00     0.034 A 
HETATM    3  C   UNL     1      -8.417 -13.766 -38.392  1.00  0.00     0.087 A 
HETATM    4  C   UNL     1      -7.719 -12.712 -39.038  1.00  0.00     0.087 A 
HETATM    5  N   UNL     1      -6.446 -12.412 -38.715  1.00  0.00    -0.232 NA
HETATM    6  C   UNL     1      -5.878 -13.136 -37.725  1.00  0.00     0.164 A 
HETATM    7 CL   UNL     1      -4.240 -12.722 -37.438  1.00  0.00    -0.059 Cl
HETATM    8  C   UNL     1      -6.559 -14.163 -37.097  1.00  0.00     0.165 A 
HETATM    9  N   UNL     1      -7.829 -14.510 -37.432  1.00  0.00    -0.234 NA
HETATM   10  C   UNL     1      -8.367 -11.985 -40.029  1.00  0.00     0.034 A 
HETATM   11  C   UNL     1      -9.684 -12.267 -40.392  1.00  0.00     0.002 A 
ENDROOT
BRANCH   8  12
HETATM   12  S   UNL     1      -5.973 -15.246 -35.809  1.00  0.00     0.076 S 
HETATM   13  O   UNL     1      -6.401 -16.643 -36.134  1.00  0.00    -0.251 OA
BRANCH  12  14
HETATM   14  C   UNL     1      -7.044 -14.658 -34.435  1.00  0.00     0.089 C 
HETATM   15  C   UNL     1      -6.904 -13.147 -34.220  1.00  0.00     0.045 C 
HETATM   16  C   UNL     1      -5.543 -12.756 -33.661  1.00  0.00     0.233 C 
HETATM   17  N   UNL     1      -5.271 -13.538 -32.419  1.00  0.00    -0.075 N 
HETATM   18  H   UNL     1      -5.925 -13.253 -31.676  1.00  0.00     0.277 HD
HETATM   19  H   UNL     1      -4.337 -13.282 -32.065  1.00  0.00     0.277 HD
HETATM   20  C   UNL     1      -5.324 -15.021 -32.592  1.00  0.00     0.233 C 
HETATM   21  C   UNL     1      -6.688 -15.412 -33.144  1.00  0.00     0.045 C 
ENDBRANCH  12  14
ENDBRANCH   8  12
TORSDOF 2
ENDMDL
MODEL 9
REMARK VINA RESULT:      -6.5     13.563     14.935
REMARK  2 active torsions:
REMARK  status: ('A' for Active; 'I' for Inactive)
REMARK    1  A    between atoms: C_8  and  S_9 
REMARK    2  A    between atoms: S_9  and  C_10 
ROOT
HETATM    1  C   UNL     1      -8.556 -12.443 -40.254  1.00  0.00     0.002 A 
HETATM    2  C   UNL     1      -7.173 -12.289 -40.161  1.00  0.00     0.034 A 
HETATM    3  C   UNL     1      -6.479 -12.672 -39.020  1.00  0.00     0.087 A 
HETATM    4  C   UNL     1      -7.196 -13.236 -37.932  1.00  0.00     0.087 A 
HETATM    5  N   UNL     1      -6.568 -13.623 -36.805  1.00  0.00    -0.232 NA
HETATM    6  C   UNL     1      -5.224 -13.483 -36.773  1.00  0.00     0.164 A 
HETATM    7 CL   UNL     1      -4.532 -13.940 -35.274  1.00  0.00    -0.059 Cl
HETATM    8  C   UNL     1      -4.528 -12.934 -37.834  1.00  0.00     0.165 A 
HETATM    9  N   UNL     1      -5.142 -12.499 -38.965  1.00  0.00    -0.234 NA
HETATM   10  C   UNL     1      -8.573 -13.380 -38.037  1.00  0.00     0.034 A 
HETATM   11  C   UNL     1      -9.259 -12.989 -39.187  1.00  0.00     0.002 A 
ENDROOT
BRANCH   8  12
HETATM   12  S   UNL     1      -2.776 -12.633 -37.964  1.00  0.00     0.076 S 
HETATM   13  O   UNL     1      -2.570 -11.251 -38.498  1.00  0.00    -0.251 OA
BRANCH  12  14
HETATM   14  C   UNL     1      -2.388 -13.803 -39.328  1.00  0.00     0.089 C 
HETATM   15  C   UNL     1      -2.680 -15.253 -38.926  1.00  0.00     0.045 C 
HETATM   16  C   UNL     1      -1.717 -15.775 -37.868  1.00  0.00     0.233 C 
HETATM   17  N   UNL     1      -0.313 -15.583 -38.335  1.00  0.00    -0.075 N 
HETATM   18  H   UNL     1      -0.127 -16.190 -39.146  1.00  0.00     0.277 HD
HETATM   19  H   UNL     1       0.329 -15.917 -37.600  1.00  0.00     0.277 HD
HETATM   20  C   UNL     1       0.044 -14.171 -38.672  1.00  0.00     0.233 C 
HETATM   21  C   UNL     1      -0.914 -13.653 -39.735  1.00  0.00     0.045 C 
ENDBRANCH  12  14
ENDBRANCH   8  12
TORSDOF 2
ENDMDL
MODEL 10
REMARK VINA RESULT:      -6.5      2.914      3.527
REMARK  2 active torsions:
REMARK  status: ('A' for Active; 'I' for Inactive)
REMARK    1  A    between atoms: C_8  and  S_9 
REMARK    2  A    between atoms: S_9  and  C_10 
ROOT
HETATM    1  C   UNL     1      -4.640  -2.996 -34.423  1.00  0.00     0.002 A 
HETATM    2  C   UNL     1      -4.141  -1.947 -33.651  1.00  0.00     0.034 A 
HETATM    3  C   UNL     1      -4.928  -0.850 -33.330  1.00  0.00     0.087 A 
HETATM    4  C   UNL     1      -6.269  -0.801 -33.793  1.00  0.00     0.087 A 
HETATM    5  N   UNL     1      -7.072   0.242 -33.508  1.00  0.00    -0.232 NA
HETATM    6  C   UNL     1      -6.555   1.220 -32.731  1.00  0.00     0.164 A 
HETATM    7 CL   UNL     1      -7.632   2.529 -32.483  1.00  0.00    -0.059 Cl
HETATM    8  C   UNL     1      -5.248   1.171 -32.281  1.00  0.00     0.165 A 
HETATM    9  N   UNL     1      -4.406   0.149 -32.588  1.00  0.00    -0.234 NA
HETATM   10  C   UNL     1      -6.753  -1.851 -34.563  1.00  0.00     0.034 A 
HETATM   11  C   UNL     1      -5.951  -2.947 -34.882  1.00  0.00     0.002 A 
ENDROOT
BRANCH   8  12
HETATM   12  S   UNL     1      -4.380   2.370 -31.290  1.00  0.00     0.076 S 
HETATM   13  O   UNL     1      -5.276   2.800 -30.171  1.00  0.00    -0.251 OA
BRANCH  12  14
HETATM   14  C   UNL     1      -4.326   3.753 -32.500  1.00  0.00     0.089 C 
HETATM   15  C   UNL     1      -2.908   3.977 -33.037  1.00  0.00     0.045 C 
HETATM   16  C   UNL     1      -1.960   4.531 -31.982  1.00  0.00     0.233 C 
HETATM   17  N   UNL     1      -2.548   5.767 -31.387  1.00  0.00    -0.075 N 
HETATM   18  H   UNL     1      -2.581   6.515 -32.094  1.00  0.00     0.277 HD
HETATM   19  H   UNL     1      -1.909   6.119 -30.657  1.00  0.00     0.277 HD
HETATM   20  C   UNL     1      -3.903   5.586 -30.784  1.00  0.00     0.233 C 
HETATM   21  C   UNL     1      -4.851   5.038 -31.842  1.00  0.00     0.045 C 
ENDBRANCH  12  14
ENDBRANCH   8  12
TORSDOF 2
ENDMDL
