MODEL 1
REMARK VINA RESULT:      -9.2      0.000      0.000
REMARK  6 active torsions:
REMARK  status: ('A' for Active; 'I' for Inactive)
REMARK    1  A    between atoms: C_2  and  C_3 
REMARK    2  A    between atoms: C_6  and  N_7 
REMARK    3  A    between atoms: N_7  and  C_8 
REMARK    4  A    between atoms: C_8  and  C_9 
REMARK    5  A    between atoms: N_15  and  C_16 
REMARK    6  A    between atoms: C_23  and  C_24 
ROOT
HETATM    1  C   UNL     1      -5.093   3.095 -32.054  1.00  0.00     0.028 A 
HETATM    2  C   UNL     1      -4.130   1.959 -32.057  1.00  0.00     0.255 A 
HETATM    3  O   UNL     1      -2.992   1.974 -31.633  1.00  0.00    -0.268 OA
HETATM    4  N   UNL     1      -4.616   0.718 -32.578  1.00  0.00    -0.307 N 
HETATM    5  C   UNL     1      -5.933   0.580 -32.982  1.00  0.00     0.144 A 
HETATM    6  C   UNL     1      -6.823   1.616 -32.855  1.00  0.00     0.038 A 
HETATM    7  N   UNL     1      -6.646  -0.497 -33.478  1.00  0.00    -0.216 N 
HETATM    8  N   UNL     1      -7.977  -0.216 -33.496  1.00  0.00    -0.169 NA
HETATM    9  C   UNL     1      -8.093   1.082 -33.176  1.00  0.00     0.077 C 
HETATM   10  C   UNL     1      -6.374   2.888 -32.417  1.00  0.00     0.032 A 
HETATM   11  H   UNL     1      -3.979  -0.066 -32.543  1.00  0.00     0.170 HD
ENDROOT
BRANCH   1  12
HETATM   12  C   UNL     1      -4.572   4.410 -31.570  1.00  0.00     0.164 C 
BRANCH  12  13
HETATM   13  N   UNL     1      -3.315   4.686 -32.242  1.00  0.00    -0.385 N 
HETATM   14  H   UNL     1      -3.397   5.077 -33.178  1.00  0.00     0.160 HD
BRANCH  13  15
HETATM   15  C   UNL     1      -2.278   5.325 -31.550  1.00  0.00     0.028 A 
HETATM   16  C   UNL     1      -2.624   6.227 -30.534  1.00  0.00     0.029 A 
HETATM   17  C   UNL     1      -1.651   6.940 -29.826  1.00  0.00     0.009 A 
HETATM   18  C   UNL     1      -0.296   6.778 -30.126  1.00  0.00    -0.058 A 
HETATM   19  C   UNL     1       0.059   5.903 -31.155  1.00  0.00     0.009 A 
HETATM   20  C   UNL     1      -0.922   5.204 -31.871  1.00  0.00     0.029 A 
BRANCH  18  21
HETATM   21  C   UNL     1       0.758   7.526 -29.351  1.00  0.00     0.034 C 
HETATM   22  C   UNL     1       0.787   7.115 -27.887  1.00  0.00     0.010 C 
ENDBRANCH  18  21
ENDBRANCH  13  15
ENDBRANCH  12  13
ENDBRANCH   1  12
BRANCH   9  23
HETATM   23  C   UNL     1      -9.471   1.744 -33.157  1.00  0.00    -0.004 C 
HETATM   24  C   UNL     1      -9.584   2.868 -34.216  1.00  0.00     0.021 C 
HETATM   25  C   UNL     1     -10.570   0.709 -33.472  1.00  0.00     0.021 C 
HETATM   26  C   UNL     1      -9.742   2.382 -31.781  1.00  0.00     0.021 C 
ENDBRANCH   9  23
BRANCH   7  27
HETATM   27  C   UNL     1      -6.174  -1.758 -33.932  1.00  0.00     0.060 A 
HETATM   28  C   UNL     1      -7.085  -2.655 -34.515  1.00  0.00     0.031 A 
HETATM   29  C   UNL     1      -6.653  -3.904 -34.966  1.00  0.00     0.002 A 
HETATM   30  C   UNL     1      -5.312  -4.259 -34.857  1.00  0.00     0.000 A 
HETATM   31  C   UNL     1      -4.397  -3.363 -34.307  1.00  0.00     0.002 A 
HETATM   32  C   UNL     1      -4.821  -2.112 -33.847  1.00  0.00     0.031 A 
ENDBRANCH   7  27
TORSDOF 6
ENDMDL
MODEL 2
REMARK VINA RESULT:      -8.9      1.900      8.905
REMARK  6 active torsions:
REMARK  status: ('A' for Active; 'I' for Inactive)
REMARK    1  A    between atoms: C_2  and  C_3 
REMARK    2  A    between atoms: C_6  and  N_7 
REMARK    3  A    between atoms: N_7  and  C_8 
REMARK    4  A    between atoms: C_8  and  C_9 
REMARK    5  A    between atoms: N_15  and  C_16 
REMARK    6  A    between atoms: C_23  and  C_24 
ROOT
HETATM    1  C   UNL     1      -5.187   2.649 -31.501  1.00  0.00     0.028 A 
HETATM    2  C   UNL     1      -3.702   2.546 -31.468  1.00  0.00     0.255 A 
HETATM    3  O   UNL     1      -3.037   1.568 -31.745  1.00  0.00    -0.268 OA
HETATM    4  N   UNL     1      -2.992   3.736 -31.110  1.00  0.00    -0.307 N 
HETATM    5  C   UNL     1      -3.663   4.927 -30.885  1.00  0.00     0.144 A 
HETATM    6  C   UNL     1      -5.023   5.011 -31.040  1.00  0.00     0.038 A 
HETATM    7  N   UNL     1      -3.219   6.198 -30.567  1.00  0.00    -0.216 N 
HETATM    8  N   UNL     1      -4.232   7.098 -30.693  1.00  0.00    -0.169 NA
HETATM    9  C   UNL     1      -5.345   6.384 -30.922  1.00  0.00     0.077 C 
HETATM   10  C   UNL     1      -5.780   3.845 -31.318  1.00  0.00     0.032 A 
HETATM   11  H   UNL     1      -1.982   3.682 -31.127  1.00  0.00     0.170 HD
ENDROOT
BRANCH   1  12
HETATM   12  C   UNL     1      -5.935   1.394 -31.812  1.00  0.00     0.164 C 
BRANCH  12  13
HETATM   13  N   UNL     1      -5.821   1.126 -33.235  1.00  0.00    -0.385 N 
HETATM   14  H   UNL     1      -5.142   1.698 -33.733  1.00  0.00     0.160 HD
BRANCH  13  15
HETATM   15  C   UNL     1      -5.756  -0.196 -33.695  1.00  0.00     0.028 A 
HETATM   16  C   UNL     1      -6.935  -0.784 -34.173  1.00  0.00     0.029 A 
HETATM   17  C   UNL     1      -6.966  -2.113 -34.608  1.00  0.00     0.009 A 
HETATM   18  C   UNL     1      -5.813  -2.899 -34.563  1.00  0.00    -0.058 A 
HETATM   19  C   UNL     1      -4.638  -2.333 -34.062  1.00  0.00     0.009 A 
HETATM   20  C   UNL     1      -4.618  -1.005 -33.614  1.00  0.00     0.029 A 
BRANCH  18  21
HETATM   21  C   UNL     1      -5.834  -4.325 -35.051  1.00  0.00     0.034 C 
HETATM   22  C   UNL     1      -4.789  -5.182 -34.351  1.00  0.00     0.010 C 
ENDBRANCH  18  21
ENDBRANCH  13  15
ENDBRANCH  12  13
ENDBRANCH   1  12
BRANCH   9  23
HETATM   23  C   UNL     1      -6.692   7.092 -31.060  1.00  0.00    -0.004 C 
HETATM   24  C   UNL     1      -7.723   6.576 -30.027  1.00  0.00     0.021 C 
HETATM   25  C   UNL     1      -6.530   8.608 -30.824  1.00  0.00     0.021 C 
HETATM   26  C   UNL     1      -7.287   6.850 -32.461  1.00  0.00     0.021 C 
ENDBRANCH   9  23
BRANCH   7  27
HETATM   27  C   UNL     1      -1.927   6.627 -30.159  1.00  0.00     0.060 A 
HETATM   28  C   UNL     1      -0.861   6.531 -31.068  1.00  0.00     0.031 A 
HETATM   29  C   UNL     1       0.422   6.940 -30.696  1.00  0.00     0.002 A 
HETATM   30  C   UNL     1       0.646   7.462 -29.426  1.00  0.00     0.000 A 
HETATM   31  C   UNL     1      -0.414   7.588 -28.528  1.00  0.00     0.002 A 
HETATM   32  C   UNL     1      -1.700   7.176 -28.891  1.00  0.00     0.031 A 
ENDBRANCH   7  27
TORSDOF 6
ENDMDL
MODEL 3
REMARK VINA RESULT:      -8.8      2.045      8.265
REMARK  6 active torsions:
REMARK  status: ('A' for Active; 'I' for Inactive)
REMARK    1  A    between atoms: C_2  and  C_3 
REMARK    2  A    between atoms: C_6  and  N_7 
REMARK    3  A    between atoms: N_7  and  C_8 
REMARK    4  A    between atoms: C_8  and  C_9 
REMARK    5  A    between atoms: N_15  and  C_16 
REMARK    6  A    between atoms: C_23  and  C_24 
ROOT
HETATM    1  C   UNL     1      -7.329   3.386 -32.985  1.00  0.00     0.028 A 
HETATM    2  C   UNL     1      -6.891   4.803 -32.855  1.00  0.00     0.255 A 
HETATM    3  O   UNL     1      -7.602   5.787 -32.881  1.00  0.00    -0.268 OA
HETATM    4  N   UNL     1      -5.492   5.016 -32.641  1.00  0.00    -0.307 N 
HETATM    5  C   UNL     1      -4.623   3.948 -32.489  1.00  0.00     0.144 A 
HETATM    6  C   UNL     1      -5.083   2.656 -32.497  1.00  0.00     0.038 A 
HETATM    7  N   UNL     1      -3.263   3.884 -32.242  1.00  0.00    -0.216 N 
HETATM    8  N   UNL     1      -2.898   2.613 -31.923  1.00  0.00    -0.169 NA
HETATM    9  C   UNL     1      -3.981   1.847 -32.131  1.00  0.00     0.077 C 
HETATM   10  C   UNL     1      -6.446   2.390 -32.782  1.00  0.00     0.032 A 
HETATM   11  H   UNL     1      -5.195   5.974 -32.510  1.00  0.00     0.170 HD
ENDROOT
BRANCH   1  12
HETATM   12  C   UNL     1      -8.779   3.161 -33.273  1.00  0.00     0.164 C 
BRANCH  12  13
HETATM   13  N   UNL     1      -8.892   2.343 -34.468  1.00  0.00    -0.385 N 
HETATM   14  H   UNL     1      -8.691   2.820 -35.344  1.00  0.00     0.160 HD
BRANCH  13  15
HETATM   15  C   UNL     1      -8.338   1.056 -34.490  1.00  0.00     0.028 A 
HETATM   16  C   UNL     1      -8.733   0.153 -33.493  1.00  0.00     0.029 A 
HETATM   17  C   UNL     1      -8.193  -1.135 -33.417  1.00  0.00     0.009 A 
HETATM   18  C   UNL     1      -7.227  -1.553 -34.336  1.00  0.00    -0.058 A 
HETATM   19  C   UNL     1      -6.805  -0.652 -35.317  1.00  0.00     0.009 A 
HETATM   20  C   UNL     1      -7.339   0.642 -35.377  1.00  0.00     0.029 A 
BRANCH  18  21
HETATM   21  C   UNL     1      -6.659  -2.947 -34.273  1.00  0.00     0.034 C 
HETATM   22  C   UNL     1      -5.418  -3.095 -35.142  1.00  0.00     0.010 C 
ENDBRANCH  18  21
ENDBRANCH  13  15
ENDBRANCH  12  13
ENDBRANCH   1  12
BRANCH   9  23
HETATM   23  C   UNL     1      -3.900   0.336 -31.919  1.00  0.00    -0.004 C 
HETATM   24  C   UNL     1      -5.170  -0.218 -31.227  1.00  0.00     0.021 C 
HETATM   25  C   UNL     1      -3.765  -0.392 -33.272  1.00  0.00     0.021 C 
HETATM   26  C   UNL     1      -2.699  -0.018 -31.021  1.00  0.00     0.021 C 
ENDBRANCH   9  23
BRANCH   7  27
HETATM   27  C   UNL     1      -2.290   4.919 -32.282  1.00  0.00     0.060 A 
HETATM   28  C   UNL     1      -1.523   5.176 -31.133  1.00  0.00     0.031 A 
HETATM   29  C   UNL     1      -0.562   6.189 -31.139  1.00  0.00     0.002 A 
HETATM   30  C   UNL     1      -0.345   6.938 -32.292  1.00  0.00     0.000 A 
HETATM   31  C   UNL     1      -1.081   6.669 -33.445  1.00  0.00     0.002 A 
HETATM   32  C   UNL     1      -2.049   5.659 -33.446  1.00  0.00     0.031 A 
ENDBRANCH   7  27
TORSDOF 6
ENDMDL
MODEL 4
REMARK VINA RESULT:      -8.8      2.891      9.210
REMARK  6 active torsions:
REMARK  status: ('A' for Active; 'I' for Inactive)
REMARK    1  A    between atoms: C_2  and  C_3 
REMARK    2  A    between atoms: C_6  and  N_7 
REMARK    3  A    between atoms: N_7  and  C_8 
REMARK    4  A    between atoms: C_8  and  C_9 
REMARK    5  A    between atoms: N_15  and  C_16 
REMARK    6  A    between atoms: C_23  and  C_24 
ROOT
HETATM    1  C   UNL     1      -7.852   2.909 -33.801  1.00  0.00     0.028 A 
HETATM    2  C   UNL     1      -7.371   4.314 -33.902  1.00  0.00     0.255 A 
HETATM    3  O   UNL     1      -8.043   5.294 -34.154  1.00  0.00    -0.268 OA
HETATM    4  N   UNL     1      -5.981   4.528 -33.636  1.00  0.00    -0.307 N 
HETATM    5  C   UNL     1      -5.162   3.486 -33.234  1.00  0.00     0.144 A 
HETATM    6  C   UNL     1      -5.668   2.226 -33.038  1.00  0.00     0.038 A 
HETATM    7  N   UNL     1      -3.823   3.435 -32.889  1.00  0.00    -0.216 N 
HETATM    8  N   UNL     1      -3.526   2.234 -32.321  1.00  0.00    -0.169 NA
HETATM    9  C   UNL     1      -4.621   1.471 -32.458  1.00  0.00     0.077 C 
HETATM   10  C   UNL     1      -7.020   1.945 -33.361  1.00  0.00     0.032 A 
HETATM   11  H   UNL     1      -5.658   5.486 -33.662  1.00  0.00     0.170 HD
ENDROOT
BRANCH   1  12
HETATM   12  C   UNL     1      -9.288   2.670 -34.139  1.00  0.00     0.164 C 
BRANCH  12  13
HETATM   13  N   UNL     1     -10.115   3.338 -33.149  1.00  0.00    -0.385 N 
HETATM   14  H   UNL     1     -10.038   4.353 -33.130  1.00  0.00     0.160 HD
BRANCH  13  15
HETATM   15  C   UNL     1     -11.455   2.960 -32.988  1.00  0.00     0.028 A 
HETATM   16  C   UNL     1     -11.906   1.827 -33.677  1.00  0.00     0.029 A 
HETATM   17  C   UNL     1     -13.239   1.409 -33.606  1.00  0.00     0.009 A 
HETATM   18  C   UNL     1     -14.166   2.127 -32.847  1.00  0.00    -0.058 A 
HETATM   19  C   UNL     1     -13.734   3.275 -32.178  1.00  0.00     0.009 A 
HETATM   20  C   UNL     1     -12.401   3.697 -32.267  1.00  0.00     0.029 A 
BRANCH  18  21
HETATM   21  C   UNL     1     -15.598   1.669 -32.747  1.00  0.00     0.034 C 
HETATM   22  C   UNL     1     -16.501   2.747 -32.163  1.00  0.00     0.010 C 
ENDBRANCH  18  21
ENDBRANCH  13  15
ENDBRANCH  12  13
ENDBRANCH   1  12
BRANCH   9  23
HETATM   23  C   UNL     1      -4.609   0.023 -31.970  1.00  0.00    -0.004 C 
HETATM   24  C   UNL     1      -4.766  -0.981 -33.138  1.00  0.00     0.021 C 
HETATM   25  C   UNL     1      -3.273  -0.298 -31.270  1.00  0.00     0.021 C 
HETATM   26  C   UNL     1      -5.775  -0.226 -30.993  1.00  0.00     0.021 C 
ENDBRANCH   9  23
BRANCH   7  27
HETATM   27  C   UNL     1      -2.813   4.420 -33.051  1.00  0.00     0.060 A 
HETATM   28  C   UNL     1      -2.079   4.832 -31.926  1.00  0.00     0.031 A 
HETATM   29  C   UNL     1      -1.082   5.801 -32.051  1.00  0.00     0.002 A 
HETATM   30  C   UNL     1      -0.797   6.352 -33.298  1.00  0.00     0.000 A 
HETATM   31  C   UNL     1      -1.500   5.926 -34.424  1.00  0.00     0.002 A 
HETATM   32  C   UNL     1      -2.504   4.960 -34.306  1.00  0.00     0.031 A 
ENDBRANCH   7  27
TORSDOF 6
ENDMDL
MODEL 5
REMARK VINA RESULT:      -8.7      1.652      2.386
REMARK  6 active torsions:
REMARK  status: ('A' for Active; 'I' for Inactive)
REMARK    1  A    between atoms: C_2  and  C_3 
REMARK    2  A    between atoms: C_6  and  N_7 
REMARK    3  A    between atoms: N_7  and  C_8 
REMARK    4  A    between atoms: C_8  and  C_9 
REMARK    5  A    between atoms: N_15  and  C_16 
REMARK    6  A    between atoms: C_23  and  C_24 
ROOT
HETATM    1  C   UNL     1      -3.876   5.030 -31.845  1.00  0.00     0.028 A 
HETATM    2  C   UNL     1      -3.073   3.777 -31.836  1.00  0.00     0.255 A 
HETATM    3  O   UNL     1      -1.922   3.656 -31.466  1.00  0.00    -0.268 OA
HETATM    4  N   UNL     1      -3.744   2.591 -32.274  1.00  0.00    -0.307 N 
HETATM    5  C   UNL     1      -5.087   2.614 -32.611  1.00  0.00     0.144 A 
HETATM    6  C   UNL     1      -5.825   3.764 -32.494  1.00  0.00     0.038 A 
HETATM    7  N   UNL     1      -5.960   1.622 -33.021  1.00  0.00    -0.216 N 
HETATM    8  N   UNL     1      -7.242   2.078 -32.992  1.00  0.00    -0.169 NA
HETATM    9  C   UNL     1      -7.169   3.392 -32.730  1.00  0.00     0.077 C 
HETATM   10  C   UNL     1      -5.190   4.982 -32.138  1.00  0.00     0.032 A 
HETATM   11  H   UNL     1      -3.215   1.730 -32.230  1.00  0.00     0.170 HD
ENDROOT
BRANCH   1  12
HETATM   12  C   UNL     1      -3.163   6.282 -31.449  1.00  0.00     0.164 C 
BRANCH  12  13
HETATM   13  N   UNL     1      -2.955   6.263 -30.012  1.00  0.00    -0.385 N 
HETATM   14  H   UNL     1      -3.168   5.380 -29.552  1.00  0.00     0.160 HD
BRANCH  13  15
HETATM   15  C   UNL     1      -1.788   6.813 -29.466  1.00  0.00     0.028 A 
HETATM   16  C   UNL     1      -1.908   7.975 -28.691  1.00  0.00     0.029 A 
HETATM   17  C   UNL     1      -0.787   8.612 -28.148  1.00  0.00     0.009 A 
HETATM   18  C   UNL     1       0.494   8.108 -28.379  1.00  0.00    -0.058 A 
HETATM   19  C   UNL     1       0.629   6.967 -29.174  1.00  0.00     0.009 A 
HETATM   20  C   UNL     1      -0.497   6.343 -29.728  1.00  0.00     0.029 A 
BRANCH  18  21
HETATM   21  C   UNL     1       1.704   8.776 -27.779  1.00  0.00     0.034 C 
HETATM   22  C   UNL     1       1.937   8.345 -26.338  1.00  0.00     0.010 C 
ENDBRANCH  18  21
ENDBRANCH  13  15
ENDBRANCH  12  13
ENDBRANCH   1  12
BRANCH   9  23
HETATM   23  C   UNL     1      -8.444   4.233 -32.681  1.00  0.00    -0.004 C 
HETATM   24  C   UNL     1      -8.530   5.220 -33.870  1.00  0.00     0.021 C 
HETATM   25  C   UNL     1      -9.690   3.326 -32.750  1.00  0.00     0.021 C 
HETATM   26  C   UNL     1      -8.488   5.070 -31.388  1.00  0.00     0.021 C 
ENDBRANCH   9  23
BRANCH   7  27
HETATM   27  C   UNL     1      -5.682   0.291 -33.434  1.00  0.00     0.060 A 
HETATM   28  C   UNL     1      -6.568  -0.345 -34.320  1.00  0.00     0.031 A 
HETATM   29  C   UNL     1      -6.326  -1.654 -34.741  1.00  0.00     0.002 A 
HETATM   30  C   UNL     1      -5.193  -2.330 -34.297  1.00  0.00     0.000 A 
HETATM   31  C   UNL     1      -4.293  -1.696 -33.442  1.00  0.00     0.002 A 
HETATM   32  C   UNL     1      -4.531  -0.386 -33.011  1.00  0.00     0.031 A 
ENDBRANCH   7  27
TORSDOF 6
ENDMDL
MODEL 6
REMARK VINA RESULT:      -8.6      2.385      4.870
REMARK  6 active torsions:
REMARK  status: ('A' for Active; 'I' for Inactive)
REMARK    1  A    between atoms: C_2  and  C_3 
REMARK    2  A    between atoms: C_6  and  N_7 
REMARK    3  A    between atoms: N_7  and  C_8 
REMARK    4  A    between atoms: C_8  and  C_9 
REMARK    5  A    between atoms: N_15  and  C_16 
REMARK    6  A    between atoms: C_23  and  C_24 
ROOT
HETATM    1  C   UNL     1      -2.905   4.387 -33.092  1.00  0.00     0.028 A 
HETATM    2  C   UNL     1      -3.764   5.300 -33.897  1.00  0.00     0.255 A 
HETATM    3  O   UNL     1      -3.407   6.303 -34.481  1.00  0.00    -0.268 OA
HETATM    4  N   UNL     1      -5.141   4.930 -34.020  1.00  0.00    -0.307 N 
HETATM    5  C   UNL     1      -5.613   3.745 -33.478  1.00  0.00     0.144 A 
HETATM    6  C   UNL     1      -4.766   2.872 -32.845  1.00  0.00     0.038 A 
HETATM    7  N   UNL     1      -6.862   3.152 -33.487  1.00  0.00    -0.216 N 
HETATM    8  N   UNL     1      -6.781   1.870 -33.039  1.00  0.00    -0.169 NA
HETATM    9  C   UNL     1      -5.526   1.706 -32.591  1.00  0.00     0.077 C 
HETATM   10  C   UNL     1      -3.410   3.227 -32.629  1.00  0.00     0.032 A 
HETATM   11  H   UNL     1      -5.718   5.524 -34.600  1.00  0.00     0.170 HD
ENDROOT
BRANCH   1  12
HETATM   12  C   UNL     1      -1.482   4.802 -32.908  1.00  0.00     0.164 C 
BRANCH  12  13
HETATM   13  N   UNL     1      -1.458   6.120 -32.297  1.00  0.00    -0.385 N 
HETATM   14  H   UNL     1      -2.339   6.629 -32.326  1.00  0.00     0.160 HD
BRANCH  13  15
HETATM   15  C   UNL     1      -0.844   6.302 -31.050  1.00  0.00     0.028 A 
HETATM   16  C   UNL     1      -0.979   7.550 -30.428  1.00  0.00     0.029 A 
HETATM   17  C   UNL     1      -0.360   7.828 -29.204  1.00  0.00     0.009 A 
HETATM   18  C   UNL     1       0.427   6.861 -28.573  1.00  0.00    -0.058 A 
HETATM   19  C   UNL     1       0.591   5.623 -29.199  1.00  0.00     0.009 A 
HETATM   20  C   UNL     1      -0.019   5.357 -30.432  1.00  0.00     0.029 A 
BRANCH  18  21
HETATM   21  C   UNL     1       1.078   7.146 -27.244  1.00  0.00     0.034 C 
HETATM   22  C   UNL     1       1.692   8.538 -27.199  1.00  0.00     0.010 C 
ENDBRANCH  18  21
ENDBRANCH  13  15
ENDBRANCH  12  13
ENDBRANCH   1  12
BRANCH   9  23
HETATM   23  C   UNL     1      -5.107   0.378 -31.961  1.00  0.00    -0.004 C 
HETATM   24  C   UNL     1      -3.851  -0.213 -32.646  1.00  0.00     0.021 C 
HETATM   25  C   UNL     1      -4.764   0.573 -30.470  1.00  0.00     0.021 C 
HETATM   26  C   UNL     1      -6.236  -0.663 -32.099  1.00  0.00     0.021 C 
ENDBRANCH   9  23
BRANCH   7  27
HETATM   27  C   UNL     1      -8.115   3.694 -33.882  1.00  0.00     0.060 A 
HETATM   28  C   UNL     1      -9.163   2.817 -34.206  1.00  0.00     0.031 A 
HETATM   29  C   UNL     1     -10.405   3.318 -34.602  1.00  0.00     0.002 A 
HETATM   30  C   UNL     1     -10.616   4.692 -34.659  1.00  0.00     0.000 A 
HETATM   31  C   UNL     1      -9.590   5.570 -34.309  1.00  0.00     0.002 A 
HETATM   32  C   UNL     1      -8.341   5.076 -33.917  1.00  0.00     0.031 A 
ENDBRANCH   7  27
TORSDOF 6
ENDMDL
MODEL 7
REMARK VINA RESULT:      -8.6      2.742      9.090
REMARK  6 active torsions:
REMARK  status: ('A' for Active; 'I' for Inactive)
REMARK    1  A    between atoms: C_2  and  C_3 
REMARK    2  A    between atoms: C_6  and  N_7 
REMARK    3  A    between atoms: N_7  and  C_8 
REMARK    4  A    between atoms: C_8  and  C_9 
REMARK    5  A    between atoms: N_15  and  C_16 
REMARK    6  A    between atoms: C_23  and  C_24 
ROOT
HETATM    1  C   UNL     1      -3.859   2.177 -31.274  1.00  0.00     0.028 A 
HETATM    2  C   UNL     1      -5.114   2.537 -30.559  1.00  0.00     0.255 A 
HETATM    3  O   UNL     1      -5.788   1.804 -29.863  1.00  0.00    -0.268 OA
HETATM    4  N   UNL     1      -5.543   3.897 -30.678  1.00  0.00    -0.307 N 
HETATM    5  C   UNL     1      -4.779   4.829 -31.360  1.00  0.00     0.144 A 
HETATM    6  C   UNL     1      -3.568   4.486 -31.906  1.00  0.00     0.038 A 
HETATM    7  N   UNL     1      -4.948   6.184 -31.586  1.00  0.00    -0.216 N 
HETATM    8  N   UNL     1      -3.807   6.724 -32.096  1.00  0.00    -0.169 NA
HETATM    9  C   UNL     1      -2.983   5.696 -32.350  1.00  0.00     0.077 C 
HETATM   10  C   UNL     1      -3.136   3.136 -31.883  1.00  0.00     0.032 A 
HETATM   11  H   UNL     1      -6.372   4.157 -30.160  1.00  0.00     0.170 HD
ENDROOT
BRANCH   1  12
HETATM   12  C   UNL     1      -3.441   0.744 -31.205  1.00  0.00     0.164 C 
BRANCH  12  13
HETATM   13  N   UNL     1      -3.287   0.240 -32.560  1.00  0.00    -0.385 N 
HETATM   14  H   UNL     1      -2.349  -0.068 -32.806  1.00  0.00     0.160 HD
BRANCH  13  15
HETATM   15  C   UNL     1      -4.234  -0.648 -33.087  1.00  0.00     0.028 A 
HETATM   16  C   UNL     1      -3.793  -1.917 -33.486  1.00  0.00     0.029 A 
HETATM   17  C   UNL     1      -4.665  -2.847 -34.064  1.00  0.00     0.009 A 
HETATM   18  C   UNL     1      -6.009  -2.524 -34.269  1.00  0.00    -0.058 A 
HETATM   19  C   UNL     1      -6.453  -1.251 -33.901  1.00  0.00     0.009 A 
HETATM   20  C   UNL     1      -5.570  -0.320 -33.338  1.00  0.00     0.029 A 
BRANCH  18  21
HETATM   21  C   UNL     1      -6.958  -3.528 -34.870  1.00  0.00     0.034 C 
HETATM   22  C   UNL     1      -6.221  -4.693 -35.515  1.00  0.00     0.010 C 
ENDBRANCH  18  21
ENDBRANCH  13  15
ENDBRANCH  12  13
ENDBRANCH   1  12
BRANCH   9  23
HETATM   23  C   UNL     1      -1.618   5.950 -32.988  1.00  0.00    -0.004 C 
HETATM   24  C   UNL     1      -1.492   5.267 -34.371  1.00  0.00     0.021 C 
HETATM   25  C   UNL     1      -1.399   7.462 -33.205  1.00  0.00     0.021 C 
HETATM   26  C   UNL     1      -0.494   5.390 -32.095  1.00  0.00     0.021 C 
ENDBRANCH   9  23
BRANCH   7  27
HETATM   27  C   UNL     1      -6.088   7.000 -31.360  1.00  0.00     0.060 A 
HETATM   28  C   UNL     1      -5.913   8.267 -30.779  1.00  0.00     0.031 A 
HETATM   29  C   UNL     1      -7.014   9.092 -30.540  1.00  0.00     0.002 A 
HETATM   30  C   UNL     1      -8.291   8.669 -30.894  1.00  0.00     0.000 A 
HETATM   31  C   UNL     1      -8.471   7.425 -31.499  1.00  0.00     0.002 A 
HETATM   32  C   UNL     1      -7.373   6.591 -31.737  1.00  0.00     0.031 A 
ENDBRANCH   7  27
TORSDOF 6
ENDMDL
MODEL 8
REMARK VINA RESULT:      -8.5      2.907      9.445
REMARK  6 active torsions:
REMARK  status: ('A' for Active; 'I' for Inactive)
REMARK    1  A    between atoms: C_2  and  C_3 
REMARK    2  A    between atoms: C_6  and  N_7 
REMARK    3  A    between atoms: N_7  and  C_8 
REMARK    4  A    between atoms: C_8  and  C_9 
REMARK    5  A    between atoms: N_15  and  C_16 
REMARK    6  A    between atoms: C_23  and  C_24 
ROOT
HETATM    1  C   UNL     1      -5.704   5.270 -29.825  1.00  0.00     0.028 A 
HETATM    2  C   UNL     1      -5.205   5.735 -28.502  1.00  0.00     0.255 A 
HETATM    3  O   UNL     1      -5.762   5.604 -27.430  1.00  0.00    -0.268 OA
HETATM    4  N   UNL     1      -3.921   6.367 -28.496  1.00  0.00    -0.307 N 
HETATM    5  C   UNL     1      -3.166   6.462 -29.653  1.00  0.00     0.144 A 
HETATM    6  C   UNL     1      -3.608   5.916 -30.831  1.00  0.00     0.038 A 
HETATM    7  N   UNL     1      -1.909   6.982 -29.903  1.00  0.00    -0.216 N 
HETATM    8  N   UNL     1      -1.486   6.622 -31.145  1.00  0.00    -0.169 NA
HETATM    9  C   UNL     1      -2.531   6.025 -31.741  1.00  0.00     0.077 C 
HETATM   10  C   UNL     1      -4.905   5.348 -30.908  1.00  0.00     0.032 A 
HETATM   11  H   UNL     1      -3.560   6.647 -27.593  1.00  0.00     0.170 HD
ENDROOT
BRANCH   1  12
HETATM   12  C   UNL     1      -7.071   4.666 -29.848  1.00  0.00     0.164 C 
BRANCH  12  13
HETATM   13  N   UNL     1      -6.987   3.310 -29.336  1.00  0.00    -0.385 N 
HETATM   14  H   UNL     1      -7.699   3.057 -28.654  1.00  0.00     0.160 HD
BRANCH  13  15
HETATM   15  C   UNL     1      -6.773   2.241 -30.217  1.00  0.00     0.028 A 
HETATM   16  C   UNL     1      -7.368   2.305 -31.484  1.00  0.00     0.029 A 
HETATM   17  C   UNL     1      -7.240   1.260 -32.406  1.00  0.00     0.009 A 
HETATM   18  C   UNL     1      -6.518   0.111 -32.077  1.00  0.00    -0.058 A 
HETATM   19  C   UNL     1      -5.944   0.024 -30.806  1.00  0.00     0.009 A 
HETATM   20  C   UNL     1      -6.090   1.068 -29.882  1.00  0.00     0.029 A 
BRANCH  18  21
HETATM   21  C   UNL     1      -6.357  -1.008 -33.074  1.00  0.00     0.034 C 
HETATM   22  C   UNL     1      -6.820  -0.602 -34.465  1.00  0.00     0.010 C 
ENDBRANCH  18  21
ENDBRANCH  13  15
ENDBRANCH  12  13
ENDBRANCH   1  12
BRANCH   9  23
HETATM   23  C   UNL     1      -2.412   5.541 -33.186  1.00  0.00    -0.004 C 
HETATM   24  C   UNL     1      -3.643   5.945 -34.032  1.00  0.00     0.021 C 
HETATM   25  C   UNL     1      -1.172   6.161 -33.861  1.00  0.00     0.021 C 
HETATM   26  C   UNL     1      -2.309   4.004 -33.232  1.00  0.00     0.021 C 
ENDBRANCH   9  23
BRANCH   7  27
HETATM   27  C   UNL     1      -1.083   7.784 -29.070  1.00  0.00     0.060 A 
HETATM   28  C   UNL     1       0.274   7.446 -28.931  1.00  0.00     0.031 A 
HETATM   29  C   UNL     1       1.111   8.210 -28.116  1.00  0.00     0.002 A 
HETATM   30  C   UNL     1       0.608   9.325 -27.452  1.00  0.00     0.000 A 
HETATM   31  C   UNL     1      -0.730   9.685 -27.608  1.00  0.00     0.002 A 
HETATM   32  C   UNL     1      -1.577   8.921 -28.418  1.00  0.00     0.031 A 
ENDBRANCH   7  27
TORSDOF 6
ENDMDL
MODEL 9
REMARK VINA RESULT:      -8.4      4.326      8.072
REMARK  6 active torsions:
REMARK  status: ('A' for Active; 'I' for Inactive)
REMARK    1  A    between atoms: C_2  and  C_3 
REMARK    2  A    between atoms: C_6  and  N_7 
REMARK    3  A    between atoms: N_7  and  C_8 
REMARK    4  A    between atoms: C_8  and  C_9 
REMARK    5  A    between atoms: N_15  and  C_16 
REMARK    6  A    between atoms: C_23  and  C_24 
ROOT
HETATM    1  C   UNL     1      -7.875   2.353 -32.006  1.00  0.00     0.028 A 
HETATM    2  C   UNL     1      -8.804   1.190 -31.975  1.00  0.00     0.255 A 
HETATM    3  O   UNL     1      -8.509   0.033 -31.752  1.00  0.00    -0.268 OA
HETATM    4  N   UNL     1     -10.188   1.479 -32.195  1.00  0.00    -0.307 N 
HETATM    5  C   UNL     1     -10.629   2.783 -32.349  1.00  0.00     0.144 A 
HETATM    6  C   UNL     1      -9.759   3.839 -32.254  1.00  0.00     0.038 A 
HETATM    7  N   UNL     1     -11.890   3.322 -32.534  1.00  0.00    -0.216 N 
HETATM    8  N   UNL     1     -11.854   4.674 -32.381  1.00  0.00    -0.169 NA
HETATM    9  C   UNL     1     -10.558   5.006 -32.269  1.00  0.00     0.077 C 
HETATM   10  C   UNL     1      -8.368   3.602 -32.114  1.00  0.00     0.032 A 
HETATM   11  H   UNL     1     -10.828   0.698 -32.133  1.00  0.00     0.170 HD
ENDROOT
BRANCH   1  12
HETATM   12  C   UNL     1      -6.421   2.049 -31.841  1.00  0.00     0.164 C 
BRANCH  12  13
HETATM   13  N   UNL     1      -5.864   1.725 -33.143  1.00  0.00    -0.385 N 
HETATM   14  H   UNL     1      -4.996   2.203 -33.377  1.00  0.00     0.160 HD
BRANCH  13  15
HETATM   15  C   UNL     1      -5.801   0.390 -33.564  1.00  0.00     0.028 A 
HETATM   16  C   UNL     1      -4.792  -0.421 -33.026  1.00  0.00     0.029 A 
HETATM   17  C   UNL     1      -4.632  -1.752 -33.427  1.00  0.00     0.009 A 
HETATM   18  C   UNL     1      -5.475  -2.306 -34.393  1.00  0.00    -0.058 A 
HETATM   19  C   UNL     1      -6.467  -1.499 -34.956  1.00  0.00     0.009 A 
HETATM   20  C   UNL     1      -6.611  -0.162 -34.561  1.00  0.00     0.029 A 
BRANCH  18  21
HETATM   21  C   UNL     1      -5.323  -3.746 -34.812  1.00  0.00     0.034 C 
HETATM   22  C   UNL     1      -6.657  -4.374 -35.186  1.00  0.00     0.010 C 
ENDBRANCH  18  21
ENDBRANCH  13  15
ENDBRANCH  12  13
ENDBRANCH   1  12
BRANCH   9  23
HETATM   23  C   UNL     1     -10.155   6.474 -32.136  1.00  0.00    -0.004 C 
HETATM   24  C   UNL     1      -9.322   6.730 -30.857  1.00  0.00     0.021 C 
HETATM   25  C   UNL     1      -9.290   6.906 -33.338  1.00  0.00     0.021 C 
HETATM   26  C   UNL     1     -11.406   7.371 -32.055  1.00  0.00     0.021 C 
ENDBRANCH   9  23
BRANCH   7  27
HETATM   27  C   UNL     1     -13.114   2.669 -32.841  1.00  0.00     0.060 A 
HETATM   28  C   UNL     1     -14.235   2.910 -32.030  1.00  0.00     0.031 A 
HETATM   29  C   UNL     1     -15.451   2.281 -32.302  1.00  0.00     0.002 A 
HETATM   30  C   UNL     1     -15.563   1.422 -33.391  1.00  0.00     0.000 A 
HETATM   31  C   UNL     1     -14.463   1.200 -34.219  1.00  0.00     0.002 A 
HETATM   32  C   UNL     1     -13.240   1.823 -33.950  1.00  0.00     0.031 A 
ENDBRANCH   7  27
TORSDOF 6
ENDMDL
MODEL 10
REMARK VINA RESULT:      -8.4      3.214      8.643
REMARK  6 active torsions:
REMARK  status: ('A' for Active; 'I' for Inactive)
REMARK    1  A    between atoms: C_2  and  C_3 
REMARK    2  A    between atoms: C_6  and  N_7 
REMARK    3  A    between atoms: N_7  and  C_8 
REMARK    4  A    between atoms: C_8  and  C_9 
REMARK    5  A    between atoms: N_15  and  C_16 
REMARK    6  A    between atoms: C_23  and  C_24 
ROOT
HETATM    1  C   UNL     1      -8.964   2.030 -32.209  1.00  0.00     0.028 A 
HETATM    2  C   UNL     1      -9.018   0.568 -32.487  1.00  0.00     0.255 A 
HETATM    3  O   UNL     1     -10.019  -0.114 -32.590  1.00  0.00    -0.268 OA
HETATM    4  N   UNL     1      -7.761  -0.085 -32.689  1.00  0.00    -0.307 N 
HETATM    5  C   UNL     1      -6.577   0.633 -32.698  1.00  0.00     0.144 A 
HETATM    6  C   UNL     1      -6.577   1.997 -32.556  1.00  0.00     0.038 A 
HETATM    7  N   UNL     1      -5.262   0.255 -32.902  1.00  0.00    -0.216 N 
HETATM    8  N   UNL     1      -4.473   1.352 -33.067  1.00  0.00    -0.169 NA
HETATM    9  C   UNL     1      -5.248   2.416 -32.801  1.00  0.00     0.077 C 
HETATM   10  C   UNL     1      -7.787   2.682 -32.277  1.00  0.00     0.032 A 
HETATM   11  H   UNL     1      -7.795  -1.069 -32.919  1.00  0.00     0.170 HD
ENDROOT
BRANCH   1  12
HETATM   12  C   UNL     1     -10.269   2.705 -31.935  1.00  0.00     0.164 C 
BRANCH  12  13
HETATM   13  N   UNL     1     -11.178   2.420 -33.031  1.00  0.00    -0.385 N 
HETATM   14  H   UNL     1     -10.932   1.615 -33.604  1.00  0.00     0.160 HD
BRANCH  13  15
HETATM   15  C   UNL     1     -12.563   2.443 -32.815  1.00  0.00     0.028 A 
HETATM   16  C   UNL     1     -13.333   1.417 -33.378  1.00  0.00     0.029 A 
HETATM   17  C   UNL     1     -14.726   1.391 -33.247  1.00  0.00     0.009 A 
HETATM   18  C   UNL     1     -15.390   2.407 -32.555  1.00  0.00    -0.058 A 
HETATM   19  C   UNL     1     -14.635   3.450 -32.013  1.00  0.00     0.009 A 
HETATM   20  C   UNL     1     -13.242   3.477 -32.162  1.00  0.00     0.029 A 
BRANCH  18  21
HETATM   21  C   UNL     1     -16.888   2.373 -32.391  1.00  0.00     0.034 C 
HETATM   22  C   UNL     1     -17.439   3.710 -31.918  1.00  0.00     0.010 C 
ENDBRANCH  18  21
ENDBRANCH  13  15
ENDBRANCH  12  13
ENDBRANCH   1  12
BRANCH   9  23
HETATM   23  C   UNL     1      -4.652   3.823 -32.840  1.00  0.00    -0.004 C 
HETATM   24  C   UNL     1      -4.972   4.619 -31.551  1.00  0.00     0.021 C 
HETATM   25  C   UNL     1      -3.117   3.754 -32.964  1.00  0.00     0.021 C 
HETATM   26  C   UNL     1      -5.230   4.619 -34.026  1.00  0.00     0.021 C 
ENDBRANCH   9  23
BRANCH   7  27
HETATM   27  C   UNL     1      -4.696  -1.047 -32.955  1.00  0.00     0.060 A 
HETATM   28  C   UNL     1      -4.965  -1.861 -34.068  1.00  0.00     0.031 A 
HETATM   29  C   UNL     1      -4.427  -3.147 -34.147  1.00  0.00     0.002 A 
HETATM   30  C   UNL     1      -3.605  -3.623 -33.130  1.00  0.00     0.000 A 
HETATM   31  C   UNL     1      -3.308  -2.811 -32.037  1.00  0.00     0.002 A 
HETATM   32  C   UNL     1      -3.847  -1.523 -31.947  1.00  0.00     0.031 A 
ENDBRANCH   7  27
TORSDOF 6
ENDMDL
