MODEL 1
REMARK VINA RESULT:      -9.1      0.000      0.000
REMARK  3 active torsions:
REMARK  status: ('A' for Active; 'I' for Inactive)
REMARK    1  A    between atoms: C_5  and  N_6 
REMARK       I    between atoms: N_6  and  C_7 
REMARK    2  A    between atoms: C_7  and  C_8 
REMARK    3  A    between atoms: C_8  and  N_9 
ROOT
HETATM    1  N   UNL     1      -3.696   2.954 -31.627  1.00  0.00    -0.367 N 
HETATM    2  C   UNL     1      -3.535   4.259 -31.507  1.00  0.00     0.108 C 
HETATM    3  C   UNL     1      -2.676   4.993 -32.471  1.00  0.00     0.014 A 
HETATM    4  C   UNL     1      -2.228   6.288 -32.135  1.00  0.00    -0.042 A 
HETATM    5  C   UNL     1      -1.405   7.010 -33.009  1.00  0.00     0.008 A 
HETATM    6  C   UNL     1      -1.050   6.466 -34.239  1.00  0.00     0.001 A 
HETATM    7  C   UNL     1      -1.508   5.202 -34.599  1.00  0.00     0.001 A 
HETATM    8  C   UNL     1      -2.317   4.471 -33.724  1.00  0.00     0.016 A 
HETATM    9  C   UNL     1      -2.616   6.874 -30.801  1.00  0.00     0.069 C 
HETATM   10  C   UNL     1      -4.020   6.410 -30.367  1.00  0.00     0.028 C 
HETATM   11  C   UNL     1      -4.227   6.711 -28.878  1.00  0.00     0.038 C 
HETATM   12  C   UNL     1      -5.137   7.067 -31.186  1.00  0.00     0.038 C 
HETATM   13  N   UNL     1      -4.143   4.936 -30.539  1.00  0.00    -0.367 N 
HETATM   14  H   UNL     1      -4.709   4.434 -29.873  1.00  0.00     0.162 HD
HETATM   15  H   UNL     1      -3.136   2.454 -32.320  1.00  0.00     0.161 HD
ENDROOT
BRANCH   1  16
HETATM   16  C   UNL     1      -4.599   2.088 -30.854  1.00  0.00     0.224 C 
BRANCH  16  17
HETATM   17  C   UNL     1      -4.482   0.680 -31.432  1.00  0.00     0.239 C 
HETATM   18  N   UNL     1      -5.177   0.511 -32.615  1.00  0.00    -0.326 N 
HETATM   19  H   UNL     1      -5.556   1.329 -33.076  1.00  0.00     0.169 HD
HETATM   20  O   UNL     1      -3.787  -0.148 -30.845  1.00  0.00    -0.271 OA
BRANCH  18  21
HETATM   21  C   UNL     1      -5.361  -0.694 -33.328  1.00  0.00     0.034 A 
HETATM   22  C   UNL     1      -4.321  -1.535 -33.719  1.00  0.00     0.030 A 
HETATM   23  C   UNL     1      -4.597  -2.736 -34.386  1.00  0.00     0.009 A 
HETATM   24  C   UNL     1      -5.914  -3.107 -34.675  1.00  0.00    -0.062 A 
HETATM   25  C   UNL     1      -6.221  -4.393 -35.383  1.00  0.00     0.048 C 
HETATM   26  C   UNL     1      -6.954  -2.257 -34.291  1.00  0.00     0.009 A 
HETATM   27  C   UNL     1      -6.680  -1.065 -33.617  1.00  0.00     0.030 A 
ENDBRANCH  18  21
ENDBRANCH  16  17
ENDBRANCH   1  16
TORSDOF 3
ENDMDL
MODEL 2
REMARK VINA RESULT:      -8.6      2.211      8.360
REMARK  3 active torsions:
REMARK  status: ('A' for Active; 'I' for Inactive)
REMARK    1  A    between atoms: C_5  and  N_6 
REMARK       I    between atoms: N_6  and  C_7 
REMARK    2  A    between atoms: C_7  and  C_8 
REMARK    3  A    between atoms: C_8  and  N_9 
ROOT
HETATM    1  N   UNL     1      -5.085   2.398 -33.100  1.00  0.00    -0.367 N 
HETATM    2  C   UNL     1      -6.093   1.602 -33.407  1.00  0.00     0.108 C 
HETATM    3  C   UNL     1      -5.838   0.177 -33.739  1.00  0.00     0.014 A 
HETATM    4  C   UNL     1      -6.843  -0.558 -34.401  1.00  0.00    -0.042 A 
HETATM    5  C   UNL     1      -6.639  -1.901 -34.745  1.00  0.00     0.008 A 
HETATM    6  C   UNL     1      -5.448  -2.534 -34.402  1.00  0.00     0.001 A 
HETATM    7  C   UNL     1      -4.458  -1.831 -33.721  1.00  0.00     0.001 A 
HETATM    8  C   UNL     1      -4.650  -0.487 -33.390  1.00  0.00     0.016 A 
HETATM    9  C   UNL     1      -8.132   0.131 -34.770  1.00  0.00     0.069 C 
HETATM   10  C   UNL     1      -8.520   1.198 -33.728  1.00  0.00     0.028 C 
HETATM   11  C   UNL     1      -9.604   2.115 -34.307  1.00  0.00     0.038 C 
HETATM   12  C   UNL     1      -9.013   0.585 -32.412  1.00  0.00     0.038 C 
HETATM   13  N   UNL     1      -7.342   2.052 -33.414  1.00  0.00    -0.367 N 
HETATM   14  H   UNL     1      -7.513   3.024 -33.209  1.00  0.00     0.162 HD
HETATM   15  H   UNL     1      -4.133   2.045 -33.202  1.00  0.00     0.161 HD
ENDROOT
BRANCH   1  16
HETATM   16  C   UNL     1      -5.156   3.789 -32.626  1.00  0.00     0.224 C 
BRANCH  16  17
HETATM   17  C   UNL     1      -3.933   4.030 -31.744  1.00  0.00     0.239 C 
HETATM   18  N   UNL     1      -3.591   5.364 -31.630  1.00  0.00    -0.326 N 
HETATM   19  H   UNL     1      -4.234   6.062 -31.983  1.00  0.00     0.169 HD
HETATM   20  O   UNL     1      -3.391   3.067 -31.203  1.00  0.00    -0.271 OA
BRANCH  18  21
HETATM   21  C   UNL     1      -2.452   5.897 -30.988  1.00  0.00     0.034 A 
HETATM   22  C   UNL     1      -1.145   5.713 -31.436  1.00  0.00     0.030 A 
HETATM   23  C   UNL     1      -0.075   6.316 -30.763  1.00  0.00     0.009 A 
HETATM   24  C   UNL     1      -0.297   7.106 -29.631  1.00  0.00    -0.062 A 
HETATM   25  C   UNL     1       0.840   7.762 -28.905  1.00  0.00     0.048 C 
HETATM   26  C   UNL     1      -1.607   7.281 -29.176  1.00  0.00     0.009 A 
HETATM   27  C   UNL     1      -2.675   6.689 -29.853  1.00  0.00     0.030 A 
ENDBRANCH  18  21
ENDBRANCH  16  17
ENDBRANCH   1  16
TORSDOF 3
ENDMDL
MODEL 3
REMARK VINA RESULT:      -8.2      5.614      8.118
REMARK  3 active torsions:
REMARK  status: ('A' for Active; 'I' for Inactive)
REMARK    1  A    between atoms: C_5  and  N_6 
REMARK       I    between atoms: N_6  and  C_7 
REMARK    2  A    between atoms: C_7  and  C_8 
REMARK    3  A    between atoms: C_8  and  N_9 
ROOT
HETATM    1  N   UNL     1      -8.419   1.111 -33.888  1.00  0.00    -0.367 N 
HETATM    2  C   UNL     1      -7.259   0.930 -33.285  1.00  0.00     0.108 C 
HETATM    3  C   UNL     1      -6.445  -0.275 -33.587  1.00  0.00     0.014 A 
HETATM    4  C   UNL     1      -5.410  -0.638 -32.700  1.00  0.00    -0.042 A 
HETATM    5  C   UNL     1      -4.628  -1.776 -32.940  1.00  0.00     0.008 A 
HETATM    6  C   UNL     1      -4.844  -2.540 -34.082  1.00  0.00     0.001 A 
HETATM    7  C   UNL     1      -5.841  -2.179 -34.983  1.00  0.00     0.001 A 
HETATM    8  C   UNL     1      -6.636  -1.055 -34.740  1.00  0.00     0.016 A 
HETATM    9  C   UNL     1      -5.178   0.194 -31.465  1.00  0.00     0.069 C 
HETATM   10  C   UNL     1      -5.484   1.682 -31.722  1.00  0.00     0.028 C 
HETATM   11  C   UNL     1      -5.599   2.425 -30.385  1.00  0.00     0.038 C 
HETATM   12  C   UNL     1      -4.424   2.359 -32.598  1.00  0.00     0.038 C 
HETATM   13  N   UNL     1      -6.795   1.819 -32.414  1.00  0.00    -0.367 N 
HETATM   14  H   UNL     1      -7.357   2.627 -32.195  1.00  0.00     0.162 HD
HETATM   15  H   UNL     1      -8.789   0.360 -34.474  1.00  0.00     0.161 HD
ENDROOT
BRANCH   1  16
HETATM   16  C   UNL     1      -9.292   2.292 -33.812  1.00  0.00     0.224 C 
BRANCH  16  17
HETATM   17  C   UNL     1     -10.705   1.792 -33.519  1.00  0.00     0.239 C 
HETATM   18  N   UNL     1     -11.655   2.796 -33.518  1.00  0.00    -0.326 N 
HETATM   19  H   UNL     1     -11.392   3.714 -33.856  1.00  0.00     0.169 HD
HETATM   20  O   UNL     1     -10.886   0.588 -33.344  1.00  0.00    -0.271 OA
BRANCH  18  21
HETATM   21  C   UNL     1     -13.018   2.677 -33.169  1.00  0.00     0.034 A 
HETATM   22  C   UNL     1     -13.835   1.619 -33.563  1.00  0.00     0.030 A 
HETATM   23  C   UNL     1     -15.167   1.556 -33.134  1.00  0.00     0.009 A 
HETATM   24  C   UNL     1     -15.700   2.552 -32.310  1.00  0.00    -0.062 A 
HETATM   25  C   UNL     1     -17.123   2.493 -31.840  1.00  0.00     0.048 C 
HETATM   26  C   UNL     1     -14.883   3.618 -31.925  1.00  0.00     0.009 A 
HETATM   27  C   UNL     1     -13.552   3.676 -32.344  1.00  0.00     0.030 A 
ENDBRANCH  18  21
ENDBRANCH  16  17
ENDBRANCH   1  16
TORSDOF 3
ENDMDL
MODEL 4
REMARK VINA RESULT:      -8.2      2.409      8.193
REMARK  3 active torsions:
REMARK  status: ('A' for Active; 'I' for Inactive)
REMARK    1  A    between atoms: C_5  and  N_6 
REMARK       I    between atoms: N_6  and  C_7 
REMARK    2  A    between atoms: C_7  and  C_8 
REMARK    3  A    between atoms: C_8  and  N_9 
ROOT
HETATM    1  N   UNL     1      -4.760   2.871 -32.962  1.00  0.00    -0.367 N 
HETATM    2  C   UNL     1      -5.263   1.668 -33.164  1.00  0.00     0.108 C 
HETATM    3  C   UNL     1      -4.504   0.465 -32.736  1.00  0.00     0.014 A 
HETATM    4  C   UNL     1      -4.865  -0.792 -33.264  1.00  0.00    -0.042 A 
HETATM    5  C   UNL     1      -4.166  -1.950 -32.899  1.00  0.00     0.008 A 
HETATM    6  C   UNL     1      -3.127  -1.874 -31.978  1.00  0.00     0.001 A 
HETATM    7  C   UNL     1      -2.777  -0.646 -31.424  1.00  0.00     0.001 A 
HETATM    8  C   UNL     1      -3.460   0.515 -31.798  1.00  0.00     0.016 A 
HETATM    9  C   UNL     1      -5.993  -0.871 -34.261  1.00  0.00     0.069 C 
HETATM   10  C   UNL     1      -7.080   0.181 -33.967  1.00  0.00     0.028 C 
HETATM   11  C   UNL     1      -8.004   0.324 -35.183  1.00  0.00     0.038 C 
HETATM   12  C   UNL     1      -7.911  -0.161 -32.726  1.00  0.00     0.038 C 
HETATM   13  N   UNL     1      -6.451   1.511 -33.736  1.00  0.00    -0.367 N 
HETATM   14  H   UNL     1      -6.957   2.326 -34.044  1.00  0.00     0.162 HD
HETATM   15  H   UNL     1      -3.803   2.950 -32.612  1.00  0.00     0.161 HD
ENDROOT
BRANCH   1  16
HETATM   16  C   UNL     1      -5.415   4.166 -33.199  1.00  0.00     0.224 C 
BRANCH  16  17
HETATM   17  C   UNL     1      -4.453   5.254 -32.729  1.00  0.00     0.239 C 
HETATM   18  N   UNL     1      -3.448   4.783 -31.905  1.00  0.00    -0.326 N 
HETATM   19  H   UNL     1      -3.328   3.781 -31.810  1.00  0.00     0.169 HD
HETATM   20  O   UNL     1      -4.619   6.407 -33.124  1.00  0.00    -0.271 OA
BRANCH  18  21
HETATM   21  C   UNL     1      -2.481   5.549 -31.218  1.00  0.00     0.034 A 
HETATM   22  C   UNL     1      -2.788   6.518 -30.265  1.00  0.00     0.030 A 
HETATM   23  C   UNL     1      -1.763   7.201 -29.597  1.00  0.00     0.009 A 
HETATM   24  C   UNL     1      -0.421   6.929 -29.878  1.00  0.00    -0.062 A 
HETATM   25  C   UNL     1       0.685   7.651 -29.166  1.00  0.00     0.048 C 
HETATM   26  C   UNL     1      -0.116   5.965 -30.843  1.00  0.00     0.009 A 
HETATM   27  C   UNL     1      -1.136   5.276 -31.501  1.00  0.00     0.030 A 
ENDBRANCH  18  21
ENDBRANCH  16  17
ENDBRANCH   1  16
TORSDOF 3
ENDMDL
MODEL 5
REMARK VINA RESULT:      -8.1      2.788      4.435
REMARK  3 active torsions:
REMARK  status: ('A' for Active; 'I' for Inactive)
REMARK    1  A    between atoms: C_5  and  N_6 
REMARK       I    between atoms: N_6  and  C_7 
REMARK    2  A    between atoms: C_7  and  C_8 
REMARK    3  A    between atoms: C_8  and  N_9 
ROOT
HETATM    1  N   UNL     1      -4.431   2.869 -30.581  1.00  0.00    -0.367 N 
HETATM    2  C   UNL     1      -5.555   3.433 -30.982  1.00  0.00     0.108 C 
HETATM    3  C   UNL     1      -6.321   4.304 -30.054  1.00  0.00     0.014 A 
HETATM    4  C   UNL     1      -7.666   4.603 -30.355  1.00  0.00    -0.042 A 
HETATM    5  C   UNL     1      -8.429   5.408 -29.499  1.00  0.00     0.008 A 
HETATM    6  C   UNL     1      -7.851   5.952 -28.357  1.00  0.00     0.001 A 
HETATM    7  C   UNL     1      -6.516   5.692 -28.061  1.00  0.00     0.001 A 
HETATM    8  C   UNL     1      -5.755   4.875 -28.902  1.00  0.00     0.016 A 
HETATM    9  C   UNL     1      -8.288   4.012 -31.594  1.00  0.00     0.069 C 
HETATM   10  C   UNL     1      -7.258   3.874 -32.732  1.00  0.00     0.028 C 
HETATM   11  C   UNL     1      -7.813   2.950 -33.822  1.00  0.00     0.038 C 
HETATM   12  C   UNL     1      -6.876   5.225 -33.347  1.00  0.00     0.038 C 
HETATM   13  N   UNL     1      -6.012   3.246 -32.215  1.00  0.00    -0.367 N 
HETATM   14  H   UNL     1      -5.502   2.639 -32.838  1.00  0.00     0.162 HD
HETATM   15  H   UNL     1      -4.163   2.954 -29.599  1.00  0.00     0.161 HD
ENDROOT
BRANCH   1  16
HETATM   16  C   UNL     1      -3.483   2.088 -31.390  1.00  0.00     0.224 C 
BRANCH  16  17
HETATM   17  C   UNL     1      -4.100   0.709 -31.607  1.00  0.00     0.239 C 
HETATM   18  N   UNL     1      -4.274   0.386 -32.939  1.00  0.00    -0.326 N 
HETATM   19  H   UNL     1      -3.852   0.982 -33.642  1.00  0.00     0.169 HD
HETATM   20  O   UNL     1      -4.356   0.011 -30.627  1.00  0.00    -0.271 OA
BRANCH  18  21
HETATM   21  C   UNL     1      -4.921  -0.755 -33.461  1.00  0.00     0.034 A 
HETATM   22  C   UNL     1      -6.287  -0.825 -33.726  1.00  0.00     0.030 A 
HETATM   23  C   UNL     1      -6.841  -1.983 -34.286  1.00  0.00     0.009 A 
HETATM   24  C   UNL     1      -6.037  -3.088 -34.582  1.00  0.00    -0.062 A 
HETATM   25  C   UNL     1      -6.617  -4.332 -35.187  1.00  0.00     0.048 C 
HETATM   26  C   UNL     1      -4.669  -3.021 -34.305  1.00  0.00     0.009 A 
HETATM   27  C   UNL     1      -4.115  -1.862 -33.757  1.00  0.00     0.030 A 
ENDBRANCH  18  21
ENDBRANCH  16  17
ENDBRANCH   1  16
TORSDOF 3
ENDMDL
MODEL 6
REMARK VINA RESULT:      -8.1      2.849      8.526
REMARK  3 active torsions:
REMARK  status: ('A' for Active; 'I' for Inactive)
REMARK    1  A    between atoms: C_5  and  N_6 
REMARK       I    between atoms: N_6  and  C_7 
REMARK    2  A    between atoms: C_7  and  C_8 
REMARK    3  A    between atoms: C_8  and  N_9 
ROOT
HETATM    1  N   UNL     1      -4.629   3.267 -32.742  1.00  0.00    -0.367 N 
HETATM    2  C   UNL     1      -5.071   2.034 -32.580  1.00  0.00     0.108 C 
HETATM    3  C   UNL     1      -6.531   1.771 -32.515  1.00  0.00     0.014 A 
HETATM    4  C   UNL     1      -6.978   0.540 -31.993  1.00  0.00    -0.042 A 
HETATM    5  C   UNL     1      -8.348   0.257 -31.900  1.00  0.00     0.008 A 
HETATM    6  C   UNL     1      -9.281   1.180 -32.359  1.00  0.00     0.001 A 
HETATM    7  C   UNL     1      -8.856   2.387 -32.904  1.00  0.00     0.001 A 
HETATM    8  C   UNL     1      -7.492   2.682 -32.984  1.00  0.00     0.016 A 
HETATM    9  C   UNL     1      -5.963  -0.459 -31.499  1.00  0.00     0.069 C 
HETATM   10  C   UNL     1      -4.665  -0.401 -32.327  1.00  0.00     0.028 C 
HETATM   11  C   UNL     1      -3.545  -1.142 -31.586  1.00  0.00     0.038 C 
HETATM   12  C   UNL     1      -4.834  -0.995 -33.730  1.00  0.00     0.038 C 
HETATM   13  N   UNL     1      -4.227   1.013 -32.486  1.00  0.00    -0.367 N 
HETATM   14  H   UNL     1      -3.235   1.194 -32.510  1.00  0.00     0.162 HD
HETATM   15  H   UNL     1      -5.300   4.037 -32.710  1.00  0.00     0.161 HD
ENDROOT
BRANCH   1  16
HETATM   16  C   UNL     1      -3.239   3.700 -32.955  1.00  0.00     0.224 C 
BRANCH  16  17
HETATM   17  C   UNL     1      -2.853   4.582 -31.770  1.00  0.00     0.239 C 
HETATM   18  N   UNL     1      -1.527   4.971 -31.782  1.00  0.00    -0.326 N 
HETATM   19  H   UNL     1      -0.976   4.793 -32.614  1.00  0.00     0.169 HD
HETATM   20  O   UNL     1      -3.717   4.890 -30.950  1.00  0.00    -0.271 OA
BRANCH  18  21
HETATM   21  C   UNL     1      -0.840   5.684 -30.776  1.00  0.00     0.034 A 
HETATM   22  C   UNL     1       0.054   5.102 -29.879  1.00  0.00     0.030 A 
HETATM   23  C   UNL     1       0.728   5.893 -28.939  1.00  0.00     0.009 A 
HETATM   24  C   UNL     1       0.511   7.273 -28.879  1.00  0.00    -0.062 A 
HETATM   25  C   UNL     1       1.230   8.130 -27.880  1.00  0.00     0.048 C 
HETATM   26  C   UNL     1      -0.395   7.853 -29.771  1.00  0.00     0.009 A 
HETATM   27  C   UNL     1      -1.058   7.067 -30.716  1.00  0.00     0.030 A 
ENDBRANCH  18  21
ENDBRANCH  16  17
ENDBRANCH   1  16
TORSDOF 3
ENDMDL
MODEL 7
REMARK VINA RESULT:      -8.0      1.528      1.744
REMARK  3 active torsions:
REMARK  status: ('A' for Active; 'I' for Inactive)
REMARK    1  A    between atoms: C_5  and  N_6 
REMARK       I    between atoms: N_6  and  C_7 
REMARK    2  A    between atoms: C_7  and  C_8 
REMARK    3  A    between atoms: C_8  and  N_9 
ROOT
HETATM    1  N   UNL     1      -4.296   4.035 -31.330  1.00  0.00    -0.367 N 
HETATM    2  C   UNL     1      -3.886   5.217 -30.907  1.00  0.00     0.108 C 
HETATM    3  C   UNL     1      -2.452   5.587 -31.013  1.00  0.00     0.014 A 
HETATM    4  C   UNL     1      -1.971   6.672 -30.252  1.00  0.00    -0.042 A 
HETATM    5  C   UNL     1      -0.622   7.046 -30.311  1.00  0.00     0.008 A 
HETATM    6  C   UNL     1       0.251   6.368 -31.155  1.00  0.00     0.001 A 
HETATM    7  C   UNL     1      -0.213   5.315 -31.936  1.00  0.00     0.001 A 
HETATM    8  C   UNL     1      -1.555   4.927 -31.868  1.00  0.00     0.016 A 
HETATM    9  C   UNL     1      -2.921   7.405 -29.339  1.00  0.00     0.069 C 
HETATM   10  C   UNL     1      -4.345   7.449 -29.925  1.00  0.00     0.028 C 
HETATM   11  C   UNL     1      -5.341   7.859 -28.834  1.00  0.00     0.038 C 
HETATM   12  C   UNL     1      -4.463   8.407 -31.116  1.00  0.00     0.038 C 
HETATM   13  N   UNL     1      -4.743   6.094 -30.396  1.00  0.00    -0.367 N 
HETATM   14  H   UNL     1      -5.712   5.834 -30.305  1.00  0.00     0.162 HD
HETATM   15  H   UNL     1      -3.597   3.351 -31.624  1.00  0.00     0.161 HD
ENDROOT
BRANCH   1  16
HETATM   16  C   UNL     1      -5.680   3.548 -31.422  1.00  0.00     0.224 C 
BRANCH  16  17
HETATM   17  C   UNL     1      -5.616   2.035 -31.616  1.00  0.00     0.239 C 
HETATM   18  N   UNL     1      -5.442   1.655 -32.933  1.00  0.00    -0.326 N 
HETATM   19  H   UNL     1      -5.215   2.367 -33.618  1.00  0.00     0.169 HD
HETATM   20  O   UNL     1      -5.690   1.305 -30.629  1.00  0.00    -0.271 OA
BRANCH  18  21
HETATM   21  C   UNL     1      -5.461   0.341 -33.449  1.00  0.00     0.034 A 
HETATM   22  C   UNL     1      -4.417  -0.570 -33.303  1.00  0.00     0.030 A 
HETATM   23  C   UNL     1      -4.537  -1.871 -33.808  1.00  0.00     0.009 A 
HETATM   24  C   UNL     1      -5.700  -2.275 -34.472  1.00  0.00    -0.062 A 
HETATM   25  C   UNL     1      -5.843  -3.667 -35.013  1.00  0.00     0.048 C 
HETATM   26  C   UNL     1      -6.742  -1.357 -34.627  1.00  0.00     0.009 A 
HETATM   27  C   UNL     1      -6.626  -0.063 -34.114  1.00  0.00     0.030 A 
ENDBRANCH  18  21
ENDBRANCH  16  17
ENDBRANCH   1  16
TORSDOF 3
ENDMDL
MODEL 8
REMARK VINA RESULT:      -7.9      2.498      7.655
REMARK  3 active torsions:
REMARK  status: ('A' for Active; 'I' for Inactive)
REMARK    1  A    between atoms: C_5  and  N_6 
REMARK       I    between atoms: N_6  and  C_7 
REMARK    2  A    between atoms: C_7  and  C_8 
REMARK    3  A    between atoms: C_8  and  N_9 
ROOT
HETATM    1  N   UNL     1      -6.885   3.715 -33.916  1.00  0.00    -0.367 N 
HETATM    2  C   UNL     1      -6.607   2.667 -33.162  1.00  0.00     0.108 C 
HETATM    3  C   UNL     1      -6.800   1.295 -33.698  1.00  0.00     0.014 A 
HETATM    4  C   UNL     1      -6.848   0.212 -32.796  1.00  0.00    -0.042 A 
HETATM    5  C   UNL     1      -7.043  -1.096 -33.258  1.00  0.00     0.008 A 
HETATM    6  C   UNL     1      -7.154  -1.343 -34.623  1.00  0.00     0.001 A 
HETATM    7  C   UNL     1      -7.078  -0.289 -35.529  1.00  0.00     0.001 A 
HETATM    8  C   UNL     1      -6.901   1.021 -35.072  1.00  0.00     0.016 A 
HETATM    9  C   UNL     1      -6.726   0.484 -31.319  1.00  0.00     0.069 C 
HETATM   10  C   UNL     1      -5.790   1.675 -31.039  1.00  0.00     0.028 C 
HETATM   11  C   UNL     1      -5.976   2.152 -29.594  1.00  0.00     0.038 C 
HETATM   12  C   UNL     1      -4.315   1.337 -31.284  1.00  0.00     0.038 C 
HETATM   13  N   UNL     1      -6.143   2.817 -31.927  1.00  0.00    -0.367 N 
HETATM   14  H   UNL     1      -6.032   3.748 -31.556  1.00  0.00     0.162 HD
HETATM   15  H   UNL     1      -7.333   3.563 -34.821  1.00  0.00     0.161 HD
ENDROOT
BRANCH   1  16
HETATM   16  C   UNL     1      -6.639   5.131 -33.605  1.00  0.00     0.224 C 
BRANCH  16  17
HETATM   17  C   UNL     1      -5.127   5.341 -33.609  1.00  0.00     0.239 C 
HETATM   18  N   UNL     1      -4.579   5.433 -32.344  1.00  0.00    -0.326 N 
HETATM   19  H   UNL     1      -5.160   5.202 -31.546  1.00  0.00     0.169 HD
HETATM   20  O   UNL     1      -4.535   5.379 -34.687  1.00  0.00    -0.271 OA
BRANCH  18  21
HETATM   21  C   UNL     1      -3.241   5.741 -32.016  1.00  0.00     0.034 A 
HETATM   22  C   UNL     1      -2.277   4.786 -31.695  1.00  0.00     0.030 A 
HETATM   23  C   UNL     1      -0.959   5.176 -31.426  1.00  0.00     0.009 A 
HETATM   24  C   UNL     1      -0.589   6.524 -31.468  1.00  0.00    -0.062 A 
HETATM   25  C   UNL     1       0.821   6.953 -31.187  1.00  0.00     0.048 C 
HETATM   26  C   UNL     1      -1.560   7.480 -31.779  1.00  0.00     0.009 A 
HETATM   27  C   UNL     1      -2.872   7.091 -32.058  1.00  0.00     0.030 A 
ENDBRANCH  18  21
ENDBRANCH  16  17
ENDBRANCH   1  16
TORSDOF 3
ENDMDL
MODEL 9
REMARK VINA RESULT:      -7.9     16.767     18.117
REMARK  3 active torsions:
REMARK  status: ('A' for Active; 'I' for Inactive)
REMARK    1  A    between atoms: C_5  and  N_6 
REMARK       I    between atoms: N_6  and  C_7 
REMARK    2  A    between atoms: C_7  and  C_8 
REMARK    3  A    between atoms: C_8  and  N_9 
ROOT
HETATM    1  N   UNL     1      -4.122 -13.627 -35.780  1.00  0.00    -0.367 N 
HETATM    2  C   UNL     1      -3.020 -14.351 -35.834  1.00  0.00     0.108 C 
HETATM    3  C   UNL     1      -2.040 -14.130 -36.928  1.00  0.00     0.014 A 
HETATM    4  C   UNL     1      -1.069 -15.121 -37.183  1.00  0.00    -0.042 A 
HETATM    5  C   UNL     1      -0.135 -14.960 -38.215  1.00  0.00     0.008 A 
HETATM    6  C   UNL     1      -0.135 -13.796 -38.977  1.00  0.00     0.001 A 
HETATM    7  C   UNL     1      -1.066 -12.795 -38.719  1.00  0.00     0.001 A 
HETATM    8  C   UNL     1      -2.011 -12.958 -37.701  1.00  0.00     0.016 A 
HETATM    9  C   UNL     1      -1.072 -16.380 -36.354  1.00  0.00     0.069 C 
HETATM   10  C   UNL     1      -1.525 -16.103 -34.908  1.00  0.00     0.028 C 
HETATM   11  C   UNL     1      -1.870 -17.424 -34.211  1.00  0.00     0.038 C 
HETATM   12  C   UNL     1      -0.466 -15.351 -34.093  1.00  0.00     0.038 C 
HETATM   13  N   UNL     1      -2.762 -15.273 -34.914  1.00  0.00    -0.367 N 
HETATM   14  H   UNL     1      -3.436 -15.436 -34.183  1.00  0.00     0.162 HD
HETATM   15  H   UNL     1      -4.335 -12.999 -36.557  1.00  0.00     0.161 HD
ENDROOT
BRANCH   1  16
HETATM   16  C   UNL     1      -5.134 -13.616 -34.713  1.00  0.00     0.224 C 
BRANCH  16  17
HETATM   17  C   UNL     1      -6.501 -13.519 -35.385  1.00  0.00     0.239 C 
HETATM   18  N   UNL     1      -6.464 -13.760 -36.746  1.00  0.00    -0.326 N 
HETATM   19  H   UNL     1      -5.611 -14.126 -37.151  1.00  0.00     0.169 HD
HETATM   20  O   UNL     1      -7.489 -13.276 -34.694  1.00  0.00    -0.271 OA
BRANCH  18  21
HETATM   21  C   UNL     1      -7.531 -13.632 -37.662  1.00  0.00     0.034 A 
HETATM   22  C   UNL     1      -7.857 -12.447 -38.318  1.00  0.00     0.030 A 
HETATM   23  C   UNL     1      -8.905 -12.419 -39.247  1.00  0.00     0.009 A 
HETATM   24  C   UNL     1      -9.644 -13.572 -39.527  1.00  0.00    -0.062 A 
HETATM   25  C   UNL     1     -10.765 -13.556 -40.523  1.00  0.00     0.048 C 
HETATM   26  C   UNL     1      -9.322 -14.757 -38.859  1.00  0.00     0.009 A 
HETATM   27  C   UNL     1      -8.271 -14.789 -37.941  1.00  0.00     0.030 A 
ENDBRANCH  18  21
ENDBRANCH  16  17
ENDBRANCH   1  16
TORSDOF 3
ENDMDL
MODEL 10
REMARK VINA RESULT:      -7.8     16.827     19.112
REMARK  3 active torsions:
REMARK  status: ('A' for Active; 'I' for Inactive)
REMARK    1  A    between atoms: C_5  and  N_6 
REMARK       I    between atoms: N_6  and  C_7 
REMARK    2  A    between atoms: C_7  and  C_8 
REMARK    3  A    between atoms: C_8  and  N_9 
ROOT
HETATM    1  N   UNL     1      -6.560 -13.227 -36.761  1.00  0.00    -0.367 N 
HETATM    2  C   UNL     1      -7.180 -14.131 -37.497  1.00  0.00     0.108 C 
HETATM    3  C   UNL     1      -8.225 -13.711 -38.465  1.00  0.00     0.014 A 
HETATM    4  C   UNL     1      -9.114 -14.682 -38.971  1.00  0.00    -0.042 A 
HETATM    5  C   UNL     1     -10.123 -14.326 -39.875  1.00  0.00     0.008 A 
HETATM    6  C   UNL     1     -10.234 -13.010 -40.312  1.00  0.00     0.001 A 
HETATM    7  C   UNL     1      -9.346 -12.045 -39.846  1.00  0.00     0.001 A 
HETATM    8  C   UNL     1      -8.347 -12.391 -38.930  1.00  0.00     0.016 A 
HETATM    9  C   UNL     1      -8.990 -16.107 -38.497  1.00  0.00     0.069 C 
HETATM   10  C   UNL     1      -7.523 -16.482 -38.214  1.00  0.00     0.028 C 
HETATM   11  C   UNL     1      -7.468 -17.779 -37.397  1.00  0.00     0.038 C 
HETATM   12  C   UNL     1      -6.699 -16.646 -39.496  1.00  0.00     0.038 C 
HETATM   13  N   UNL     1      -6.876 -15.420 -37.395  1.00  0.00    -0.367 N 
HETATM   14  H   UNL     1      -6.181 -15.707 -36.723  1.00  0.00     0.162 HD
HETATM   15  H   UNL     1      -6.888 -12.260 -36.794  1.00  0.00     0.161 HD
ENDROOT
BRANCH   1  16
HETATM   16  C   UNL     1      -5.423 -13.439 -35.853  1.00  0.00     0.224 C 
BRANCH  16  17
HETATM   17  C   UNL     1      -4.148 -13.186 -36.655  1.00  0.00     0.239 C 
HETATM   18  N   UNL     1      -3.405 -14.329 -36.882  1.00  0.00    -0.326 N 
HETATM   19  H   UNL     1      -3.816 -15.228 -36.658  1.00  0.00     0.169 HD
HETATM   20  O   UNL     1      -3.907 -12.045 -37.045  1.00  0.00    -0.271 OA
BRANCH  18  21
HETATM   21  C   UNL     1      -2.131 -14.409 -37.484  1.00  0.00     0.034 A 
HETATM   22  C   UNL     1      -1.816 -13.851 -38.722  1.00  0.00     0.030 A 
HETATM   23  C   UNL     1      -0.512 -13.939 -39.226  1.00  0.00     0.009 A 
HETATM   24  C   UNL     1       0.492 -14.590 -38.503  1.00  0.00    -0.062 A 
HETATM   25  C   UNL     1       1.893 -14.685 -39.030  1.00  0.00     0.048 C 
HETATM   26  C   UNL     1       0.172 -15.158 -37.267  1.00  0.00     0.009 A 
HETATM   27  C   UNL     1      -1.125 -15.062 -36.759  1.00  0.00     0.030 A 
ENDBRANCH  18  21
ENDBRANCH  16  17
ENDBRANCH   1  16
TORSDOF 3
ENDMDL
