MODEL 1
REMARK VINA RESULT:      -8.0      0.000      0.000
REMARK  3 active torsions:
REMARK  status: ('A' for Active; 'I' for Inactive)
REMARK    1  A    between atoms: C_2  and  N_3 
REMARK       I    between atoms: N_3  and  C_4 
REMARK    2  A    between atoms: C_4  and  C_5 
REMARK    3  A    between atoms: C_5  and  C_6 
ROOT
HETATM    1  C   UNL     1      -5.295   2.056 -31.409  1.00  0.00     0.286 C 
HETATM    2  N   UNL     1      -6.255   3.027 -32.094  1.00  0.00    -0.056 N 
HETATM    3  H   UNL     1      -6.479   3.757 -31.406  1.00  0.00     0.278 HD
HETATM    4  H   UNL     1      -5.719   3.538 -32.828  1.00  0.00     0.278 HD
HETATM    5  C   UNL     1      -7.544   2.481 -32.634  1.00  0.00     0.209 C 
HETATM    6  C   UNL     1      -8.215   1.588 -31.563  1.00  0.00     0.115 C 
HETATM    7  N   UNL     1      -7.290   0.631 -30.963  1.00  0.00    -0.353 N 
HETATM    8  C   UNL     1      -6.005   0.954 -30.608  1.00  0.00     0.249 C 
HETATM    9  O   UNL     1      -5.420   0.297 -29.753  1.00  0.00    -0.271 OA
HETATM   10  C   UNL     1      -7.318   1.781 -33.974  1.00  0.00     0.035 C 
HETATM   11  C   UNL     1      -8.605   1.140 -34.486  1.00  0.00     0.002 C 
HETATM   12  C   UNL     1      -9.184   0.176 -33.454  1.00  0.00     0.002 C 
HETATM   13  C   UNL     1      -9.454   0.879 -32.123  1.00  0.00     0.027 C 
HETATM   14  H   UNL     1      -7.683  -0.087 -30.354  1.00  0.00     0.163 HD
ENDROOT
BRANCH   1  15
HETATM   15  C   UNL     1      -4.302   1.374 -32.364  1.00  0.00     0.146 C 
BRANCH  15  16
HETATM   16  C   UNL     1      -3.415   0.369 -31.688  1.00  0.00     0.224 C 
HETATM   17  N   UNL     1      -3.492  -0.963 -31.943  1.00  0.00    -0.327 N 
HETATM   18  H   UNL     1      -2.837  -1.483 -31.365  1.00  0.00     0.169 HD
HETATM   19  O   UNL     1      -2.551   0.772 -30.897  1.00  0.00    -0.273 OA
BRANCH  17  20
HETATM   20  C   UNL     1      -4.248  -1.756 -32.830  1.00  0.00     0.034 A 
HETATM   21  C   UNL     1      -5.469  -1.409 -33.413  1.00  0.00     0.031 A 
HETATM   22  C   UNL     1      -6.112  -2.283 -34.302  1.00  0.00     0.026 A 
HETATM   23  C   UNL     1      -5.541  -3.511 -34.616  1.00  0.00     0.034 A 
HETATM   24  C   UNL     1      -4.330  -3.876 -34.046  1.00  0.00     0.026 A 
HETATM   25 CL   UNL     1      -6.335  -4.571 -35.711  1.00  0.00    -0.084 Cl
HETATM   26  C   UNL     1      -3.688  -3.002 -33.161  1.00  0.00     0.031 A 
ENDBRANCH  17  20
ENDBRANCH  15  16
ENDBRANCH   1  15
TORSDOF 3
ENDMDL
MODEL 2
REMARK VINA RESULT:      -8.0      2.412      3.801
REMARK  3 active torsions:
REMARK  status: ('A' for Active; 'I' for Inactive)
REMARK    1  A    between atoms: C_2  and  N_3 
REMARK       I    between atoms: N_3  and  C_4 
REMARK    2  A    between atoms: C_4  and  C_5 
REMARK    3  A    between atoms: C_5  and  C_6 
ROOT
HETATM    1  C   UNL     1      -4.568   2.057 -31.629  1.00  0.00     0.286 C 
HETATM    2  N   UNL     1      -3.710   3.083 -30.890  1.00  0.00    -0.056 N 
HETATM    3  H   UNL     1      -4.209   3.315 -30.021  1.00  0.00     0.278 HD
HETATM    4  H   UNL     1      -2.851   2.596 -30.555  1.00  0.00     0.278 HD
HETATM    5  C   UNL     1      -3.378   4.364 -31.595  1.00  0.00     0.209 C 
HETATM    6  C   UNL     1      -4.662   4.957 -32.222  1.00  0.00     0.115 C 
HETATM    7  N   UNL     1      -5.436   3.970 -32.969  1.00  0.00    -0.353 N 
HETATM    8  C   UNL     1      -5.643   2.689 -32.525  1.00  0.00     0.249 C 
HETATM    9  O   UNL     1      -6.606   2.047 -32.932  1.00  0.00    -0.271 OA
HETATM   10  C   UNL     1      -2.239   4.154 -32.594  1.00  0.00     0.035 C 
HETATM   11  C   UNL     1      -1.957   5.428 -33.385  1.00  0.00     0.002 C 
HETATM   12  C   UNL     1      -3.217   5.927 -34.086  1.00  0.00     0.002 C 
HETATM   13  C   UNL     1      -4.347   6.182 -33.089  1.00  0.00     0.027 C 
HETATM   14  H   UNL     1      -6.218   4.310 -33.529  1.00  0.00     0.163 HD
ENDROOT
BRANCH   1  15
HETATM   15  C   UNL     1      -3.764   1.068 -32.489  1.00  0.00     0.146 C 
BRANCH  15  16
HETATM   16  C   UNL     1      -3.091  -0.010 -31.689  1.00  0.00     0.224 C 
HETATM   17  N   UNL     1      -3.342  -1.331 -31.886  1.00  0.00    -0.327 N 
HETATM   18  H   UNL     1      -2.819  -1.903 -31.229  1.00  0.00     0.169 HD
HETATM   19  O   UNL     1      -2.244   0.313 -30.846  1.00  0.00    -0.273 OA
BRANCH  17  20
HETATM   20  C   UNL     1      -4.133  -2.061 -32.797  1.00  0.00     0.034 A 
HETATM   21  C   UNL     1      -5.259  -1.590 -33.475  1.00  0.00     0.031 A 
HETATM   22  C   UNL     1      -5.948  -2.414 -34.378  1.00  0.00     0.026 A 
HETATM   23  C   UNL     1      -5.517  -3.716 -34.610  1.00  0.00     0.034 A 
HETATM   24  C   UNL     1      -4.401  -4.204 -33.945  1.00  0.00     0.026 A 
HETATM   25 CL   UNL     1      -6.365  -4.714 -35.721  1.00  0.00    -0.084 Cl
HETATM   26  C   UNL     1      -3.714  -3.379 -33.046  1.00  0.00     0.031 A 
ENDBRANCH  17  20
ENDBRANCH  15  16
ENDBRANCH   1  15
TORSDOF 3
ENDMDL
MODEL 3
REMARK VINA RESULT:      -7.9      3.359      5.018
REMARK  3 active torsions:
REMARK  status: ('A' for Active; 'I' for Inactive)
REMARK    1  A    between atoms: C_2  and  N_3 
REMARK       I    between atoms: N_3  and  C_4 
REMARK    2  A    between atoms: C_4  and  C_5 
REMARK    3  A    between atoms: C_5  and  C_6 
ROOT
HETATM    1  C   UNL     1      -5.417   4.282 -32.090  1.00  0.00     0.286 C 
HETATM    2  N   UNL     1      -4.515   5.024 -31.105  1.00  0.00    -0.056 N 
HETATM    3  H   UNL     1      -5.083   5.776 -30.694  1.00  0.00     0.278 HD
HETATM    4  H   UNL     1      -4.333   4.387 -30.300  1.00  0.00     0.278 HD
HETATM    5  C   UNL     1      -3.246   5.627 -31.628  1.00  0.00     0.209 C 
HETATM    6  C   UNL     1      -3.546   6.421 -32.922  1.00  0.00     0.115 C 
HETATM    7  N   UNL     1      -4.362   5.670 -33.871  1.00  0.00    -0.353 N 
HETATM    8  C   UNL     1      -5.438   4.907 -33.493  1.00  0.00     0.249 C 
HETATM    9  O   UNL     1      -6.324   4.651 -34.301  1.00  0.00    -0.271 OA
HETATM   10  C   UNL     1      -2.164   4.560 -31.791  1.00  0.00     0.035 C 
HETATM   11  C   UNL     1      -0.899   5.146 -32.412  1.00  0.00     0.002 C 
HETATM   12  C   UNL     1      -1.207   5.823 -33.744  1.00  0.00     0.002 C 
HETATM   13  C   UNL     1      -2.256   6.923 -33.582  1.00  0.00     0.027 C 
HETATM   14  H   UNL     1      -4.486   6.064 -34.803  1.00  0.00     0.163 HD
ENDROOT
BRANCH   1  15
HETATM   15  C   UNL     1      -5.082   2.789 -32.247  1.00  0.00     0.146 C 
BRANCH  15  16
HETATM   16  C   UNL     1      -5.404   1.972 -31.030  1.00  0.00     0.224 C 
HETATM   17  N   UNL     1      -5.720   0.653 -31.097  1.00  0.00    -0.327 N 
HETATM   18  H   UNL     1      -5.938   0.282 -30.176  1.00  0.00     0.169 HD
HETATM   19  O   UNL     1      -5.338   2.509 -29.916  1.00  0.00    -0.273 OA
BRANCH  17  20
HETATM   20  C   UNL     1      -5.786  -0.295 -32.139  1.00  0.00     0.034 A 
HETATM   21  C   UNL     1      -6.890  -0.550 -32.955  1.00  0.00     0.031 A 
HETATM   22  C   UNL     1      -6.819  -1.508 -33.977  1.00  0.00     0.026 A 
HETATM   23  C   UNL     1      -5.644  -2.220 -34.192  1.00  0.00     0.034 A 
HETATM   24  C   UNL     1      -4.536  -1.983 -33.392  1.00  0.00     0.026 A 
HETATM   25 CL   UNL     1      -5.566  -3.387 -35.451  1.00  0.00    -0.084 Cl
HETATM   26  C   UNL     1      -4.608  -1.025 -32.374  1.00  0.00     0.031 A 
ENDBRANCH  17  20
ENDBRANCH  15  16
ENDBRANCH   1  15
TORSDOF 3
ENDMDL
MODEL 4
REMARK VINA RESULT:      -7.9      4.062      6.532
REMARK  3 active torsions:
REMARK  status: ('A' for Active; 'I' for Inactive)
REMARK    1  A    between atoms: C_2  and  N_3 
REMARK       I    between atoms: N_3  and  C_4 
REMARK    2  A    between atoms: C_4  and  C_5 
REMARK    3  A    between atoms: C_5  and  C_6 
ROOT
HETATM    1  C   UNL     1      -5.980   1.744 -32.554  1.00  0.00     0.286 C 
HETATM    2  N   UNL     1      -6.769   0.493 -32.175  1.00  0.00    -0.056 N 
HETATM    3  H   UNL     1      -6.844   0.489 -31.149  1.00  0.00     0.278 HD
HETATM    4  H   UNL     1      -7.753   0.631 -32.490  1.00  0.00     0.278 HD
HETATM    5  C   UNL     1      -6.233  -0.838 -32.610  1.00  0.00     0.209 C 
HETATM    6  C   UNL     1      -4.725  -0.924 -32.272  1.00  0.00     0.115 C 
HETATM    7  N   UNL     1      -3.982   0.260 -32.694  1.00  0.00    -0.353 N 
HETATM    8  C   UNL     1      -4.458   1.537 -32.537  1.00  0.00     0.249 C 
HETATM    9  O   UNL     1      -3.677   2.483 -32.499  1.00  0.00    -0.271 OA
HETATM   10  C   UNL     1      -6.555  -1.099 -34.081  1.00  0.00     0.035 C 
HETATM   11  C   UNL     1      -5.932  -2.408 -34.559  1.00  0.00     0.002 C 
HETATM   12  C   UNL     1      -4.426  -2.416 -34.318  1.00  0.00     0.002 C 
HETATM   13  C   UNL     1      -4.096  -2.200 -32.841  1.00  0.00     0.027 C 
HETATM   14  H   UNL     1      -2.965   0.224 -32.637  1.00  0.00     0.163 HD
ENDROOT
BRANCH   1  15
HETATM   15  C   UNL     1      -6.356   2.335 -33.923  1.00  0.00     0.146 C 
BRANCH  15  16
HETATM   16  C   UNL     1      -7.122   3.624 -33.828  1.00  0.00     0.224 C 
HETATM   17  N   UNL     1      -6.510   4.834 -33.767  1.00  0.00    -0.327 N 
HETATM   18  H   UNL     1      -7.191   5.583 -33.672  1.00  0.00     0.169 HD
HETATM   19  O   UNL     1      -8.359   3.586 -33.849  1.00  0.00    -0.273 OA
BRANCH  17  20
HETATM   20  C   UNL     1      -5.169   5.268 -33.828  1.00  0.00     0.034 A 
HETATM   21  C   UNL     1      -4.275   5.041 -34.877  1.00  0.00     0.031 A 
HETATM   22  C   UNL     1      -2.969   5.548 -34.826  1.00  0.00     0.026 A 
HETATM   23  C   UNL     1      -2.544   6.287 -33.727  1.00  0.00     0.034 A 
HETATM   24  C   UNL     1      -3.416   6.523 -32.674  1.00  0.00     0.026 A 
HETATM   25 CL   UNL     1      -0.943   6.909 -33.679  1.00  0.00    -0.084 Cl
HETATM   26  C   UNL     1      -4.720   6.018 -32.727  1.00  0.00     0.031 A 
ENDBRANCH  17  20
ENDBRANCH  15  16
ENDBRANCH   1  15
TORSDOF 3
ENDMDL
MODEL 5
REMARK VINA RESULT:      -7.8      4.724      6.731
REMARK  3 active torsions:
REMARK  status: ('A' for Active; 'I' for Inactive)
REMARK    1  A    between atoms: C_2  and  N_3 
REMARK       I    between atoms: N_3  and  C_4 
REMARK    2  A    between atoms: C_4  and  C_5 
REMARK    3  A    between atoms: C_5  and  C_6 
ROOT
HETATM    1  C   UNL     1      -5.253   2.764 -32.387  1.00  0.00     0.286 C 
HETATM    2  N   UNL     1      -6.737   2.404 -32.361  1.00  0.00    -0.056 N 
HETATM    3  H   UNL     1      -7.012   2.355 -31.371  1.00  0.00     0.278 HD
HETATM    4  H   UNL     1      -7.270   3.223 -32.722  1.00  0.00     0.278 HD
HETATM    5  C   UNL     1      -7.165   1.131 -33.029  1.00  0.00     0.209 C 
HETATM    6  C   UNL     1      -6.232  -0.023 -32.589  1.00  0.00     0.115 C 
HETATM    7  N   UNL     1      -4.818   0.328 -32.676  1.00  0.00    -0.353 N 
HETATM    8  C   UNL     1      -4.323   1.546 -32.285  1.00  0.00     0.249 C 
HETATM    9  O   UNL     1      -3.142   1.658 -31.973  1.00  0.00    -0.271 OA
HETATM   10  C   UNL     1      -7.253   1.316 -34.544  1.00  0.00     0.035 C 
HETATM   11  C   UNL     1      -7.595   0.002 -35.241  1.00  0.00     0.002 C 
HETATM   12  C   UNL     1      -6.591  -1.088 -34.879  1.00  0.00     0.002 C 
HETATM   13  C   UNL     1      -6.529  -1.310 -33.367  1.00  0.00     0.027 C 
HETATM   14  H   UNL     1      -4.137  -0.420 -32.541  1.00  0.00     0.163 HD
ENDROOT
BRANCH   1  15
HETATM   15  C   UNL     1      -4.825   3.577 -33.621  1.00  0.00     0.146 C 
BRANCH  15  16
HETATM   16  C   UNL     1      -5.410   4.959 -33.659  1.00  0.00     0.224 C 
HETATM   17  N   UNL     1      -4.704   6.062 -33.296  1.00  0.00    -0.327 N 
HETATM   18  H   UNL     1      -5.279   6.898 -33.357  1.00  0.00     0.169 HD
HETATM   19  O   UNL     1      -6.566   5.107 -34.076  1.00  0.00    -0.273 OA
BRANCH  17  20
HETATM   20  C   UNL     1      -3.375   6.294 -32.888  1.00  0.00     0.034 A 
HETATM   21  C   UNL     1      -2.346   6.810 -33.679  1.00  0.00     0.031 A 
HETATM   22  C   UNL     1      -1.066   7.015 -33.144  1.00  0.00     0.026 A 
HETATM   23  C   UNL     1      -0.803   6.707 -31.814  1.00  0.00     0.034 A 
HETATM   24  C   UNL     1      -1.810   6.191 -31.011  1.00  0.00     0.026 A 
HETATM   25 CL   UNL     1       0.768   6.968 -31.168  1.00  0.00    -0.084 Cl
HETATM   26  C   UNL     1      -3.087   5.988 -31.546  1.00  0.00     0.031 A 
ENDBRANCH  17  20
ENDBRANCH  15  16
ENDBRANCH   1  15
TORSDOF 3
ENDMDL
MODEL 6
REMARK VINA RESULT:      -7.7     14.109     15.964
REMARK  3 active torsions:
REMARK  status: ('A' for Active; 'I' for Inactive)
REMARK    1  A    between atoms: C_2  and  N_3 
REMARK       I    between atoms: N_3  and  C_4 
REMARK    2  A    between atoms: C_4  and  C_5 
REMARK    3  A    between atoms: C_5  and  C_6 
ROOT
HETATM    1  C   UNL     1      -5.235 -12.515 -40.293  1.00  0.00     0.286 C 
HETATM    2  N   UNL     1      -6.468 -12.403 -41.188  1.00  0.00    -0.056 N 
HETATM    3  H   UNL     1      -6.586 -11.406 -41.406  1.00  0.00     0.278 HD
HETATM    4  H   UNL     1      -6.231 -12.829 -42.110  1.00  0.00     0.278 HD
HETATM    5  C   UNL     1      -7.772 -12.924 -40.661  1.00  0.00     0.209 C 
HETATM    6  C   UNL     1      -7.993 -12.400 -39.222  1.00  0.00     0.115 C 
HETATM    7  N   UNL     1      -6.819 -12.569 -38.370  1.00  0.00    -0.353 N 
HETATM    8  C   UNL     1      -5.541 -12.320 -38.801  1.00  0.00     0.249 C 
HETATM    9  O   UNL     1      -4.659 -12.061 -37.989  1.00  0.00    -0.271 OA
HETATM   10  C   UNL     1      -7.839 -14.446 -40.785  1.00  0.00     0.035 C 
HETATM   11  C   UNL     1      -9.121 -14.995 -40.165  1.00  0.00     0.002 C 
HETATM   12  C   UNL     1      -9.255 -14.556 -38.709  1.00  0.00     0.002 C 
HETATM   13  C   UNL     1      -9.234 -13.033 -38.581  1.00  0.00     0.027 C 
HETATM   14  H   UNL     1      -6.928 -12.381 -37.374  1.00  0.00     0.163 HD
ENDROOT
BRANCH   1  15
HETATM   15  C   UNL     1      -4.467 -13.839 -40.445  1.00  0.00     0.146 C 
BRANCH  15  16
HETATM   16  C   UNL     1      -3.654 -13.918 -41.705  1.00  0.00     0.224 C 
HETATM   17  N   UNL     1      -2.313 -14.131 -41.698  1.00  0.00    -0.327 N 
HETATM   18  H   UNL     1      -1.937 -14.119 -42.642  1.00  0.00     0.169 HD
HETATM   19  O   UNL     1      -4.234 -13.828 -42.796  1.00  0.00    -0.273 OA
BRANCH  17  20
HETATM   20  C   UNL     1      -1.358 -14.383 -40.691  1.00  0.00     0.034 A 
HETATM   21  C   UNL     1      -0.976 -13.503 -39.676  1.00  0.00     0.031 A 
HETATM   22  C   UNL     1      -0.026 -13.885 -38.717  1.00  0.00     0.026 A 
HETATM   23  C   UNL     1       0.550 -15.150 -38.764  1.00  0.00     0.034 A 
HETATM   24  C   UNL     1       0.185 -16.039 -39.765  1.00  0.00     0.026 A 
HETATM   25 CL   UNL     1       1.708 -15.609 -37.581  1.00  0.00    -0.084 Cl
HETATM   26  C   UNL     1      -0.764 -15.657 -40.720  1.00  0.00     0.031 A 
ENDBRANCH  17  20
ENDBRANCH  15  16
ENDBRANCH   1  15
TORSDOF 3
ENDMDL
MODEL 7
REMARK VINA RESULT:      -7.6      3.755      5.721
REMARK  3 active torsions:
REMARK  status: ('A' for Active; 'I' for Inactive)
REMARK    1  A    between atoms: C_2  and  N_3 
REMARK       I    between atoms: N_3  and  C_4 
REMARK    2  A    between atoms: C_4  and  C_5 
REMARK    3  A    between atoms: C_5  and  C_6 
ROOT
HETATM    1  C   UNL     1      -4.262   3.742 -31.242  1.00  0.00     0.286 C 
HETATM    2  N   UNL     1      -2.735   3.694 -31.279  1.00  0.00    -0.056 N 
HETATM    3  H   UNL     1      -2.415   3.730 -30.303  1.00  0.00     0.278 HD
HETATM    4  H   UNL     1      -2.454   2.741 -31.594  1.00  0.00     0.278 HD
HETATM    5  C   UNL     1      -2.015   4.763 -32.047  1.00  0.00     0.209 C 
HETATM    6  C   UNL     1      -2.590   6.148 -31.668  1.00  0.00     0.115 C 
HETATM    7  N   UNL     1      -4.049   6.183 -31.694  1.00  0.00    -0.353 N 
HETATM    8  C   UNL     1      -4.830   5.168 -31.204  1.00  0.00     0.249 C 
HETATM    9  O   UNL     1      -5.985   5.395 -30.855  1.00  0.00    -0.271 OA
HETATM   10  C   UNL     1      -2.045   4.467 -33.547  1.00  0.00     0.035 C 
HETATM   11  C   UNL     1      -1.398   5.596 -34.345  1.00  0.00     0.002 C 
HETATM   12  C   UNL     1      -2.062   6.934 -34.036  1.00  0.00     0.002 C 
HETATM   13  C   UNL     1      -1.997   7.259 -32.543  1.00  0.00     0.027 C 
HETATM   14  H   UNL     1      -4.502   7.092 -31.595  1.00  0.00     0.163 HD
ENDROOT
BRANCH   1  15
HETATM   15  C   UNL     1      -4.942   2.997 -32.403  1.00  0.00     0.146 C 
BRANCH  15  16
HETATM   16  C   UNL     1      -4.584   1.541 -32.472  1.00  0.00     0.224 C 
HETATM   17  N   UNL     1      -5.520   0.562 -32.574  1.00  0.00    -0.327 N 
HETATM   18  H   UNL     1      -5.087  -0.358 -32.573  1.00  0.00     0.169 HD
HETATM   19  O   UNL     1      -3.388   1.220 -32.477  1.00  0.00    -0.273 OA
BRANCH  17  20
HETATM   20  C   UNL     1      -6.924   0.547 -32.703  1.00  0.00     0.034 A 
HETATM   21  C   UNL     1      -7.849   0.528 -31.658  1.00  0.00     0.031 A 
HETATM   22  C   UNL     1      -9.227   0.538 -31.920  1.00  0.00     0.026 A 
HETATM   23  C   UNL     1      -9.692   0.569 -33.230  1.00  0.00     0.034 A 
HETATM   24  C   UNL     1      -8.790   0.587 -34.284  1.00  0.00     0.026 A 
HETATM   25 CL   UNL     1     -11.382   0.587 -33.540  1.00  0.00    -0.084 Cl
HETATM   26  C   UNL     1      -7.415   0.578 -34.020  1.00  0.00     0.031 A 
ENDBRANCH  17  20
ENDBRANCH  15  16
ENDBRANCH   1  15
TORSDOF 3
ENDMDL
MODEL 8
REMARK VINA RESULT:      -7.6     13.923     16.160
REMARK  3 active torsions:
REMARK  status: ('A' for Active; 'I' for Inactive)
REMARK    1  A    between atoms: C_2  and  N_3 
REMARK       I    between atoms: N_3  and  C_4 
REMARK    2  A    between atoms: C_4  and  C_5 
REMARK    3  A    between atoms: C_5  and  C_6 
ROOT
HETATM    1  C   UNL     1      -3.673 -13.236 -39.478  1.00  0.00     0.286 C 
HETATM    2  N   UNL     1      -2.482 -12.495 -38.873  1.00  0.00    -0.056 N 
HETATM    3  H   UNL     1      -2.359 -11.635 -39.423  1.00  0.00     0.278 HD
HETATM    4  H   UNL     1      -2.768 -12.146 -37.934  1.00  0.00     0.278 HD
HETATM    5  C   UNL     1      -1.163 -13.207 -38.817  1.00  0.00     0.209 C 
HETATM    6  C   UNL     1      -0.866 -13.854 -40.192  1.00  0.00     0.115 C 
HETATM    7  N   UNL     1      -2.001 -14.603 -40.722  1.00  0.00    -0.353 N 
HETATM    8  C   UNL     1      -3.294 -14.151 -40.653  1.00  0.00     0.249 C 
HETATM    9  O   UNL     1      -4.133 -14.564 -41.447  1.00  0.00    -0.271 OA
HETATM   10  C   UNL     1      -1.126 -14.191 -37.647  1.00  0.00     0.035 C 
HETATM   11  C   UNL     1       0.175 -14.988 -37.638  1.00  0.00     0.002 C 
HETATM   12  C   UNL     1       0.385 -15.709 -38.967  1.00  0.00     0.002 C 
HETATM   13  C   UNL     1       0.393 -14.727 -40.139  1.00  0.00     0.027 C 
HETATM   14  H   UNL     1      -1.843 -15.174 -41.552  1.00  0.00     0.163 HD
ENDROOT
BRANCH   1  15
HETATM   15  C   UNL     1      -4.468 -14.079 -38.467  1.00  0.00     0.146 C 
BRANCH  15  16
HETATM   16  C   UNL     1      -5.001 -13.281 -37.312  1.00  0.00     0.224 C 
HETATM   17  N   UNL     1      -6.309 -12.929 -37.208  1.00  0.00    -0.327 N 
HETATM   18  H   UNL     1      -6.469 -12.364 -36.377  1.00  0.00     0.169 HD
HETATM   19  O   UNL     1      -4.229 -12.968 -36.396  1.00  0.00    -0.273 OA
BRANCH  17  20
HETATM   20  C   UNL     1      -7.466 -13.190 -37.971  1.00  0.00     0.034 A 
HETATM   21  C   UNL     1      -8.207 -14.373 -37.967  1.00  0.00     0.031 A 
HETATM   22  C   UNL     1      -9.359 -14.499 -38.759  1.00  0.00     0.026 A 
HETATM   23  C   UNL     1      -9.778 -13.444 -39.561  1.00  0.00     0.034 A 
HETATM   24  C   UNL     1      -9.055 -12.260 -39.580  1.00  0.00     0.026 A 
HETATM   25 CL   UNL     1     -11.193 -13.607 -40.522  1.00  0.00    -0.084 Cl
HETATM   26  C   UNL     1      -7.908 -12.135 -38.788  1.00  0.00     0.031 A 
ENDBRANCH  17  20
ENDBRANCH  15  16
ENDBRANCH   1  15
TORSDOF 3
ENDMDL
MODEL 9
REMARK VINA RESULT:      -7.5      3.724      5.653
REMARK  3 active torsions:
REMARK  status: ('A' for Active; 'I' for Inactive)
REMARK    1  A    between atoms: C_2  and  N_3 
REMARK       I    between atoms: N_3  and  C_4 
REMARK    2  A    between atoms: C_4  and  C_5 
REMARK    3  A    between atoms: C_5  and  C_6 
ROOT
HETATM    1  C   UNL     1      -4.375   4.283 -30.974  1.00  0.00     0.286 C 
HETATM    2  N   UNL     1      -3.004   3.674 -31.260  1.00  0.00    -0.056 N 
HETATM    3  H   UNL     1      -2.587   3.443 -30.349  1.00  0.00     0.278 HD
HETATM    4  H   UNL     1      -3.156   2.742 -31.702  1.00  0.00     0.278 HD
HETATM    5  C   UNL     1      -2.015   4.494 -32.033  1.00  0.00     0.209 C 
HETATM    6  C   UNL     1      -1.953   5.923 -31.442  1.00  0.00     0.115 C 
HETATM    7  N   UNL     1      -3.275   6.505 -31.230  1.00  0.00    -0.353 N 
HETATM    8  C   UNL     1      -4.331   5.797 -30.715  1.00  0.00     0.249 C 
HETATM    9  O   UNL     1      -5.257   6.386 -30.167  1.00  0.00    -0.271 OA
HETATM   10  C   UNL     1      -2.327   4.454 -33.529  1.00  0.00     0.035 C 
HETATM   11  C   UNL     1      -1.385   5.361 -34.315  1.00  0.00     0.002 C 
HETATM   12  C   UNL     1      -1.432   6.791 -33.783  1.00  0.00     0.002 C 
HETATM   13  C   UNL     1      -1.076   6.845 -32.297  1.00  0.00     0.027 C 
HETATM   14  H   UNL     1      -3.321   7.492 -30.977  1.00  0.00     0.163 HD
ENDROOT
BRANCH   1  15
HETATM   15  C   UNL     1      -5.419   4.026 -32.074  1.00  0.00     0.146 C 
BRANCH  15  16
HETATM   16  C   UNL     1      -6.697   3.431 -31.558  1.00  0.00     0.224 C 
HETATM   17  N   UNL     1      -7.005   2.117 -31.710  1.00  0.00    -0.327 N 
HETATM   18  H   UNL     1      -7.924   1.912 -31.326  1.00  0.00     0.169 HD
HETATM   19  O   UNL     1      -7.483   4.156 -30.933  1.00  0.00    -0.273 OA
BRANCH  17  20
HETATM   20  C   UNL     1      -6.334   1.001 -32.249  1.00  0.00     0.034 A 
HETATM   21  C   UNL     1      -5.454   0.158 -31.567  1.00  0.00     0.031 A 
HETATM   22  C   UNL     1      -4.866  -0.939 -32.215  1.00  0.00     0.026 A 
HETATM   23  C   UNL     1      -5.151  -1.201 -33.550  1.00  0.00     0.034 A 
HETATM   24  C   UNL     1      -6.020  -0.374 -34.247  1.00  0.00     0.026 A 
HETATM   25 CL   UNL     1      -4.429  -2.550 -34.332  1.00  0.00    -0.084 Cl
HETATM   26  C   UNL     1      -6.608   0.717 -33.598  1.00  0.00     0.031 A 
ENDBRANCH  17  20
ENDBRANCH  15  16
ENDBRANCH   1  15
TORSDOF 3
ENDMDL
MODEL 10
REMARK VINA RESULT:      -7.5     13.968     15.161
REMARK  3 active torsions:
REMARK  status: ('A' for Active; 'I' for Inactive)
REMARK    1  A    between atoms: C_2  and  N_3 
REMARK       I    between atoms: N_3  and  C_4 
REMARK    2  A    between atoms: C_4  and  C_5 
REMARK    3  A    between atoms: C_5  and  C_6 
ROOT
HETATM    1  C   UNL     1      -6.984 -14.418 -36.653  1.00  0.00     0.286 C 
HETATM    2  N   UNL     1      -7.191 -12.925 -36.900  1.00  0.00    -0.056 N 
HETATM    3  H   UNL     1      -8.104 -12.682 -36.494  1.00  0.00     0.278 HD
HETATM    4  H   UNL     1      -6.512 -12.407 -36.302  1.00  0.00     0.278 HD
HETATM    5  C   UNL     1      -7.163 -12.434 -38.317  1.00  0.00     0.209 C 
HETATM    6  C   UNL     1      -8.054 -13.343 -39.197  1.00  0.00     0.115 C 
HETATM    7  N   UNL     1      -7.798 -14.764 -38.983  1.00  0.00    -0.353 N 
HETATM    8  C   UNL     1      -7.601 -15.311 -37.740  1.00  0.00     0.249 C 
HETATM    9  O   UNL     1      -7.812 -16.505 -37.554  1.00  0.00    -0.271 OA
HETATM   10  C   UNL     1      -5.725 -12.301 -38.817  1.00  0.00     0.035 C 
HETATM   11  C   UNL     1      -5.687 -11.893 -40.287  1.00  0.00     0.002 C 
HETATM   12  C   UNL     1      -6.479 -12.874 -41.147  1.00  0.00     0.002 C 
HETATM   13  C   UNL     1      -7.932 -12.979 -40.681  1.00  0.00     0.027 C 
HETATM   14  H   UNL     1      -8.240 -15.425 -39.622  1.00  0.00     0.163 HD
ENDROOT
BRANCH   1  15
HETATM   15  C   UNL     1      -5.512 -14.830 -36.490  1.00  0.00     0.146 C 
BRANCH  15  16
HETATM   16  C   UNL     1      -4.798 -14.083 -35.400  1.00  0.00     0.224 C 
HETATM   17  N   UNL     1      -3.487 -13.739 -35.487  1.00  0.00    -0.327 N 
HETATM   18  H   UNL     1      -3.177 -13.270 -34.640  1.00  0.00     0.169 HD
HETATM   19  O   UNL     1      -5.439 -13.728 -34.402  1.00  0.00    -0.273 OA
BRANCH  17  20
HETATM   20  C   UNL     1      -2.496 -13.869 -36.481  1.00  0.00     0.034 A 
HETATM   21  C   UNL     1      -2.294 -13.009 -37.563  1.00  0.00     0.031 A 
HETATM   22  C   UNL     1      -1.251 -13.237 -38.473  1.00  0.00     0.026 A 
HETATM   23  C   UNL     1      -0.403 -14.326 -38.311  1.00  0.00     0.034 A 
HETATM   24  C   UNL     1      -0.587 -15.194 -37.245  1.00  0.00     0.026 A 
HETATM   25 CL   UNL     1       0.874 -14.592 -39.430  1.00  0.00    -0.084 Cl
HETATM   26  C   UNL     1      -1.626 -14.964 -36.335  1.00  0.00     0.031 A 
ENDBRANCH  17  20
ENDBRANCH  15  16
ENDBRANCH   1  15
TORSDOF 3
ENDMDL
