MODEL 1
REMARK VINA RESULT:      -8.0      0.000      0.000
REMARK  8 active torsions:
REMARK  status: ('A' for Active; 'I' for Inactive)
REMARK    1  A    between atoms: C_2  and  C_3 
REMARK    2  A    between atoms: C_3  and  N_4 
REMARK    3  A    between atoms: C_7  and  C_8 
REMARK       I    between atoms: C_8  and  N_9 
REMARK    4  A    between atoms: N_9  and  N_10 
REMARK       I    between atoms: N_10  and  C_11 
REMARK    5  A    between atoms: C_11  and  C_12 
REMARK    6  A    between atoms: C_15  and  O_16 
REMARK    7  A    between atoms: O_16  and  C_17 
REMARK    8  A    between atoms: C_23  and  C_24 
ROOT
HETATM    1  C   UNL     1      -1.909   4.525 -31.711  1.00  0.00     0.273 C 
HETATM    2  N   UNL     1      -2.748   3.627 -31.077  1.00  0.00    -0.263 N 
HETATM    3  O   UNL     1      -1.863   4.596 -32.937  1.00  0.00    -0.266 OA
HETATM    4  H   UNL     1      -2.733   3.444 -30.075  1.00  0.00     0.190 HD
ENDROOT
BRANCH   2   5
HETATM    5  N   UNL     1      -3.543   2.781 -31.858  1.00  0.00    -0.263 N 
HETATM    6  C   UNL     1      -3.418   1.420 -31.672  1.00  0.00     0.270 C 
HETATM    7  O   UNL     1      -2.656   0.935 -30.839  1.00  0.00    -0.266 OA
HETATM    8  H   UNL     1      -4.018   3.213 -32.648  1.00  0.00     0.190 HD
BRANCH   6   9
HETATM    9  C   UNL     1      -4.244   0.550 -32.553  1.00  0.00     0.033 A 
HETATM   10  C   UNL     1      -3.774  -0.736 -32.847  1.00  0.00     0.020 A 
HETATM   11  C   UNL     1      -4.527  -1.588 -33.659  1.00  0.00     0.038 A 
HETATM   12  C   UNL     1      -5.759  -1.179 -34.175  1.00  0.00     0.068 A 
HETATM   13  C   UNL     1      -6.234   0.099 -33.876  1.00  0.00     0.038 A 
HETATM   14  C   UNL     1      -5.482   0.961 -33.065  1.00  0.00     0.020 A 
BRANCH  12  15
HETATM   15  O   UNL     1      -6.393  -2.113 -34.945  1.00  0.00    -0.352 OA
BRANCH  15  16
HETATM   16  C   UNL     1      -5.672  -3.308 -35.245  1.00  0.00     0.171 C 
HETATM   17  C   UNL     1      -6.621  -4.482 -35.075  1.00  0.00     0.034 C 
ENDBRANCH  15  16
ENDBRANCH  12  15
ENDBRANCH   6   9
ENDBRANCH   2   5
BRANCH   1  18
HETATM   18  C   UNL     1      -1.147   5.366 -30.803  1.00  0.00     0.077 A 
HETATM   19  C   UNL     1       0.119   5.033 -30.261  1.00  0.00     0.158 A 
HETATM   20  N   UNL     1       0.606   5.964 -29.448  1.00  0.00    -0.183 NA
HETATM   21  N   UNL     1      -0.363   6.900 -29.416  1.00  0.00    -0.268 N 
HETATM   22  C   UNL     1      -1.420   6.621 -30.263  1.00  0.00     0.052 A 
BRANCH  21  23
HETATM   23  C   UNL     1      -0.201   8.031 -28.503  1.00  0.00     0.106 C 
HETATM   24  C   UNL     1      -1.023   7.823 -27.225  1.00  0.00     0.034 C 
BRANCH  23  25
HETATM   25  C   UNL     1       1.275   8.303 -28.161  1.00  0.00     0.022 C 
HETATM   26  C   UNL     1       1.608   8.035 -26.699  1.00  0.00     0.007 C 
ENDBRANCH  23  25
ENDBRANCH  21  23
BRANCH  22  27
HETATM   27  C   UNL     1      -2.580   7.588 -30.523  1.00  0.00     0.038 A 
HETATM   28  C   UNL     1      -2.362   8.846 -31.328  1.00  0.00     0.011 A 
HETATM   29  C   UNL     1      -3.177   7.733 -31.899  1.00  0.00     0.011 A 
ENDBRANCH  22  27
ENDBRANCH   1  18
TORSDOF 8
ENDMDL
MODEL 2
REMARK VINA RESULT:      -7.7      1.289      2.002
REMARK  8 active torsions:
REMARK  status: ('A' for Active; 'I' for Inactive)
REMARK    1  A    between atoms: C_2  and  C_3 
REMARK    2  A    between atoms: C_3  and  N_4 
REMARK    3  A    between atoms: C_7  and  C_8 
REMARK       I    between atoms: C_8  and  N_9 
REMARK    4  A    between atoms: N_9  and  N_10 
REMARK       I    between atoms: N_10  and  C_11 
REMARK    5  A    between atoms: C_11  and  C_12 
REMARK    6  A    between atoms: C_15  and  O_16 
REMARK    7  A    between atoms: O_16  and  C_17 
REMARK    8  A    between atoms: C_23  and  C_24 
ROOT
HETATM    1  C   UNL     1      -3.741   5.291 -31.248  1.00  0.00     0.273 C 
HETATM    2  N   UNL     1      -4.072   4.075 -30.678  1.00  0.00    -0.263 N 
HETATM    3  O   UNL     1      -3.981   5.526 -32.430  1.00  0.00    -0.266 OA
HETATM    4  H   UNL     1      -3.784   3.788 -29.744  1.00  0.00     0.190 HD
ENDROOT
BRANCH   2   5
HETATM    5  N   UNL     1      -4.676   3.099 -31.477  1.00  0.00    -0.263 N 
HETATM    6  C   UNL     1      -3.985   1.929 -31.708  1.00  0.00     0.270 C 
HETATM    7  O   UNL     1      -2.876   1.712 -31.223  1.00  0.00    -0.266 OA
HETATM    8  H   UNL     1      -5.502   3.392 -31.996  1.00  0.00     0.190 HD
BRANCH   6   9
HETATM    9  C   UNL     1      -4.638   0.933 -32.600  1.00  0.00     0.033 A 
HETATM   10  C   UNL     1      -4.062  -0.337 -32.714  1.00  0.00     0.020 A 
HETATM   11  C   UNL     1      -4.654  -1.304 -33.531  1.00  0.00     0.038 A 
HETATM   12  C   UNL     1      -5.830  -1.025 -34.231  1.00  0.00     0.068 A 
HETATM   13  C   UNL     1      -6.411   0.239 -34.112  1.00  0.00     0.038 A 
HETATM   14  C   UNL     1      -5.821   1.215 -33.297  1.00  0.00     0.020 A 
BRANCH  12  15
HETATM   15  O   UNL     1      -6.305  -2.061 -34.985  1.00  0.00    -0.352 OA
BRANCH  15  16
HETATM   16  C   UNL     1      -5.527  -3.258 -35.011  1.00  0.00     0.171 C 
HETATM   17  C   UNL     1      -6.474  -4.426 -35.221  1.00  0.00     0.034 C 
ENDBRANCH  15  16
ENDBRANCH  12  15
ENDBRANCH   6   9
ENDBRANCH   2   5
BRANCH   1  18
HETATM   18  C   UNL     1      -3.138   6.235 -30.322  1.00  0.00     0.077 A 
HETATM   19  C   UNL     1      -3.790   6.790 -29.193  1.00  0.00     0.158 A 
HETATM   20  N   UNL     1      -3.029   7.637 -28.509  1.00  0.00    -0.183 NA
HETATM   21  N   UNL     1      -1.881   7.677 -29.213  1.00  0.00    -0.268 N 
HETATM   22  C   UNL     1      -1.867   6.805 -30.286  1.00  0.00     0.052 A 
BRANCH  21  23
HETATM   23  C   UNL     1      -0.847   8.624 -28.795  1.00  0.00     0.106 C 
HETATM   24  C   UNL     1      -1.475   9.907 -28.237  1.00  0.00     0.034 C 
BRANCH  23  25
HETATM   25  C   UNL     1       0.133   8.012 -27.778  1.00  0.00     0.022 C 
HETATM   26  C   UNL     1       1.529   8.615 -27.857  1.00  0.00     0.007 C 
ENDBRANCH  23  25
ENDBRANCH  21  23
BRANCH  22  27
HETATM   27  C   UNL     1      -0.635   6.550 -31.160  1.00  0.00     0.038 A 
HETATM   28  C   UNL     1       0.468   5.636 -30.683  1.00  0.00     0.011 A 
HETATM   29  C   UNL     1      -0.409   5.212 -31.815  1.00  0.00     0.011 A 
ENDBRANCH  22  27
ENDBRANCH   1  18
TORSDOF 8
ENDMDL
MODEL 3
REMARK VINA RESULT:      -7.5      2.076     10.009
REMARK  8 active torsions:
REMARK  status: ('A' for Active; 'I' for Inactive)
REMARK    1  A    between atoms: C_2  and  C_3 
REMARK    2  A    between atoms: C_3  and  N_4 
REMARK    3  A    between atoms: C_7  and  C_8 
REMARK       I    between atoms: C_8  and  N_9 
REMARK    4  A    between atoms: N_9  and  N_10 
REMARK       I    between atoms: N_10  and  C_11 
REMARK    5  A    between atoms: C_11  and  C_12 
REMARK    6  A    between atoms: C_15  and  O_16 
REMARK    7  A    between atoms: O_16  and  C_17 
REMARK    8  A    between atoms: C_23  and  C_24 
ROOT
HETATM    1  C   UNL     1      -3.364   1.012 -31.697  1.00  0.00     0.273 C 
HETATM    2  N   UNL     1      -3.622   2.338 -31.991  1.00  0.00    -0.263 N 
HETATM    3  O   UNL     1      -2.586   0.700 -30.798  1.00  0.00    -0.266 OA
HETATM    4  H   UNL     1      -4.159   2.648 -32.800  1.00  0.00     0.190 HD
ENDROOT
BRANCH   2   5
HETATM    5  N   UNL     1      -2.968   3.332 -31.255  1.00  0.00    -0.263 N 
HETATM    6  C   UNL     1      -2.230   4.271 -31.944  1.00  0.00     0.270 C 
HETATM    7  O   UNL     1      -2.146   4.273 -33.170  1.00  0.00    -0.266 OA
HETATM    8  H   UNL     1      -2.918   3.186 -30.248  1.00  0.00     0.190 HD
BRANCH   6   9
HETATM    9  C   UNL     1      -1.509   5.284 -31.125  1.00  0.00     0.033 A 
HETATM   10  C   UNL     1      -0.121   5.166 -30.991  1.00  0.00     0.020 A 
HETATM   11  C   UNL     1       0.593   6.105 -30.242  1.00  0.00     0.038 A 
HETATM   12  C   UNL     1      -0.061   7.177 -29.631  1.00  0.00     0.068 A 
HETATM   13  C   UNL     1      -1.444   7.302 -29.770  1.00  0.00     0.038 A 
HETATM   14  C   UNL     1      -2.168   6.362 -30.517  1.00  0.00     0.020 A 
BRANCH  12  15
HETATM   15  O   UNL     1       0.757   8.024 -28.937  1.00  0.00    -0.352 OA
BRANCH  15  16
HETATM   16  C   UNL     1       0.689   7.974 -27.513  1.00  0.00     0.171 C 
HETATM   17  C   UNL     1       1.900   8.705 -26.960  1.00  0.00     0.034 C 
ENDBRANCH  15  16
ENDBRANCH  12  15
ENDBRANCH   6   9
ENDBRANCH   2   5
BRANCH   1  18
HETATM   18  C   UNL     1      -4.112   0.068 -32.509  1.00  0.00     0.077 A 
HETATM   19  C   UNL     1      -3.539  -0.997 -33.247  1.00  0.00     0.158 A 
HETATM   20  N   UNL     1      -4.433  -1.714 -33.918  1.00  0.00    -0.183 NA
HETATM   21  N   UNL     1      -5.601  -1.095 -33.659  1.00  0.00    -0.268 N 
HETATM   22  C   UNL     1      -5.477  -0.047 -32.765  1.00  0.00     0.052 A 
BRANCH  21  23
HETATM   23  C   UNL     1      -6.801  -1.563 -34.353  1.00  0.00     0.106 C 
HETATM   24  C   UNL     1      -7.414  -0.441 -35.200  1.00  0.00     0.034 C 
BRANCH  23  25
HETATM   25  C   UNL     1      -6.531  -2.810 -35.215  1.00  0.00     0.022 C 
HETATM   26  C   UNL     1      -6.968  -4.105 -34.544  1.00  0.00     0.007 C 
ENDBRANCH  23  25
ENDBRANCH  21  23
BRANCH  22  27
HETATM   27  C   UNL     1      -6.667   0.730 -32.194  1.00  0.00     0.038 A 
HETATM   28  C   UNL     1      -7.638   0.060 -31.252  1.00  0.00     0.011 A 
HETATM   29  C   UNL     1      -6.716   1.116 -30.738  1.00  0.00     0.011 A 
ENDBRANCH  22  27
ENDBRANCH   1  18
TORSDOF 8
ENDMDL
MODEL 4
REMARK VINA RESULT:      -7.2      2.235     10.108
REMARK  8 active torsions:
REMARK  status: ('A' for Active; 'I' for Inactive)
REMARK    1  A    between atoms: C_2  and  C_3 
REMARK    2  A    between atoms: C_3  and  N_4 
REMARK    3  A    between atoms: C_7  and  C_8 
REMARK       I    between atoms: C_8  and  N_9 
REMARK    4  A    between atoms: N_9  and  N_10 
REMARK       I    between atoms: N_10  and  C_11 
REMARK    5  A    between atoms: C_11  and  C_12 
REMARK    6  A    between atoms: C_15  and  O_16 
REMARK    7  A    between atoms: O_16  and  C_17 
REMARK    8  A    between atoms: C_23  and  C_24 
ROOT
HETATM    1  C   UNL     1      -3.957   3.084 -31.813  1.00  0.00     0.273 C 
HETATM    2  N   UNL     1      -4.377   4.272 -31.243  1.00  0.00    -0.263 N 
HETATM    3  O   UNL     1      -2.821   2.654 -31.624  1.00  0.00    -0.266 OA
HETATM    4  H   UNL     1      -5.259   4.730 -31.467  1.00  0.00     0.190 HD
ENDROOT
BRANCH   2   5
HETATM    5  N   UNL     1      -3.478   4.994 -30.451  1.00  0.00    -0.263 N 
HETATM    6  C   UNL     1      -2.801   6.046 -31.033  1.00  0.00     0.270 C 
HETATM    7  O   UNL     1      -2.977   6.376 -32.203  1.00  0.00    -0.266 OA
HETATM    8  H   UNL     1      -3.234   4.579 -29.554  1.00  0.00     0.190 HD
BRANCH   6   9
HETATM    9  C   UNL     1      -1.818   6.762 -30.174  1.00  0.00     0.033 A 
HETATM   10  C   UNL     1      -0.586   6.148 -29.920  1.00  0.00     0.020 A 
HETATM   11  C   UNL     1       0.368   6.794 -29.131  1.00  0.00     0.038 A 
HETATM   12  C   UNL     1       0.116   8.060 -28.597  1.00  0.00     0.068 A 
HETATM   13  C   UNL     1      -1.108   8.678 -28.856  1.00  0.00     0.038 A 
HETATM   14  C   UNL     1      -2.073   8.034 -29.645  1.00  0.00     0.020 A 
BRANCH  12  15
HETATM   15  O   UNL     1       1.137   8.579 -27.852  1.00  0.00    -0.352 OA
BRANCH  15  16
HETATM   16  C   UNL     1       1.588   7.807 -26.739  1.00  0.00     0.171 C 
HETATM   17  C   UNL     1       2.266   8.750 -25.760  1.00  0.00     0.034 C 
ENDBRANCH  15  16
ENDBRANCH  12  15
ENDBRANCH   6   9
ENDBRANCH   2   5
BRANCH   1  18
HETATM   18  C   UNL     1      -4.978   2.409 -32.596  1.00  0.00     0.077 A 
HETATM   19  C   UNL     1      -5.691   2.994 -33.672  1.00  0.00     0.158 A 
HETATM   20  N   UNL     1      -6.580   2.175 -34.223  1.00  0.00    -0.183 NA
HETATM   21  N   UNL     1      -6.487   1.055 -33.479  1.00  0.00    -0.268 N 
HETATM   22  C   UNL     1      -5.493   1.117 -32.519  1.00  0.00     0.052 A 
BRANCH  21  23
HETATM   23  C   UNL     1      -7.432  -0.030 -33.743  1.00  0.00     0.106 C 
HETATM   24  C   UNL     1      -8.841   0.522 -33.997  1.00  0.00     0.034 C 
BRANCH  23  25
HETATM   25  C   UNL     1      -6.983  -0.929 -34.909  1.00  0.00     0.022 C 
HETATM   26  C   UNL     1      -6.945  -2.407 -34.543  1.00  0.00     0.007 C 
ENDBRANCH  23  25
ENDBRANCH  21  23
BRANCH  22  27
HETATM   27  C   UNL     1      -5.084  -0.069 -31.639  1.00  0.00     0.038 A 
HETATM   28  C   UNL     1      -4.356  -1.250 -32.235  1.00  0.00     0.011 A 
HETATM   29  C   UNL     1      -3.638  -0.327 -31.306  1.00  0.00     0.011 A 
ENDBRANCH  22  27
ENDBRANCH   1  18
TORSDOF 8
ENDMDL
MODEL 5
REMARK VINA RESULT:      -7.1      2.798     10.072
REMARK  8 active torsions:
REMARK  status: ('A' for Active; 'I' for Inactive)
REMARK    1  A    between atoms: C_2  and  C_3 
REMARK    2  A    between atoms: C_3  and  N_4 
REMARK    3  A    between atoms: C_7  and  C_8 
REMARK       I    between atoms: C_8  and  N_9 
REMARK    4  A    between atoms: N_9  and  N_10 
REMARK       I    between atoms: N_10  and  C_11 
REMARK    5  A    between atoms: C_11  and  C_12 
REMARK    6  A    between atoms: C_15  and  O_16 
REMARK    7  A    between atoms: O_16  and  C_17 
REMARK    8  A    between atoms: C_23  and  C_24 
ROOT
HETATM    1  C   UNL     1      -5.050   1.701 -32.156  1.00  0.00     0.273 C 
HETATM    2  N   UNL     1      -4.070   2.527 -32.675  1.00  0.00    -0.263 N 
HETATM    3  O   UNL     1      -5.958   2.151 -31.461  1.00  0.00    -0.266 OA
HETATM    4  H   UNL     1      -3.234   2.189 -33.150  1.00  0.00     0.190 HD
ENDROOT
BRANCH   2   5
HETATM    5  N   UNL     1      -4.116   3.894 -32.382  1.00  0.00    -0.263 N 
HETATM    6  C   UNL     1      -2.922   4.568 -32.236  1.00  0.00     0.270 C 
HETATM    7  O   UNL     1      -1.833   4.015 -32.374  1.00  0.00    -0.266 OA
HETATM    8  H   UNL     1      -5.023   4.264 -32.103  1.00  0.00     0.190 HD
BRANCH   6   9
HETATM    9  C   UNL     1      -3.010   6.010 -31.878  1.00  0.00     0.033 A 
HETATM   10  C   UNL     1      -1.951   6.851 -32.239  1.00  0.00     0.020 A 
HETATM   11  C   UNL     1      -2.002   8.213 -31.934  1.00  0.00     0.038 A 
HETATM   12  C   UNL     1      -3.110   8.757 -31.280  1.00  0.00     0.068 A 
HETATM   13  C   UNL     1      -4.171   7.922 -30.926  1.00  0.00     0.038 A 
HETATM   14  C   UNL     1      -4.125   6.553 -31.226  1.00  0.00     0.020 A 
BRANCH  12  15
HETATM   15  O   UNL     1      -3.034  10.102 -31.050  1.00  0.00    -0.352 OA
BRANCH  15  16
HETATM   16  C   UNL     1      -3.318  10.553 -29.726  1.00  0.00     0.171 C 
HETATM   17  C   UNL     1      -2.071  10.346 -28.883  1.00  0.00     0.034 C 
ENDBRANCH  15  16
ENDBRANCH  12  15
ENDBRANCH   6   9
ENDBRANCH   2   5
BRANCH   1  18
HETATM   18  C   UNL     1      -4.915   0.307 -32.541  1.00  0.00     0.077 A 
HETATM   19  C   UNL     1      -4.180  -0.665 -31.817  1.00  0.00     0.158 A 
HETATM   20  N   UNL     1      -4.200  -1.868 -32.380  1.00  0.00    -0.183 NA
HETATM   21  N   UNL     1      -4.915  -1.683 -33.507  1.00  0.00    -0.268 N 
HETATM   22  C   UNL     1      -5.423  -0.402 -33.627  1.00  0.00     0.052 A 
BRANCH  21  23
HETATM   23  C   UNL     1      -5.031  -2.801 -34.444  1.00  0.00     0.106 C 
HETATM   24  C   UNL     1      -4.016  -3.901 -34.108  1.00  0.00     0.034 C 
BRANCH  23  25
HETATM   25  C   UNL     1      -6.458  -3.376 -34.497  1.00  0.00     0.022 C 
HETATM   26  C   UNL     1      -6.585  -4.571 -35.431  1.00  0.00     0.007 C 
ENDBRANCH  23  25
ENDBRANCH  21  23
BRANCH  22  27
HETATM   27  C   UNL     1      -6.385   0.030 -34.738  1.00  0.00     0.038 A 
HETATM   28  C   UNL     1      -7.879  -0.045 -34.531  1.00  0.00     0.011 A 
HETATM   29  C   UNL     1      -7.208   1.286 -34.608  1.00  0.00     0.011 A 
ENDBRANCH  22  27
ENDBRANCH   1  18
TORSDOF 8
ENDMDL
MODEL 6
REMARK VINA RESULT:      -7.0      7.361      9.958
REMARK  8 active torsions:
REMARK  status: ('A' for Active; 'I' for Inactive)
REMARK    1  A    between atoms: C_2  and  C_3 
REMARK    2  A    between atoms: C_3  and  N_4 
REMARK    3  A    between atoms: C_7  and  C_8 
REMARK       I    between atoms: C_8  and  N_9 
REMARK    4  A    between atoms: N_9  and  N_10 
REMARK       I    between atoms: N_10  and  C_11 
REMARK    5  A    between atoms: C_11  and  C_12 
REMARK    6  A    between atoms: C_15  and  O_16 
REMARK    7  A    between atoms: O_16  and  C_17 
REMARK    8  A    between atoms: C_23  and  C_24 
ROOT
HETATM    1  C   UNL     1     -10.549   2.409 -33.101  1.00  0.00     0.273 C 
HETATM    2  N   UNL     1      -9.976   1.499 -32.232  1.00  0.00    -0.263 N 
HETATM    3  O   UNL     1     -10.318   2.367 -34.308  1.00  0.00    -0.266 OA
HETATM    4  H   UNL     1     -10.036   1.566 -31.217  1.00  0.00     0.190 HD
ENDROOT
BRANCH   2   5
HETATM    5  N   UNL     1      -9.108   0.529 -32.746  1.00  0.00    -0.263 N 
HETATM    6  C   UNL     1      -7.768   0.628 -32.437  1.00  0.00     0.270 C 
HETATM    7  O   UNL     1      -7.322   1.518 -31.716  1.00  0.00    -0.266 OA
HETATM    8  H   UNL     1      -9.488  -0.073 -33.474  1.00  0.00     0.190 HD
BRANCH   6   9
HETATM    9  C   UNL     1      -6.868  -0.393 -33.040  1.00  0.00     0.033 A 
HETATM   10  C   UNL     1      -7.425  -1.342 -33.905  1.00  0.00     0.020 A 
HETATM   11  C   UNL     1      -6.611  -2.308 -34.502  1.00  0.00     0.038 A 
HETATM   12  C   UNL     1      -5.236  -2.333 -34.259  1.00  0.00     0.068 A 
HETATM   13  C   UNL     1      -4.677  -1.382 -33.404  1.00  0.00     0.038 A 
HETATM   14  C   UNL     1      -5.488  -0.412 -32.798  1.00  0.00     0.020 A 
BRANCH  12  15
HETATM   15  O   UNL     1      -4.559  -3.323 -34.913  1.00  0.00    -0.352 OA
BRANCH  15  16
HETATM   16  C   UNL     1      -4.694  -4.650 -34.404  1.00  0.00     0.171 C 
HETATM   17  C   UNL     1      -3.561  -4.891 -33.421  1.00  0.00     0.034 C 
ENDBRANCH  15  16
ENDBRANCH  12  15
ENDBRANCH   6   9
ENDBRANCH   2   5
BRANCH   1  18
HETATM   18  C   UNL     1     -11.447   3.355 -32.462  1.00  0.00     0.077 A 
HETATM   19  C   UNL     1     -11.037   4.421 -31.623  1.00  0.00     0.158 A 
HETATM   20  N   UNL     1     -12.049   5.140 -31.152  1.00  0.00    -0.183 NA
HETATM   21  N   UNL     1     -13.139   4.521 -31.644  1.00  0.00    -0.268 N 
HETATM   22  C   UNL     1     -12.835   3.471 -32.492  1.00  0.00     0.052 A 
BRANCH  21  23
HETATM   23  C   UNL     1     -14.456   4.992 -31.212  1.00  0.00     0.106 C 
HETATM   24  C   UNL     1     -14.355   5.751 -29.883  1.00  0.00     0.034 C 
BRANCH  23  25
HETATM   25  C   UNL     1     -15.149   5.857 -32.281  1.00  0.00     0.022 C 
HETATM   26  C   UNL     1     -16.659   5.669 -32.312  1.00  0.00     0.007 C 
ENDBRANCH  23  25
ENDBRANCH  21  23
BRANCH  22  27
HETATM   27  C   UNL     1     -13.884   2.695 -33.294  1.00  0.00     0.038 A 
HETATM   28  C   UNL     1     -13.866   1.185 -33.320  1.00  0.00     0.011 A 
HETATM   29  C   UNL     1     -14.961   1.900 -32.602  1.00  0.00     0.011 A 
ENDBRANCH  22  27
ENDBRANCH   1  18
TORSDOF 8
ENDMDL
MODEL 7
REMARK VINA RESULT:      -6.8      7.373      9.499
REMARK  8 active torsions:
REMARK  status: ('A' for Active; 'I' for Inactive)
REMARK    1  A    between atoms: C_2  and  C_3 
REMARK    2  A    between atoms: C_3  and  N_4 
REMARK    3  A    between atoms: C_7  and  C_8 
REMARK       I    between atoms: C_8  and  N_9 
REMARK    4  A    between atoms: N_9  and  N_10 
REMARK       I    between atoms: N_10  and  C_11 
REMARK    5  A    between atoms: C_11  and  C_12 
REMARK    6  A    between atoms: C_15  and  O_16 
REMARK    7  A    between atoms: O_16  and  C_17 
REMARK    8  A    between atoms: C_23  and  C_24 
ROOT
HETATM    1  C   UNL     1     -10.972   2.156 -33.505  1.00  0.00     0.273 C 
HETATM    2  N   UNL     1     -10.605   1.098 -32.694  1.00  0.00    -0.263 N 
HETATM    3  O   UNL     1     -10.392   2.374 -34.567  1.00  0.00    -0.266 OA
HETATM    4  H   UNL     1     -10.968   0.950 -31.753  1.00  0.00     0.190 HD
ENDROOT
BRANCH   2   5
HETATM    5  N   UNL     1      -9.544   0.279 -33.093  1.00  0.00    -0.263 N 
HETATM    6  C   UNL     1      -8.325   0.444 -32.468  1.00  0.00     0.270 C 
HETATM    7  O   UNL     1      -8.151   1.264 -31.570  1.00  0.00    -0.266 OA
HETATM    8  H   UNL     1      -9.684  -0.251 -33.951  1.00  0.00     0.190 HD
BRANCH   6   9
HETATM    9  C   UNL     1      -7.208  -0.412 -32.952  1.00  0.00     0.033 A 
HETATM   10  C   UNL     1      -7.378  -1.114 -34.151  1.00  0.00     0.020 A 
HETATM   11  C   UNL     1      -6.347  -1.916 -34.645  1.00  0.00     0.038 A 
HETATM   12  C   UNL     1      -5.132  -2.020 -33.963  1.00  0.00     0.068 A 
HETATM   13  C   UNL     1      -4.957  -1.314 -32.772  1.00  0.00     0.038 A 
HETATM   14  C   UNL     1      -5.988  -0.509 -32.268  1.00  0.00     0.020 A 
BRANCH  12  15
HETATM   15  O   UNL     1      -4.209  -2.831 -34.561  1.00  0.00    -0.352 OA
BRANCH  15  16
HETATM   16  C   UNL     1      -3.813  -4.002 -33.849  1.00  0.00     0.171 C 
HETATM   17  C   UNL     1      -4.702  -5.148 -34.301  1.00  0.00     0.034 C 
ENDBRANCH  15  16
ENDBRANCH  12  15
ENDBRANCH   6   9
ENDBRANCH   2   5
BRANCH   1  18
HETATM   18  C   UNL     1     -12.097   2.926 -33.003  1.00  0.00     0.077 A 
HETATM   19  C   UNL     1     -13.442   2.480 -32.992  1.00  0.00     0.158 A 
HETATM   20  N   UNL     1     -14.289   3.371 -32.490  1.00  0.00    -0.183 NA
HETATM   21  N   UNL     1     -13.508   4.432 -32.208  1.00  0.00    -0.268 N 
HETATM   22  C   UNL     1     -12.165   4.199 -32.441  1.00  0.00     0.052 A 
BRANCH  21  23
HETATM   23  C   UNL     1     -14.152   5.661 -31.743  1.00  0.00     0.106 C 
HETATM   24  C   UNL     1     -15.478   5.893 -32.477  1.00  0.00     0.034 C 
BRANCH  23  25
HETATM   25  C   UNL     1     -14.365   5.671 -30.219  1.00  0.00     0.022 C 
HETATM   26  C   UNL     1     -13.672   6.837 -29.527  1.00  0.00     0.007 C 
ENDBRANCH  23  25
ENDBRANCH  21  23
BRANCH  22  27
HETATM   27  C   UNL     1     -11.052   5.185 -32.071  1.00  0.00     0.038 A 
HETATM   28  C   UNL     1     -10.507   5.232 -30.664  1.00  0.00     0.011 A 
HETATM   29  C   UNL     1      -9.656   4.705 -31.771  1.00  0.00     0.011 A 
ENDBRANCH  22  27
ENDBRANCH   1  18
TORSDOF 8
ENDMDL
MODEL 8
REMARK VINA RESULT:      -6.8      2.683     10.053
REMARK  8 active torsions:
REMARK  status: ('A' for Active; 'I' for Inactive)
REMARK    1  A    between atoms: C_2  and  C_3 
REMARK    2  A    between atoms: C_3  and  N_4 
REMARK    3  A    between atoms: C_7  and  C_8 
REMARK       I    between atoms: C_8  and  N_9 
REMARK    4  A    between atoms: N_9  and  N_10 
REMARK       I    between atoms: N_10  and  C_11 
REMARK    5  A    between atoms: C_11  and  C_12 
REMARK    6  A    between atoms: C_15  and  O_16 
REMARK    7  A    between atoms: O_16  and  C_17 
REMARK    8  A    between atoms: C_23  and  C_24 
ROOT
HETATM    1  C   UNL     1      -5.791   1.828 -32.623  1.00  0.00     0.273 C 
HETATM    2  N   UNL     1      -4.710   2.608 -32.992  1.00  0.00    -0.263 N 
HETATM    3  O   UNL     1      -6.612   2.227 -31.800  1.00  0.00    -0.266 OA
HETATM    4  H   UNL     1      -3.940   2.276 -33.571  1.00  0.00     0.190 HD
ENDROOT
BRANCH   2   5
HETATM    5  N   UNL     1      -4.553   3.865 -32.399  1.00  0.00    -0.263 N 
HETATM    6  C   UNL     1      -3.403   4.104 -31.677  1.00  0.00     0.270 C 
HETATM    7  O   UNL     1      -2.514   3.263 -31.557  1.00  0.00    -0.266 OA
HETATM    8  H   UNL     1      -5.382   4.457 -32.373  1.00  0.00     0.190 HD
BRANCH   6   9
HETATM    9  C   UNL     1      -3.292   5.435 -31.021  1.00  0.00     0.033 A 
HETATM   10  C   UNL     1      -4.450   6.014 -30.490  1.00  0.00     0.020 A 
HETATM   11  C   UNL     1      -4.385   7.256 -29.854  1.00  0.00     0.038 A 
HETATM   12  C   UNL     1      -3.168   7.930 -29.726  1.00  0.00     0.068 A 
HETATM   13  C   UNL     1      -2.010   7.351 -30.246  1.00  0.00     0.038 A 
HETATM   14  C   UNL     1      -2.068   6.106 -30.889  1.00  0.00     0.020 A 
BRANCH  12  15
HETATM   15  O   UNL     1      -3.246   9.129 -29.076  1.00  0.00    -0.352 OA
BRANCH  15  16
HETATM   16  C   UNL     1      -2.554   9.243 -27.833  1.00  0.00     0.171 C 
HETATM   17  C   UNL     1      -1.473  10.298 -27.994  1.00  0.00     0.034 C 
ENDBRANCH  15  16
ENDBRANCH  12  15
ENDBRANCH   6   9
ENDBRANCH   2   5
BRANCH   1  18
HETATM   18  C   UNL     1      -5.865   0.553 -33.316  1.00  0.00     0.077 A 
HETATM   19  C   UNL     1      -6.544   0.336 -34.541  1.00  0.00     0.158 A 
HETATM   20  N   UNL     1      -6.474  -0.920 -34.966  1.00  0.00    -0.183 NA
HETATM   21  N   UNL     1      -5.784  -1.550 -33.996  1.00  0.00    -0.268 N 
HETATM   22  C   UNL     1      -5.339  -0.698 -33.002  1.00  0.00     0.052 A 
BRANCH  21  23
HETATM   23  C   UNL     1      -5.628  -3.002 -34.089  1.00  0.00     0.106 C 
HETATM   24  C   UNL     1      -6.738  -3.616 -34.952  1.00  0.00     0.034 C 
BRANCH  23  25
HETATM   25  C   UNL     1      -4.241  -3.410 -34.617  1.00  0.00     0.022 C 
HETATM   26  C   UNL     1      -3.620  -4.560 -33.837  1.00  0.00     0.007 C 
ENDBRANCH  23  25
ENDBRANCH  21  23
BRANCH  22  27
HETATM   27  C   UNL     1      -4.413  -1.132 -31.860  1.00  0.00     0.038 A 
HETATM   28  C   UNL     1      -2.914  -1.032 -32.010  1.00  0.00     0.011 A 
HETATM   29  C   UNL     1      -3.628  -0.119 -31.069  1.00  0.00     0.011 A 
ENDBRANCH  22  27
ENDBRANCH   1  18
TORSDOF 8
ENDMDL
MODEL 9
REMARK VINA RESULT:      -6.7      2.472     10.053
REMARK  8 active torsions:
REMARK  status: ('A' for Active; 'I' for Inactive)
REMARK    1  A    between atoms: C_2  and  C_3 
REMARK    2  A    between atoms: C_3  and  N_4 
REMARK    3  A    between atoms: C_7  and  C_8 
REMARK       I    between atoms: C_8  and  N_9 
REMARK    4  A    between atoms: N_9  and  N_10 
REMARK       I    between atoms: N_10  and  C_11 
REMARK    5  A    between atoms: C_11  and  C_12 
REMARK    6  A    between atoms: C_15  and  O_16 
REMARK    7  A    between atoms: O_16  and  C_17 
REMARK    8  A    between atoms: C_23  and  C_24 
ROOT
HETATM    1  C   UNL     1      -4.661   2.961 -30.894  1.00  0.00     0.273 C 
HETATM    2  N   UNL     1      -3.575   3.645 -31.410  1.00  0.00    -0.263 N 
HETATM    3  O   UNL     1      -5.169   3.290 -29.825  1.00  0.00    -0.266 OA
HETATM    4  H   UNL     1      -3.044   3.338 -32.224  1.00  0.00     0.190 HD
ENDROOT
BRANCH   2   5
HETATM    5  N   UNL     1      -3.048   4.719 -30.685  1.00  0.00    -0.263 N 
HETATM    6  C   UNL     1      -1.754   5.112 -30.956  1.00  0.00     0.270 C 
HETATM    7  O   UNL     1      -1.067   4.569 -31.818  1.00  0.00    -0.266 OA
HETATM    8  H   UNL     1      -3.581   5.015 -29.869  1.00  0.00     0.190 HD
BRANCH   6   9
HETATM    9  C   UNL     1      -1.210   6.226 -30.132  1.00  0.00     0.033 A 
HETATM   10  C   UNL     1      -2.112   7.051 -29.451  1.00  0.00     0.020 A 
HETATM   11  C   UNL     1      -1.640   8.098 -28.656  1.00  0.00     0.038 A 
HETATM   12  C   UNL     1      -0.270   8.328 -28.517  1.00  0.00     0.068 A 
HETATM   13  C   UNL     1       0.632   7.501 -29.188  1.00  0.00     0.038 A 
HETATM   14  C   UNL     1       0.166   6.450 -29.991  1.00  0.00     0.020 A 
BRANCH  12  15
HETATM   15  O   UNL     1       0.053   9.379 -27.704  1.00  0.00    -0.352 OA
BRANCH  15  16
HETATM   16  C   UNL     1      -0.229   9.236 -26.313  1.00  0.00     0.171 C 
HETATM   17  C   UNL     1       1.017   8.693 -25.635  1.00  0.00     0.034 C 
ENDBRANCH  15  16
ENDBRANCH  12  15
ENDBRANCH   6   9
ENDBRANCH   2   5
BRANCH   1  18
HETATM   18  C   UNL     1      -5.137   1.880 -31.740  1.00  0.00     0.077 A 
HETATM   19  C   UNL     1      -4.347   0.790 -32.182  1.00  0.00     0.158 A 
HETATM   20  N   UNL     1      -5.010  -0.063 -32.954  1.00  0.00    -0.183 NA
HETATM   21  N   UNL     1      -6.235   0.489 -33.063  1.00  0.00    -0.268 N 
HETATM   22  C   UNL     1      -6.388   1.633 -32.301  1.00  0.00     0.052 A 
BRANCH  21  23
HETATM   23  C   UNL     1      -7.201  -0.143 -33.962  1.00  0.00     0.106 C 
HETATM   24  C   UNL     1      -6.989   0.326 -35.407  1.00  0.00     0.034 C 
BRANCH  23  25
HETATM   25  C   UNL     1      -7.162  -1.680 -33.878  1.00  0.00     0.022 C 
HETATM   26  C   UNL     1      -6.401  -2.321 -35.030  1.00  0.00     0.007 C 
ENDBRANCH  23  25
ENDBRANCH  21  23
BRANCH  22  27
HETATM   27  C   UNL     1      -7.720   2.372 -32.133  1.00  0.00     0.038 A 
HETATM   28  C   UNL     1      -8.921   1.664 -31.553  1.00  0.00     0.011 A 
HETATM   29  C   UNL     1      -8.240   2.735 -30.766  1.00  0.00     0.011 A 
ENDBRANCH  22  27
ENDBRANCH   1  18
TORSDOF 8
ENDMDL
MODEL 10
REMARK VINA RESULT:      -6.7      7.162     10.843
REMARK  8 active torsions:
REMARK  status: ('A' for Active; 'I' for Inactive)
REMARK    1  A    between atoms: C_2  and  C_3 
REMARK    2  A    between atoms: C_3  and  N_4 
REMARK    3  A    between atoms: C_7  and  C_8 
REMARK       I    between atoms: C_8  and  N_9 
REMARK    4  A    between atoms: N_9  and  N_10 
REMARK       I    between atoms: N_10  and  C_11 
REMARK    5  A    between atoms: C_11  and  C_12 
REMARK    6  A    between atoms: C_15  and  O_16 
REMARK    7  A    between atoms: O_16  and  C_17 
REMARK    8  A    between atoms: C_23  and  C_24 
ROOT
HETATM    1  C   UNL     1      -9.211   1.544 -33.442  1.00  0.00     0.273 C 
HETATM    2  N   UNL     1     -10.397   0.911 -33.117  1.00  0.00    -0.263 N 
HETATM    3  O   UNL     1      -9.100   2.765 -33.361  1.00  0.00    -0.266 OA
HETATM    4  H   UNL     1     -10.579  -0.078 -33.283  1.00  0.00     0.190 HD
ENDROOT
BRANCH   2   5
HETATM    5  N   UNL     1     -11.485   1.688 -32.705  1.00  0.00    -0.263 N 
HETATM    6  C   UNL     1     -12.679   1.544 -33.380  1.00  0.00     0.270 C 
HETATM    7  O   UNL     1     -12.820   0.748 -34.306  1.00  0.00    -0.266 OA
HETATM    8  H   UNL     1     -11.276   2.451 -32.063  1.00  0.00     0.190 HD
BRANCH   6   9
HETATM    9  C   UNL     1     -13.801   2.421 -32.946  1.00  0.00     0.033 A 
HETATM   10  C   UNL     1     -15.021   1.823 -32.612  1.00  0.00     0.020 A 
HETATM   11  C   UNL     1     -16.094   2.611 -32.186  1.00  0.00     0.038 A 
HETATM   12  C   UNL     1     -15.961   3.997 -32.073  1.00  0.00     0.068 A 
HETATM   13  C   UNL     1     -14.742   4.594 -32.397  1.00  0.00     0.038 A 
HETATM   14  C   UNL     1     -13.663   3.810 -32.829  1.00  0.00     0.020 A 
BRANCH  12  15
HETATM   15  O   UNL     1     -17.084   4.644 -31.639  1.00  0.00    -0.352 OA
BRANCH  15  16
HETATM   16  C   UNL     1     -17.289   5.977 -32.106  1.00  0.00     0.171 C 
HETATM   17  C   UNL     1     -18.269   5.920 -33.265  1.00  0.00     0.034 C 
ENDBRANCH  15  16
ENDBRANCH  12  15
ENDBRANCH   6   9
ENDBRANCH   2   5
BRANCH   1  18
HETATM   18  C   UNL     1      -8.145   0.639 -33.835  1.00  0.00     0.077 A 
HETATM   19  C   UNL     1      -7.857   0.260 -35.170  1.00  0.00     0.158 A 
HETATM   20  N   UNL     1      -6.839  -0.587 -35.269  1.00  0.00    -0.183 NA
HETATM   21  N   UNL     1      -6.478  -0.807 -33.989  1.00  0.00    -0.268 N 
HETATM   22  C   UNL     1      -7.194  -0.046 -33.082  1.00  0.00     0.052 A 
BRANCH  21  23
HETATM   23  C   UNL     1      -5.443  -1.806 -33.724  1.00  0.00     0.106 C 
HETATM   24  C   UNL     1      -5.414  -2.868 -34.830  1.00  0.00     0.034 C 
BRANCH  23  25
HETATM   25  C   UNL     1      -4.052  -1.175 -33.540  1.00  0.00     0.022 C 
HETATM   26  C   UNL     1      -3.338  -1.657 -32.285  1.00  0.00     0.007 C 
ENDBRANCH  23  25
ENDBRANCH  21  23
BRANCH  22  27
HETATM   27  C   UNL     1      -6.887   0.001 -31.582  1.00  0.00     0.038 A 
HETATM   28  C   UNL     1      -5.740   0.834 -31.061  1.00  0.00     0.011 A 
HETATM   29  C   UNL     1      -7.146   1.247 -30.775  1.00  0.00     0.011 A 
ENDBRANCH  22  27
ENDBRANCH   1  18
TORSDOF 8
ENDMDL
