MODEL 1
REMARK VINA RESULT:      -9.4      0.000      0.000
REMARK  3 active torsions:
REMARK  status: ('A' for Active; 'I' for Inactive)
REMARK    1  A    between atoms: C_4  and  C_5 
REMARK    2  A    between atoms: C_5  and  C_6 
REMARK    3  A    between atoms: C_6  and  N_7 
ROOT
HETATM    1  N   UNL     1      -6.397  -0.519 -32.408  1.00  0.00    -0.071 N 
HETATM    2  H   UNL     1      -6.847  -1.445 -32.371  1.00  0.00     0.279 HD
HETATM    3  C   UNL     1      -6.731   0.098 -33.749  1.00  0.00     0.237 C 
HETATM    4  C   UNL     1      -8.227   0.272 -33.883  1.00  0.00     0.065 C 
HETATM    5  C   UNL     1      -8.815   1.181 -32.782  1.00  0.00     0.076 C 
HETATM    6  N   UNL     1     -10.282   1.050 -32.845  1.00  0.00    -0.373 N 
HETATM    7  C   UNL     1     -10.940   1.788 -33.845  1.00  0.00     0.056 A 
HETATM    8  C   UNL     1     -10.417   2.994 -34.340  1.00  0.00     0.065 A 
HETATM    9  N   UNL     1      -9.175   3.417 -33.817  1.00  0.00    -0.321 N 
HETATM   10  C   UNL     1      -8.386   2.617 -33.001  1.00  0.00     0.045 A 
HETATM   11  C   UNL     1      -8.539   4.621 -34.001  1.00  0.00     0.097 A 
HETATM   12  C   UNL     1      -7.408   4.646 -33.218  1.00  0.00     0.020 A 
HETATM   13  C   UNL     1      -7.321   3.393 -32.572  1.00  0.00     0.029 A 
HETATM   14  C   UNL     1     -12.214   1.396 -34.269  1.00  0.00     0.031 A 
HETATM   15  C   UNL     1     -12.914   2.144 -35.220  1.00  0.00     0.002 A 
HETATM   16  C   UNL     1     -12.361   3.315 -35.734  1.00  0.00     0.002 A 
HETATM   17  C   UNL     1     -11.116   3.754 -35.287  1.00  0.00     0.032 A 
HETATM   18  C   UNL     1      -8.394   0.632 -31.403  1.00  0.00     0.065 C 
HETATM   19  C   UNL     1      -6.914   0.305 -31.255  1.00  0.00     0.237 C 
HETATM   20  H   UNL     1     -10.649   0.104 -32.770  1.00  0.00     0.161 HD
ENDROOT
BRANCH   1  21
HETATM   21  C   UNL     1      -4.889  -0.753 -32.338  1.00  0.00     0.239 C 
BRANCH  21  22
HETATM   22  C   UNL     1      -4.279  -1.093 -33.699  1.00  0.00     0.066 C 
BRANCH  22  23
HETATM   23  C   UNL     1      -4.427  -2.570 -33.958  1.00  0.00    -0.057 A 
HETATM   24  C   UNL     1      -5.433  -3.042 -34.814  1.00  0.00     0.007 A 
HETATM   25  C   UNL     1      -5.620  -4.412 -34.996  1.00  0.00     0.001 A 
HETATM   26  C   UNL     1      -4.805  -5.323 -34.327  1.00  0.00     0.000 A 
HETATM   27  C   UNL     1      -3.798  -4.864 -33.481  1.00  0.00     0.001 A 
HETATM   28  C   UNL     1      -3.608  -3.495 -33.295  1.00  0.00     0.007 A 
ENDBRANCH  22  23
ENDBRANCH  21  22
ENDBRANCH   1  21
TORSDOF 3
ENDMDL
MODEL 2
REMARK VINA RESULT:      -9.3      3.031      4.995
REMARK  3 active torsions:
REMARK  status: ('A' for Active; 'I' for Inactive)
REMARK    1  A    between atoms: C_4  and  C_5 
REMARK    2  A    between atoms: C_5  and  C_6 
REMARK    3  A    between atoms: C_6  and  N_7 
ROOT
HETATM    1  N   UNL     1      -7.477   0.211 -32.312  1.00  0.00    -0.071 N 
HETATM    2  H   UNL     1      -8.374   0.079 -31.822  1.00  0.00     0.279 HD
HETATM    3  C   UNL     1      -7.407   1.657 -32.754  1.00  0.00     0.237 C 
HETATM    4  C   UNL     1      -7.450   2.571 -31.550  1.00  0.00     0.065 C 
HETATM    5  C   UNL     1      -6.281   2.317 -30.575  1.00  0.00     0.076 C 
HETATM    6  N   UNL     1      -6.580   3.053 -29.333  1.00  0.00    -0.373 N 
HETATM    7  C   UNL     1      -6.313   4.433 -29.337  1.00  0.00     0.056 A 
HETATM    8  C   UNL     1      -5.308   4.990 -30.145  1.00  0.00     0.065 A 
HETATM    9  N   UNL     1      -4.600   4.106 -30.989  1.00  0.00    -0.321 N 
HETATM   10  C   UNL     1      -4.975   2.783 -31.185  1.00  0.00     0.045 A 
HETATM   11  C   UNL     1      -3.476   4.359 -31.738  1.00  0.00     0.097 A 
HETATM   12  C   UNL     1      -3.059   3.185 -32.319  1.00  0.00     0.020 A 
HETATM   13  C   UNL     1      -3.990   2.187 -31.955  1.00  0.00     0.029 A 
HETATM   14  C   UNL     1      -6.961   5.266 -28.419  1.00  0.00     0.031 A 
HETATM   15  C   UNL     1      -6.671   6.632 -28.363  1.00  0.00     0.002 A 
HETATM   16  C   UNL     1      -5.702   7.177 -29.203  1.00  0.00     0.002 A 
HETATM   17  C   UNL     1      -5.006   6.357 -30.089  1.00  0.00     0.032 A 
HETATM   18  C   UNL     1      -6.266   0.821 -30.194  1.00  0.00     0.065 C 
HETATM   19  C   UNL     1      -6.361  -0.151 -31.362  1.00  0.00     0.237 C 
HETATM   20  H   UNL     1      -7.473   2.842 -28.894  1.00  0.00     0.161 HD
ENDROOT
BRANCH   1  21
HETATM   21  C   UNL     1      -7.511  -0.681 -33.551  1.00  0.00     0.239 C 
BRANCH  21  22
HETATM   22  C   UNL     1      -6.153  -0.775 -34.250  1.00  0.00     0.066 C 
BRANCH  22  23
HETATM   23  C   UNL     1      -5.764  -2.224 -34.392  1.00  0.00    -0.057 A 
HETATM   24  C   UNL     1      -6.714  -3.176 -34.792  1.00  0.00     0.007 A 
HETATM   25  C   UNL     1      -6.375  -4.528 -34.850  1.00  0.00     0.001 A 
HETATM   26  C   UNL     1      -5.087  -4.941 -34.513  1.00  0.00     0.000 A 
HETATM   27  C   UNL     1      -4.135  -4.002 -34.122  1.00  0.00     0.001 A 
HETATM   28  C   UNL     1      -4.470  -2.649 -34.061  1.00  0.00     0.007 A 
ENDBRANCH  22  23
ENDBRANCH  21  22
ENDBRANCH   1  21
TORSDOF 3
ENDMDL
MODEL 3
REMARK VINA RESULT:      -9.2      4.652      6.980
REMARK  3 active torsions:
REMARK  status: ('A' for Active; 'I' for Inactive)
REMARK    1  A    between atoms: C_4  and  C_5 
REMARK    2  A    between atoms: C_5  and  C_6 
REMARK    3  A    between atoms: C_6  and  N_7 
ROOT
HETATM    1  N   UNL     1      -5.323   2.351 -32.494  1.00  0.00    -0.071 N 
HETATM    2  H   UNL     1      -5.825   2.208 -31.606  1.00  0.00     0.279 HD
HETATM    3  C   UNL     1      -5.529   3.793 -32.908  1.00  0.00     0.237 C 
HETATM    4  C   UNL     1      -4.955   4.721 -31.862  1.00  0.00     0.065 C 
HETATM    5  C   UNL     1      -3.443   4.502 -31.645  1.00  0.00     0.076 C 
HETATM    6  N   UNL     1      -3.063   5.248 -30.432  1.00  0.00    -0.373 N 
HETATM    7  C   UNL     1      -2.870   6.633 -30.577  1.00  0.00     0.056 A 
HETATM    8  C   UNL     1      -2.451   7.199 -31.793  1.00  0.00     0.065 A 
HETATM    9  N   UNL     1      -2.272   6.318 -32.882  1.00  0.00    -0.321 N 
HETATM   10  C   UNL     1      -2.663   4.985 -32.850  1.00  0.00     0.045 A 
HETATM   11  C   UNL     1      -1.714   6.584 -34.109  1.00  0.00     0.097 A 
HETATM   12  C   UNL     1      -1.637   5.410 -34.822  1.00  0.00     0.020 A 
HETATM   13  C   UNL     1      -2.215   4.398 -34.023  1.00  0.00     0.029 A 
HETATM   14  C   UNL     1      -2.958   7.465 -29.456  1.00  0.00     0.031 A 
HETATM   15  C   UNL     1      -2.714   8.837 -29.562  1.00  0.00     0.002 A 
HETATM   16  C   UNL     1      -2.344   9.390 -30.786  1.00  0.00     0.002 A 
HETATM   17  C   UNL     1      -2.197   8.572 -31.905  1.00  0.00     0.032 A 
HETATM   18  C   UNL     1      -3.195   3.012 -31.328  1.00  0.00     0.065 C 
HETATM   19  C   UNL     1      -3.866   2.023 -32.271  1.00  0.00     0.237 C 
HETATM   20  H   UNL     1      -3.587   5.026 -29.590  1.00  0.00     0.161 HD
ENDROOT
BRANCH   1  21
HETATM   21  C   UNL     1      -5.981   1.443 -33.530  1.00  0.00     0.239 C 
BRANCH  21  22
HETATM   22  C   UNL     1      -6.671   0.231 -32.901  1.00  0.00     0.066 C 
BRANCH  22  23
HETATM   23  C   UNL     1      -6.167  -1.028 -33.560  1.00  0.00    -0.057 A 
HETATM   24  C   UNL     1      -7.050  -1.864 -34.259  1.00  0.00     0.007 A 
HETATM   25  C   UNL     1      -6.599  -3.066 -34.804  1.00  0.00     0.001 A 
HETATM   26  C   UNL     1      -5.266  -3.444 -34.658  1.00  0.00     0.000 A 
HETATM   27  C   UNL     1      -4.380  -2.616 -33.972  1.00  0.00     0.001 A 
HETATM   28  C   UNL     1      -4.826  -1.413 -33.424  1.00  0.00     0.007 A 
ENDBRANCH  22  23
ENDBRANCH  21  22
ENDBRANCH   1  21
TORSDOF 3
ENDMDL
MODEL 4
REMARK VINA RESULT:      -9.2      1.603      7.769
REMARK  3 active torsions:
REMARK  status: ('A' for Active; 'I' for Inactive)
REMARK    1  A    between atoms: C_4  and  C_5 
REMARK    2  A    between atoms: C_5  and  C_6 
REMARK    3  A    between atoms: C_6  and  N_7 
ROOT
HETATM    1  N   UNL     1      -8.982   1.194 -33.576  1.00  0.00    -0.071 N 
HETATM    2  H   UNL     1      -9.650   0.645 -34.136  1.00  0.00     0.279 HD
HETATM    3  C   UNL     1      -8.408   0.276 -32.519  1.00  0.00     0.237 C 
HETATM    4  C   UNL     1      -7.675  -0.874 -33.172  1.00  0.00     0.065 C 
HETATM    5  C   UNL     1      -6.513  -0.399 -34.069  1.00  0.00     0.076 C 
HETATM    6  N   UNL     1      -6.064  -1.563 -34.856  1.00  0.00    -0.373 N 
HETATM    7  C   UNL     1      -5.222  -2.480 -34.202  1.00  0.00     0.056 A 
HETATM    8  C   UNL     1      -4.367  -2.087 -33.159  1.00  0.00     0.065 A 
HETATM    9  N   UNL     1      -4.419  -0.732 -32.764  1.00  0.00    -0.321 N 
HETATM   10  C   UNL     1      -5.386   0.154 -33.221  1.00  0.00     0.045 A 
HETATM   11  C   UNL     1      -3.581  -0.063 -31.903  1.00  0.00     0.097 A 
HETATM   12  C   UNL     1      -3.930   1.267 -31.894  1.00  0.00     0.020 A 
HETATM   13  C   UNL     1      -5.052   1.410 -32.740  1.00  0.00     0.029 A 
HETATM   14  C   UNL     1      -5.121  -3.790 -34.683  1.00  0.00     0.031 A 
HETATM   15  C   UNL     1      -4.248  -4.705 -34.087  1.00  0.00     0.002 A 
HETATM   16  C   UNL     1      -3.439  -4.311 -33.024  1.00  0.00     0.002 A 
HETATM   17  C   UNL     1      -3.485  -2.996 -32.563  1.00  0.00     0.032 A 
HETATM   18  C   UNL     1      -7.055   0.625 -35.089  1.00  0.00     0.065 C 
HETATM   19  C   UNL     1      -7.919   1.733 -34.504  1.00  0.00     0.237 C 
HETATM   20  H   UNL     1      -6.780  -2.032 -35.405  1.00  0.00     0.161 HD
ENDROOT
BRANCH   1  21
HETATM   21  C   UNL     1      -9.780   2.299 -32.887  1.00  0.00     0.239 C 
BRANCH  21  22
HETATM   22  C   UNL     1     -10.742   3.015 -33.838  1.00  0.00     0.066 C 
BRANCH  22  23
HETATM   23  C   UNL     1     -12.115   2.408 -33.710  1.00  0.00    -0.057 A 
HETATM   24  C   UNL     1     -13.031   2.917 -32.778  1.00  0.00     0.007 A 
HETATM   25  C   UNL     1     -14.274   2.309 -32.605  1.00  0.00     0.001 A 
HETATM   26  C   UNL     1     -14.615   1.189 -33.362  1.00  0.00     0.000 A 
HETATM   27  C   UNL     1     -13.715   0.680 -34.296  1.00  0.00     0.001 A 
HETATM   28  C   UNL     1     -12.470   1.285 -34.471  1.00  0.00     0.007 A 
ENDBRANCH  22  23
ENDBRANCH  21  22
ENDBRANCH   1  21
TORSDOF 3
ENDMDL
MODEL 5
REMARK VINA RESULT:      -9.0      2.068      7.177
REMARK  3 active torsions:
REMARK  status: ('A' for Active; 'I' for Inactive)
REMARK    1  A    between atoms: C_4  and  C_5 
REMARK    2  A    between atoms: C_5  and  C_6 
REMARK    3  A    between atoms: C_6  and  N_7 
ROOT
HETATM    1  N   UNL     1      -8.852   1.349 -33.246  1.00  0.00    -0.071 N 
HETATM    2  H   UNL     1      -9.651   0.892 -33.710  1.00  0.00     0.279 HD
HETATM    3  C   UNL     1      -8.229   0.338 -32.308  1.00  0.00     0.237 C 
HETATM    4  C   UNL     1      -7.727  -0.856 -33.089  1.00  0.00     0.065 C 
HETATM    5  C   UNL     1      -6.666  -0.467 -34.141  1.00  0.00     0.076 C 
HETATM    6  N   UNL     1      -6.464  -1.640 -35.012  1.00  0.00    -0.373 N 
HETATM    7  C   UNL     1      -5.637  -2.661 -34.514  1.00  0.00     0.056 A 
HETATM    8  C   UNL     1      -4.600  -2.397 -33.603  1.00  0.00     0.065 A 
HETATM    9  N   UNL     1      -4.449  -1.059 -33.175  1.00  0.00    -0.321 N 
HETATM   10  C   UNL     1      -5.374  -0.063 -33.462  1.00  0.00     0.045 A 
HETATM   11  C   UNL     1      -3.428  -0.512 -32.436  1.00  0.00     0.097 A 
HETATM   12  C   UNL     1      -3.628   0.845 -32.346  1.00  0.00     0.020 A 
HETATM   13  C   UNL     1      -4.842   1.133 -33.008  1.00  0.00     0.029 A 
HETATM   14  C   UNL     1      -5.747  -3.956 -35.033  1.00  0.00     0.031 A 
HETATM   15  C   UNL     1      -4.898  -4.976 -34.596  1.00  0.00     0.002 A 
HETATM   16  C   UNL     1      -3.904  -4.707 -33.659  1.00  0.00     0.002 A 
HETATM   17  C   UNL     1      -3.741  -3.413 -33.167  1.00  0.00     0.032 A 
HETATM   18  C   UNL     1      -7.242   0.644 -35.044  1.00  0.00     0.065 C 
HETATM   19  C   UNL     1      -7.888   1.811 -34.311  1.00  0.00     0.237 C 
HETATM   20  H   UNL     1      -7.299  -2.013 -35.457  1.00  0.00     0.161 HD
ENDROOT
BRANCH   1  21
HETATM   21  C   UNL     1      -9.418   2.502 -32.420  1.00  0.00     0.239 C 
BRANCH  21  22
HETATM   22  C   UNL     1      -8.878   2.526 -30.989  1.00  0.00     0.066 C 
BRANCH  22  23
HETATM   23  C   UNL     1      -7.522   3.184 -30.978  1.00  0.00    -0.057 A 
HETATM   24  C   UNL     1      -6.519   2.725 -30.111  1.00  0.00     0.007 A 
HETATM   25  C   UNL     1      -5.290   3.381 -30.046  1.00  0.00     0.001 A 
HETATM   26  C   UNL     1      -5.049   4.497 -30.846  1.00  0.00     0.000 A 
HETATM   27  C   UNL     1      -6.036   4.955 -31.716  1.00  0.00     0.001 A 
HETATM   28  C   UNL     1      -7.268   4.303 -31.783  1.00  0.00     0.007 A 
ENDBRANCH  22  23
ENDBRANCH  21  22
ENDBRANCH   1  21
TORSDOF 3
ENDMDL
MODEL 6
REMARK VINA RESULT:      -8.9      4.822      7.337
REMARK  3 active torsions:
REMARK  status: ('A' for Active; 'I' for Inactive)
REMARK    1  A    between atoms: C_4  and  C_5 
REMARK    2  A    between atoms: C_5  and  C_6 
REMARK    3  A    between atoms: C_6  and  N_7 
ROOT
HETATM    1  N   UNL     1      -5.127   2.178 -32.717  1.00  0.00    -0.071 N 
HETATM    2  H   UNL     1      -4.502   1.702 -33.384  1.00  0.00     0.279 HD
HETATM    3  C   UNL     1      -4.359   2.369 -31.427  1.00  0.00     0.237 C 
HETATM    4  C   UNL     1      -3.144   3.236 -31.669  1.00  0.00     0.065 C 
HETATM    5  C   UNL     1      -3.517   4.633 -32.210  1.00  0.00     0.076 C 
HETATM    6  N   UNL     1      -2.268   5.272 -32.665  1.00  0.00    -0.373 N 
HETATM    7  C   UNL     1      -1.453   5.843 -31.672  1.00  0.00     0.056 A 
HETATM    8  C   UNL     1      -1.987   6.341 -30.471  1.00  0.00     0.065 A 
HETATM    9  N   UNL     1      -3.381   6.206 -30.285  1.00  0.00    -0.321 N 
HETATM   10  C   UNL     1      -4.188   5.455 -31.129  1.00  0.00     0.045 A 
HETATM   11  C   UNL     1      -4.165   6.752 -29.297  1.00  0.00     0.097 A 
HETATM   12  C   UNL     1      -5.480   6.455 -29.564  1.00  0.00     0.020 A 
HETATM   13  C   UNL     1      -5.499   5.656 -30.729  1.00  0.00     0.029 A 
HETATM   14  C   UNL     1      -0.094   6.053 -31.928  1.00  0.00     0.031 A 
HETATM   15  C   UNL     1       0.726   6.671 -30.980  1.00  0.00     0.002 A 
HETATM   16  C   UNL     1       0.189   7.119 -29.776  1.00  0.00     0.002 A 
HETATM   17  C   UNL     1      -1.173   6.969 -29.520  1.00  0.00     0.032 A 
HETATM   18  C   UNL     1      -4.395   4.464 -33.468  1.00  0.00     0.065 C 
HETATM   19  C   UNL     1      -5.557   3.491 -33.326  1.00  0.00     0.237 C 
HETATM   20  H   UNL     1      -1.723   4.750 -33.347  1.00  0.00     0.161 HD
ENDROOT
BRANCH   1  21
HETATM   21  C   UNL     1      -6.300   1.236 -32.457  1.00  0.00     0.239 C 
BRANCH  21  22
HETATM   22  C   UNL     1      -5.860  -0.110 -31.877  1.00  0.00     0.066 C 
BRANCH  22  23
HETATM   23  C   UNL     1      -5.725  -1.114 -32.992  1.00  0.00    -0.057 A 
HETATM   24  C   UNL     1      -6.852  -1.510 -33.729  1.00  0.00     0.007 A 
HETATM   25  C   UNL     1      -6.741  -2.495 -34.711  1.00  0.00     0.001 A 
HETATM   26  C   UNL     1      -5.508  -3.091 -34.968  1.00  0.00     0.000 A 
HETATM   27  C   UNL     1      -4.382  -2.698 -34.247  1.00  0.00     0.001 A 
HETATM   28  C   UNL     1      -4.488  -1.715 -33.263  1.00  0.00     0.007 A 
ENDBRANCH  22  23
ENDBRANCH  21  22
ENDBRANCH   1  21
TORSDOF 3
ENDMDL
MODEL 7
REMARK VINA RESULT:      -8.9      2.446      3.787
REMARK  3 active torsions:
REMARK  status: ('A' for Active; 'I' for Inactive)
REMARK    1  A    between atoms: C_4  and  C_5 
REMARK    2  A    between atoms: C_5  and  C_6 
REMARK    3  A    between atoms: C_6  and  N_7 
ROOT
HETATM    1  N   UNL     1      -8.130   0.599 -33.223  1.00  0.00    -0.071 N 
HETATM    2  H   UNL     1      -7.334   1.124 -32.830  1.00  0.00     0.279 HD
HETATM    3  C   UNL     1      -9.214   0.555 -32.168  1.00  0.00     0.237 C 
HETATM    4  C   UNL     1      -9.668   1.957 -31.830  1.00  0.00     0.065 C 
HETATM    5  C   UNL     1     -10.230   2.706 -33.057  1.00  0.00     0.076 C 
HETATM    6  N   UNL     1     -10.374   4.123 -32.676  1.00  0.00    -0.373 N 
HETATM    7  C   UNL     1     -11.506   4.461 -31.915  1.00  0.00     0.056 A 
HETATM    8  C   UNL     1     -12.705   3.734 -32.009  1.00  0.00     0.065 A 
HETATM    9  N   UNL     1     -12.712   2.617 -32.874  1.00  0.00    -0.321 N 
HETATM   10  C   UNL     1     -11.562   2.114 -33.470  1.00  0.00     0.045 A 
HETATM   11  C   UNL     1     -13.783   1.855 -33.272  1.00  0.00     0.097 A 
HETATM   12  C   UNL     1     -13.352   0.942 -34.206  1.00  0.00     0.020 A 
HETATM   13  C   UNL     1     -11.958   1.117 -34.347  1.00  0.00     0.029 A 
HETATM   14  C   UNL     1     -11.500   5.629 -31.146  1.00  0.00     0.031 A 
HETATM   15  C   UNL     1     -12.633   6.018 -30.426  1.00  0.00     0.002 A 
HETATM   16  C   UNL     1     -13.800   5.261 -30.494  1.00  0.00     0.002 A 
HETATM   17  C   UNL     1     -13.847   4.122 -31.297  1.00  0.00     0.032 A 
HETATM   18  C   UNL     1      -9.181   2.669 -34.188  1.00  0.00     0.065 C 
HETATM   19  C   UNL     1      -8.583   1.300 -34.480  1.00  0.00     0.237 C 
HETATM   20  H   UNL     1      -9.534   4.577 -32.326  1.00  0.00     0.161 HD
ENDROOT
BRANCH   1  21
HETATM   21  C   UNL     1      -7.639  -0.823 -33.483  1.00  0.00     0.239 C 
BRANCH  21  22
HETATM   22  C   UNL     1      -6.476  -0.876 -34.476  1.00  0.00     0.066 C 
BRANCH  22  23
HETATM   23  C   UNL     1      -5.926  -2.278 -34.527  1.00  0.00    -0.057 A 
HETATM   24  C   UNL     1      -6.756  -3.352 -34.884  1.00  0.00     0.007 A 
HETATM   25  C   UNL     1      -6.268  -4.658 -34.858  1.00  0.00     0.001 A 
HETATM   26  C   UNL     1      -4.950  -4.905 -34.480  1.00  0.00     0.000 A 
HETATM   27  C   UNL     1      -4.116  -3.845 -34.132  1.00  0.00     0.001 A 
HETATM   28  C   UNL     1      -4.600  -2.536 -34.154  1.00  0.00     0.007 A 
ENDBRANCH  22  23
ENDBRANCH  21  22
ENDBRANCH   1  21
TORSDOF 3
ENDMDL
MODEL 8
REMARK VINA RESULT:      -8.9      4.253      8.136
REMARK  3 active torsions:
REMARK  status: ('A' for Active; 'I' for Inactive)
REMARK    1  A    between atoms: C_4  and  C_5 
REMARK    2  A    between atoms: C_5  and  C_6 
REMARK    3  A    between atoms: C_6  and  N_7 
ROOT
HETATM    1  N   UNL     1      -3.971   3.581 -31.011  1.00  0.00    -0.071 N 
HETATM    2  H   UNL     1      -3.236   3.386 -30.316  1.00  0.00     0.279 HD
HETATM    3  C   UNL     1      -3.549   2.939 -32.315  1.00  0.00     0.237 C 
HETATM    4  C   UNL     1      -3.419   1.443 -32.140  1.00  0.00     0.065 C 
HETATM    5  C   UNL     1      -4.743   0.786 -31.695  1.00  0.00     0.076 C 
HETATM    6  N   UNL     1      -4.430  -0.598 -31.293  1.00  0.00    -0.373 N 
HETATM    7  C   UNL     1      -4.279  -1.538 -32.327  1.00  0.00     0.056 A 
HETATM    8  C   UNL     1      -4.945  -1.400 -33.556  1.00  0.00     0.065 A 
HETATM    9  N   UNL     1      -5.747  -0.249 -33.725  1.00  0.00    -0.321 N 
HETATM   10  C   UNL     1      -5.750   0.810 -32.827  1.00  0.00     0.045 A 
HETATM   11  C   UNL     1      -6.623   0.036 -34.745  1.00  0.00     0.097 A 
HETATM   12  C   UNL     1      -7.274   1.211 -34.451  1.00  0.00     0.020 A 
HETATM   13  C   UNL     1      -6.740   1.690 -33.233  1.00  0.00     0.029 A 
HETATM   14  C   UNL     1      -3.560  -2.715 -32.093  1.00  0.00     0.031 A 
HETATM   15  C   UNL     1      -3.442  -3.691 -33.086  1.00  0.00     0.002 A 
HETATM   16  C   UNL     1      -4.073  -3.518 -34.316  1.00  0.00     0.002 A 
HETATM   17  C   UNL     1      -4.839  -2.378 -34.553  1.00  0.00     0.032 A 
HETATM   18  C   UNL     1      -5.252   1.498 -30.424  1.00  0.00     0.065 C 
HETATM   19  C   UNL     1      -5.272   3.018 -30.492  1.00  0.00     0.237 C 
HETATM   20  H   UNL     1      -3.713  -0.702 -30.579  1.00  0.00     0.161 HD
ENDROOT
BRANCH   1  21
HETATM   21  C   UNL     1      -4.015   5.096 -31.199  1.00  0.00     0.239 C 
BRANCH  21  22
HETATM   22  C   UNL     1      -2.906   5.610 -32.119  1.00  0.00     0.066 C 
BRANCH  22  23
HETATM   23  C   UNL     1      -1.768   6.137 -31.282  1.00  0.00    -0.057 A 
HETATM   24  C   UNL     1      -2.022   6.737 -30.040  1.00  0.00     0.007 A 
HETATM   25  C   UNL     1      -0.978   7.293 -29.299  1.00  0.00     0.001 A 
HETATM   26  C   UNL     1       0.326   7.253 -29.790  1.00  0.00     0.000 A 
HETATM   27  C   UNL     1       0.588   6.653 -31.020  1.00  0.00     0.001 A 
HETATM   28  C   UNL     1      -0.453   6.097 -31.764  1.00  0.00     0.007 A 
ENDBRANCH  22  23
ENDBRANCH  21  22
ENDBRANCH   1  21
TORSDOF 3
ENDMDL
MODEL 9
REMARK VINA RESULT:      -8.7      1.971      2.703
REMARK  3 active torsions:
REMARK  status: ('A' for Active; 'I' for Inactive)
REMARK    1  A    between atoms: C_4  and  C_5 
REMARK    2  A    between atoms: C_5  and  C_6 
REMARK    3  A    between atoms: C_6  and  N_7 
ROOT
HETATM    1  N   UNL     1      -8.441   0.154 -33.713  1.00  0.00    -0.071 N 
HETATM    2  H   UNL     1      -8.697  -0.267 -34.618  1.00  0.00     0.279 HD
HETATM    3  C   UNL     1      -8.143   1.618 -33.958  1.00  0.00     0.237 C 
HETATM    4  C   UNL     1      -9.372   2.315 -34.496  1.00  0.00     0.065 C 
HETATM    5  C   UNL     1     -10.570   2.231 -33.525  1.00  0.00     0.076 C 
HETATM    6  N   UNL     1     -11.762   2.688 -34.262  1.00  0.00    -0.373 N 
HETATM    7  C   UNL     1     -11.929   4.078 -34.393  1.00  0.00     0.056 A 
HETATM    8  C   UNL     1     -11.424   4.977 -33.439  1.00  0.00     0.065 A 
HETATM    9  N   UNL     1     -10.701   4.426 -32.358  1.00  0.00    -0.321 N 
HETATM   10  C   UNL     1     -10.319   3.092 -32.304  1.00  0.00     0.045 A 
HETATM   11  C   UNL     1     -10.257   5.056 -31.220  1.00  0.00     0.097 A 
HETATM   12  C   UNL     1      -9.698   4.117 -30.386  1.00  0.00     0.020 A 
HETATM   13  C   UNL     1      -9.755   2.876 -31.057  1.00  0.00     0.029 A 
HETATM   14  C   UNL     1     -12.734   4.585 -35.418  1.00  0.00     0.031 A 
HETATM   15  C   UNL     1     -12.964   5.958 -35.535  1.00  0.00     0.002 A 
HETATM   16  C   UNL     1     -12.418   6.841 -34.606  1.00  0.00     0.002 A 
HETATM   17  C   UNL     1     -11.656   6.354 -33.545  1.00  0.00     0.032 A 
HETATM   18  C   UNL     1     -10.824   0.749 -33.174  1.00  0.00     0.065 C 
HETATM   19  C   UNL     1      -9.593  -0.043 -32.757  1.00  0.00     0.237 C 
HETATM   20  H   UNL     1     -11.962   2.200 -35.132  1.00  0.00     0.161 HD
ENDROOT
BRANCH   1  21
HETATM   21  C   UNL     1      -7.161  -0.537 -33.246  1.00  0.00     0.239 C 
BRANCH  21  22
HETATM   22  C   UNL     1      -6.184  -0.809 -34.392  1.00  0.00     0.066 C 
BRANCH  22  23
HETATM   23  C   UNL     1      -5.807  -2.268 -34.391  1.00  0.00    -0.057 A 
HETATM   24  C   UNL     1      -4.502  -2.662 -34.058  1.00  0.00     0.007 A 
HETATM   25  C   UNL     1      -4.131  -4.005 -34.130  1.00  0.00     0.001 A 
HETATM   26  C   UNL     1      -5.058  -4.965 -34.532  1.00  0.00     0.000 A 
HETATM   27  C   UNL     1      -6.358  -4.584 -34.857  1.00  0.00     0.001 A 
HETATM   28  C   UNL     1      -6.733  -3.242 -34.787  1.00  0.00     0.007 A 
ENDBRANCH  22  23
ENDBRANCH  21  22
ENDBRANCH   1  21
TORSDOF 3
ENDMDL
MODEL 10
REMARK VINA RESULT:      -8.6      3.638      5.740
REMARK  3 active torsions:
REMARK  status: ('A' for Active; 'I' for Inactive)
REMARK    1  A    between atoms: C_4  and  C_5 
REMARK    2  A    between atoms: C_5  and  C_6 
REMARK    3  A    between atoms: C_6  and  N_7 
ROOT
HETATM    1  N   UNL     1      -5.615   1.101 -32.563  1.00  0.00    -0.071 N 
HETATM    2  H   UNL     1      -6.369   0.842 -31.910  1.00  0.00     0.279 HD
HETATM    3  C   UNL     1      -5.934   2.476 -33.110  1.00  0.00     0.237 C 
HETATM    4  C   UNL     1      -5.979   3.485 -31.985  1.00  0.00     0.065 C 
HETATM    5  C   UNL     1      -4.640   3.577 -31.222  1.00  0.00     0.076 C 
HETATM    6  N   UNL     1      -4.886   4.365 -30.001  1.00  0.00    -0.373 N 
HETATM    7  C   UNL     1      -4.930   5.762 -30.149  1.00  0.00     0.056 A 
HETATM    8  C   UNL     1      -4.216   6.422 -31.163  1.00  0.00     0.065 A 
HETATM    9  N   UNL     1      -3.480   5.615 -32.058  1.00  0.00    -0.321 N 
HETATM   10  C   UNL     1      -3.584   4.230 -32.090  1.00  0.00     0.045 A 
HETATM   11  C   UNL     1      -2.575   6.010 -33.014  1.00  0.00     0.097 A 
HETATM   12  C   UNL     1      -2.013   4.889 -33.578  1.00  0.00     0.020 A 
HETATM   13  C   UNL     1      -2.632   3.767 -32.984  1.00  0.00     0.029 A 
HETATM   14  C   UNL     1      -5.586   6.540 -29.189  1.00  0.00     0.031 A 
HETATM   15  C   UNL     1      -5.595   7.934 -29.281  1.00  0.00     0.002 A 
HETATM   16  C   UNL     1      -4.919   8.572 -30.319  1.00  0.00     0.002 A 
HETATM   17  C   UNL     1      -4.214   7.820 -31.258  1.00  0.00     0.032 A 
HETATM   18  C   UNL     1      -4.238   2.164 -30.748  1.00  0.00     0.065 C 
HETATM   19  C   UNL     1      -4.308   1.075 -31.809  1.00  0.00     0.237 C 
HETATM   20  H   UNL     1      -5.628   4.026 -29.394  1.00  0.00     0.161 HD
ENDROOT
BRANCH   1  21
HETATM   21  C   UNL     1      -5.655   0.094 -33.711  1.00  0.00     0.239 C 
BRANCH  21  22
HETATM   22  C   UNL     1      -4.516  -0.925 -33.644  1.00  0.00     0.066 C 
BRANCH  22  23
HETATM   23  C   UNL     1      -5.040  -2.285 -34.026  1.00  0.00    -0.057 A 
HETATM   24  C   UNL     1      -4.200  -3.408 -33.977  1.00  0.00     0.007 A 
HETATM   25  C   UNL     1      -4.662  -4.654 -34.402  1.00  0.00     0.001 A 
HETATM   26  C   UNL     1      -5.965  -4.791 -34.877  1.00  0.00     0.000 A 
HETATM   27  C   UNL     1      -6.809  -3.684 -34.922  1.00  0.00     0.001 A 
HETATM   28  C   UNL     1      -6.351  -2.435 -34.499  1.00  0.00     0.007 A 
ENDBRANCH  22  23
ENDBRANCH  21  22
ENDBRANCH   1  21
TORSDOF 3
ENDMDL
