MODEL 1
REMARK VINA RESULT:      -8.1      0.000      0.000
REMARK  4 active torsions:
REMARK  status: ('A' for Active; 'I' for Inactive)
REMARK    1  A    between atoms: C_3  and  N_4 
REMARK       I    between atoms: N_4  and  C_5 
REMARK    2  A    between atoms: C_5  and  C_6 
REMARK    3  A    between atoms: C_7  and  C_8 
REMARK    4  A    between atoms: C_15  and  C_16 
ROOT
HETATM    1  C   UNL     1      -7.654  -0.099 -34.857  1.00  0.00     0.003 A 
HETATM    2  C   UNL     1      -6.869   0.861 -34.213  1.00  0.00     0.029 A 
HETATM    3  C   UNL     1      -5.641   0.509 -33.655  1.00  0.00     0.035 A 
HETATM    4  C   UNL     1      -5.209  -0.825 -33.750  1.00  0.00     0.042 A 
HETATM    5  C   UNL     1      -5.986  -1.799 -34.398  1.00  0.00    -0.021 A 
HETATM    6  C   UNL     1      -7.215  -1.420 -34.950  1.00  0.00     0.012 A 
ENDROOT
BRANCH   3   7
HETATM    7  N   UNL     1      -4.785   1.417 -32.994  1.00  0.00    -0.324 N 
HETATM    8  C   UNL     1      -4.656   1.607 -31.633  1.00  0.00     0.245 C 
HETATM    9  O   UNL     1      -5.256   1.020 -30.742  1.00  0.00    -0.268 OA
HETATM   10  H   UNL     1      -4.215   1.995 -33.597  1.00  0.00     0.169 HD
BRANCH   8  11
HETATM   11  C   UNL     1      -3.660   2.666 -31.314  1.00  0.00     0.077 C 
HETATM   12  C   UNL     1      -3.064   3.335 -32.310  1.00  0.00     0.042 C 
BRANCH  12  13
HETATM   13  C   UNL     1      -2.102   4.346 -32.035  1.00  0.00     0.075 A 
HETATM   14  O   UNL     1      -1.144   4.255 -31.049  1.00  0.00    -0.323 OA
HETATM   15  C   UNL     1      -0.401   5.388 -31.068  1.00  0.00     0.142 A 
HETATM   16  C   UNL     1      -0.846   6.236 -32.049  1.00  0.00     0.027 A 
HETATM   17  C   UNL     1      -1.933   5.572 -32.667  1.00  0.00     0.039 A 
ENDBRANCH  12  13
ENDBRANCH   8  11
ENDBRANCH   3   7
BRANCH   5  18
HETATM   18  C   UNL     1      -5.515  -3.171 -34.482  1.00  0.00     0.010 A 
HETATM   19  C   UNL     1      -6.168  -4.349 -34.917  1.00  0.00     0.152 A 
HETATM   20  N   UNL     1      -5.395  -5.435 -34.823  1.00  0.00    -0.187 NA
HETATM   21  N   UNL     1      -4.243  -4.958 -34.328  1.00  0.00    -0.289 N 
HETATM   22  H   UNL     1      -3.482  -5.609 -34.163  1.00  0.00     0.188 HD
HETATM   23  C   UNL     1      -4.264  -3.611 -34.105  1.00  0.00     0.123 A 
ENDBRANCH   5  18
TORSDOF 4
ENDMDL
MODEL 2
REMARK VINA RESULT:      -7.9      3.595      7.050
REMARK  4 active torsions:
REMARK  status: ('A' for Active; 'I' for Inactive)
REMARK    1  A    between atoms: C_3  and  N_4 
REMARK       I    between atoms: N_4  and  C_5 
REMARK    2  A    between atoms: C_5  and  C_6 
REMARK    3  A    between atoms: C_7  and  C_8 
REMARK    4  A    between atoms: C_15  and  C_16 
ROOT
HETATM    1  C   UNL     1      -4.193   0.192 -33.140  1.00  0.00     0.003 A 
HETATM    2  C   UNL     1      -5.483   0.730 -33.153  1.00  0.00     0.029 A 
HETATM    3  C   UNL     1      -6.577  -0.070 -33.481  1.00  0.00     0.035 A 
HETATM    4  C   UNL     1      -6.359  -1.421 -33.798  1.00  0.00     0.042 A 
HETATM    5  C   UNL     1      -5.069  -1.975 -33.785  1.00  0.00    -0.021 A 
HETATM    6  C   UNL     1      -3.988  -1.152 -33.454  1.00  0.00     0.012 A 
ENDROOT
BRANCH   3   7
HETATM    7  N   UNL     1      -7.911   0.392 -33.512  1.00  0.00    -0.324 N 
HETATM    8  C   UNL     1      -8.617   0.983 -32.483  1.00  0.00     0.245 C 
HETATM    9  O   UNL     1      -8.217   1.224 -31.351  1.00  0.00    -0.268 OA
HETATM   10  H   UNL     1      -8.397   0.258 -34.388  1.00  0.00     0.169 HD
BRANCH   8  11
HETATM   11  C   UNL     1     -10.007   1.324 -32.890  1.00  0.00     0.077 C 
HETATM   12  C   UNL     1     -10.864   0.343 -33.204  1.00  0.00     0.042 C 
BRANCH  12  13
HETATM   13  C   UNL     1     -12.196   0.639 -33.604  1.00  0.00     0.075 A 
HETATM   14  O   UNL     1     -12.636   1.896 -33.960  1.00  0.00    -0.323 OA
HETATM   15  C   UNL     1     -13.949   1.815 -34.284  1.00  0.00     0.142 A 
HETATM   16  C   UNL     1     -14.395   0.526 -34.150  1.00  0.00     0.027 A 
HETATM   17  C   UNL     1     -13.278  -0.226 -33.715  1.00  0.00     0.039 A 
ENDBRANCH  12  13
ENDBRANCH   8  11
ENDBRANCH   3   7
BRANCH   5  18
HETATM   18  C   UNL     1      -4.872  -3.376 -34.118  1.00  0.00     0.010 A 
HETATM   19  C   UNL     1      -5.685  -4.278 -34.844  1.00  0.00     0.152 A 
HETATM   20  N   UNL     1      -5.160  -5.505 -34.919  1.00  0.00    -0.187 NA
HETATM   21  N   UNL     1      -4.008  -5.394 -34.241  1.00  0.00    -0.289 N 
HETATM   22  H   UNL     1      -3.418  -6.216 -34.155  1.00  0.00     0.188 HD
HETATM   23  C   UNL     1      -3.790  -4.142 -33.741  1.00  0.00     0.123 A 
ENDBRANCH   5  18
TORSDOF 4
ENDMDL
MODEL 3
REMARK VINA RESULT:      -7.7      4.275      7.759
REMARK  4 active torsions:
REMARK  status: ('A' for Active; 'I' for Inactive)
REMARK    1  A    between atoms: C_3  and  N_4 
REMARK       I    between atoms: N_4  and  C_5 
REMARK    2  A    between atoms: C_5  and  C_6 
REMARK    3  A    between atoms: C_7  and  C_8 
REMARK    4  A    between atoms: C_15  and  C_16 
ROOT
HETATM    1  C   UNL     1      -5.912  -2.601 -34.877  1.00  0.00     0.003 A 
HETATM    2  C   UNL     1      -7.182  -2.064 -34.653  1.00  0.00     0.029 A 
HETATM    3  C   UNL     1      -7.381  -1.119 -33.647  1.00  0.00     0.035 A 
HETATM    4  C   UNL     1      -6.284  -0.721 -32.864  1.00  0.00     0.042 A 
HETATM    5  C   UNL     1      -5.002  -1.251 -33.081  1.00  0.00    -0.021 A 
HETATM    6  C   UNL     1      -4.829  -2.197 -34.097  1.00  0.00     0.012 A 
ENDROOT
BRANCH   3   7
HETATM    7  N   UNL     1      -8.628  -0.523 -33.359  1.00  0.00    -0.324 N 
HETATM    8  C   UNL     1      -9.103   0.689 -33.818  1.00  0.00     0.245 C 
HETATM    9  O   UNL     1      -8.534   1.473 -34.567  1.00  0.00    -0.268 OA
HETATM   10  H   UNL     1      -9.227  -1.047 -32.736  1.00  0.00     0.169 HD
BRANCH   8  11
HETATM   11  C   UNL     1     -10.460   0.990 -33.286  1.00  0.00     0.077 C 
HETATM   12  C   UNL     1     -11.471   1.210 -34.137  1.00  0.00     0.042 C 
BRANCH  12  13
HETATM   13  C   UNL     1     -12.776   1.507 -33.657  1.00  0.00     0.075 A 
HETATM   14  O   UNL     1     -13.089   2.614 -32.898  1.00  0.00    -0.323 OA
HETATM   15  C   UNL     1     -14.414   2.582 -32.619  1.00  0.00     0.142 A 
HETATM   16  C   UNL     1     -14.994   1.472 -33.179  1.00  0.00     0.027 A 
HETATM   17  C   UNL     1     -13.949   0.784 -33.841  1.00  0.00     0.039 A 
ENDBRANCH  12  13
ENDBRANCH   8  11
ENDBRANCH   3   7
BRANCH   5  18
HETATM   18  C   UNL     1      -3.885  -0.821 -32.256  1.00  0.00     0.010 A 
HETATM   19  C   UNL     1      -3.632   0.411 -31.609  1.00  0.00     0.152 A 
HETATM   20  N   UNL     1      -2.469   0.424 -30.953  1.00  0.00    -0.187 NA
HETATM   21  N   UNL     1      -1.971  -0.802 -31.175  1.00  0.00    -0.289 N 
HETATM   22  H   UNL     1      -1.070  -1.037 -30.770  1.00  0.00     0.188 HD
HETATM   23  C   UNL     1      -2.778  -1.584 -31.951  1.00  0.00     0.123 A 
ENDBRANCH   5  18
TORSDOF 4
ENDMDL
MODEL 4
REMARK VINA RESULT:      -7.6      2.793      8.148
REMARK  4 active torsions:
REMARK  status: ('A' for Active; 'I' for Inactive)
REMARK    1  A    between atoms: C_3  and  N_4 
REMARK       I    between atoms: N_4  and  C_5 
REMARK    2  A    between atoms: C_5  and  C_6 
REMARK    3  A    between atoms: C_7  and  C_8 
REMARK    4  A    between atoms: C_15  and  C_16 
ROOT
HETATM    1  C   UNL     1      -4.744   4.305 -30.467  1.00  0.00     0.003 A 
HETATM    2  C   UNL     1      -4.950   2.947 -30.719  1.00  0.00     0.029 A 
HETATM    3  C   UNL     1      -4.307   2.323 -31.788  1.00  0.00     0.035 A 
HETATM    4  C   UNL     1      -3.453   3.084 -32.604  1.00  0.00     0.042 A 
HETATM    5  C   UNL     1      -3.235   4.449 -32.359  1.00  0.00    -0.021 A 
HETATM    6  C   UNL     1      -3.891   5.051 -31.281  1.00  0.00     0.012 A 
ENDROOT
BRANCH   3   7
HETATM    7  N   UNL     1      -4.455   0.955 -32.109  1.00  0.00    -0.324 N 
HETATM    8  C   UNL     1      -3.606  -0.080 -31.774  1.00  0.00     0.245 C 
HETATM    9  O   UNL     1      -2.567  -0.009 -31.131  1.00  0.00    -0.268 OA
HETATM   10  H   UNL     1      -5.274   0.723 -32.655  1.00  0.00     0.169 HD
BRANCH   8  11
HETATM   11  C   UNL     1      -4.090  -1.385 -32.302  1.00  0.00     0.077 C 
HETATM   12  C   UNL     1      -4.601  -1.449 -33.540  1.00  0.00     0.042 C 
BRANCH  12  13
HETATM   13  C   UNL     1      -5.078  -2.681 -34.067  1.00  0.00     0.075 A 
HETATM   14  O   UNL     1      -4.366  -3.861 -34.043  1.00  0.00    -0.323 OA
HETATM   15  C   UNL     1      -5.117  -4.826 -34.626  1.00  0.00     0.142 A 
HETATM   16  C   UNL     1      -6.319  -4.313 -35.039  1.00  0.00     0.027 A 
HETATM   17  C   UNL     1      -6.295  -2.943 -34.685  1.00  0.00     0.039 A 
ENDBRANCH  12  13
ENDBRANCH   8  11
ENDBRANCH   3   7
BRANCH   5  18
HETATM   18  C   UNL     1      -2.346   5.212 -33.220  1.00  0.00     0.010 A 
HETATM   19  C   UNL     1      -1.859   4.942 -34.520  1.00  0.00     0.152 A 
HETATM   20  N   UNL     1      -1.035   5.891 -34.973  1.00  0.00    -0.187 NA
HETATM   21  N   UNL     1      -0.991   6.775 -33.965  1.00  0.00    -0.289 N 
HETATM   22  H   UNL     1      -0.415   7.603 -34.074  1.00  0.00     0.188 HD
HETATM   23  C   UNL     1      -1.756   6.415 -32.893  1.00  0.00     0.123 A 
ENDBRANCH   5  18
TORSDOF 4
ENDMDL
MODEL 5
REMARK VINA RESULT:      -7.3      3.665      6.055
REMARK  4 active torsions:
REMARK  status: ('A' for Active; 'I' for Inactive)
REMARK    1  A    between atoms: C_3  and  N_4 
REMARK       I    between atoms: N_4  and  C_5 
REMARK    2  A    between atoms: C_5  and  C_6 
REMARK    3  A    between atoms: C_7  and  C_8 
REMARK    4  A    between atoms: C_15  and  C_16 
ROOT
HETATM    1  C   UNL     1      -4.044  -0.003 -32.844  1.00  0.00     0.003 A 
HETATM    2  C   UNL     1      -5.213   0.756 -32.950  1.00  0.00     0.029 A 
HETATM    3  C   UNL     1      -6.371   0.196 -33.488  1.00  0.00     0.035 A 
HETATM    4  C   UNL     1      -6.341  -1.141 -33.920  1.00  0.00     0.042 A 
HETATM    5  C   UNL     1      -5.175  -1.916 -33.816  1.00  0.00    -0.021 A 
HETATM    6  C   UNL     1      -4.026  -1.331 -33.274  1.00  0.00     0.012 A 
ENDROOT
BRANCH   3   7
HETATM    7  N   UNL     1      -7.593   0.890 -33.625  1.00  0.00    -0.324 N 
HETATM    8  C   UNL     1      -8.654   0.900 -32.741  1.00  0.00     0.245 C 
HETATM    9  O   UNL     1      -8.734   0.313 -31.670  1.00  0.00    -0.268 OA
HETATM   10  H   UNL     1      -7.695   1.428 -34.475  1.00  0.00     0.169 HD
BRANCH   8  11
HETATM   11  C   UNL     1      -9.778   1.739 -33.237  1.00  0.00     0.077 C 
HETATM   12  C   UNL     1      -9.574   2.583 -34.259  1.00  0.00     0.042 C 
BRANCH  12  13
HETATM   13  C   UNL     1     -10.628   3.402 -34.748  1.00  0.00     0.075 A 
HETATM   14  O   UNL     1     -11.793   2.917 -35.301  1.00  0.00    -0.323 OA
HETATM   15  C   UNL     1     -12.570   3.970 -35.656  1.00  0.00     0.142 A 
HETATM   16  C   UNL     1     -11.944   5.150 -35.351  1.00  0.00     0.027 A 
HETATM   17  C   UNL     1     -10.704   4.790 -34.772  1.00  0.00     0.039 A 
ENDBRANCH  12  13
ENDBRANCH   8  11
ENDBRANCH   3   7
BRANCH   5  18
HETATM   18  C   UNL     1      -5.172  -3.296 -34.272  1.00  0.00     0.010 A 
HETATM   19  C   UNL     1      -6.131  -4.029 -35.010  1.00  0.00     0.152 A 
HETATM   20  N   UNL     1      -5.767  -5.298 -35.217  1.00  0.00    -0.187 NA
HETATM   21  N   UNL     1      -4.572  -5.383 -34.613  1.00  0.00    -0.289 N 
HETATM   22  H   UNL     1      -4.084  -6.273 -34.633  1.00  0.00     0.188 HD
HETATM   23  C   UNL     1      -4.172  -4.214 -34.031  1.00  0.00     0.123 A 
ENDBRANCH   5  18
TORSDOF 4
ENDMDL
MODEL 6
REMARK VINA RESULT:      -7.2      2.797      4.040
REMARK  4 active torsions:
REMARK  status: ('A' for Active; 'I' for Inactive)
REMARK    1  A    between atoms: C_3  and  N_4 
REMARK       I    between atoms: N_4  and  C_5 
REMARK    2  A    between atoms: C_5  and  C_6 
REMARK    3  A    between atoms: C_7  and  C_8 
REMARK    4  A    between atoms: C_15  and  C_16 
ROOT
HETATM    1  C   UNL     1      -5.807  -1.390 -33.581  1.00  0.00     0.003 A 
HETATM    2  C   UNL     1      -4.921  -0.363 -33.248  1.00  0.00     0.029 A 
HETATM    3  C   UNL     1      -5.396   0.922 -32.988  1.00  0.00     0.035 A 
HETATM    4  C   UNL     1      -6.778   1.164 -33.070  1.00  0.00     0.042 A 
HETATM    5  C   UNL     1      -7.679   0.139 -33.400  1.00  0.00    -0.021 A 
HETATM    6  C   UNL     1      -7.177  -1.141 -33.656  1.00  0.00     0.012 A 
ENDROOT
BRANCH   3   7
HETATM    7  N   UNL     1      -4.571   2.013 -32.639  1.00  0.00    -0.324 N 
HETATM    8  C   UNL     1      -3.478   2.001 -31.795  1.00  0.00     0.245 C 
HETATM    9  O   UNL     1      -3.015   1.039 -31.195  1.00  0.00    -0.268 OA
HETATM   10  H   UNL     1      -4.826   2.901 -33.050  1.00  0.00     0.169 HD
BRANCH   8  11
HETATM   11  C   UNL     1      -2.868   3.351 -31.661  1.00  0.00     0.077 C 
HETATM   12  C   UNL     1      -2.518   4.032 -32.761  1.00  0.00     0.042 C 
BRANCH  12  13
HETATM   13  C   UNL     1      -1.926   5.321 -32.663  1.00  0.00     0.075 A 
HETATM   14  O   UNL     1      -2.515   6.481 -33.117  1.00  0.00    -0.323 OA
HETATM   15  C   UNL     1      -1.679   7.516 -32.861  1.00  0.00     0.142 A 
HETATM   16  C   UNL     1      -0.540   7.069 -32.243  1.00  0.00     0.027 A 
HETATM   17  C   UNL     1      -0.696   5.668 -32.116  1.00  0.00     0.039 A 
ENDBRANCH  12  13
ENDBRANCH   8  11
ENDBRANCH   3   7
BRANCH   5  18
HETATM   18  C   UNL     1      -9.104   0.417 -33.478  1.00  0.00     0.010 A 
HETATM   19  C   UNL     1      -9.821   1.374 -34.235  1.00  0.00     0.152 A 
HETATM   20  N   UNL     1     -11.138   1.330 -34.013  1.00  0.00    -0.187 NA
HETATM   21  N   UNL     1     -11.271   0.344 -33.114  1.00  0.00    -0.289 N 
HETATM   22  H   UNL     1     -12.203   0.118 -32.780  1.00  0.00     0.188 HD
HETATM   23  C   UNL     1     -10.085  -0.233 -32.759  1.00  0.00     0.123 A 
ENDBRANCH   5  18
TORSDOF 4
ENDMDL
MODEL 7
REMARK VINA RESULT:      -7.0      3.902      8.784
REMARK  4 active torsions:
REMARK  status: ('A' for Active; 'I' for Inactive)
REMARK    1  A    between atoms: C_3  and  N_4 
REMARK       I    between atoms: N_4  and  C_5 
REMARK    2  A    between atoms: C_5  and  C_6 
REMARK    3  A    between atoms: C_7  and  C_8 
REMARK    4  A    between atoms: C_15  and  C_16 
ROOT
HETATM    1  C   UNL     1      -1.270   7.123 -33.780  1.00  0.00     0.003 A 
HETATM    2  C   UNL     1      -2.326   6.294 -34.169  1.00  0.00     0.029 A 
HETATM    3  C   UNL     1      -2.793   5.299 -33.312  1.00  0.00     0.035 A 
HETATM    4  C   UNL     1      -2.183   5.143 -32.056  1.00  0.00     0.042 A 
HETATM    5  C   UNL     1      -1.124   5.971 -31.652  1.00  0.00    -0.021 A 
HETATM    6  C   UNL     1      -0.673   6.962 -32.530  1.00  0.00     0.012 A 
ENDROOT
BRANCH   3   7
HETATM    7  N   UNL     1      -3.858   4.424 -33.624  1.00  0.00    -0.324 N 
HETATM    8  C   UNL     1      -5.206   4.719 -33.638  1.00  0.00     0.245 C 
HETATM    9  O   UNL     1      -5.734   5.794 -33.387  1.00  0.00    -0.268 OA
HETATM   10  H   UNL     1      -3.589   3.476 -33.851  1.00  0.00     0.169 HD
BRANCH   8  11
HETATM   11  C   UNL     1      -6.027   3.532 -34.003  1.00  0.00     0.077 C 
HETATM   12  C   UNL     1      -5.733   2.336 -33.475  1.00  0.00     0.042 C 
BRANCH  12  13
HETATM   13  C   UNL     1      -6.496   1.184 -33.813  1.00  0.00     0.075 A 
HETATM   14  O   UNL     1      -6.960   0.267 -32.895  1.00  0.00    -0.323 OA
HETATM   15  C   UNL     1      -7.645  -0.695 -33.559  1.00  0.00     0.142 A 
HETATM   16  C   UNL     1      -7.647  -0.438 -34.905  1.00  0.00     0.027 A 
HETATM   17  C   UNL     1      -6.913   0.761 -35.069  1.00  0.00     0.039 A 
ENDBRANCH  12  13
ENDBRANCH   8  11
ENDBRANCH   3   7
BRANCH   5  18
HETATM   18  C   UNL     1      -0.511   5.787 -30.347  1.00  0.00     0.010 A 
HETATM   19  C   UNL     1      -0.741   6.444 -29.115  1.00  0.00     0.152 A 
HETATM   20  N   UNL     1       0.049   5.999 -28.134  1.00  0.00    -0.187 NA
HETATM   21  N   UNL     1       0.789   5.054 -28.732  1.00  0.00    -0.289 N 
HETATM   22  H   UNL     1       1.481   4.560 -28.178  1.00  0.00     0.188 HD
HETATM   23  C   UNL     1       0.494   4.889 -30.055  1.00  0.00     0.123 A 
ENDBRANCH   5  18
TORSDOF 4
ENDMDL
MODEL 8
REMARK VINA RESULT:      -7.0      2.928      4.890
REMARK  4 active torsions:
REMARK  status: ('A' for Active; 'I' for Inactive)
REMARK    1  A    between atoms: C_3  and  N_4 
REMARK       I    between atoms: N_4  and  C_5 
REMARK    2  A    between atoms: C_5  and  C_6 
REMARK    3  A    between atoms: C_7  and  C_8 
REMARK    4  A    between atoms: C_15  and  C_16 
ROOT
HETATM    1  C   UNL     1      -5.338   3.592 -32.737  1.00  0.00     0.003 A 
HETATM    2  C   UNL     1      -4.369   4.430 -32.179  1.00  0.00     0.029 A 
HETATM    3  C   UNL     1      -3.198   3.895 -31.643  1.00  0.00     0.035 A 
HETATM    4  C   UNL     1      -3.013   2.503 -31.671  1.00  0.00     0.042 A 
HETATM    5  C   UNL     1      -3.977   1.650 -32.232  1.00  0.00    -0.021 A 
HETATM    6  C   UNL     1      -5.143   2.211 -32.764  1.00  0.00     0.012 A 
ENDROOT
BRANCH   3   7
HETATM    7  N   UNL     1      -2.168   4.670 -31.067  1.00  0.00    -0.324 N 
HETATM    8  C   UNL     1      -1.110   5.272 -31.717  1.00  0.00     0.245 C 
HETATM    9  O   UNL     1      -0.868   5.252 -32.917  1.00  0.00    -0.268 OA
HETATM   10  H   UNL     1      -2.216   4.780 -30.063  1.00  0.00     0.169 HD
BRANCH   8  11
HETATM   11  C   UNL     1      -0.218   5.996 -30.770  1.00  0.00     0.077 C 
HETATM   12  C   UNL     1      -0.625   6.211 -29.511  1.00  0.00     0.042 C 
BRANCH  12  13
HETATM   13  C   UNL     1       0.202   6.907 -28.587  1.00  0.00     0.075 A 
HETATM   14  O   UNL     1       0.841   8.097 -28.863  1.00  0.00    -0.323 OA
HETATM   15  C   UNL     1       1.538   8.474 -27.764  1.00  0.00     0.142 A 
HETATM   16  C   UNL     1       1.377   7.557 -26.758  1.00  0.00     0.027 A 
HETATM   17  C   UNL     1       0.525   6.555 -27.282  1.00  0.00     0.039 A 
ENDBRANCH  12  13
ENDBRANCH   8  11
ENDBRANCH   3   7
BRANCH   5  18
HETATM   18  C   UNL     1      -3.759   0.212 -32.249  1.00  0.00     0.010 A 
HETATM   19  C   UNL     1      -4.279  -0.793 -33.097  1.00  0.00     0.152 A 
HETATM   20  N   UNL     1      -3.851  -2.017 -32.774  1.00  0.00    -0.187 NA
HETATM   21  N   UNL     1      -3.052  -1.800 -31.718  1.00  0.00    -0.289 N 
HETATM   22  H   UNL     1      -2.599  -2.599 -31.285  1.00  0.00     0.188 HD
HETATM   23  C   UNL     1      -2.965  -0.485 -31.363  1.00  0.00     0.123 A 
ENDBRANCH   5  18
TORSDOF 4
ENDMDL
MODEL 9
REMARK VINA RESULT:      -6.7      5.528      8.699
REMARK  4 active torsions:
REMARK  status: ('A' for Active; 'I' for Inactive)
REMARK    1  A    between atoms: C_3  and  N_4 
REMARK       I    between atoms: N_4  and  C_5 
REMARK    2  A    between atoms: C_5  and  C_6 
REMARK    3  A    between atoms: C_7  and  C_8 
REMARK    4  A    between atoms: C_15  and  C_16 
ROOT
HETATM    1  C   UNL     1     -13.268   2.086 -34.113  1.00  0.00     0.003 A 
HETATM    2  C   UNL     1     -12.257   1.145 -33.907  1.00  0.00     0.029 A 
HETATM    3  C   UNL     1     -10.918   1.501 -34.068  1.00  0.00     0.035 A 
HETATM    4  C   UNL     1     -10.607   2.819 -34.441  1.00  0.00     0.042 A 
HETATM    5  C   UNL     1     -11.614   3.776 -34.647  1.00  0.00    -0.021 A 
HETATM    6  C   UNL     1     -12.949   3.394 -34.479  1.00  0.00     0.012 A 
ENDROOT
BRANCH   3   7
HETATM    7  N   UNL     1      -9.836   0.614 -33.874  1.00  0.00    -0.324 N 
HETATM    8  C   UNL     1      -8.924   0.620 -32.838  1.00  0.00     0.245 C 
HETATM    9  O   UNL     1      -8.884   1.391 -31.888  1.00  0.00    -0.268 OA
HETATM   10  H   UNL     1      -9.721  -0.094 -34.587  1.00  0.00     0.169 HD
BRANCH   8  11
HETATM   11  C   UNL     1      -7.916  -0.466 -32.983  1.00  0.00     0.077 C 
HETATM   12  C   UNL     1      -7.470  -0.796 -34.203  1.00  0.00     0.042 C 
BRANCH  12  13
HETATM   13  C   UNL     1      -6.513  -1.834 -34.372  1.00  0.00     0.075 A 
HETATM   14  O   UNL     1      -5.156  -1.673 -34.191  1.00  0.00    -0.323 OA
HETATM   15  C   UNL     1      -4.548  -2.859 -34.432  1.00  0.00     0.142 A 
HETATM   16  C   UNL     1      -5.474  -3.811 -34.772  1.00  0.00     0.027 A 
HETATM   17  C   UNL     1      -6.729  -3.158 -34.735  1.00  0.00     0.039 A 
ENDBRANCH  12  13
ENDBRANCH   8  11
ENDBRANCH   3   7
BRANCH   5  18
HETATM   18  C   UNL     1     -11.263   5.133 -35.033  1.00  0.00     0.010 A 
HETATM   19  C   UNL     1     -12.077   6.257 -35.306  1.00  0.00     0.152 A 
HETATM   20  N   UNL     1     -11.371   7.337 -35.653  1.00  0.00    -0.187 NA
HETATM   21  N   UNL     1     -10.100   6.909 -35.603  1.00  0.00    -0.289 N 
HETATM   22  H   UNL     1      -9.361   7.566 -35.833  1.00  0.00     0.188 HD
HETATM   23  C   UNL     1      -9.982   5.599 -35.239  1.00  0.00     0.123 A 
ENDBRANCH   5  18
TORSDOF 4
ENDMDL
MODEL 10
REMARK VINA RESULT:      -6.7      3.985      8.504
REMARK  4 active torsions:
REMARK  status: ('A' for Active; 'I' for Inactive)
REMARK    1  A    between atoms: C_3  and  N_4 
REMARK       I    between atoms: N_4  and  C_5 
REMARK    2  A    between atoms: C_5  and  C_6 
REMARK    3  A    between atoms: C_7  and  C_8 
REMARK    4  A    between atoms: C_15  and  C_16 
ROOT
HETATM    1  C   UNL     1      -4.227  -0.458 -31.877  1.00  0.00     0.003 A 
HETATM    2  C   UNL     1      -5.618  -0.573 -31.952  1.00  0.00     0.029 A 
HETATM    3  C   UNL     1      -6.407   0.553 -32.182  1.00  0.00     0.035 A 
HETATM    4  C   UNL     1      -5.780   1.801 -32.334  1.00  0.00     0.042 A 
HETATM    5  C   UNL     1      -4.384   1.930 -32.264  1.00  0.00    -0.021 A 
HETATM    6  C   UNL     1      -3.614   0.785 -32.032  1.00  0.00     0.012 A 
ENDROOT
BRANCH   3   7
HETATM    7  N   UNL     1      -7.815   0.523 -32.279  1.00  0.00    -0.324 N 
HETATM    8  C   UNL     1      -8.572   0.239 -33.398  1.00  0.00     0.245 C 
HETATM    9  O   UNL     1      -8.165  -0.046 -34.516  1.00  0.00    -0.268 OA
HETATM   10  H   UNL     1      -8.314   0.748 -31.429  1.00  0.00     0.169 HD
BRANCH   8  11
HETATM   11  C   UNL     1     -10.031   0.319 -33.114  1.00  0.00     0.077 C 
HETATM   12  C   UNL     1     -10.816   1.077 -33.892  1.00  0.00     0.042 C 
BRANCH  12  13
HETATM   13  C   UNL     1     -12.212   1.178 -33.640  1.00  0.00     0.075 A 
HETATM   14  O   UNL     1     -12.821   2.285 -33.089  1.00  0.00    -0.323 OA
HETATM   15  C   UNL     1     -14.150   2.040 -32.992  1.00  0.00     0.142 A 
HETATM   16  C   UNL     1     -14.441   0.788 -33.468  1.00  0.00     0.027 A 
HETATM   17  C   UNL     1     -13.205   0.236 -33.881  1.00  0.00     0.039 A 
ENDBRANCH  12  13
ENDBRANCH   8  11
ENDBRANCH   3   7
BRANCH   5  18
HETATM   18  C   UNL     1      -3.762   3.234 -32.424  1.00  0.00     0.010 A 
HETATM   19  C   UNL     1      -4.026   4.279 -33.340  1.00  0.00     0.152 A 
HETATM   20  N   UNL     1      -3.213   5.328 -33.179  1.00  0.00    -0.187 NA
HETATM   21  N   UNL     1      -2.425   4.959 -32.158  1.00  0.00    -0.289 N 
HETATM   22  H   UNL     1      -1.707   5.605 -31.845  1.00  0.00     0.188 HD
HETATM   23  C   UNL     1      -2.710   3.715 -31.673  1.00  0.00     0.123 A 
ENDBRANCH   5  18
TORSDOF 4
ENDMDL
