MODEL 1
REMARK VINA RESULT:      -9.0      0.000      0.000
REMARK  4 active torsions:
REMARK  status: ('A' for Active; 'I' for Inactive)
REMARK    1  A    between atoms: C_5  and  C_6 
REMARK    2  A    between atoms: C_10  and  C_11 
REMARK       I    between atoms: C_11  and  N_12 
REMARK    3  A    between atoms: N_12  and  N_13 
REMARK       I    between atoms: N_13  and  C_14 
REMARK       I    between atoms: C_14  and  N_15 
REMARK    4  A    between atoms: N_15  and  C_16 
ROOT
HETATM    1  C   UNL     1      -8.468   1.793 -34.251  1.00  0.00     0.288 C 
HETATM    2  N   UNL     1      -8.576   0.631 -34.981  1.00  0.00    -0.261 N 
HETATM    3  O   UNL     1      -7.382   2.332 -34.039  1.00  0.00    -0.264 OA
HETATM    4  H   UNL     1      -9.447   0.122 -35.114  1.00  0.00     0.190 HD
ENDROOT
BRANCH   1   5
HETATM    5  C   UNL     1      -9.705   2.320 -33.743  1.00  0.00     0.121 A 
HETATM    6  N   UNL     1      -9.754   3.483 -33.028  1.00  0.00    -0.272 N 
HETATM    7  N   UNL     1     -10.979   3.811 -32.596  1.00  0.00    -0.174 NA
HETATM    8  H   UNL     1      -8.973   4.089 -32.796  1.00  0.00     0.189 HD
HETATM    9  C   UNL     1     -11.776   2.826 -33.042  1.00  0.00     0.089 A 
HETATM   10  C   UNL     1     -11.013   1.879 -33.783  1.00  0.00     0.071 A 
BRANCH   9  11
HETATM   11  C   UNL     1     -13.211   2.791 -32.731  1.00  0.00    -0.006 A 
HETATM   12  C   UNL     1     -13.835   3.846 -32.052  1.00  0.00     0.014 A 
HETATM   13  C   UNL     1     -15.211   3.819 -31.796  1.00  0.00     0.007 A 
HETATM   14  C   UNL     1     -15.989   2.732 -32.205  1.00  0.00    -0.062 A 
HETATM   15  C   UNL     1     -17.471   2.721 -31.978  1.00  0.00     0.048 C 
HETATM   16  C   UNL     1     -15.373   1.676 -32.883  1.00  0.00     0.007 A 
HETATM   17  C   UNL     1     -13.997   1.704 -33.137  1.00  0.00     0.014 A 
ENDBRANCH   9  11
ENDBRANCH   1   5
BRANCH   2  18
HETATM   18  N   UNL     1      -7.408  -0.028 -35.404  1.00  0.00    -0.249 N 
HETATM   19  C   UNL     1      -7.015  -1.119 -34.642  1.00  0.00     0.339 C 
HETATM   20  N   UNL     1      -5.791  -1.603 -35.056  1.00  0.00    -0.306 N 
HETATM   21  O   UNL     1      -7.740  -1.593 -33.772  1.00  0.00    -0.245 OA
HETATM   22  H   UNL     1      -5.661  -1.523 -36.055  1.00  0.00     0.171 HD
HETATM   23  H   UNL     1      -6.685   0.587 -35.770  1.00  0.00     0.192 HD
BRANCH  20  24
HETATM   24  C   UNL     1      -5.096  -2.657 -34.414  1.00  0.00     0.058 A 
HETATM   25  C   UNL     1      -5.288  -4.028 -34.669  1.00  0.00     0.060 A 
HETATM   26 CL   UNL     1      -6.572  -4.643 -35.654  1.00  0.00    -0.082 Cl
HETATM   27  C   UNL     1      -4.513  -4.981 -33.995  1.00  0.00     0.026 A 
HETATM   28  C   UNL     1      -3.571  -4.585 -33.046  1.00  0.00     0.002 A 
HETATM   29  C   UNL     1      -3.416  -3.235 -32.747  1.00  0.00     0.002 A 
HETATM   30  C   UNL     1      -4.182  -2.278 -33.419  1.00  0.00     0.031 A 
ENDBRANCH  20  24
ENDBRANCH   2  18
TORSDOF 4
ENDMDL
MODEL 2
REMARK VINA RESULT:      -8.9      8.001     10.753
REMARK  4 active torsions:
REMARK  status: ('A' for Active; 'I' for Inactive)
REMARK    1  A    between atoms: C_5  and  C_6 
REMARK    2  A    between atoms: C_10  and  C_11 
REMARK       I    between atoms: C_11  and  N_12 
REMARK    3  A    between atoms: N_12  and  N_13 
REMARK       I    between atoms: N_13  and  C_14 
REMARK       I    between atoms: C_14  and  N_15 
REMARK    4  A    between atoms: N_15  and  C_16 
ROOT
HETATM    1  C   UNL     1      -4.063   3.422 -31.288  1.00  0.00     0.288 C 
HETATM    2  N   UNL     1      -2.821   4.014 -31.241  1.00  0.00    -0.261 N 
HETATM    3  O   UNL     1      -5.079   4.006 -30.913  1.00  0.00    -0.264 OA
HETATM    4  H   UNL     1      -1.953   3.537 -31.476  1.00  0.00     0.190 HD
ENDROOT
BRANCH   1   5
HETATM    5  C   UNL     1      -4.085   2.075 -31.788  1.00  0.00     0.121 A 
HETATM    6  N   UNL     1      -3.016   1.237 -31.649  1.00  0.00    -0.272 N 
HETATM    7  N   UNL     1      -3.187   0.030 -32.206  1.00  0.00    -0.174 NA
HETATM    8  H   UNL     1      -2.134   1.444 -31.190  1.00  0.00     0.189 HD
HETATM    9  C   UNL     1      -4.420   0.069 -32.737  1.00  0.00     0.089 A 
HETATM   10  C   UNL     1      -5.024   1.333 -32.478  1.00  0.00     0.071 A 
BRANCH   9  11
HETATM   11  C   UNL     1      -4.975  -1.064 -33.490  1.00  0.00    -0.006 A 
HETATM   12  C   UNL     1      -4.173  -2.148 -33.870  1.00  0.00     0.014 A 
HETATM   13  C   UNL     1      -4.721  -3.240 -34.554  1.00  0.00     0.007 A 
HETATM   14  C   UNL     1      -6.079  -3.264 -34.881  1.00  0.00    -0.062 A 
HETATM   15  C   UNL     1      -6.682  -4.452 -35.570  1.00  0.00     0.048 C 
HETATM   16  C   UNL     1      -6.886  -2.186 -34.505  1.00  0.00     0.007 A 
HETATM   17  C   UNL     1      -6.336  -1.095 -33.823  1.00  0.00     0.014 A 
ENDBRANCH   9  11
ENDBRANCH   1   5
BRANCH   2  18
HETATM   18  N   UNL     1      -2.684   5.280 -30.644  1.00  0.00    -0.249 N 
HETATM   19  C   UNL     1      -1.506   5.498 -29.945  1.00  0.00     0.339 C 
HETATM   20  N   UNL     1      -1.533   6.710 -29.285  1.00  0.00    -0.306 N 
HETATM   21  O   UNL     1      -0.566   4.711 -30.002  1.00  0.00    -0.245 OA
HETATM   22  H   UNL     1      -2.035   7.420 -29.800  1.00  0.00     0.171 HD
HETATM   23  H   UNL     1      -3.546   5.664 -30.264  1.00  0.00     0.192 HD
BRANCH  20  24
HETATM   24  C   UNL     1      -0.508   7.167 -28.422  1.00  0.00     0.058 A 
HETATM   25  C   UNL     1      -0.428   6.895 -27.043  1.00  0.00     0.060 A 
HETATM   26 CL   UNL     1      -1.700   6.140 -26.145  1.00  0.00    -0.082 Cl
HETATM   27  C   UNL     1       0.657   7.374 -26.297  1.00  0.00     0.026 A 
HETATM   28  C   UNL     1       1.647   8.148 -26.902  1.00  0.00     0.002 A 
HETATM   29  C   UNL     1       1.545   8.469 -28.252  1.00  0.00     0.002 A 
HETATM   30  C   UNL     1       0.468   7.991 -29.004  1.00  0.00     0.031 A 
ENDBRANCH  20  24
ENDBRANCH   2  18
TORSDOF 4
ENDMDL
MODEL 3
REMARK VINA RESULT:      -8.5      6.919      9.838
REMARK  4 active torsions:
REMARK  status: ('A' for Active; 'I' for Inactive)
REMARK    1  A    between atoms: C_5  and  C_6 
REMARK    2  A    between atoms: C_10  and  C_11 
REMARK       I    between atoms: C_11  and  N_12 
REMARK    3  A    between atoms: N_12  and  N_13 
REMARK       I    between atoms: N_13  and  C_14 
REMARK       I    between atoms: C_14  and  N_15 
REMARK    4  A    between atoms: N_15  and  C_16 
ROOT
HETATM    1  C   UNL     1      -5.612   4.099 -32.153  1.00  0.00     0.288 C 
HETATM    2  N   UNL     1      -4.480   4.663 -32.698  1.00  0.00    -0.261 N 
HETATM    3  O   UNL     1      -6.257   4.658 -31.266  1.00  0.00    -0.264 OA
HETATM    4  H   UNL     1      -3.885   4.199 -33.379  1.00  0.00     0.190 HD
ENDROOT
BRANCH   1   5
HETATM    5  C   UNL     1      -5.974   2.812 -32.678  1.00  0.00     0.121 A 
HETATM    6  N   UNL     1      -7.271   2.481 -32.946  1.00  0.00    -0.272 N 
HETATM    7  N   UNL     1      -7.439   1.229 -33.394  1.00  0.00    -0.174 NA
HETATM    8  H   UNL     1      -8.088   3.073 -32.830  1.00  0.00     0.189 HD
HETATM    9  C   UNL     1      -6.202   0.707 -33.424  1.00  0.00     0.089 A 
HETATM   10  C   UNL     1      -5.251   1.679 -32.998  1.00  0.00     0.071 A 
BRANCH   9  11
HETATM   11  C   UNL     1      -5.959  -0.686 -33.819  1.00  0.00    -0.006 A 
HETATM   12  C   UNL     1      -4.696  -1.276 -33.674  1.00  0.00     0.014 A 
HETATM   13  C   UNL     1      -4.487  -2.616 -34.018  1.00  0.00     0.007 A 
HETATM   14  C   UNL     1      -5.534  -3.392 -34.524  1.00  0.00    -0.062 A 
HETATM   15  C   UNL     1      -5.328  -4.841 -34.847  1.00  0.00     0.048 C 
HETATM   16  C   UNL     1      -6.796  -2.810 -34.672  1.00  0.00     0.007 A 
HETATM   17  C   UNL     1      -7.004  -1.470 -34.329  1.00  0.00     0.014 A 
ENDBRANCH   9  11
ENDBRANCH   1   5
BRANCH   2  18
HETATM   18  N   UNL     1      -3.976   5.858 -32.154  1.00  0.00    -0.249 N 
HETATM   19  C   UNL     1      -2.911   5.724 -31.275  1.00  0.00     0.339 C 
HETATM   20  N   UNL     1      -2.586   6.933 -30.695  1.00  0.00    -0.306 N 
HETATM   21  O   UNL     1      -2.325   4.656 -31.129  1.00  0.00    -0.245 OA
HETATM   22  H   UNL     1      -2.716   7.712 -31.326  1.00  0.00     0.171 HD
HETATM   23  H   UNL     1      -4.683   6.560 -31.948  1.00  0.00     0.192 HD
BRANCH  20  24
HETATM   24  C   UNL     1      -1.597   7.094 -29.695  1.00  0.00     0.058 A 
HETATM   25  C   UNL     1      -0.211   7.166 -29.930  1.00  0.00     0.060 A 
HETATM   26 CL   UNL     1       0.513   6.844 -31.469  1.00  0.00    -0.082 Cl
HETATM   27  C   UNL     1       0.672   7.363 -28.859  1.00  0.00     0.026 A 
HETATM   28  C   UNL     1       0.192   7.456 -27.554  1.00  0.00     0.002 A 
HETATM   29  C   UNL     1      -1.172   7.328 -27.307  1.00  0.00     0.002 A 
HETATM   30  C   UNL     1      -2.058   7.137 -28.370  1.00  0.00     0.031 A 
ENDBRANCH  20  24
ENDBRANCH   2  18
TORSDOF 4
ENDMDL
MODEL 4
REMARK VINA RESULT:      -8.4      9.614     11.778
REMARK  4 active torsions:
REMARK  status: ('A' for Active; 'I' for Inactive)
REMARK    1  A    between atoms: C_5  and  C_6 
REMARK    2  A    between atoms: C_10  and  C_11 
REMARK       I    between atoms: C_11  and  N_12 
REMARK    3  A    between atoms: N_12  and  N_13 
REMARK       I    between atoms: N_13  and  C_14 
REMARK       I    between atoms: C_14  and  N_15 
REMARK    4  A    between atoms: N_15  and  C_16 
ROOT
HETATM    1  C   UNL     1      -1.737   4.935 -31.639  1.00  0.00     0.288 C 
HETATM    2  N   UNL     1      -1.484   5.369 -30.357  1.00  0.00    -0.261 N 
HETATM    3  O   UNL     1      -1.150   5.403 -32.613  1.00  0.00    -0.264 OA
HETATM    4  H   UNL     1      -1.999   5.056 -29.537  1.00  0.00     0.190 HD
ENDROOT
BRANCH   1   5
HETATM    5  C   UNL     1      -2.742   3.915 -31.757  1.00  0.00     0.121 A 
HETATM    6  N   UNL     1      -3.667   3.697 -30.776  1.00  0.00    -0.272 N 
HETATM    7  N   UNL     1      -4.506   2.683 -31.027  1.00  0.00    -0.174 NA
HETATM    8  H   UNL     1      -3.763   4.208 -29.904  1.00  0.00     0.189 HD
HETATM    9  C   UNL     1      -4.123   2.208 -32.223  1.00  0.00     0.089 A 
HETATM   10  C   UNL     1      -3.027   2.969 -32.722  1.00  0.00     0.071 A 
BRANCH   9  11
HETATM   11  C   UNL     1      -4.773   1.044 -32.839  1.00  0.00    -0.006 A 
HETATM   12  C   UNL     1      -4.151  -0.211 -32.860  1.00  0.00     0.014 A 
HETATM   13  C   UNL     1      -4.798  -1.322 -33.415  1.00  0.00     0.007 A 
HETATM   14  C   UNL     1      -6.075  -1.198 -33.969  1.00  0.00    -0.062 A 
HETATM   15  C   UNL     1      -6.792  -2.394 -34.520  1.00  0.00     0.048 C 
HETATM   16  C   UNL     1      -6.701   0.052 -33.952  1.00  0.00     0.007 A 
HETATM   17  C   UNL     1      -6.053   1.161 -33.398  1.00  0.00     0.014 A 
ENDBRANCH   9  11
ENDBRANCH   1   5
BRANCH   2  18
HETATM   18  N   UNL     1      -0.613   6.456 -30.157  1.00  0.00    -0.249 N 
HETATM   19  C   UNL     1      -0.392   6.823 -28.837  1.00  0.00     0.339 C 
HETATM   20  N   UNL     1       0.359   7.978 -28.759  1.00  0.00    -0.306 N 
HETATM   21  O   UNL     1      -0.777   6.130 -27.901  1.00  0.00    -0.245 OA
HETATM   22  H   UNL     1       1.047   8.043 -29.497  1.00  0.00     0.171 HD
HETATM   23  H   UNL     1      -0.691   7.192 -30.854  1.00  0.00     0.192 HD
BRANCH  20  24
HETATM   24  C   UNL     1       0.672   8.641 -27.548  1.00  0.00     0.058 A 
HETATM   25  C   UNL     1      -0.054   9.715 -27.000  1.00  0.00     0.060 A 
HETATM   26 CL   UNL     1      -1.320  10.539 -27.846  1.00  0.00    -0.082 Cl
HETATM   27  C   UNL     1       0.333  10.268 -25.772  1.00  0.00     0.026 A 
HETATM   28  C   UNL     1       1.454   9.784 -25.099  1.00  0.00     0.002 A 
HETATM   29  C   UNL     1       2.210   8.761 -25.662  1.00  0.00     0.002 A 
HETATM   30  C   UNL     1       1.827   8.201 -26.884  1.00  0.00     0.031 A 
ENDBRANCH  20  24
ENDBRANCH   2  18
TORSDOF 4
ENDMDL
MODEL 5
REMARK VINA RESULT:      -8.2      9.364     11.896
REMARK  4 active torsions:
REMARK  status: ('A' for Active; 'I' for Inactive)
REMARK    1  A    between atoms: C_5  and  C_6 
REMARK    2  A    between atoms: C_10  and  C_11 
REMARK       I    between atoms: C_11  and  N_12 
REMARK    3  A    between atoms: N_12  and  N_13 
REMARK       I    between atoms: N_13  and  C_14 
REMARK       I    between atoms: C_14  and  N_15 
REMARK    4  A    between atoms: N_15  and  C_16 
ROOT
HETATM    1  C   UNL     1      -1.415   4.898 -31.479  1.00  0.00     0.288 C 
HETATM    2  N   UNL     1      -2.490   4.114 -31.125  1.00  0.00    -0.261 N 
HETATM    3  O   UNL     1      -1.103   5.083 -32.655  1.00  0.00    -0.264 OA
HETATM    4  H   UNL     1      -2.733   3.882 -30.164  1.00  0.00     0.190 HD
ENDROOT
BRANCH   1   5
HETATM    5  C   UNL     1      -0.680   5.468 -30.385  1.00  0.00     0.121 A 
HETATM    6  N   UNL     1       0.171   4.721 -29.622  1.00  0.00    -0.272 N 
HETATM    7  N   UNL     1       0.747   5.398 -28.618  1.00  0.00    -0.174 NA
HETATM    8  H   UNL     1       0.388   3.736 -29.737  1.00  0.00     0.189 HD
HETATM    9  C   UNL     1       0.257   6.644 -28.719  1.00  0.00     0.089 A 
HETATM   10  C   UNL     1      -0.630   6.732 -29.830  1.00  0.00     0.071 A 
BRANCH   9  11
HETATM   11  C   UNL     1       0.612   7.695 -27.757  1.00  0.00    -0.006 A 
HETATM   12  C   UNL     1       1.592   7.485 -26.777  1.00  0.00     0.014 A 
HETATM   13  C   UNL     1       1.950   8.508 -25.890  1.00  0.00     0.007 A 
HETATM   14  C   UNL     1       1.327   9.757 -25.957  1.00  0.00    -0.062 A 
HETATM   15  C   UNL     1       1.740  10.871 -25.043  1.00  0.00     0.048 C 
HETATM   16  C   UNL     1       0.348   9.974 -26.932  1.00  0.00     0.007 A 
HETATM   17  C   UNL     1      -0.009   8.950 -27.817  1.00  0.00     0.014 A 
ENDBRANCH   9  11
ENDBRANCH   1   5
BRANCH   2  18
HETATM   18  N   UNL     1      -3.187   3.408 -32.122  1.00  0.00    -0.249 N 
HETATM   19  C   UNL     1      -4.530   3.168 -31.871  1.00  0.00     0.339 C 
HETATM   20  N   UNL     1      -5.082   2.354 -32.839  1.00  0.00    -0.306 N 
HETATM   21  O   UNL     1      -5.116   3.698 -30.933  1.00  0.00    -0.245 OA
HETATM   22  H   UNL     1      -4.690   2.523 -33.756  1.00  0.00     0.171 HD
HETATM   23  H   UNL     1      -2.646   2.679 -32.580  1.00  0.00     0.192 HD
BRANCH  20  24
HETATM   24  C   UNL     1      -6.411   1.869 -32.805  1.00  0.00     0.058 A 
HETATM   25  C   UNL     1      -6.859   0.788 -32.022  1.00  0.00     0.060 A 
HETATM   26 CL   UNL     1      -5.796  -0.259 -31.145  1.00  0.00    -0.082 Cl
HETATM   27  C   UNL     1      -8.211   0.420 -32.044  1.00  0.00     0.026 A 
HETATM   28  C   UNL     1      -9.116   1.096 -32.862  1.00  0.00     0.002 A 
HETATM   29  C   UNL     1      -8.670   2.128 -33.682  1.00  0.00     0.002 A 
HETATM   30  C   UNL     1      -7.324   2.504 -33.661  1.00  0.00     0.031 A 
ENDBRANCH  20  24
ENDBRANCH   2  18
TORSDOF 4
ENDMDL
MODEL 6
REMARK VINA RESULT:      -8.1      3.858     10.349
REMARK  4 active torsions:
REMARK  status: ('A' for Active; 'I' for Inactive)
REMARK    1  A    between atoms: C_5  and  C_6 
REMARK    2  A    between atoms: C_10  and  C_11 
REMARK       I    between atoms: C_11  and  N_12 
REMARK    3  A    between atoms: N_12  and  N_13 
REMARK       I    between atoms: N_13  and  C_14 
REMARK       I    between atoms: C_14  and  N_15 
REMARK    4  A    between atoms: N_15  and  C_16 
ROOT
HETATM    1  C   UNL     1     -10.176   1.396 -33.890  1.00  0.00     0.288 C 
HETATM    2  N   UNL     1     -10.965   1.699 -34.977  1.00  0.00    -0.261 N 
HETATM    3  O   UNL     1     -10.494   1.713 -32.745  1.00  0.00    -0.264 OA
HETATM    4  H   UNL     1     -10.699   1.516 -35.942  1.00  0.00     0.190 HD
ENDROOT
BRANCH   1   5
HETATM    5  C   UNL     1      -8.953   0.703 -34.189  1.00  0.00     0.121 A 
HETATM    6  N   UNL     1      -8.142   1.085 -35.219  1.00  0.00    -0.272 N 
HETATM    7  N   UNL     1      -7.062   0.308 -35.385  1.00  0.00    -0.174 NA
HETATM    8  H   UNL     1      -8.284   1.867 -35.850  1.00  0.00     0.189 HD
HETATM    9  C   UNL     1      -7.162  -0.628 -34.428  1.00  0.00     0.089 A 
HETATM   10  C   UNL     1      -8.330  -0.402 -33.644  1.00  0.00     0.071 A 
BRANCH   9  11
HETATM   11  C   UNL     1      -6.182  -1.714 -34.302  1.00  0.00    -0.006 A 
HETATM   12  C   UNL     1      -4.955  -1.517 -33.653  1.00  0.00     0.014 A 
HETATM   13  C   UNL     1      -4.045  -2.570 -33.505  1.00  0.00     0.007 A 
HETATM   14  C   UNL     1      -4.338  -3.839 -34.014  1.00  0.00    -0.062 A 
HETATM   15  C   UNL     1      -3.389  -4.982 -33.815  1.00  0.00     0.048 C 
HETATM   16  C   UNL     1      -5.559  -4.043 -34.663  1.00  0.00     0.007 A 
HETATM   17  C   UNL     1      -6.467  -2.989 -34.811  1.00  0.00     0.014 A 
ENDBRANCH   9  11
ENDBRANCH   1   5
BRANCH   2  18
HETATM   18  N   UNL     1     -12.113   2.491 -34.795  1.00  0.00    -0.249 N 
HETATM   19  C   UNL     1     -11.982   3.834 -35.121  1.00  0.00     0.339 C 
HETATM   20  N   UNL     1     -13.114   4.544 -34.776  1.00  0.00    -0.306 N 
HETATM   21  O   UNL     1     -10.993   4.263 -35.706  1.00  0.00    -0.245 OA
HETATM   22  H   UNL     1     -13.960   4.004 -34.893  1.00  0.00     0.171 HD
HETATM   23  H   UNL     1     -12.671   2.247 -33.981  1.00  0.00     0.192 HD
BRANCH  20  24
HETATM   24  C   UNL     1     -13.242   5.948 -34.909  1.00  0.00     0.058 A 
HETATM   25  C   UNL     1     -12.893   6.890 -33.923  1.00  0.00     0.060 A 
HETATM   26 CL   UNL     1     -12.459   6.459 -32.304  1.00  0.00    -0.082 Cl
HETATM   27  C   UNL     1     -13.031   8.260 -34.184  1.00  0.00     0.026 A 
HETATM   28  C   UNL     1     -13.543   8.701 -35.403  1.00  0.00     0.002 A 
HETATM   29  C   UNL     1     -13.944   7.774 -36.360  1.00  0.00     0.002 A 
HETATM   30  C   UNL     1     -13.805   6.406 -36.110  1.00  0.00     0.031 A 
ENDBRANCH  20  24
ENDBRANCH   2  18
TORSDOF 4
ENDMDL
MODEL 7
REMARK VINA RESULT:      -8.1      5.194     10.243
REMARK  4 active torsions:
REMARK  status: ('A' for Active; 'I' for Inactive)
REMARK    1  A    between atoms: C_5  and  C_6 
REMARK    2  A    between atoms: C_10  and  C_11 
REMARK       I    between atoms: C_11  and  N_12 
REMARK    3  A    between atoms: N_12  and  N_13 
REMARK       I    between atoms: N_13  and  C_14 
REMARK       I    between atoms: C_14  and  N_15 
REMARK    4  A    between atoms: N_15  and  C_16 
ROOT
HETATM    1  C   UNL     1      -7.036   4.587 -33.238  1.00  0.00     0.288 C 
HETATM    2  N   UNL     1      -8.286   4.711 -33.802  1.00  0.00    -0.261 N 
HETATM    3  O   UNL     1      -6.428   5.553 -32.780  1.00  0.00    -0.264 OA
HETATM    4  H   UNL     1      -8.786   3.948 -34.253  1.00  0.00     0.190 HD
ENDROOT
BRANCH   1   5
HETATM    5  C   UNL     1      -6.490   3.258 -33.237  1.00  0.00     0.121 A 
HETATM    6  N   UNL     1      -5.298   2.969 -32.637  1.00  0.00    -0.272 N 
HETATM    7  N   UNL     1      -4.914   1.691 -32.762  1.00  0.00    -0.174 NA
HETATM    8  H   UNL     1      -4.696   3.614 -32.134  1.00  0.00     0.189 HD
HETATM    9  C   UNL     1      -5.892   1.108 -33.475  1.00  0.00     0.089 A 
HETATM   10  C   UNL     1      -6.910   2.058 -33.777  1.00  0.00     0.071 A 
BRANCH   9  11
HETATM   11  C   UNL     1      -5.822  -0.304 -33.873  1.00  0.00    -0.006 A 
HETATM   12  C   UNL     1      -4.657  -1.059 -33.681  1.00  0.00     0.014 A 
HETATM   13  C   UNL     1      -4.615  -2.414 -34.028  1.00  0.00     0.007 A 
HETATM   14  C   UNL     1      -5.735  -3.040 -34.585  1.00  0.00    -0.062 A 
HETATM   15  C   UNL     1      -5.712  -4.503 -34.912  1.00  0.00     0.048 C 
HETATM   16  C   UNL     1      -6.901  -2.293 -34.779  1.00  0.00     0.007 A 
HETATM   17  C   UNL     1      -6.940  -0.938 -34.433  1.00  0.00     0.014 A 
ENDBRANCH   9  11
ENDBRANCH   1   5
BRANCH   2  18
HETATM   18  N   UNL     1      -8.843   5.993 -33.967  1.00  0.00    -0.249 N 
HETATM   19  C   UNL     1      -9.698   6.149 -35.048  1.00  0.00     0.339 C 
HETATM   20  N   UNL     1     -10.076   7.468 -35.200  1.00  0.00    -0.306 N 
HETATM   21  O   UNL     1     -10.092   5.190 -35.704  1.00  0.00    -0.245 OA
HETATM   22  H   UNL     1     -10.175   7.946 -34.315  1.00  0.00     0.171 HD
HETATM   23  H   UNL     1      -8.215   6.759 -33.736  1.00  0.00     0.192 HD
BRANCH  20  24
HETATM   24  C   UNL     1     -10.875   7.947 -36.266  1.00  0.00     0.058 A 
HETATM   25  C   UNL     1     -12.272   7.799 -36.361  1.00  0.00     0.060 A 
HETATM   26 CL   UNL     1     -13.201   6.807 -35.289  1.00  0.00    -0.082 Cl
HETATM   27  C   UNL     1     -12.962   8.350 -37.449  1.00  0.00     0.026 A 
HETATM   28  C   UNL     1     -12.272   9.018 -38.460  1.00  0.00     0.002 A 
HETATM   29  C   UNL     1     -10.886   9.118 -38.402  1.00  0.00     0.002 A 
HETATM   30  C   UNL     1     -10.191   8.576 -37.317  1.00  0.00     0.031 A 
ENDBRANCH  20  24
ENDBRANCH   2  18
TORSDOF 4
ENDMDL
MODEL 8
REMARK VINA RESULT:      -8.1      7.260     10.777
REMARK  4 active torsions:
REMARK  status: ('A' for Active; 'I' for Inactive)
REMARK    1  A    between atoms: C_5  and  C_6 
REMARK    2  A    between atoms: C_10  and  C_11 
REMARK       I    between atoms: C_11  and  N_12 
REMARK    3  A    between atoms: N_12  and  N_13 
REMARK       I    between atoms: N_13  and  C_14 
REMARK       I    between atoms: C_14  and  N_15 
REMARK    4  A    between atoms: N_15  and  C_16 
ROOT
HETATM    1  C   UNL     1      -5.274   3.725 -31.469  1.00  0.00     0.288 C 
HETATM    2  N   UNL     1      -4.531   4.082 -30.366  1.00  0.00    -0.261 N 
HETATM    3  O   UNL     1      -6.115   4.477 -31.960  1.00  0.00    -0.264 OA
HETATM    4  H   UNL     1      -3.880   3.460 -29.893  1.00  0.00     0.190 HD
ENDROOT
BRANCH   1   5
HETATM    5  C   UNL     1      -5.011   2.413 -31.991  1.00  0.00     0.121 A 
HETATM    6  N   UNL     1      -3.745   1.904 -32.059  1.00  0.00    -0.272 N 
HETATM    7  N   UNL     1      -3.672   0.684 -32.608  1.00  0.00    -0.174 NA
HETATM    8  H   UNL     1      -2.890   2.356 -31.752  1.00  0.00     0.189 HD
HETATM    9  C   UNL     1      -4.940   0.370 -32.918  1.00  0.00     0.089 A 
HETATM   10  C   UNL     1      -5.814   1.426 -32.529  1.00  0.00     0.071 A 
BRANCH   9  11
HETATM   11  C   UNL     1      -5.282  -0.888 -33.594  1.00  0.00    -0.006 A 
HETATM   12  C   UNL     1      -4.314  -1.871 -33.837  1.00  0.00     0.014 A 
HETATM   13  C   UNL     1      -4.660  -3.083 -34.447  1.00  0.00     0.007 A 
HETATM   14  C   UNL     1      -5.980  -3.331 -34.836  1.00  0.00    -0.062 A 
HETATM   15  C   UNL     1      -6.366  -4.646 -35.444  1.00  0.00     0.048 C 
HETATM   16  C   UNL     1      -6.951  -2.355 -34.596  1.00  0.00     0.007 A 
HETATM   17  C   UNL     1      -6.603  -1.144 -33.988  1.00  0.00     0.014 A 
ENDBRANCH   9  11
ENDBRANCH   1   5
BRANCH   2  18
HETATM   18  N   UNL     1      -4.813   5.293 -29.708  1.00  0.00    -0.249 N 
HETATM   19  C   UNL     1      -3.884   6.309 -29.879  1.00  0.00     0.339 C 
HETATM   20  N   UNL     1      -4.182   7.397 -29.085  1.00  0.00    -0.306 N 
HETATM   21  O   UNL     1      -2.977   6.222 -30.700  1.00  0.00    -0.245 OA
HETATM   22  H   UNL     1      -5.177   7.540 -28.981  1.00  0.00     0.171 HD
HETATM   23  H   UNL     1      -5.245   5.186 -28.793  1.00  0.00     0.192 HD
BRANCH  20  24
HETATM   24  C   UNL     1      -3.368   8.551 -28.981  1.00  0.00     0.058 A 
HETATM   25  C   UNL     1      -2.241   8.676 -28.147  1.00  0.00     0.060 A 
HETATM   26 CL   UNL     1      -1.809   7.505 -26.947  1.00  0.00    -0.082 Cl
HETATM   27  C   UNL     1      -1.490   9.859 -28.157  1.00  0.00     0.026 A 
HETATM   28  C   UNL     1      -1.867  10.931 -28.965  1.00  0.00     0.002 A 
HETATM   29  C   UNL     1      -3.013  10.836 -29.749  1.00  0.00     0.002 A 
HETATM   30  C   UNL     1      -3.764   9.657 -29.748  1.00  0.00     0.031 A 
ENDBRANCH  20  24
ENDBRANCH   2  18
TORSDOF 4
ENDMDL
MODEL 9
REMARK VINA RESULT:      -8.0     10.352     12.583
REMARK  4 active torsions:
REMARK  status: ('A' for Active; 'I' for Inactive)
REMARK    1  A    between atoms: C_5  and  C_6 
REMARK    2  A    between atoms: C_10  and  C_11 
REMARK       I    between atoms: C_11  and  N_12 
REMARK    3  A    between atoms: N_12  and  N_13 
REMARK       I    between atoms: N_13  and  C_14 
REMARK       I    between atoms: C_14  and  N_15 
REMARK    4  A    between atoms: N_15  and  C_16 
ROOT
HETATM    1  C   UNL     1      -0.487   5.297 -30.397  1.00  0.00     0.288 C 
HETATM    2  N   UNL     1      -1.733   5.229 -30.978  1.00  0.00    -0.261 N 
HETATM    3  O   UNL     1       0.390   4.468 -30.637  1.00  0.00    -0.264 OA
HETATM    4  H   UNL     1      -2.503   5.854 -30.750  1.00  0.00     0.190 HD
ENDROOT
BRANCH   1   5
HETATM    5  C   UNL     1      -0.290   6.389 -29.485  1.00  0.00     0.121 A 
HETATM    6  N   UNL     1      -0.982   7.561 -29.604  1.00  0.00    -0.272 N 
HETATM    7  N   UNL     1      -0.651   8.489 -28.696  1.00  0.00    -0.174 NA
HETATM    8  H   UNL     1      -1.689   7.784 -30.298  1.00  0.00     0.189 HD
HETATM    9  C   UNL     1       0.300   7.911 -27.945  1.00  0.00     0.089 A 
HETATM   10  C   UNL     1       0.541   6.583 -28.399  1.00  0.00     0.071 A 
BRANCH   9  11
HETATM   11  C   UNL     1       0.968   8.631 -26.852  1.00  0.00    -0.006 A 
HETATM   12  C   UNL     1       1.891   7.990 -26.015  1.00  0.00     0.014 A 
HETATM   13  C   UNL     1       2.550   8.697 -25.002  1.00  0.00     0.007 A 
HETATM   14  C   UNL     1       2.291  10.055 -24.798  1.00  0.00    -0.062 A 
HETATM   15  C   UNL     1       3.030  10.828 -23.748  1.00  0.00     0.048 C 
HETATM   16  C   UNL     1       1.370  10.701 -25.630  1.00  0.00     0.007 A 
HETATM   17  C   UNL     1       0.712   9.993 -26.641  1.00  0.00     0.014 A 
ENDBRANCH   9  11
ENDBRANCH   1   5
BRANCH   2  18
HETATM   18  N   UNL     1      -2.060   4.120 -31.781  1.00  0.00    -0.249 N 
HETATM   19  C   UNL     1      -3.339   3.609 -31.619  1.00  0.00     0.339 C 
HETATM   20  N   UNL     1      -3.508   2.447 -32.344  1.00  0.00    -0.306 N 
HETATM   21  O   UNL     1      -4.192   4.198 -30.962  1.00  0.00    -0.245 OA
HETATM   22  H   UNL     1      -3.000   2.459 -33.218  1.00  0.00     0.171 HD
HETATM   23  H   UNL     1      -1.295   3.466 -31.927  1.00  0.00     0.192 HD
BRANCH  20  24
HETATM   24  C   UNL     1      -4.680   1.653 -32.310  1.00  0.00     0.058 A 
HETATM   25  C   UNL     1      -5.821   1.858 -33.109  1.00  0.00     0.060 A 
HETATM   26 CL   UNL     1      -6.050   3.257 -34.103  1.00  0.00    -0.082 Cl
HETATM   27  C   UNL     1      -6.910   0.981 -33.012  1.00  0.00     0.026 A 
HETATM   28  C   UNL     1      -6.888  -0.077 -32.105  1.00  0.00     0.002 A 
HETATM   29  C   UNL     1      -5.788  -0.252 -31.272  1.00  0.00     0.002 A 
HETATM   30  C   UNL     1      -4.696   0.615 -31.367  1.00  0.00     0.031 A 
ENDBRANCH  20  24
ENDBRANCH   2  18
TORSDOF 4
ENDMDL
MODEL 10
REMARK VINA RESULT:      -7.9      5.065     10.564
REMARK  4 active torsions:
REMARK  status: ('A' for Active; 'I' for Inactive)
REMARK    1  A    between atoms: C_5  and  C_6 
REMARK    2  A    between atoms: C_10  and  C_11 
REMARK       I    between atoms: C_11  and  N_12 
REMARK    3  A    between atoms: N_12  and  N_13 
REMARK       I    between atoms: N_13  and  C_14 
REMARK       I    between atoms: C_14  and  N_15 
REMARK    4  A    between atoms: N_15  and  C_16 
ROOT
HETATM    1  C   UNL     1     -11.891   2.015 -34.718  1.00  0.00     0.288 C 
HETATM    2  N   UNL     1     -12.117   3.234 -34.119  1.00  0.00    -0.261 N 
HETATM    3  O   UNL     1     -12.530   1.645 -35.703  1.00  0.00    -0.264 OA
HETATM    4  H   UNL     1     -11.658   3.541 -33.264  1.00  0.00     0.190 HD
ENDROOT
BRANCH   1   5
HETATM    5  C   UNL     1     -10.875   1.205 -34.106  1.00  0.00     0.121 A 
HETATM    6  N   UNL     1     -11.160   0.337 -33.091  1.00  0.00    -0.272 N 
HETATM    7  N   UNL     1     -10.092  -0.312 -32.607  1.00  0.00    -0.174 NA
HETATM    8  H   UNL     1     -12.071   0.156 -32.681  1.00  0.00     0.189 HD
HETATM    9  C   UNL     1      -9.056   0.145 -33.330  1.00  0.00     0.089 A 
HETATM   10  C   UNL     1      -9.512   1.087 -34.295  1.00  0.00     0.071 A 
BRANCH   9  11
HETATM   11  C   UNL     1      -7.679  -0.294 -33.070  1.00  0.00    -0.006 A 
HETATM   12  C   UNL     1      -6.958  -1.033 -34.018  1.00  0.00     0.014 A 
HETATM   13  C   UNL     1      -5.633  -1.411 -33.775  1.00  0.00     0.007 A 
HETATM   14  C   UNL     1      -5.004  -1.068 -32.575  1.00  0.00    -0.062 A 
HETATM   15  C   UNL     1      -3.569  -1.428 -32.330  1.00  0.00     0.048 C 
HETATM   16  C   UNL     1      -5.717  -0.331 -31.624  1.00  0.00     0.007 A 
HETATM   17  C   UNL     1      -7.042   0.045 -31.868  1.00  0.00     0.014 A 
ENDBRANCH   9  11
ENDBRANCH   1   5
BRANCH   2  18
HETATM   18  N   UNL     1     -13.181   4.036 -34.568  1.00  0.00    -0.249 N 
HETATM   19  C   UNL     1     -12.828   5.162 -35.298  1.00  0.00     0.339 C 
HETATM   20  N   UNL     1     -13.930   5.948 -35.568  1.00  0.00    -0.306 N 
HETATM   21  O   UNL     1     -11.680   5.344 -35.689  1.00  0.00    -0.245 OA
HETATM   22  H   UNL     1     -14.767   5.403 -35.722  1.00  0.00     0.171 HD
HETATM   23  H   UNL     1     -13.958   4.111 -33.915  1.00  0.00     0.192 HD
BRANCH  20  24
HETATM   24  C   UNL     1     -13.869   7.202 -36.223  1.00  0.00     0.058 A 
HETATM   25  C   UNL     1     -13.475   8.412 -35.621  1.00  0.00     0.060 A 
HETATM   26 CL   UNL     1     -13.217   8.591 -33.918  1.00  0.00    -0.082 Cl
HETATM   27  C   UNL     1     -13.420   9.587 -36.382  1.00  0.00     0.026 A 
HETATM   28  C   UNL     1     -13.783   9.577 -37.728  1.00  0.00     0.002 A 
HETATM   29  C   UNL     1     -14.228   8.397 -38.315  1.00  0.00     0.002 A 
HETATM   30  C   UNL     1     -14.281   7.220 -37.564  1.00  0.00     0.031 A 
ENDBRANCH  20  24
ENDBRANCH   2  18
TORSDOF 4
ENDMDL
