MODEL 1
REMARK VINA RESULT:      -9.9      0.000      0.000
REMARK  8 active torsions:
REMARK  status: ('A' for Active; 'I' for Inactive)
REMARK    1  A    between atoms: C_3  and  N_4 
REMARK       I    between atoms: N_4  and  C_5 
REMARK    2  A    between atoms: C_5  and  C_6 
REMARK    3  A    between atoms: C_7  and  C_8 
REMARK    4  A    between atoms: C_11  and  C_12 
REMARK    5  A    between atoms: C_21  and  C_22 
REMARK    6  A    between atoms: C_22  and  C_23 
REMARK    7  A    between atoms: C_23  and  C_24 
REMARK    8  A    between atoms: C_24  and  O_25 
ROOT
HETATM    1  C   UNL     1      -5.900   2.677 -32.056  1.00  0.00     0.062 C 
HETATM    2  C   UNL     1      -6.776   2.210 -33.209  1.00  0.00     0.202 C 
HETATM    3  N   UNL     1      -8.194   2.287 -32.846  1.00  0.00    -0.083 N 
HETATM    4  C   UNL     1      -8.645   2.426 -31.561  1.00  0.00     0.726 A 
HETATM    5  N   UNL     1      -7.751   2.603 -30.566  1.00  0.00    -0.192 N 
HETATM    6  N   UNL     1      -9.213   2.196 -33.723  1.00  0.00    -0.140 NA
HETATM    7  C   UNL     1     -10.260   2.221 -32.887  1.00  0.00     0.166 A 
HETATM    8  N   UNL     1      -9.952   2.370 -31.553  1.00  0.00    -0.046 NA
HETATM    9  C   UNL     1      -6.401   2.849 -30.807  1.00  0.00     0.037 C 
HETATM   10  C   UNL     1      -5.595   3.327 -29.625  1.00  0.00     0.070 C 
HETATM   11  H   UNL     1      -8.107   2.836 -29.641  1.00  0.00     0.184 HD
ENDROOT
BRANCH   1  12
HETATM   12  C   UNL     1      -4.542   3.165 -32.397  1.00  0.00     0.256 C 
HETATM   13  N   UNL     1      -4.518   4.456 -32.877  1.00  0.00    -0.323 N 
HETATM   14  H   UNL     1      -5.401   4.947 -32.923  1.00  0.00     0.169 HD
HETATM   15  O   UNL     1      -3.592   2.411 -32.223  1.00  0.00    -0.267 OA
BRANCH  13  16
HETATM   16  C   UNL     1      -3.383   5.192 -33.303  1.00  0.00     0.041 A 
HETATM   17  C   UNL     1      -3.124   6.454 -32.721  1.00  0.00    -0.035 A 
HETATM   18  C   UNL     1      -3.980   7.036 -31.628  1.00  0.00     0.050 C 
HETATM   19  C   UNL     1      -1.994   7.186 -33.130  1.00  0.00     0.009 A 
HETATM   20  C   UNL     1      -1.138   6.695 -34.113  1.00  0.00     0.001 A 
HETATM   21  C   UNL     1      -1.398   5.461 -34.694  1.00  0.00     0.002 A 
HETATM   22  C   UNL     1      -2.510   4.717 -34.290  1.00  0.00     0.030 A 
ENDBRANCH  13  16
ENDBRANCH   1  12
BRANCH   2  23
HETATM   23  C   UNL     1      -6.452   0.782 -33.645  1.00  0.00    -0.028 A 
HETATM   24  C   UNL     1      -6.850   0.292 -34.901  1.00  0.00     0.010 A 
HETATM   25  C   UNL     1      -6.539  -1.013 -35.291  1.00  0.00     0.008 A 
HETATM   26  C   UNL     1      -5.817  -1.861 -34.444  1.00  0.00    -0.055 A 
HETATM   27  C   UNL     1      -5.419  -1.373 -33.192  1.00  0.00     0.008 A 
HETATM   28  C   UNL     1      -5.731  -0.068 -32.796  1.00  0.00     0.010 A 
BRANCH  26  29
HETATM   29  C   UNL     1      -5.484  -3.270 -34.900  1.00  0.00     0.010 C 
HETATM   30  C   UNL     1      -4.309  -3.864 -34.118  1.00  0.00     0.015 C 
HETATM   31  C   UNL     1      -6.711  -4.181 -34.822  1.00  0.00     0.015 C 
ENDBRANCH  26  29
ENDBRANCH   2  23
BRANCH   7  32
HETATM   32  C   UNL     1     -11.658   2.048 -33.355  1.00  0.00     0.085 C 
BRANCH  32  33
HETATM   33  C   UNL     1     -11.993   0.600 -33.713  1.00  0.00     0.034 C 
BRANCH  33  34
HETATM   34  C   UNL     1     -13.492   0.317 -33.708  1.00  0.00     0.164 C 
BRANCH  34  35
HETATM   35  O   UNL     1     -13.729  -1.009 -33.247  1.00  0.00    -0.401 OA
HETATM   36  H   UNL     1     -12.878  -1.374 -32.953  1.00  0.00     0.209 HD
ENDBRANCH  34  35
ENDBRANCH  33  34
ENDBRANCH  32  33
ENDBRANCH   7  32
TORSDOF 8
ENDMDL
MODEL 2
REMARK VINA RESULT:      -9.8      2.009      7.671
REMARK  8 active torsions:
REMARK  status: ('A' for Active; 'I' for Inactive)
REMARK    1  A    between atoms: C_3  and  N_4 
REMARK       I    between atoms: N_4  and  C_5 
REMARK    2  A    between atoms: C_5  and  C_6 
REMARK    3  A    between atoms: C_7  and  C_8 
REMARK    4  A    between atoms: C_11  and  C_12 
REMARK    5  A    between atoms: C_21  and  C_22 
REMARK    6  A    between atoms: C_22  and  C_23 
REMARK    7  A    between atoms: C_23  and  C_24 
REMARK    8  A    between atoms: C_24  and  O_25 
ROOT
HETATM    1  C   UNL     1      -8.555   3.199 -33.156  1.00  0.00     0.062 C 
HETATM    2  C   UNL     1      -7.429   2.487 -32.423  1.00  0.00     0.202 C 
HETATM    3  N   UNL     1      -6.250   3.352 -32.320  1.00  0.00    -0.083 N 
HETATM    4  C   UNL     1      -6.070   4.486 -33.065  1.00  0.00     0.726 A 
HETATM    5  N   UNL     1      -7.064   4.905 -33.876  1.00  0.00    -0.192 N 
HETATM    6  N   UNL     1      -5.197   3.116 -31.512  1.00  0.00    -0.140 NA
HETATM    7  C   UNL     1      -4.382   4.119 -31.871  1.00  0.00     0.166 A 
HETATM    8  N   UNL     1      -4.886   4.985 -32.815  1.00  0.00    -0.046 NA
HETATM    9  C   UNL     1      -8.341   4.349 -33.842  1.00  0.00     0.037 C 
HETATM   10  C   UNL     1      -9.414   5.116 -34.574  1.00  0.00     0.070 C 
HETATM   11  H   UNL     1      -6.966   5.816 -34.320  1.00  0.00     0.184 HD
ENDROOT
BRANCH   1  12
HETATM   12  C   UNL     1      -9.935   2.722 -32.895  1.00  0.00     0.256 C 
HETATM   13  N   UNL     1     -10.451   1.932 -33.898  1.00  0.00    -0.323 N 
HETATM   14  H   UNL     1      -9.847   1.731 -34.684  1.00  0.00     0.169 HD
HETATM   15  O   UNL     1     -10.476   3.053 -31.847  1.00  0.00    -0.267 OA
BRANCH  13  16
HETATM   16  C   UNL     1     -11.741   1.344 -33.950  1.00  0.00     0.041 A 
HETATM   17  C   UNL     1     -12.809   2.081 -34.509  1.00  0.00    -0.035 A 
HETATM   18  C   UNL     1     -12.630   3.455 -35.098  1.00  0.00     0.050 C 
HETATM   19  C   UNL     1     -14.091   1.501 -34.575  1.00  0.00     0.009 A 
HETATM   20  C   UNL     1     -14.324   0.220 -34.080  1.00  0.00     0.001 A 
HETATM   21  C   UNL     1     -13.278  -0.500 -33.520  1.00  0.00     0.002 A 
HETATM   22  C   UNL     1     -11.997   0.058 -33.458  1.00  0.00     0.030 A 
ENDBRANCH  13  16
ENDBRANCH   1  12
BRANCH   2  23
HETATM   23  C   UNL     1      -7.026   1.178 -33.102  1.00  0.00    -0.028 A 
HETATM   24  C   UNL     1      -6.588   0.071 -32.356  1.00  0.00     0.010 A 
HETATM   25  C   UNL     1      -6.233  -1.123 -32.989  1.00  0.00     0.008 A 
HETATM   26  C   UNL     1      -6.311  -1.246 -34.381  1.00  0.00    -0.055 A 
HETATM   27  C   UNL     1      -6.748  -0.142 -35.126  1.00  0.00     0.008 A 
HETATM   28  C   UNL     1      -7.102   1.056 -34.496  1.00  0.00     0.010 A 
BRANCH  26  29
HETATM   29  C   UNL     1      -5.929  -2.559 -35.040  1.00  0.00     0.010 C 
HETATM   30  C   UNL     1      -4.509  -2.995 -34.667  1.00  0.00     0.015 C 
HETATM   31  C   UNL     1      -6.943  -3.658 -34.712  1.00  0.00     0.015 C 
ENDBRANCH  26  29
ENDBRANCH   2  23
BRANCH   7  32
HETATM   32  C   UNL     1      -3.008   4.261 -31.329  1.00  0.00     0.085 C 
BRANCH  32  33
HETATM   33  C   UNL     1      -1.988   4.673 -32.391  1.00  0.00     0.034 C 
BRANCH  33  34
HETATM   34  C   UNL     1      -0.673   5.164 -31.794  1.00  0.00     0.164 C 
BRANCH  34  35
HETATM   35  O   UNL     1      -0.481   4.581 -30.509  1.00  0.00    -0.401 OA
HETATM   36  H   UNL     1       0.094   3.805 -30.622  1.00  0.00     0.209 HD
ENDBRANCH  34  35
ENDBRANCH  33  34
ENDBRANCH  32  33
ENDBRANCH   7  32
TORSDOF 8
ENDMDL
MODEL 3
REMARK VINA RESULT:      -9.8      2.237      7.420
REMARK  8 active torsions:
REMARK  status: ('A' for Active; 'I' for Inactive)
REMARK    1  A    between atoms: C_3  and  N_4 
REMARK       I    between atoms: N_4  and  C_5 
REMARK    2  A    between atoms: C_5  and  C_6 
REMARK    3  A    between atoms: C_7  and  C_8 
REMARK    4  A    between atoms: C_11  and  C_12 
REMARK    5  A    between atoms: C_21  and  C_22 
REMARK    6  A    between atoms: C_22  and  C_23 
REMARK    7  A    between atoms: C_23  and  C_24 
REMARK    8  A    between atoms: C_24  and  O_25 
ROOT
HETATM    1  C   UNL     1      -7.266   2.018 -33.185  1.00  0.00     0.062 C 
HETATM    2  C   UNL     1      -6.258   2.537 -32.171  1.00  0.00     0.202 C 
HETATM    3  N   UNL     1      -6.936   3.263 -31.093  1.00  0.00    -0.083 N 
HETATM    4  C   UNL     1      -8.229   3.703 -31.166  1.00  0.00     0.726 A 
HETATM    5  N   UNL     1      -8.976   3.375 -32.241  1.00  0.00    -0.192 N 
HETATM    6  N   UNL     1      -6.358   3.612 -29.926  1.00  0.00    -0.140 NA
HETATM    7  C   UNL     1      -7.346   4.322 -29.364  1.00  0.00     0.166 A 
HETATM    8  N   UNL     1      -8.513   4.393 -30.091  1.00  0.00    -0.046 NA
HETATM    9  C   UNL     1      -8.554   2.445 -33.189  1.00  0.00     0.037 C 
HETATM   10  C   UNL     1      -9.608   1.959 -34.152  1.00  0.00     0.070 C 
HETATM   11  H   UNL     1      -9.969   3.596 -32.219  1.00  0.00     0.184 HD
ENDROOT
BRANCH   1  12
HETATM   12  C   UNL     1      -6.854   0.857 -34.010  1.00  0.00     0.256 C 
HETATM   13  N   UNL     1      -6.636  -0.293 -33.285  1.00  0.00    -0.323 N 
HETATM   14  H   UNL     1      -6.800  -0.248 -32.287  1.00  0.00     0.169 HD
HETATM   15  O   UNL     1      -6.754   1.010 -35.222  1.00  0.00    -0.267 OA
BRANCH  13  16
HETATM   16  C   UNL     1      -6.218  -1.555 -33.780  1.00  0.00     0.041 A 
HETATM   17  C   UNL     1      -4.849  -1.899 -33.716  1.00  0.00    -0.035 A 
HETATM   18  C   UNL     1      -3.812  -1.000 -33.099  1.00  0.00     0.050 C 
HETATM   19  C   UNL     1      -4.428  -3.154 -34.196  1.00  0.00     0.009 A 
HETATM   20  C   UNL     1      -5.337  -4.052 -34.750  1.00  0.00     0.001 A 
HETATM   21  C   UNL     1      -6.680  -3.709 -34.825  1.00  0.00     0.002 A 
HETATM   22  C   UNL     1      -7.116  -2.471 -34.342  1.00  0.00     0.030 A 
ENDBRANCH  13  16
ENDBRANCH   1  12
BRANCH   2  23
HETATM   23  C   UNL     1      -5.212   3.453 -32.805  1.00  0.00    -0.028 A 
HETATM   24  C   UNL     1      -3.851   3.351 -32.472  1.00  0.00     0.010 A 
HETATM   25  C   UNL     1      -2.903   4.188 -33.066  1.00  0.00     0.008 A 
HETATM   26  C   UNL     1      -3.287   5.143 -34.015  1.00  0.00    -0.055 A 
HETATM   27  C   UNL     1      -4.645   5.245 -34.348  1.00  0.00     0.008 A 
HETATM   28  C   UNL     1      -5.597   4.411 -33.753  1.00  0.00     0.010 A 
BRANCH  26  29
HETATM   29  C   UNL     1      -2.234   6.031 -34.652  1.00  0.00     0.010 C 
HETATM   30  C   UNL     1      -1.870   7.221 -33.760  1.00  0.00     0.015 C 
HETATM   31  C   UNL     1      -0.987   5.227 -35.028  1.00  0.00     0.015 C 
ENDBRANCH  26  29
ENDBRANCH   2  23
BRANCH   7  32
HETATM   32  C   UNL     1      -7.183   5.031 -28.070  1.00  0.00     0.085 C 
BRANCH  32  33
HETATM   33  C   UNL     1      -6.309   6.280 -28.180  1.00  0.00     0.034 C 
BRANCH  33  34
HETATM   34  C   UNL     1      -5.145   6.281 -27.195  1.00  0.00     0.164 C 
BRANCH  34  35
HETATM   35  O   UNL     1      -4.944   4.966 -26.688  1.00  0.00    -0.401 OA
HETATM   36  H   UNL     1      -4.174   4.589 -27.146  1.00  0.00     0.209 HD
ENDBRANCH  34  35
ENDBRANCH  33  34
ENDBRANCH  32  33
ENDBRANCH   7  32
TORSDOF 8
ENDMDL
MODEL 4
REMARK VINA RESULT:      -9.4      2.387      7.220
REMARK  8 active torsions:
REMARK  status: ('A' for Active; 'I' for Inactive)
REMARK    1  A    between atoms: C_3  and  N_4 
REMARK       I    between atoms: N_4  and  C_5 
REMARK    2  A    between atoms: C_5  and  C_6 
REMARK    3  A    between atoms: C_7  and  C_8 
REMARK    4  A    between atoms: C_11  and  C_12 
REMARK    5  A    between atoms: C_21  and  C_22 
REMARK    6  A    between atoms: C_22  and  C_23 
REMARK    7  A    between atoms: C_23  and  C_24 
REMARK    8  A    between atoms: C_24  and  O_25 
ROOT
HETATM    1  C   UNL     1      -7.409   1.620 -31.657  1.00  0.00     0.062 C 
HETATM    2  C   UNL     1      -6.527   2.478 -30.763  1.00  0.00     0.202 C 
HETATM    3  N   UNL     1      -7.295   3.586 -30.189  1.00  0.00    -0.083 N 
HETATM    4  C   UNL     1      -8.518   3.987 -30.653  1.00  0.00     0.726 A 
HETATM    5  N   UNL     1      -9.116   3.275 -31.631  1.00  0.00    -0.192 N 
HETATM    6  N   UNL     1      -6.875   4.358 -29.166  1.00  0.00    -0.140 NA
HETATM    7  C   UNL     1      -7.871   5.253 -29.108  1.00  0.00     0.166 A 
HETATM    8  N   UNL     1      -8.902   5.053 -29.999  1.00  0.00    -0.046 NA
HETATM    9  C   UNL     1      -8.637   2.036 -32.054  1.00  0.00     0.037 C 
HETATM   10  C   UNL     1      -9.570   1.229 -32.922  1.00  0.00     0.070 C 
HETATM   11  H   UNL     1     -10.077   3.507 -31.872  1.00  0.00     0.184 HD
ENDROOT
BRANCH   1  12
HETATM   12  C   UNL     1      -6.979   0.218 -31.881  1.00  0.00     0.256 C 
HETATM   13  N   UNL     1      -6.644  -0.061 -33.187  1.00  0.00    -0.323 N 
HETATM   14  H   UNL     1      -6.693   0.703 -33.849  1.00  0.00     0.169 HD
HETATM   15  O   UNL     1      -6.952  -0.542 -30.920  1.00  0.00    -0.267 OA
BRANCH  13  16
HETATM   16  C   UNL     1      -6.216  -1.305 -33.717  1.00  0.00     0.041 A 
HETATM   17  C   UNL     1      -4.836  -1.609 -33.727  1.00  0.00    -0.035 A 
HETATM   18  C   UNL     1      -3.795  -0.685 -33.157  1.00  0.00     0.050 C 
HETATM   19  C   UNL     1      -4.404  -2.847 -34.242  1.00  0.00     0.009 A 
HETATM   20  C   UNL     1      -5.315  -3.766 -34.756  1.00  0.00     0.001 A 
HETATM   21  C   UNL     1      -6.669  -3.464 -34.757  1.00  0.00     0.002 A 
HETATM   22  C   UNL     1      -7.115  -2.244 -34.239  1.00  0.00     0.030 A 
ENDBRANCH  13  16
ENDBRANCH   1  12
BRANCH   2  23
HETATM   23  C   UNL     1      -5.318   3.045 -31.507  1.00  0.00    -0.028 A 
HETATM   24  C   UNL     1      -5.474   3.871 -32.634  1.00  0.00     0.010 A 
HETATM   25  C   UNL     1      -4.361   4.391 -33.299  1.00  0.00     0.008 A 
HETATM   26  C   UNL     1      -3.064   4.107 -32.854  1.00  0.00    -0.055 A 
HETATM   27  C   UNL     1      -2.908   3.284 -31.730  1.00  0.00     0.008 A 
HETATM   28  C   UNL     1      -4.020   2.759 -31.064  1.00  0.00     0.010 A 
BRANCH  26  29
HETATM   29  C   UNL     1      -1.874   4.696 -33.591  1.00  0.00     0.010 C 
HETATM   30  C   UNL     1      -2.279   5.318 -34.930  1.00  0.00     0.015 C 
HETATM   31  C   UNL     1      -1.131   5.710 -32.719  1.00  0.00     0.015 C 
ENDBRANCH  26  29
ENDBRANCH   2  23
BRANCH   7  32
HETATM   32  C   UNL     1      -7.847   6.414 -28.183  1.00  0.00     0.085 C 
BRANCH  32  33
HETATM   33  C   UNL     1      -6.828   7.478 -28.588  1.00  0.00     0.034 C 
BRANCH  33  34
HETATM   34  C   UNL     1      -5.595   7.494 -27.690  1.00  0.00     0.164 C 
BRANCH  34  35
HETATM   35  O   UNL     1      -5.529   6.284 -26.942  1.00  0.00    -0.401 OA
HETATM   36  H   UNL     1      -6.273   6.285 -26.316  1.00  0.00     0.209 HD
ENDBRANCH  34  35
ENDBRANCH  33  34
ENDBRANCH  32  33
ENDBRANCH   7  32
TORSDOF 8
ENDMDL
MODEL 5
REMARK VINA RESULT:      -9.3      0.947      1.672
REMARK  8 active torsions:
REMARK  status: ('A' for Active; 'I' for Inactive)
REMARK    1  A    between atoms: C_3  and  N_4 
REMARK       I    between atoms: N_4  and  C_5 
REMARK    2  A    between atoms: C_5  and  C_6 
REMARK    3  A    between atoms: C_7  and  C_8 
REMARK    4  A    between atoms: C_11  and  C_12 
REMARK    5  A    between atoms: C_21  and  C_22 
REMARK    6  A    between atoms: C_22  and  C_23 
REMARK    7  A    between atoms: C_23  and  C_24 
REMARK    8  A    between atoms: C_24  and  O_25 
ROOT
HETATM    1  C   UNL     1      -6.716   2.849 -32.133  1.00  0.00     0.062 C 
HETATM    2  C   UNL     1      -7.242   2.335 -33.464  1.00  0.00     0.202 C 
HETATM    3  N   UNL     1      -8.707   2.289 -33.459  1.00  0.00    -0.083 N 
HETATM    4  C   UNL     1      -9.468   2.366 -32.324  1.00  0.00     0.726 A 
HETATM    5  N   UNL     1      -8.862   2.596 -31.140  1.00  0.00    -0.192 N 
HETATM    6  N   UNL     1      -9.471   2.131 -34.558  1.00  0.00    -0.140 NA
HETATM    7  C   UNL     1     -10.689   2.054 -34.004  1.00  0.00     0.166 A 
HETATM    8  N   UNL     1     -10.728   2.202 -32.635  1.00  0.00    -0.046 NA
HETATM    9  C   UNL     1      -7.519   2.956 -31.045  1.00  0.00     0.037 C 
HETATM   10  C   UNL     1      -7.068   3.476 -29.703  1.00  0.00     0.070 C 
HETATM   11  H   UNL     1      -9.450   2.781 -30.330  1.00  0.00     0.184 HD
ENDROOT
BRANCH   1  12
HETATM   12  C   UNL     1      -5.362   3.454 -32.133  1.00  0.00     0.256 C 
HETATM   13  N   UNL     1      -5.325   4.740 -32.625  1.00  0.00    -0.323 N 
HETATM   14  H   UNL     1      -6.205   5.152 -32.906  1.00  0.00     0.169 HD
HETATM   15  O   UNL     1      -4.427   2.787 -31.705  1.00  0.00    -0.267 OA
BRANCH  13  16
HETATM   16  C   UNL     1      -4.185   5.571 -32.770  1.00  0.00     0.041 A 
HETATM   17  C   UNL     1      -3.560   5.666 -34.034  1.00  0.00    -0.035 A 
HETATM   18  C   UNL     1      -4.080   4.955 -35.254  1.00  0.00     0.050 C 
HETATM   19  C   UNL     1      -2.434   6.498 -34.188  1.00  0.00     0.009 A 
HETATM   20  C   UNL     1      -1.917   7.212 -33.111  1.00  0.00     0.001 A 
HETATM   21  C   UNL     1      -2.523   7.110 -31.866  1.00  0.00     0.002 A 
HETATM   22  C   UNL     1      -3.648   6.297 -31.699  1.00  0.00     0.030 A 
ENDBRANCH  13  16
ENDBRANCH   1  12
BRANCH   2  23
HETATM   23  C   UNL     1      -6.703   0.946 -33.807  1.00  0.00    -0.028 A 
HETATM   24  C   UNL     1      -5.916   0.221 -32.895  1.00  0.00     0.010 A 
HETATM   25  C   UNL     1      -5.438  -1.051 -33.217  1.00  0.00     0.008 A 
HETATM   26  C   UNL     1      -5.738  -1.638 -34.452  1.00  0.00    -0.055 A 
HETATM   27  C   UNL     1      -6.524  -0.915 -35.361  1.00  0.00     0.008 A 
HETATM   28  C   UNL     1      -7.001   0.361 -35.044  1.00  0.00     0.010 A 
BRANCH  26  29
HETATM   29  C   UNL     1      -5.214  -3.027 -34.769  1.00  0.00     0.010 C 
HETATM   30  C   UNL     1      -4.162  -3.488 -33.756  1.00  0.00     0.015 C 
HETATM   31  C   UNL     1      -6.357  -4.039 -34.870  1.00  0.00     0.015 C 
ENDBRANCH  26  29
ENDBRANCH   2  23
BRANCH   7  32
HETATM   32  C   UNL     1     -11.911   1.776 -34.799  1.00  0.00     0.085 C 
BRANCH  32  33
HETATM   33  C   UNL     1     -13.146   1.537 -33.930  1.00  0.00     0.034 C 
BRANCH  33  34
HETATM   34  C   UNL     1     -13.512   0.062 -33.810  1.00  0.00     0.164 C 
BRANCH  34  35
HETATM   35  O   UNL     1     -12.553  -0.607 -32.998  1.00  0.00    -0.401 OA
HETATM   36  H   UNL     1     -12.618  -1.558 -33.190  1.00  0.00     0.209 HD
ENDBRANCH  34  35
ENDBRANCH  33  34
ENDBRANCH  32  33
ENDBRANCH   7  32
TORSDOF 8
ENDMDL
MODEL 6
REMARK VINA RESULT:      -9.3      1.834      2.439
REMARK  8 active torsions:
REMARK  status: ('A' for Active; 'I' for Inactive)
REMARK    1  A    between atoms: C_3  and  N_4 
REMARK       I    between atoms: N_4  and  C_5 
REMARK    2  A    between atoms: C_5  and  C_6 
REMARK    3  A    between atoms: C_7  and  C_8 
REMARK    4  A    between atoms: C_11  and  C_12 
REMARK    5  A    between atoms: C_21  and  C_22 
REMARK    6  A    between atoms: C_22  and  C_23 
REMARK    7  A    between atoms: C_23  and  C_24 
REMARK    8  A    between atoms: C_24  and  O_25 
ROOT
HETATM    1  C   UNL     1      -8.123   3.410 -32.884  1.00  0.00     0.062 C 
HETATM    2  C   UNL     1      -8.644   2.521 -34.002  1.00  0.00     0.202 C 
HETATM    3  N   UNL     1     -10.091   2.325 -33.876  1.00  0.00    -0.083 N 
HETATM    4  C   UNL     1     -10.802   2.610 -32.742  1.00  0.00     0.726 A 
HETATM    5  N   UNL     1     -10.175   3.196 -31.701  1.00  0.00    -0.192 N 
HETATM    6  N   UNL     1     -10.880   1.814 -34.842  1.00  0.00    -0.140 NA
HETATM    7  C   UNL     1     -12.053   1.755 -34.196  1.00  0.00     0.166 A 
HETATM    8  N   UNL     1     -12.047   2.242 -32.908  1.00  0.00    -0.046 NA
HETATM    9  C   UNL     1      -8.882   3.706 -31.799  1.00  0.00     0.037 C 
HETATM   10  C   UNL     1      -8.436   4.595 -30.665  1.00  0.00     0.070 C 
HETATM   11  H   UNL     1     -10.743   3.519 -30.921  1.00  0.00     0.184 HD
ENDROOT
BRANCH   1  12
HETATM   12  C   UNL     1      -6.852   4.132 -33.134  1.00  0.00     0.256 C 
HETATM   13  N   UNL     1      -5.801   3.697 -32.358  1.00  0.00    -0.323 N 
HETATM   14  H   UNL     1      -5.981   2.927 -31.727  1.00  0.00     0.169 HD
HETATM   15  O   UNL     1      -6.842   5.015 -33.983  1.00  0.00    -0.267 OA
BRANCH  13  16
HETATM   16  C   UNL     1      -4.473   4.197 -32.352  1.00  0.00     0.041 A 
HETATM   17  C   UNL     1      -4.068   5.056 -31.306  1.00  0.00    -0.035 A 
HETATM   18  C   UNL     1      -4.974   5.433 -30.164  1.00  0.00     0.050 C 
HETATM   19  C   UNL     1      -2.749   5.549 -31.286  1.00  0.00     0.009 A 
HETATM   20  C   UNL     1      -1.845   5.216 -32.291  1.00  0.00     0.001 A 
HETATM   21  C   UNL     1      -2.246   4.382 -33.326  1.00  0.00     0.002 A 
HETATM   22  C   UNL     1      -3.549   3.876 -33.353  1.00  0.00     0.030 A 
ENDBRANCH  13  16
ENDBRANCH   1  12
BRANCH   2  23
HETATM   23  C   UNL     1      -7.959   1.155 -34.028  1.00  0.00    -0.028 A 
HETATM   24  C   UNL     1      -7.987   0.300 -32.913  1.00  0.00     0.010 A 
HETATM   25  C   UNL     1      -7.366  -0.950 -32.954  1.00  0.00     0.008 A 
HETATM   26  C   UNL     1      -6.706  -1.384 -34.110  1.00  0.00    -0.055 A 
HETATM   27  C   UNL     1      -6.677  -0.532 -35.222  1.00  0.00     0.008 A 
HETATM   28  C   UNL     1      -7.296   0.722 -35.184  1.00  0.00     0.010 A 
BRANCH  26  29
HETATM   29  C   UNL     1      -6.049  -2.753 -34.128  1.00  0.00     0.010 C 
HETATM   30  C   UNL     1      -6.893  -3.783 -34.884  1.00  0.00     0.015 C 
HETATM   31  C   UNL     1      -4.632  -2.679 -34.701  1.00  0.00     0.015 C 
ENDBRANCH  26  29
ENDBRANCH   2  23
BRANCH   7  32
HETATM   32  C   UNL     1     -13.268   1.158 -34.804  1.00  0.00     0.085 C 
BRANCH  32  33
HETATM   33  C   UNL     1     -14.179   0.483 -33.778  1.00  0.00     0.034 C 
BRANCH  33  34
HETATM   34  C   UNL     1     -15.213   1.433 -33.184  1.00  0.00     0.164 C 
BRANCH  34  35
HETATM   35  O   UNL     1     -14.856   1.758 -31.846  1.00  0.00    -0.401 OA
HETATM   36  H   UNL     1     -15.449   2.468 -31.547  1.00  0.00     0.209 HD
ENDBRANCH  34  35
ENDBRANCH  33  34
ENDBRANCH  32  33
ENDBRANCH   7  32
TORSDOF 8
ENDMDL
MODEL 7
REMARK VINA RESULT:      -8.9      3.503      6.667
REMARK  8 active torsions:
REMARK  status: ('A' for Active; 'I' for Inactive)
REMARK    1  A    between atoms: C_3  and  N_4 
REMARK       I    between atoms: N_4  and  C_5 
REMARK    2  A    between atoms: C_5  and  C_6 
REMARK    3  A    between atoms: C_7  and  C_8 
REMARK    4  A    between atoms: C_11  and  C_12 
REMARK    5  A    between atoms: C_21  and  C_22 
REMARK    6  A    between atoms: C_22  and  C_23 
REMARK    7  A    between atoms: C_23  and  C_24 
REMARK    8  A    between atoms: C_24  and  O_25 
ROOT
HETATM    1  C   UNL     1      -6.467   1.907 -31.422  1.00  0.00     0.062 C 
HETATM    2  C   UNL     1      -7.182   3.060 -32.110  1.00  0.00     0.202 C 
HETATM    3  N   UNL     1      -7.511   4.114 -31.145  1.00  0.00    -0.083 N 
HETATM    4  C   UNL     1      -7.489   3.939 -29.789  1.00  0.00     0.726 A 
HETATM    5  N   UNL     1      -7.049   2.768 -29.283  1.00  0.00    -0.192 N 
HETATM    6  N   UNL     1      -7.905   5.359 -31.480  1.00  0.00    -0.140 NA
HETATM    7  C   UNL     1      -8.170   5.867 -30.268  1.00  0.00     0.166 A 
HETATM    8  N   UNL     1      -7.919   5.029 -29.205  1.00  0.00    -0.046 NA
HETATM    9  C   UNL     1      -6.428   1.800 -30.070  1.00  0.00     0.037 C 
HETATM   10  C   UNL     1      -5.722   0.696 -29.324  1.00  0.00     0.070 C 
HETATM   11  H   UNL     1      -6.915   2.703 -28.276  1.00  0.00     0.184 HD
ENDROOT
BRANCH   1  12
HETATM   12  C   UNL     1      -5.614   1.042 -32.272  1.00  0.00     0.256 C 
HETATM   13  N   UNL     1      -6.104  -0.235 -32.437  1.00  0.00    -0.323 N 
HETATM   14  H   UNL     1      -6.990  -0.449 -31.999  1.00  0.00     0.169 HD
HETATM   15  O   UNL     1      -4.588   1.519 -32.743  1.00  0.00    -0.267 OA
BRANCH  13  16
HETATM   16  C   UNL     1      -5.512  -1.293 -33.172  1.00  0.00     0.041 A 
HETATM   17  C   UNL     1      -6.093  -1.685 -34.399  1.00  0.00    -0.035 A 
HETATM   18  C   UNL     1      -7.294  -0.996 -34.988  1.00  0.00     0.050 C 
HETATM   19  C   UNL     1      -5.505  -2.728 -35.141  1.00  0.00     0.009 A 
HETATM   20  C   UNL     1      -4.372  -3.390 -34.674  1.00  0.00     0.001 A 
HETATM   21  C   UNL     1      -3.808  -3.013 -33.463  1.00  0.00     0.002 A 
HETATM   22  C   UNL     1      -4.373  -1.972 -32.721  1.00  0.00     0.030 A 
ENDBRANCH  13  16
ENDBRANCH   1  12
BRANCH   2  23
HETATM   23  C   UNL     1      -8.464   2.614 -32.813  1.00  0.00    -0.028 A 
HETATM   24  C   UNL     1      -9.170   1.473 -32.395  1.00  0.00     0.010 A 
HETATM   25  C   UNL     1     -10.345   1.083 -33.041  1.00  0.00     0.008 A 
HETATM   26  C   UNL     1     -10.851   1.823 -34.116  1.00  0.00    -0.055 A 
HETATM   27  C   UNL     1     -10.148   2.961 -34.533  1.00  0.00     0.008 A 
HETATM   28  C   UNL     1      -8.969   3.353 -33.891  1.00  0.00     0.010 A 
BRANCH  26  29
HETATM   29  C   UNL     1     -12.137   1.380 -34.791  1.00  0.00     0.010 C 
HETATM   30  C   UNL     1     -13.021   0.552 -33.853  1.00  0.00     0.015 C 
HETATM   31  C   UNL     1     -12.907   2.577 -35.354  1.00  0.00     0.015 C 
ENDBRANCH  26  29
ENDBRANCH   2  23
BRANCH   7  32
HETATM   32  C   UNL     1      -8.744   7.223 -30.080  1.00  0.00     0.085 C 
BRANCH  32  33
HETATM   33  C   UNL     1      -7.969   8.063 -29.065  1.00  0.00     0.034 C 
BRANCH  33  34
HETATM   34  C   UNL     1      -8.780   8.380 -27.813  1.00  0.00     0.164 C 
BRANCH  34  35
HETATM   35  O   UNL     1      -9.275   7.174 -27.242  1.00  0.00    -0.401 OA
HETATM   36  H   UNL     1     -10.209   7.090 -27.497  1.00  0.00     0.209 HD
ENDBRANCH  34  35
ENDBRANCH  33  34
ENDBRANCH  32  33
ENDBRANCH   7  32
TORSDOF 8
ENDMDL
MODEL 8
REMARK VINA RESULT:      -8.7      2.965      6.851
REMARK  8 active torsions:
REMARK  status: ('A' for Active; 'I' for Inactive)
REMARK    1  A    between atoms: C_3  and  N_4 
REMARK       I    between atoms: N_4  and  C_5 
REMARK    2  A    between atoms: C_5  and  C_6 
REMARK    3  A    between atoms: C_7  and  C_8 
REMARK    4  A    between atoms: C_11  and  C_12 
REMARK    5  A    between atoms: C_21  and  C_22 
REMARK    6  A    between atoms: C_22  and  C_23 
REMARK    7  A    between atoms: C_23  and  C_24 
REMARK    8  A    between atoms: C_24  and  O_25 
ROOT
HETATM    1  C   UNL     1      -8.038   3.170 -32.564  1.00  0.00     0.062 C 
HETATM    2  C   UNL     1      -7.019   2.605 -33.541  1.00  0.00     0.202 C 
HETATM    3  N   UNL     1      -6.760   1.191 -33.259  1.00  0.00    -0.083 N 
HETATM    4  C   UNL     1      -7.114   0.569 -32.092  1.00  0.00     0.726 A 
HETATM    5  N   UNL     1      -7.831   1.252 -31.175  1.00  0.00    -0.192 N 
HETATM    6  N   UNL     1      -6.116   0.350 -34.094  1.00  0.00    -0.140 NA
HETATM    7  C   UNL     1      -6.058  -0.754 -33.335  1.00  0.00     0.166 A 
HETATM    8  N   UNL     1      -6.667  -0.660 -32.103  1.00  0.00    -0.046 NA
HETATM    9  C   UNL     1      -8.397   2.496 -31.443  1.00  0.00     0.037 C 
HETATM   10  C   UNL     1      -9.413   2.989 -30.443  1.00  0.00     0.070 C 
HETATM   11  H   UNL     1      -8.197   0.738 -30.376  1.00  0.00     0.184 HD
ENDROOT
BRANCH   1  12
HETATM   12  C   UNL     1      -8.799   4.366 -33.001  1.00  0.00     0.256 C 
HETATM   13  N   UNL     1      -9.760   4.099 -33.950  1.00  0.00    -0.323 N 
HETATM   14  H   UNL     1      -9.875   3.134 -34.232  1.00  0.00     0.169 HD
HETATM   15  O   UNL     1      -8.524   5.448 -32.495  1.00  0.00    -0.267 OA
BRANCH  13  16
HETATM   16  C   UNL     1     -10.632   5.028 -34.574  1.00  0.00     0.041 A 
HETATM   17  C   UNL     1     -12.026   4.802 -34.523  1.00  0.00    -0.035 A 
HETATM   18  C   UNL     1     -12.636   3.637 -33.793  1.00  0.00     0.050 C 
HETATM   19  C   UNL     1     -12.899   5.725 -35.131  1.00  0.00     0.009 A 
HETATM   20  C   UNL     1     -12.408   6.845 -35.797  1.00  0.00     0.001 A 
HETATM   21  C   UNL     1     -11.038   7.061 -35.857  1.00  0.00     0.002 A 
HETATM   22  C   UNL     1     -10.159   6.160 -35.249  1.00  0.00     0.030 A 
ENDBRANCH  13  16
ENDBRANCH   1  12
BRANCH   2  23
HETATM   23  C   UNL     1      -5.695   3.368 -33.509  1.00  0.00    -0.028 A 
HETATM   24  C   UNL     1      -5.405   4.371 -34.450  1.00  0.00     0.010 A 
HETATM   25  C   UNL     1      -4.195   5.067 -34.403  1.00  0.00     0.008 A 
HETATM   26  C   UNL     1      -3.245   4.787 -33.413  1.00  0.00    -0.055 A 
HETATM   27  C   UNL     1      -3.535   3.788 -32.474  1.00  0.00     0.008 A 
HETATM   28  C   UNL     1      -4.743   3.086 -32.520  1.00  0.00     0.010 A 
BRANCH  26  29
HETATM   29  C   UNL     1      -1.944   5.569 -33.380  1.00  0.00     0.010 C 
HETATM   30  C   UNL     1      -1.031   5.115 -32.238  1.00  0.00     0.015 C 
HETATM   31  C   UNL     1      -1.219   5.491 -34.725  1.00  0.00     0.015 C 
ENDBRANCH  26  29
ENDBRANCH   2  23
BRANCH   7  32
HETATM   32  C   UNL     1      -5.342  -1.980 -33.765  1.00  0.00     0.085 C 
BRANCH  32  33
HETATM   33  C   UNL     1      -6.028  -2.694 -34.930  1.00  0.00     0.034 C 
BRANCH  33  34
HETATM   34  C   UNL     1      -5.744  -4.192 -34.961  1.00  0.00     0.164 C 
BRANCH  34  35
HETATM   35  O   UNL     1      -6.951  -4.905 -35.206  1.00  0.00    -0.401 OA
HETATM   36  H   UNL     1      -7.389  -5.044 -34.350  1.00  0.00     0.209 HD
ENDBRANCH  34  35
ENDBRANCH  33  34
ENDBRANCH  32  33
ENDBRANCH   7  32
TORSDOF 8
ENDMDL
MODEL 9
REMARK VINA RESULT:      -8.7      2.733      6.786
REMARK  8 active torsions:
REMARK  status: ('A' for Active; 'I' for Inactive)
REMARK    1  A    between atoms: C_3  and  N_4 
REMARK       I    between atoms: N_4  and  C_5 
REMARK    2  A    between atoms: C_5  and  C_6 
REMARK    3  A    between atoms: C_7  and  C_8 
REMARK    4  A    between atoms: C_11  and  C_12 
REMARK    5  A    between atoms: C_21  and  C_22 
REMARK    6  A    between atoms: C_22  and  C_23 
REMARK    7  A    between atoms: C_23  and  C_24 
REMARK    8  A    between atoms: C_24  and  O_25 
ROOT
HETATM    1  C   UNL     1      -7.013   1.454 -32.374  1.00  0.00     0.062 C 
HETATM    2  C   UNL     1      -6.581   2.652 -31.543  1.00  0.00     0.202 C 
HETATM    3  N   UNL     1      -7.604   3.702 -31.579  1.00  0.00    -0.083 N 
HETATM    4  C   UNL     1      -8.624   3.741 -32.490  1.00  0.00     0.726 A 
HETATM    5  N   UNL     1      -8.775   2.714 -33.353  1.00  0.00    -0.192 N 
HETATM    6  N   UNL     1      -7.640   4.762 -30.748  1.00  0.00    -0.140 NA
HETATM    7  C   UNL     1      -8.676   5.441 -31.259  1.00  0.00     0.166 A 
HETATM    8  N   UNL     1      -9.311   4.842 -32.324  1.00  0.00    -0.046 NA
HETATM    9  C   UNL     1      -8.063   1.523 -33.230  1.00  0.00     0.037 C 
HETATM   10  C   UNL     1      -8.555   0.370 -34.068  1.00  0.00     0.070 C 
HETATM   11  H   UNL     1      -9.612   2.696 -33.932  1.00  0.00     0.184 HD
ENDROOT
BRANCH   1  12
HETATM   12  C   UNL     1      -6.399   0.146 -32.038  1.00  0.00     0.256 C 
HETATM   13  N   UNL     1      -5.458  -0.279 -32.950  1.00  0.00    -0.323 N 
HETATM   14  H   UNL     1      -5.258   0.337 -33.727  1.00  0.00     0.169 HD
HETATM   15  O   UNL     1      -6.761  -0.421 -31.014  1.00  0.00    -0.267 OA
BRANCH  13  16
HETATM   16  C   UNL     1      -4.716  -1.487 -32.918  1.00  0.00     0.041 A 
HETATM   17  C   UNL     1      -4.985  -2.485 -33.881  1.00  0.00    -0.035 A 
HETATM   18  C   UNL     1      -6.000  -2.305 -34.977  1.00  0.00     0.050 C 
HETATM   19  C   UNL     1      -4.244  -3.683 -33.863  1.00  0.00     0.009 A 
HETATM   20  C   UNL     1      -3.265  -3.905 -32.898  1.00  0.00     0.001 A 
HETATM   21  C   UNL     1      -3.009  -2.931 -31.944  1.00  0.00     0.002 A 
HETATM   22  C   UNL     1      -3.728  -1.732 -31.956  1.00  0.00     0.030 A 
ENDBRANCH  13  16
ENDBRANCH   1  12
BRANCH   2  23
HETATM   23  C   UNL     1      -5.251   3.239 -32.014  1.00  0.00    -0.028 A 
HETATM   24  C   UNL     1      -5.171   4.042 -33.164  1.00  0.00     0.010 A 
HETATM   25  C   UNL     1      -3.950   4.581 -33.577  1.00  0.00     0.008 A 
HETATM   26  C   UNL     1      -2.779   4.339 -32.850  1.00  0.00    -0.055 A 
HETATM   27  C   UNL     1      -2.858   3.539 -31.702  1.00  0.00     0.008 A 
HETATM   28  C   UNL     1      -4.078   2.995 -31.287  1.00  0.00     0.010 A 
BRANCH  26  29
HETATM   29  C   UNL     1      -1.469   4.948 -33.318  1.00  0.00     0.010 C 
HETATM   30  C   UNL     1      -1.468   5.220 -34.825  1.00  0.00     0.015 C 
HETATM   31  C   UNL     1      -1.137   6.218 -32.532  1.00  0.00     0.015 C 
ENDBRANCH  26  29
ENDBRANCH   2  23
BRANCH   7  32
HETATM   32  C   UNL     1      -9.085   6.774 -30.750  1.00  0.00     0.085 C 
BRANCH  32  33
HETATM   33  C   UNL     1     -10.160   7.437 -31.612  1.00  0.00     0.034 C 
BRANCH  33  34
HETATM   34  C   UNL     1      -9.579   8.260 -32.757  1.00  0.00     0.164 C 
BRANCH  34  35
HETATM   35  O   UNL     1      -9.656   7.517 -33.969  1.00  0.00    -0.401 OA
HETATM   36  H   UNL     1     -10.368   7.904 -34.506  1.00  0.00     0.209 HD
ENDBRANCH  34  35
ENDBRANCH  33  34
ENDBRANCH  32  33
ENDBRANCH   7  32
TORSDOF 8
ENDMDL
MODEL 10
REMARK VINA RESULT:      -8.7      1.829      2.387
REMARK  8 active torsions:
REMARK  status: ('A' for Active; 'I' for Inactive)
REMARK    1  A    between atoms: C_3  and  N_4 
REMARK       I    between atoms: N_4  and  C_5 
REMARK    2  A    between atoms: C_5  and  C_6 
REMARK    3  A    between atoms: C_7  and  C_8 
REMARK    4  A    between atoms: C_11  and  C_12 
REMARK    5  A    between atoms: C_21  and  C_22 
REMARK    6  A    between atoms: C_22  and  C_23 
REMARK    7  A    between atoms: C_23  and  C_24 
REMARK    8  A    between atoms: C_24  and  O_25 
ROOT
HETATM    1  C   UNL     1      -7.717   4.359 -32.027  1.00  0.00     0.062 C 
HETATM    2  C   UNL     1      -8.307   3.574 -33.187  1.00  0.00     0.202 C 
HETATM    3  N   UNL     1      -9.761   3.457 -33.047  1.00  0.00    -0.083 N 
HETATM    4  C   UNL     1     -10.437   3.713 -31.886  1.00  0.00     0.726 A 
HETATM    5  N   UNL     1      -9.760   4.196 -30.823  1.00  0.00    -0.192 N 
HETATM    6  N   UNL     1     -10.593   3.054 -34.028  1.00  0.00    -0.140 NA
HETATM    7  C   UNL     1     -11.758   3.025 -33.366  1.00  0.00     0.166 A 
HETATM    8  N   UNL     1     -11.705   3.431 -32.051  1.00  0.00    -0.046 NA
HETATM    9  C   UNL     1      -8.441   4.633 -30.913  1.00  0.00     0.037 C 
HETATM   10  C   UNL     1      -7.925   5.423 -29.735  1.00  0.00     0.070 C 
HETATM   11  H   UNL     1     -10.297   4.504 -30.014  1.00  0.00     0.184 HD
ENDROOT
BRANCH   1  12
HETATM   12  C   UNL     1      -6.408   5.019 -32.256  1.00  0.00     0.256 C 
HETATM   13  N   UNL     1      -5.337   4.153 -32.242  1.00  0.00    -0.323 N 
HETATM   14  H   UNL     1      -5.540   3.170 -32.110  1.00  0.00     0.169 HD
HETATM   15  O   UNL     1      -6.391   6.230 -32.439  1.00  0.00    -0.267 OA
BRANCH  13  16
HETATM   16  C   UNL     1      -3.967   4.478 -32.412  1.00  0.00     0.041 A 
HETATM   17  C   UNL     1      -3.489   4.785 -33.706  1.00  0.00    -0.035 A 
HETATM   18  C   UNL     1      -4.384   4.825 -34.915  1.00  0.00     0.050 C 
HETATM   19  C   UNL     1      -2.133   5.120 -33.881  1.00  0.00     0.009 A 
HETATM   20  C   UNL     1      -1.253   5.135 -32.802  1.00  0.00     0.001 A 
HETATM   21  C   UNL     1      -1.719   4.823 -31.532  1.00  0.00     0.002 A 
HETATM   22  C   UNL     1      -3.066   4.499 -31.341  1.00  0.00     0.030 A 
ENDBRANCH  13  16
ENDBRANCH   1  12
BRANCH   2  23
HETATM   23  C   UNL     1      -7.706   2.173 -33.308  1.00  0.00    -0.028 A 
HETATM   24  C   UNL     1      -6.943   1.798 -34.427  1.00  0.00     0.010 A 
HETATM   25  C   UNL     1      -6.391   0.518 -34.521  1.00  0.00     0.008 A 
HETATM   26  C   UNL     1      -6.580  -0.419 -33.498  1.00  0.00    -0.055 A 
HETATM   27  C   UNL     1      -7.340  -0.045 -32.382  1.00  0.00     0.008 A 
HETATM   28  C   UNL     1      -7.897   1.234 -32.286  1.00  0.00     0.010 A 
BRANCH  26  29
HETATM   29  C   UNL     1      -5.959  -1.798 -33.623  1.00  0.00     0.010 C 
HETATM   30  C   UNL     1      -6.727  -2.687 -34.604  1.00  0.00     0.015 C 
HETATM   31  C   UNL     1      -4.481  -1.706 -34.009  1.00  0.00     0.015 C 
ENDBRANCH  26  29
ENDBRANCH   2  23
BRANCH   7  32
HETATM   32  C   UNL     1     -13.016   2.540 -33.987  1.00  0.00     0.085 C 
BRANCH  32  33
HETATM   33  C   UNL     1     -12.877   1.152 -34.612  1.00  0.00     0.034 C 
BRANCH  33  34
HETATM   34  C   UNL     1     -13.667   0.082 -33.866  1.00  0.00     0.164 C 
BRANCH  34  35
HETATM   35  O   UNL     1     -12.785  -0.699 -33.067  1.00  0.00    -0.401 OA
HETATM   36  H   UNL     1     -11.890  -0.336 -33.178  1.00  0.00     0.209 HD
ENDBRANCH  34  35
ENDBRANCH  33  34
ENDBRANCH  32  33
ENDBRANCH   7  32
TORSDOF 8
ENDMDL
