MODEL 1
REMARK VINA RESULT:      -8.0      0.000      0.000
REMARK  3 active torsions:
REMARK  status: ('A' for Active; 'I' for Inactive)
REMARK    1  A    between atoms: C_2  and  N_3 
REMARK    2  A    between atoms: C_7  and  N_8 
REMARK    3  A    between atoms: N_8  and  C_9 
ROOT
HETATM    1  N   UNL     1      -0.917   6.234 -29.746  1.00  0.00    -0.230 N 
HETATM    2  C   UNL     1      -0.375   5.199 -30.507  1.00  0.00     0.335 A 
HETATM    3  O   UNL     1       0.721   4.660 -30.352  1.00  0.00    -0.246 OA
HETATM    4  N   UNL     1      -1.158   4.692 -31.508  1.00  0.00    -0.294 N 
HETATM    5  C   UNL     1      -2.441   5.041 -31.788  1.00  0.00     0.114 A 
HETATM    6  C   UNL     1      -2.966   6.041 -31.076  1.00  0.00     0.123 A 
HETATM    7  C   UNL     1      -2.194   6.724 -30.020  1.00  0.00     0.259 A 
HETATM    8  O   UNL     1      -2.738   7.700 -29.504  1.00  0.00    -0.267 OA
HETATM    9  H   UNL     1      -0.733   3.923 -32.008  1.00  0.00     0.172 HD
ENDROOT
BRANCH   5  10
HETATM   10  N   UNL     1      -3.097   4.400 -32.816  1.00  0.00    -0.342 N 
HETATM   11  H   UNL     1      -2.548   4.313 -33.666  1.00  0.00     0.167 HD
BRANCH  10  12
HETATM   12  C   UNL     1      -4.099   3.406 -32.736  1.00  0.00     0.036 A 
HETATM   13  C   UNL     1      -3.785   2.209 -32.068  1.00  0.00     0.069 A 
HETATM   14  C   UNL     1      -4.741   1.216 -31.998  1.00  0.00     0.107 A 
HETATM   15  C   UNL     1      -5.978   1.362 -32.574  1.00  0.00     0.105 A 
HETATM   16  O   UNL     1      -4.596   0.014 -31.377  1.00  0.00    -0.323 OA
HETATM   17  O   UNL     1      -6.771   0.274 -32.386  1.00  0.00    -0.323 OA
HETATM   18  C   UNL     1      -6.325   2.505 -33.254  1.00  0.00     0.042 A 
HETATM   19  C   UNL     1      -5.891  -0.574 -31.620  1.00  0.00     0.352 A 
HETATM   20  C   UNL     1      -5.372   3.530 -33.338  1.00  0.00     0.032 A 
ENDBRANCH  10  12
ENDBRANCH   5  10
BRANCH   1  21
HETATM   21  C   UNL     1      -0.141   6.823 -28.672  1.00  0.00     0.047 A 
HETATM   22  C   UNL     1      -0.246   6.366 -27.345  1.00  0.00     0.031 A 
HETATM   23  C   UNL     1       0.501   6.941 -26.307  1.00  0.00     0.021 A 
HETATM   24  C   UNL     1       1.372   7.989 -26.579  1.00  0.00     0.011 A 
HETATM   25  C   UNL     1       1.501   8.464 -27.877  1.00  0.00     0.021 A 
HETATM   26 BR   UNL     1       2.380   8.765 -25.183  1.00  0.00    -0.051 Br
HETATM   27  C   UNL     1       0.751   7.886 -28.910  1.00  0.00     0.031 A 
ENDBRANCH   1  21
TORSDOF 3
ENDMDL
MODEL 2
REMARK VINA RESULT:      -8.0      1.622      2.831
REMARK  3 active torsions:
REMARK  status: ('A' for Active; 'I' for Inactive)
REMARK    1  A    between atoms: C_2  and  N_3 
REMARK    2  A    between atoms: C_7  and  N_8 
REMARK    3  A    between atoms: N_8  and  C_9 
ROOT
HETATM    1  N   UNL     1      -0.871   6.319 -29.973  1.00  0.00    -0.230 N 
HETATM    2  C   UNL     1      -2.151   6.795 -30.257  1.00  0.00     0.335 A 
HETATM    3  O   UNL     1      -2.759   7.685 -29.662  1.00  0.00    -0.246 OA
HETATM    4  N   UNL     1      -2.787   6.251 -31.339  1.00  0.00    -0.294 N 
HETATM    5  C   UNL     1      -2.269   5.348 -32.212  1.00  0.00     0.114 A 
HETATM    6  C   UNL     1      -1.051   4.873 -31.943  1.00  0.00     0.123 A 
HETATM    7  C   UNL     1      -0.292   5.323 -30.760  1.00  0.00     0.259 A 
HETATM    8  O   UNL     1       0.772   4.740 -30.551  1.00  0.00    -0.267 OA
HETATM    9  H   UNL     1      -3.696   6.652 -31.521  1.00  0.00     0.172 HD
ENDROOT
BRANCH   5  10
HETATM   10  N   UNL     1      -3.040   4.930 -33.275  1.00  0.00    -0.342 N 
HETATM   11  H   UNL     1      -2.502   4.609 -34.075  1.00  0.00     0.167 HD
BRANCH  10  12
HETATM   12  C   UNL     1      -4.335   4.361 -33.253  1.00  0.00     0.036 A 
HETATM   13  C   UNL     1      -5.392   5.112 -33.799  1.00  0.00     0.069 A 
HETATM   14  C   UNL     1      -6.667   4.584 -33.767  1.00  0.00     0.107 A 
HETATM   15  C   UNL     1      -6.929   3.360 -33.206  1.00  0.00     0.105 A 
HETATM   16  O   UNL     1      -7.785   5.178 -34.265  1.00  0.00    -0.323 OA
HETATM   17  O   UNL     1      -8.243   3.024 -33.282  1.00  0.00    -0.323 OA
HETATM   18  C   UNL     1      -5.933   2.599 -32.642  1.00  0.00     0.042 A 
HETATM   19  C   UNL     1      -8.780   4.178 -33.962  1.00  0.00     0.352 A 
HETATM   20  C   UNL     1      -4.628   3.111 -32.663  1.00  0.00     0.032 A 
ENDBRANCH  10  12
ENDBRANCH   5  10
BRANCH   1  21
HETATM   21  C   UNL     1      -0.141   6.846 -28.837  1.00  0.00     0.047 A 
HETATM   22  C   UNL     1      -0.304   6.321 -27.542  1.00  0.00     0.031 A 
HETATM   23  C   UNL     1       0.397   6.836 -26.443  1.00  0.00     0.021 A 
HETATM   24  C   UNL     1       1.282   7.893 -26.621  1.00  0.00     0.011 A 
HETATM   25  C   UNL     1       1.468   8.435 -27.885  1.00  0.00     0.021 A 
HETATM   26 BR   UNL     1       2.230   8.589 -25.143  1.00  0.00    -0.051 Br
HETATM   27  C   UNL     1       0.763   7.916 -28.979  1.00  0.00     0.031 A 
ENDBRANCH   1  21
TORSDOF 3
ENDMDL
MODEL 3
REMARK VINA RESULT:      -7.8      4.534      9.178
REMARK  3 active torsions:
REMARK  status: ('A' for Active; 'I' for Inactive)
REMARK    1  A    between atoms: C_2  and  N_3 
REMARK    2  A    between atoms: C_7  and  N_8 
REMARK    3  A    between atoms: N_8  and  C_9 
ROOT
HETATM    1  N   UNL     1      -5.588   0.985 -32.763  1.00  0.00    -0.230 N 
HETATM    2  C   UNL     1      -5.117   1.099 -31.455  1.00  0.00     0.335 A 
HETATM    3  O   UNL     1      -4.765   0.182 -30.712  1.00  0.00    -0.246 OA
HETATM    4  N   UNL     1      -4.989   2.364 -30.951  1.00  0.00    -0.294 N 
HETATM    5  C   UNL     1      -5.200   3.527 -31.622  1.00  0.00     0.114 A 
HETATM    6  C   UNL     1      -5.665   3.432 -32.869  1.00  0.00     0.123 A 
HETATM    7  C   UNL     1      -5.921   2.122 -33.499  1.00  0.00     0.259 A 
HETATM    8  O   UNL     1      -6.450   2.155 -34.611  1.00  0.00    -0.267 OA
HETATM    9  H   UNL     1      -4.614   2.393 -30.013  1.00  0.00     0.172 HD
ENDROOT
BRANCH   5  10
HETATM   10  N   UNL     1      -4.988   4.722 -30.969  1.00  0.00    -0.342 N 
HETATM   11  H   UNL     1      -5.647   4.904 -30.217  1.00  0.00     0.167 HD
BRANCH  10  12
HETATM   12  C   UNL     1      -3.771   5.417 -30.778  1.00  0.00     0.036 A 
HETATM   13  C   UNL     1      -2.592   4.821 -31.258  1.00  0.00     0.069 A 
HETATM   14  C   UNL     1      -1.391   5.472 -31.062  1.00  0.00     0.107 A 
HETATM   15  C   UNL     1      -1.319   6.673 -30.402  1.00  0.00     0.105 A 
HETATM   16  O   UNL     1      -0.172   5.035 -31.478  1.00  0.00    -0.323 OA
HETATM   17  O   UNL     1      -0.048   7.148 -30.321  1.00  0.00    -0.323 OA
HETATM   18  C   UNL     1      -2.442   7.285 -29.897  1.00  0.00     0.042 A 
HETATM   19  C   UNL     1       0.674   6.107 -31.012  1.00  0.00     0.352 A 
HETATM   20  C   UNL     1      -3.675   6.644 -30.085  1.00  0.00     0.032 A 
ENDBRANCH  10  12
ENDBRANCH   5  10
BRANCH   1  21
HETATM   21  C   UNL     1      -5.755  -0.326 -33.358  1.00  0.00     0.047 A 
HETATM   22  C   UNL     1      -4.652  -1.110 -33.744  1.00  0.00     0.031 A 
HETATM   23  C   UNL     1      -4.814  -2.375 -34.326  1.00  0.00     0.021 A 
HETATM   24  C   UNL     1      -6.091  -2.883 -34.533  1.00  0.00     0.011 A 
HETATM   25  C   UNL     1      -7.201  -2.137 -34.162  1.00  0.00     0.021 A 
HETATM   26 BR   UNL     1      -6.314  -4.588 -35.315  1.00  0.00    -0.051 Br
HETATM   27  C   UNL     1      -7.032  -0.872 -33.583  1.00  0.00     0.031 A 
ENDBRANCH   1  21
TORSDOF 3
ENDMDL
MODEL 4
REMARK VINA RESULT:      -7.8      4.940      9.278
REMARK  3 active torsions:
REMARK  status: ('A' for Active; 'I' for Inactive)
REMARK    1  A    between atoms: C_2  and  N_3 
REMARK    2  A    between atoms: C_7  and  N_8 
REMARK    3  A    between atoms: N_8  and  C_9 
ROOT
HETATM    1  N   UNL     1      -5.247   0.829 -32.562  1.00  0.00    -0.230 N 
HETATM    2  C   UNL     1      -4.583   0.831 -31.336  1.00  0.00     0.335 A 
HETATM    3  O   UNL     1      -4.120  -0.144 -30.742  1.00  0.00    -0.246 OA
HETATM    4  N   UNL     1      -4.381   2.047 -30.743  1.00  0.00    -0.294 N 
HETATM    5  C   UNL     1      -4.693   3.263 -31.264  1.00  0.00     0.114 A 
HETATM    6  C   UNL     1      -5.343   3.274 -32.430  1.00  0.00     0.123 A 
HETATM    7  C   UNL     1      -5.690   2.023 -33.131  1.00  0.00     0.259 A 
HETATM    8  O   UNL     1      -6.383   2.149 -34.141  1.00  0.00    -0.267 OA
HETATM    9  H   UNL     1      -3.867   1.997 -29.874  1.00  0.00     0.172 HD
ENDROOT
BRANCH   5  10
HETATM   10  N   UNL     1      -4.385   4.396 -30.543  1.00  0.00    -0.342 N 
HETATM   11  H   UNL     1      -4.229   4.226 -29.554  1.00  0.00     0.167 HD
BRANCH  10  12
HETATM   12  C   UNL     1      -3.728   5.568 -30.984  1.00  0.00     0.036 A 
HETATM   13  C   UNL     1      -3.886   6.737 -30.219  1.00  0.00     0.069 A 
HETATM   14  C   UNL     1      -3.271   7.898 -30.644  1.00  0.00     0.107 A 
HETATM   15  C   UNL     1      -2.526   7.941 -31.796  1.00  0.00     0.105 A 
HETATM   16  O   UNL     1      -3.316   9.100 -30.009  1.00  0.00    -0.323 OA
HETATM   17  O   UNL     1      -2.004   9.173 -32.031  1.00  0.00    -0.323 OA
HETATM   18  C   UNL     1      -2.360   6.829 -32.587  1.00  0.00     0.042 A 
HETATM   19  C   UNL     1      -2.502   9.902 -30.891  1.00  0.00     0.352 A 
HETATM   20  C   UNL     1      -2.972   5.637 -32.176  1.00  0.00     0.032 A 
ENDBRANCH  10  12
ENDBRANCH   5  10
BRANCH   1  21
HETATM   21  C   UNL     1      -5.502  -0.425 -33.243  1.00  0.00     0.047 A 
HETATM   22  C   UNL     1      -6.808  -0.908 -33.443  1.00  0.00     0.031 A 
HETATM   23  C   UNL     1      -7.052  -2.125 -34.096  1.00  0.00     0.021 A 
HETATM   24  C   UNL     1      -5.987  -2.884 -34.565  1.00  0.00     0.011 A 
HETATM   25  C   UNL     1      -4.686  -2.437 -34.386  1.00  0.00     0.021 A 
HETATM   26 BR   UNL     1      -6.312  -4.523 -35.446  1.00  0.00    -0.051 Br
HETATM   27  C   UNL     1      -4.448  -1.221 -33.731  1.00  0.00     0.031 A 
ENDBRANCH   1  21
TORSDOF 3
ENDMDL
MODEL 5
REMARK VINA RESULT:      -7.8      8.518     11.207
REMARK  3 active torsions:
REMARK  status: ('A' for Active; 'I' for Inactive)
REMARK    1  A    between atoms: C_2  and  N_3 
REMARK    2  A    between atoms: C_7  and  N_8 
REMARK    3  A    between atoms: N_8  and  C_9 
ROOT
HETATM    1  N   UNL     1      -8.953   1.075 -33.329  1.00  0.00    -0.230 N 
HETATM    2  C   UNL     1     -10.203   0.579 -32.957  1.00  0.00     0.335 A 
HETATM    3  O   UNL     1     -10.487  -0.588 -32.686  1.00  0.00    -0.246 OA
HETATM    4  N   UNL     1     -11.218   1.489 -32.837  1.00  0.00    -0.294 N 
HETATM    5  C   UNL     1     -11.115   2.838 -32.966  1.00  0.00     0.114 A 
HETATM    6  C   UNL     1      -9.928   3.323 -33.336  1.00  0.00     0.123 A 
HETATM    7  C   UNL     1      -8.773   2.436 -33.575  1.00  0.00     0.259 A 
HETATM    8  O   UNL     1      -7.760   2.980 -34.017  1.00  0.00    -0.267 OA
HETATM    9  H   UNL     1     -12.093   1.085 -32.534  1.00  0.00     0.172 HD
ENDROOT
BRANCH   5  10
HETATM   10  N   UNL     1     -12.238   3.614 -32.775  1.00  0.00    -0.342 N 
HETATM   11  H   UNL     1     -12.155   4.557 -33.143  1.00  0.00     0.167 HD
BRANCH  10  12
HETATM   12  C   UNL     1     -13.588   3.202 -32.688  1.00  0.00     0.036 A 
HETATM   13  C   UNL     1     -14.516   4.104 -32.138  1.00  0.00     0.069 A 
HETATM   14  C   UNL     1     -15.834   3.713 -32.022  1.00  0.00     0.107 A 
HETATM   15  C   UNL     1     -16.256   2.468 -32.415  1.00  0.00     0.105 A 
HETATM   16  O   UNL     1     -16.848   4.474 -31.528  1.00  0.00    -0.323 OA
HETATM   17  O   UNL     1     -17.589   2.286 -32.223  1.00  0.00    -0.323 OA
HETATM   18  C   UNL     1     -15.383   1.545 -32.939  1.00  0.00     0.042 A 
HETATM   19  C   UNL     1     -17.960   3.564 -31.667  1.00  0.00     0.352 A 
HETATM   20  C   UNL     1     -14.038   1.918 -33.069  1.00  0.00     0.032 A 
ENDBRANCH  10  12
ENDBRANCH   5  10
BRANCH   1  21
HETATM   21  C   UNL     1      -7.834   0.166 -33.482  1.00  0.00     0.047 A 
HETATM   22  C   UNL     1      -6.932  -0.083 -32.430  1.00  0.00     0.031 A 
HETATM   23  C   UNL     1      -5.846  -0.956 -32.582  1.00  0.00     0.021 A 
HETATM   24  C   UNL     1      -5.641  -1.602 -33.795  1.00  0.00     0.011 A 
HETATM   25  C   UNL     1      -6.512  -1.380 -34.853  1.00  0.00     0.021 A 
HETATM   26 BR   UNL     1      -4.180  -2.781 -34.003  1.00  0.00    -0.051 Br
HETATM   27  C   UNL     1      -7.595  -0.505 -34.696  1.00  0.00     0.031 A 
ENDBRANCH   1  21
TORSDOF 3
ENDMDL
MODEL 6
REMARK VINA RESULT:      -7.7      8.590     10.218
REMARK  3 active torsions:
REMARK  status: ('A' for Active; 'I' for Inactive)
REMARK    1  A    between atoms: C_2  and  N_3 
REMARK    2  A    between atoms: C_7  and  N_8 
REMARK    3  A    between atoms: N_8  and  C_9 
ROOT
HETATM    1  N   UNL     1      -9.624   1.966 -33.307  1.00  0.00    -0.230 N 
HETATM    2  C   UNL     1      -9.452   0.603 -33.067  1.00  0.00     0.335 A 
HETATM    3  O   UNL     1     -10.296  -0.188 -32.644  1.00  0.00    -0.246 OA
HETATM    4  N   UNL     1      -8.229   0.071 -33.374  1.00  0.00    -0.294 N 
HETATM    5  C   UNL     1      -7.189   0.718 -33.961  1.00  0.00     0.114 A 
HETATM    6  C   UNL     1      -7.336   2.026 -34.182  1.00  0.00     0.123 A 
HETATM    7  C   UNL     1      -8.580   2.734 -33.821  1.00  0.00     0.259 A 
HETATM    8  O   UNL     1      -8.564   3.956 -33.970  1.00  0.00    -0.267 OA
HETATM    9  H   UNL     1      -8.167  -0.925 -33.213  1.00  0.00     0.172 HD
ENDROOT
BRANCH   5  10
HETATM   10  N   UNL     1      -6.035   0.016 -34.234  1.00  0.00    -0.342 N 
HETATM   11  H   UNL     1      -5.186   0.490 -33.942  1.00  0.00     0.167 HD
BRANCH  10  12
HETATM   12  C   UNL     1      -5.854  -1.384 -34.312  1.00  0.00     0.036 A 
HETATM   13  C   UNL     1      -4.670  -1.924 -33.779  1.00  0.00     0.069 A 
HETATM   14  C   UNL     1      -4.463  -3.286 -33.866  1.00  0.00     0.107 A 
HETATM   15  C   UNL     1      -5.372  -4.118 -34.468  1.00  0.00     0.105 A 
HETATM   16  O   UNL     1      -3.381  -3.957 -33.387  1.00  0.00    -0.323 OA
HETATM   17  O   UNL     1      -4.982  -5.420 -34.442  1.00  0.00    -0.323 OA
HETATM   18  C   UNL     1      -6.534  -3.634 -35.021  1.00  0.00     0.042 A 
HETATM   19  C   UNL     1      -3.722  -5.312 -33.749  1.00  0.00     0.352 A 
HETATM   20  C   UNL     1      -6.769  -2.255 -34.945  1.00  0.00     0.032 A 
ENDBRANCH  10  12
ENDBRANCH   5  10
BRANCH   1  21
HETATM   21  C   UNL     1     -10.892   2.598 -32.998  1.00  0.00     0.047 A 
HETATM   22  C   UNL     1     -11.053   3.427 -31.873  1.00  0.00     0.031 A 
HETATM   23  C   UNL     1     -12.281   4.032 -31.572  1.00  0.00     0.021 A 
HETATM   24  C   UNL     1     -13.378   3.818 -32.398  1.00  0.00     0.011 A 
HETATM   25  C   UNL     1     -13.255   3.007 -33.517  1.00  0.00     0.021 A 
HETATM   26 BR   UNL     1     -15.034   4.633 -31.997  1.00  0.00    -0.051 Br
HETATM   27  C   UNL     1     -12.025   2.404 -33.812  1.00  0.00     0.031 A 
ENDBRANCH   1  21
TORSDOF 3
ENDMDL
MODEL 7
REMARK VINA RESULT:      -7.6      3.953      5.594
REMARK  3 active torsions:
REMARK  status: ('A' for Active; 'I' for Inactive)
REMARK    1  A    between atoms: C_2  and  N_3 
REMARK    2  A    between atoms: C_7  and  N_8 
REMARK    3  A    between atoms: N_8  and  C_9 
ROOT
HETATM    1  N   UNL     1      -5.156   4.490 -32.331  1.00  0.00    -0.230 N 
HETATM    2  C   UNL     1      -5.377   3.480 -31.395  1.00  0.00     0.335 A 
HETATM    3  O   UNL     1      -5.172   3.534 -30.182  1.00  0.00    -0.246 OA
HETATM    4  N   UNL     1      -5.923   2.315 -31.861  1.00  0.00    -0.294 N 
HETATM    5  C   UNL     1      -6.343   2.068 -33.129  1.00  0.00     0.114 A 
HETATM    6  C   UNL     1      -6.123   3.022 -34.037  1.00  0.00     0.123 A 
HETATM    7  C   UNL     1      -5.469   4.294 -33.676  1.00  0.00     0.259 A 
HETATM    8  O   UNL     1      -5.219   5.054 -34.612  1.00  0.00    -0.267 OA
HETATM    9  H   UNL     1      -6.094   1.628 -31.139  1.00  0.00     0.172 HD
ENDROOT
BRANCH   5  10
HETATM   10  N   UNL     1      -6.906   0.844 -33.419  1.00  0.00    -0.342 N 
HETATM   11  H   UNL     1      -7.817   0.904 -33.864  1.00  0.00     0.167 HD
BRANCH  10  12
HETATM   12  C   UNL     1      -6.255  -0.374 -33.721  1.00  0.00     0.036 A 
HETATM   13  C   UNL     1      -7.040  -1.436 -34.204  1.00  0.00     0.069 A 
HETATM   14  C   UNL     1      -6.428  -2.642 -34.482  1.00  0.00     0.107 A 
HETATM   15  C   UNL     1      -5.084  -2.832 -34.286  1.00  0.00     0.105 A 
HETATM   16  O   UNL     1      -7.045  -3.753 -34.968  1.00  0.00    -0.323 OA
HETATM   17  O   UNL     1      -4.681  -4.085 -34.627  1.00  0.00    -0.323 OA
HETATM   18  C   UNL     1      -4.279  -1.831 -33.796  1.00  0.00     0.042 A 
HETATM   19  C   UNL     1      -5.928  -4.661 -35.065  1.00  0.00     0.352 A 
HETATM   20  C   UNL     1      -4.876  -0.596 -33.508  1.00  0.00     0.032 A 
ENDBRANCH  10  12
ENDBRANCH   5  10
BRANCH   1  21
HETATM   21  C   UNL     1      -4.574   5.749 -31.908  1.00  0.00     0.047 A 
HETATM   22  C   UNL     1      -5.372   6.860 -31.577  1.00  0.00     0.031 A 
HETATM   23  C   UNL     1      -4.808   8.079 -31.176  1.00  0.00     0.021 A 
HETATM   24  C   UNL     1      -3.427   8.210 -31.095  1.00  0.00     0.011 A 
HETATM   25  C   UNL     1      -2.610   7.134 -31.413  1.00  0.00     0.021 A 
HETATM   26 BR   UNL     1      -2.664   9.850 -30.553  1.00  0.00    -0.051 Br
HETATM   27  C   UNL     1      -3.180   5.919 -31.816  1.00  0.00     0.031 A 
ENDBRANCH   1  21
TORSDOF 3
ENDMDL
MODEL 8
REMARK VINA RESULT:      -7.5      5.029      9.312
REMARK  3 active torsions:
REMARK  status: ('A' for Active; 'I' for Inactive)
REMARK    1  A    between atoms: C_2  and  N_3 
REMARK    2  A    between atoms: C_7  and  N_8 
REMARK    3  A    between atoms: N_8  and  C_9 
ROOT
HETATM    1  N   UNL     1      -5.497   1.046 -32.534  1.00  0.00    -0.230 N 
HETATM    2  C   UNL     1      -5.880   2.217 -33.188  1.00  0.00     0.335 A 
HETATM    3  O   UNL     1      -6.402   2.308 -34.300  1.00  0.00    -0.246 OA
HETATM    4  N   UNL     1      -5.699   3.391 -32.510  1.00  0.00    -0.294 N 
HETATM    5  C   UNL     1      -5.257   3.529 -31.233  1.00  0.00     0.114 A 
HETATM    6  C   UNL     1      -4.873   2.417 -30.601  1.00  0.00     0.123 A 
HETATM    7  C   UNL     1      -4.944   1.096 -31.254  1.00  0.00     0.259 A 
HETATM    8  O   UNL     1      -4.464   0.157 -30.618  1.00  0.00    -0.267 OA
HETATM    9  H   UNL     1      -6.022   4.206 -33.014  1.00  0.00     0.172 HD
ENDROOT
BRANCH   5  10
HETATM   10  N   UNL     1      -5.168   4.792 -30.690  1.00  0.00    -0.342 N 
HETATM   11  H   UNL     1      -5.392   4.833 -29.701  1.00  0.00     0.167 HD
BRANCH  10  12
HETATM   12  C   UNL     1      -4.330   5.862 -31.082  1.00  0.00     0.036 A 
HETATM   13  C   UNL     1      -4.327   7.020 -30.285  1.00  0.00     0.069 A 
HETATM   14  C   UNL     1      -3.533   8.085 -30.662  1.00  0.00     0.107 A 
HETATM   15  C   UNL     1      -2.763   8.045 -31.797  1.00  0.00     0.105 A 
HETATM   16  O   UNL     1      -3.411   9.262 -29.991  1.00  0.00    -0.323 OA
HETATM   17  O   UNL     1      -2.054   9.189 -31.984  1.00  0.00    -0.323 OA
HETATM   18  C   UNL     1      -2.748   6.943 -32.618  1.00  0.00     0.042 A 
HETATM   19  C   UNL     1      -2.464   9.954 -30.832  1.00  0.00     0.352 A 
HETATM   20  C   UNL     1      -3.544   5.847 -32.256  1.00  0.00     0.032 A 
ENDBRANCH  10  12
ENDBRANCH   5  10
BRANCH   1  21
HETATM   21  C   UNL     1      -5.654  -0.235 -33.195  1.00  0.00     0.047 A 
HETATM   22  C   UNL     1      -6.922  -0.806 -33.413  1.00  0.00     0.031 A 
HETATM   23  C   UNL     1      -7.072  -2.047 -34.047  1.00  0.00     0.021 A 
HETATM   24  C   UNL     1      -5.950  -2.744 -34.478  1.00  0.00     0.011 A 
HETATM   25  C   UNL     1      -4.684  -2.210 -34.280  1.00  0.00     0.021 A 
HETATM   26 BR   UNL     1      -6.148  -4.416 -35.334  1.00  0.00    -0.051 Br
HETATM   27  C   UNL     1      -4.541  -0.969 -33.645  1.00  0.00     0.031 A 
ENDBRANCH   1  21
TORSDOF 3
ENDMDL
MODEL 9
REMARK VINA RESULT:      -7.5      5.872      9.369
REMARK  3 active torsions:
REMARK  status: ('A' for Active; 'I' for Inactive)
REMARK    1  A    between atoms: C_2  and  N_3 
REMARK    2  A    between atoms: C_7  and  N_8 
REMARK    3  A    between atoms: N_8  and  C_9 
ROOT
HETATM    1  N   UNL     1      -5.788   0.902 -31.705  1.00  0.00    -0.230 N 
HETATM    2  C   UNL     1      -6.073   0.760 -30.347  1.00  0.00     0.335 A 
HETATM    3  O   UNL     1      -6.366  -0.279 -29.756  1.00  0.00    -0.246 OA
HETATM    4  N   UNL     1      -5.975   1.885 -29.575  1.00  0.00    -0.294 N 
HETATM    5  C   UNL     1      -5.554   3.112 -29.980  1.00  0.00     0.114 A 
HETATM    6  C   UNL     1      -5.292   3.264 -31.280  1.00  0.00     0.123 A 
HETATM    7  C   UNL     1      -5.437   2.145 -32.232  1.00  0.00     0.259 A 
HETATM    8  O   UNL     1      -5.274   2.426 -33.419  1.00  0.00    -0.267 OA
HETATM    9  H   UNL     1      -6.160   1.723 -28.594  1.00  0.00     0.172 HD
ENDROOT
BRANCH   5  10
HETATM   10  N   UNL     1      -5.482   4.131 -29.056  1.00  0.00    -0.342 N 
HETATM   11  H   UNL     1      -4.533   4.400 -28.811  1.00  0.00     0.167 HD
BRANCH  10  12
HETATM   12  C   UNL     1      -6.399   5.185 -28.834  1.00  0.00     0.036 A 
HETATM   13  C   UNL     1      -5.953   6.301 -28.105  1.00  0.00     0.069 A 
HETATM   14  C   UNL     1      -6.838   7.330 -27.857  1.00  0.00     0.107 A 
HETATM   15  C   UNL     1      -8.140   7.284 -28.291  1.00  0.00     0.105 A 
HETATM   16  O   UNL     1      -6.556   8.478 -27.183  1.00  0.00    -0.323 OA
HETATM   17  O   UNL     1      -8.841   8.397 -27.950  1.00  0.00    -0.323 OA
HETATM   18  C   UNL     1      -8.627   6.205 -28.990  1.00  0.00     0.042 A 
HETATM   19  C   UNL     1      -7.829   9.153 -27.254  1.00  0.00     0.352 A 
HETATM   20  C   UNL     1      -7.747   5.148 -29.256  1.00  0.00     0.032 A 
ENDBRANCH  10  12
ENDBRANCH   5  10
BRANCH   1  21
HETATM   21  C   UNL     1      -5.877  -0.247 -32.585  1.00  0.00     0.047 A 
HETATM   22  C   UNL     1      -7.087  -0.613 -33.204  1.00  0.00     0.031 A 
HETATM   23  C   UNL     1      -7.174  -1.729 -34.049  1.00  0.00     0.021 A 
HETATM   24  C   UNL     1      -6.045  -2.502 -34.292  1.00  0.00     0.011 A 
HETATM   25  C   UNL     1      -4.836  -2.169 -33.699  1.00  0.00     0.021 A 
HETATM   26 BR   UNL     1      -6.158  -4.005 -35.431  1.00  0.00    -0.051 Br
HETATM   27  C   UNL     1      -4.756  -1.054 -32.854  1.00  0.00     0.031 A 
ENDBRANCH   1  21
TORSDOF 3
ENDMDL
MODEL 10
REMARK VINA RESULT:      -7.4      3.736      5.877
REMARK  3 active torsions:
REMARK  status: ('A' for Active; 'I' for Inactive)
REMARK    1  A    between atoms: C_2  and  N_3 
REMARK    2  A    between atoms: C_7  and  N_8 
REMARK    3  A    between atoms: N_8  and  C_9 
ROOT
HETATM    1  N   UNL     1      -4.314   3.809 -32.694  1.00  0.00    -0.230 N 
HETATM    2  C   UNL     1      -5.059   4.346 -33.745  1.00  0.00     0.335 A 
HETATM    3  O   UNL     1      -4.890   5.436 -34.292  1.00  0.00    -0.246 OA
HETATM    4  N   UNL     1      -6.058   3.564 -34.257  1.00  0.00    -0.294 N 
HETATM    5  C   UNL     1      -6.350   2.286 -33.899  1.00  0.00     0.114 A 
HETATM    6  C   UNL     1      -5.654   1.767 -32.885  1.00  0.00     0.123 A 
HETATM    7  C   UNL     1      -4.603   2.539 -32.195  1.00  0.00     0.259 A 
HETATM    8  O   UNL     1      -4.103   2.001 -31.207  1.00  0.00    -0.267 OA
HETATM    9  H   UNL     1      -6.545   3.984 -35.036  1.00  0.00     0.172 HD
ENDROOT
BRANCH   5  10
HETATM   10  N   UNL     1      -7.373   1.629 -34.547  1.00  0.00    -0.342 N 
HETATM   11  H   UNL     1      -7.076   0.799 -35.052  1.00  0.00     0.167 HD
BRANCH  10  12
HETATM   12  C   UNL     1      -8.741   1.566 -34.196  1.00  0.00     0.036 A 
HETATM   13  C   UNL     1      -9.541   2.692 -34.465  1.00  0.00     0.069 A 
HETATM   14  C   UNL     1     -10.874   2.660 -34.109  1.00  0.00     0.107 A 
HETATM   15  C   UNL     1     -11.431   1.570 -33.489  1.00  0.00     0.105 A 
HETATM   16  O   UNL     1     -11.775   3.657 -34.315  1.00  0.00    -0.323 OA
HETATM   17  O   UNL     1     -12.754   1.739 -33.230  1.00  0.00    -0.323 OA
HETATM   18  C   UNL     1     -10.685   0.455 -33.187  1.00  0.00     0.042 A 
HETATM   19  C   UNL     1     -12.968   3.062 -33.763  1.00  0.00     0.352 A 
HETATM   20  C   UNL     1      -9.328   0.461 -33.540  1.00  0.00     0.032 A 
ENDBRANCH  10  12
ENDBRANCH   5  10
BRANCH   1  21
HETATM   21  C   UNL     1      -3.244   4.585 -32.099  1.00  0.00     0.047 A 
HETATM   22  C   UNL     1      -3.484   5.501 -31.057  1.00  0.00     0.031 A 
HETATM   23  C   UNL     1      -2.450   6.256 -30.487  1.00  0.00     0.021 A 
HETATM   24  C   UNL     1      -1.148   6.107 -30.949  1.00  0.00     0.011 A 
HETATM   25  C   UNL     1      -0.875   5.212 -31.975  1.00  0.00     0.021 A 
HETATM   26 BR   UNL     1       0.249   7.121 -30.182  1.00  0.00    -0.051 Br
HETATM   27  C   UNL     1      -1.914   4.461 -32.542  1.00  0.00     0.031 A 
ENDBRANCH   1  21
TORSDOF 3
ENDMDL
