MODEL 1
REMARK VINA RESULT:      -8.1      0.000      0.000
REMARK  5 active torsions:
REMARK  status: ('A' for Active; 'I' for Inactive)
REMARK    1  A    between atoms: C_5  and  C_6 
REMARK    2  A    between atoms: N_9  and  C_11 
REMARK    3  A    between atoms: C_11  and  C_12 
REMARK    4  A    between atoms: C_13  and  N_14 
REMARK    5  A    between atoms: N_14  and  C_15 
ROOT
HETATM    1  C   UNL     1      -8.158   1.634 -33.598  1.00  0.00    -0.006 A 
HETATM    2  C   UNL     1      -8.212   0.363 -32.980  1.00  0.00     0.038 A 
HETATM    3  C   UNL     1      -9.475  -0.237 -32.806  1.00  0.00     0.030 A 
HETATM    4  C   UNL     1     -10.650   0.390 -33.221  1.00  0.00     0.002 A 
HETATM    5  C   UNL     1     -10.590   1.624 -33.848  1.00  0.00     0.001 A 
HETATM    6  C   UNL     1      -9.356   2.235 -34.045  1.00  0.00     0.011 A 
ENDROOT
BRANCH   1   7
HETATM    7  C   UNL     1      -6.860   2.354 -33.863  1.00  0.00     0.275 C 
BRANCH   7   8
HETATM    8  N   UNL     1      -6.638   3.599 -33.001  1.00  0.00    -0.067 N 
HETATM    9  C   UNL     1      -5.599   3.311 -31.942  1.00  0.00     0.236 C 
HETATM   10  C   UNL     1      -5.402   4.530 -31.053  1.00  0.00     0.037 C 
HETATM   11  C   UNL     1      -4.961   5.759 -31.864  1.00  0.00     0.025 C 
HETATM   12  C   UNL     1      -6.040   6.030 -32.919  1.00  0.00     0.037 C 
HETATM   13  C   UNL     1      -6.305   4.828 -33.819  1.00  0.00     0.236 C 
HETATM   14  H   UNL     1      -7.535   3.780 -32.541  1.00  0.00     0.280 HD
BRANCH  11  15
HETATM   15  C   UNL     1      -3.576   5.600 -32.432  1.00  0.00    -0.018 A 
HETATM   16  C   UNL     1      -2.421   5.138 -31.749  1.00  0.00     0.147 A 
HETATM   17  N   UNL     1      -1.361   5.031 -32.545  1.00  0.00    -0.185 NA
HETATM   18  N   UNL     1      -1.778   5.537 -33.714  1.00  0.00    -0.285 N 
HETATM   19  C   UNL     1      -0.857   5.631 -34.823  1.00  0.00     0.179 C 
HETATM   20  C   UNL     1      -3.102   5.886 -33.699  1.00  0.00     0.120 A 
ENDBRANCH  11  15
ENDBRANCH   7   8
ENDBRANCH   1   7
BRANCH   2  21
HETATM   21  N   UNL     1      -7.025  -0.335 -32.650  1.00  0.00    -0.380 N 
HETATM   22  C   UNL     1      -6.609  -0.070 -31.264  1.00  0.00     0.150 C 
BRANCH  21  23
HETATM   23  C   UNL     1      -6.015  -0.472 -33.729  1.00  0.00     0.087 C 
HETATM   24  C   UNL     1      -6.431  -1.523 -34.773  1.00  0.00     0.053 C 
HETATM   25  C   UNL     1      -5.912  -2.931 -34.514  1.00  0.00     0.236 C 
HETATM   26  N   UNL     1      -4.433  -2.895 -34.255  1.00  0.00    -0.075 N 
HETATM   27  H   UNL     1      -3.965  -2.486 -35.076  1.00  0.00     0.279 HD
HETATM   28  C   UNL     1      -3.855  -4.287 -34.133  1.00  0.00     0.269 C 
HETATM   29  C   UNL     1      -4.103  -2.056 -33.050  1.00  0.00     0.236 C 
HETATM   30  C   UNL     1      -4.558  -0.626 -33.284  1.00  0.00     0.053 C 
ENDBRANCH  21  23
ENDBRANCH   2  21
TORSDOF 5
ENDMDL
MODEL 2
REMARK VINA RESULT:      -8.1      2.047      4.833
REMARK  5 active torsions:
REMARK  status: ('A' for Active; 'I' for Inactive)
REMARK    1  A    between atoms: C_5  and  C_6 
REMARK    2  A    between atoms: N_9  and  C_11 
REMARK    3  A    between atoms: C_11  and  C_12 
REMARK    4  A    between atoms: C_13  and  N_14 
REMARK    5  A    between atoms: N_14  and  C_15 
ROOT
HETATM    1  C   UNL     1      -4.330   0.887 -31.493  1.00  0.00    -0.006 A 
HETATM    2  C   UNL     1      -5.354   0.316 -32.284  1.00  0.00     0.038 A 
HETATM    3  C   UNL     1      -5.143  -0.972 -32.816  1.00  0.00     0.030 A 
HETATM    4  C   UNL     1      -3.962  -1.678 -32.584  1.00  0.00     0.002 A 
HETATM    5  C   UNL     1      -2.972  -1.125 -31.788  1.00  0.00     0.001 A 
HETATM    6  C   UNL     1      -3.158   0.139 -31.239  1.00  0.00     0.011 A 
ENDROOT
BRANCH   1   7
HETATM    7  C   UNL     1      -4.461   2.243 -30.848  1.00  0.00     0.275 C 
BRANCH   7   8
HETATM    8  N   UNL     1      -4.241   3.422 -31.800  1.00  0.00    -0.067 N 
HETATM    9  C   UNL     1      -4.322   4.721 -31.034  1.00  0.00     0.236 C 
HETATM   10  C   UNL     1      -4.147   5.901 -31.979  1.00  0.00     0.037 C 
HETATM   11  C   UNL     1      -2.801   5.840 -32.720  1.00  0.00     0.025 C 
HETATM   12  C   UNL     1      -2.757   4.518 -33.494  1.00  0.00     0.037 C 
HETATM   13  C   UNL     1      -2.962   3.300 -32.599  1.00  0.00     0.236 C 
HETATM   14  H   UNL     1      -5.017   3.385 -32.468  1.00  0.00     0.280 HD
BRANCH  11  15
HETATM   15  C   UNL     1      -1.632   6.047 -31.794  1.00  0.00    -0.018 A 
HETATM   16  C   UNL     1      -0.400   5.343 -31.804  1.00  0.00     0.147 A 
HETATM   17  N   UNL     1       0.468   5.812 -30.910  1.00  0.00    -0.185 NA
HETATM   18  N   UNL     1      -0.230   6.733 -30.231  1.00  0.00    -0.285 N 
HETATM   19  C   UNL     1       0.390   7.428 -29.126  1.00  0.00     0.179 C 
HETATM   20  C   UNL     1      -1.492   6.917 -30.727  1.00  0.00     0.120 A 
ENDBRANCH  11  15
ENDBRANCH   7   8
ENDBRANCH   1   7
BRANCH   2  21
HETATM   21  N   UNL     1      -6.599   0.971 -32.441  1.00  0.00    -0.380 N 
HETATM   22  C   UNL     1      -7.625   0.402 -31.554  1.00  0.00     0.150 C 
BRANCH  21  23
HETATM   23  C   UNL     1      -6.948   1.411 -33.815  1.00  0.00     0.087 C 
HETATM   24  C   UNL     1      -7.217   2.925 -33.881  1.00  0.00     0.053 C 
HETATM   25  C   UNL     1      -8.674   3.329 -33.701  1.00  0.00     0.236 C 
HETATM   26  N   UNL     1      -9.550   2.524 -34.617  1.00  0.00    -0.075 N 
HETATM   27  H   UNL     1      -9.250   2.688 -35.588  1.00  0.00     0.279 HD
HETATM   28  C   UNL     1     -10.987   2.993 -34.570  1.00  0.00     0.269 C 
HETATM   29  C   UNL     1      -9.445   1.050 -34.328  1.00  0.00     0.236 C 
HETATM   30  C   UNL     1      -8.014   0.589 -34.545  1.00  0.00     0.053 C 
ENDBRANCH  21  23
ENDBRANCH   2  21
TORSDOF 5
ENDMDL
MODEL 3
REMARK VINA RESULT:      -8.1      3.306      7.753
REMARK  5 active torsions:
REMARK  status: ('A' for Active; 'I' for Inactive)
REMARK    1  A    between atoms: C_5  and  C_6 
REMARK    2  A    between atoms: N_9  and  C_11 
REMARK    3  A    between atoms: C_11  and  C_12 
REMARK    4  A    between atoms: C_13  and  N_14 
REMARK    5  A    between atoms: N_14  and  C_15 
ROOT
HETATM    1  C   UNL     1      -7.807   1.302 -34.099  1.00  0.00    -0.006 A 
HETATM    2  C   UNL     1      -6.657   1.295 -33.277  1.00  0.00     0.038 A 
HETATM    3  C   UNL     1      -5.763   0.211 -33.395  1.00  0.00     0.030 A 
HETATM    4  C   UNL     1      -5.993  -0.836 -34.290  1.00  0.00     0.002 A 
HETATM    5  C   UNL     1      -7.108  -0.812 -35.110  1.00  0.00     0.001 A 
HETATM    6  C   UNL     1      -8.001   0.252 -35.025  1.00  0.00     0.011 A 
ENDROOT
BRANCH   1   7
HETATM    7  C   UNL     1      -8.813   2.426 -34.080  1.00  0.00     0.275 C 
BRANCH   7   8
HETATM    8  N   UNL     1     -10.203   2.041 -34.592  1.00  0.00    -0.067 N 
HETATM    9  C   UNL     1     -10.985   1.361 -33.493  1.00  0.00     0.236 C 
HETATM   10  C   UNL     1     -12.354   0.937 -34.004  1.00  0.00     0.037 C 
HETATM   11  C   UNL     1     -13.162   2.137 -34.524  1.00  0.00     0.025 C 
HETATM   12  C   UNL     1     -12.348   2.796 -35.643  1.00  0.00     0.037 C 
HETATM   13  C   UNL     1     -10.950   3.211 -35.194  1.00  0.00     0.236 C 
HETATM   14  H   UNL     1     -10.043   1.368 -35.347  1.00  0.00     0.280 HD
BRANCH  11  15
HETATM   15  C   UNL     1     -13.556   3.079 -33.418  1.00  0.00    -0.018 A 
HETATM   16  C   UNL     1     -14.235   2.749 -32.216  1.00  0.00     0.147 A 
HETATM   17  N   UNL     1     -14.369   3.790 -31.398  1.00  0.00    -0.185 NA
HETATM   18  N   UNL     1     -13.896   4.825 -32.106  1.00  0.00    -0.285 N 
HETATM   19  C   UNL     1     -13.931   6.154 -31.542  1.00  0.00     0.179 C 
HETATM   20  C   UNL     1     -13.390   4.449 -33.321  1.00  0.00     0.120 A 
ENDBRANCH  11  15
ENDBRANCH   7   8
ENDBRANCH   1   7
BRANCH   2  21
HETATM   21  N   UNL     1      -6.353   2.398 -32.444  1.00  0.00    -0.380 N 
HETATM   22  C   UNL     1      -5.254   3.206 -32.995  1.00  0.00     0.150 C 
BRANCH  21  23
HETATM   23  C   UNL     1      -6.466   2.174 -30.981  1.00  0.00     0.087 C 
HETATM   24  C   UNL     1      -7.888   2.458 -30.467  1.00  0.00     0.053 C 
HETATM   25  C   UNL     1      -8.122   3.878 -29.968  1.00  0.00     0.236 C 
HETATM   26  N   UNL     1      -7.045   4.268 -28.998  1.00  0.00    -0.075 N 
HETATM   27  H   UNL     1      -7.055   3.605 -28.209  1.00  0.00     0.279 HD
HETATM   28  C   UNL     1      -7.318   5.618 -28.373  1.00  0.00     0.269 C 
HETATM   29  C   UNL     1      -5.683   4.226 -29.638  1.00  0.00     0.236 C 
HETATM   30  C   UNL     1      -5.383   2.813 -30.107  1.00  0.00     0.053 C 
ENDBRANCH  21  23
ENDBRANCH   2  21
TORSDOF 5
ENDMDL
MODEL 4
REMARK VINA RESULT:      -8.0      2.840      7.066
REMARK  5 active torsions:
REMARK  status: ('A' for Active; 'I' for Inactive)
REMARK    1  A    between atoms: C_5  and  C_6 
REMARK    2  A    between atoms: N_9  and  C_11 
REMARK    3  A    between atoms: C_11  and  C_12 
REMARK    4  A    between atoms: C_13  and  N_14 
REMARK    5  A    between atoms: N_14  and  C_15 
ROOT
HETATM    1  C   UNL     1     -11.028   1.197 -33.395  1.00  0.00    -0.006 A 
HETATM    2  C   UNL     1     -11.058   2.602 -33.551  1.00  0.00     0.038 A 
HETATM    3  C   UNL     1     -12.158   3.172 -34.223  1.00  0.00     0.030 A 
HETATM    4  C   UNL     1     -13.196   2.389 -34.730  1.00  0.00     0.002 A 
HETATM    5  C   UNL     1     -13.174   1.015 -34.554  1.00  0.00     0.001 A 
HETATM    6  C   UNL     1     -12.107   0.426 -33.883  1.00  0.00     0.011 A 
ENDROOT
BRANCH   1   7
HETATM    7  C   UNL     1      -9.918   0.484 -32.667  1.00  0.00     0.275 C 
BRANCH   7   8
HETATM    8  N   UNL     1      -8.518   0.749 -33.227  1.00  0.00    -0.067 N 
HETATM    9  C   UNL     1      -7.479   0.105 -32.340  1.00  0.00     0.236 C 
HETATM   10  C   UNL     1      -6.082   0.398 -32.867  1.00  0.00     0.037 C 
HETATM   11  C   UNL     1      -5.898  -0.114 -34.305  1.00  0.00     0.025 C 
HETATM   12  C   UNL     1      -6.958   0.567 -35.179  1.00  0.00     0.037 C 
HETATM   13  C   UNL     1      -8.379   0.335 -34.676  1.00  0.00     0.236 C 
HETATM   14  H   UNL     1      -8.395   1.765 -33.194  1.00  0.00     0.280 HD
BRANCH  11  15
HETATM   15  C   UNL     1      -5.916  -1.617 -34.380  1.00  0.00    -0.018 A 
HETATM   16  C   UNL     1      -7.037  -2.446 -34.643  1.00  0.00     0.147 A 
HETATM   17  N   UNL     1      -6.716  -3.735 -34.725  1.00  0.00    -0.185 NA
HETATM   18  N   UNL     1      -5.418  -3.769 -34.394  1.00  0.00    -0.285 N 
HETATM   19  C   UNL     1      -4.731  -5.038 -34.325  1.00  0.00     0.179 C 
HETATM   20  C   UNL     1      -4.890  -2.525 -34.185  1.00  0.00     0.120 A 
ENDBRANCH  11  15
ENDBRANCH   7   8
ENDBRANCH   1   7
BRANCH   2  21
HETATM   21  N   UNL     1     -10.071   3.421 -32.951  1.00  0.00    -0.380 N 
HETATM   22  C   UNL     1     -10.499   3.901 -31.628  1.00  0.00     0.150 C 
BRANCH  21  23
HETATM   23  C   UNL     1      -9.297   4.301 -33.861  1.00  0.00     0.087 C 
HETATM   24  C   UNL     1      -7.782   4.061 -33.739  1.00  0.00     0.053 C 
HETATM   25  C   UNL     1      -7.065   4.960 -32.741  1.00  0.00     0.236 C 
HETATM   26  N   UNL     1      -7.426   6.396 -32.987  1.00  0.00    -0.075 N 
HETATM   27  H   UNL     1      -7.156   6.643 -33.950  1.00  0.00     0.279 HD
HETATM   28  C   UNL     1      -6.626   7.331 -32.108  1.00  0.00     0.269 C 
HETATM   29  C   UNL     1      -8.905   6.628 -32.832  1.00  0.00     0.236 C 
HETATM   30  C   UNL     1      -9.662   5.789 -33.845  1.00  0.00     0.053 C 
ENDBRANCH  21  23
ENDBRANCH   2  21
TORSDOF 5
ENDMDL
MODEL 5
REMARK VINA RESULT:      -8.0      1.771      6.371
REMARK  5 active torsions:
REMARK  status: ('A' for Active; 'I' for Inactive)
REMARK    1  A    between atoms: C_5  and  C_6 
REMARK    2  A    between atoms: N_9  and  C_11 
REMARK    3  A    between atoms: C_11  and  C_12 
REMARK    4  A    between atoms: C_13  and  N_14 
REMARK    5  A    between atoms: N_14  and  C_15 
ROOT
HETATM    1  C   UNL     1      -7.545   4.045 -32.312  1.00  0.00    -0.006 A 
HETATM    2  C   UNL     1      -6.699   4.263 -31.200  1.00  0.00     0.038 A 
HETATM    3  C   UNL     1      -7.250   4.871 -30.055  1.00  0.00     0.030 A 
HETATM    4  C   UNL     1      -8.590   5.258 -30.002  1.00  0.00     0.002 A 
HETATM    5  C   UNL     1      -9.421   5.021 -31.084  1.00  0.00     0.001 A 
HETATM    6  C   UNL     1      -8.907   4.409 -32.224  1.00  0.00     0.011 A 
ENDROOT
BRANCH   1   7
HETATM    7  C   UNL     1      -7.070   3.374 -33.575  1.00  0.00     0.275 C 
BRANCH   7   8
HETATM    8  N   UNL     1      -7.703   2.006 -33.844  1.00  0.00    -0.067 N 
HETATM    9  C   UNL     1      -6.988   1.325 -34.987  1.00  0.00     0.236 C 
HETATM   10  C   UNL     1      -7.638  -0.018 -35.289  1.00  0.00     0.037 C 
HETATM   11  C   UNL     1      -7.619  -0.946 -34.063  1.00  0.00     0.025 C 
HETATM   12  C   UNL     1      -8.361  -0.231 -32.928  1.00  0.00     0.037 C 
HETATM   13  C   UNL     1      -7.773   1.139 -32.606  1.00  0.00     0.236 C 
HETATM   14  H   UNL     1      -8.668   2.200 -34.128  1.00  0.00     0.280 HD
BRANCH  11  15
HETATM   15  C   UNL     1      -6.225  -1.384 -33.702  1.00  0.00    -0.018 A 
HETATM   16  C   UNL     1      -5.410  -2.308 -34.407  1.00  0.00     0.147 A 
HETATM   17  N   UNL     1      -4.194  -2.427 -33.882  1.00  0.00    -0.185 NA
HETATM   18  N   UNL     1      -4.247  -1.685 -32.766  1.00  0.00    -0.285 N 
HETATM   19  C   UNL     1      -3.096  -1.620 -31.895  1.00  0.00     0.179 C 
HETATM   20  C   UNL     1      -5.441  -1.034 -32.617  1.00  0.00     0.120 A 
ENDBRANCH  11  15
ENDBRANCH   7   8
ENDBRANCH   1   7
BRANCH   2  21
HETATM   21  N   UNL     1      -5.368   3.780 -31.195  1.00  0.00    -0.380 N 
HETATM   22  C   UNL     1      -5.224   2.596 -30.335  1.00  0.00     0.150 C 
BRANCH  21  23
HETATM   23  C   UNL     1      -4.293   4.801 -31.261  1.00  0.00     0.087 C 
HETATM   24  C   UNL     1      -4.595   5.885 -32.311  1.00  0.00     0.053 C 
HETATM   25  C   UNL     1      -4.019   5.618 -33.696  1.00  0.00     0.236 C 
HETATM   26  N   UNL     1      -2.561   5.275 -33.592  1.00  0.00    -0.075 N 
HETATM   27  H   UNL     1      -2.069   6.061 -33.144  1.00  0.00     0.279 HD
HETATM   28  C   UNL     1      -1.920   5.142 -34.955  1.00  0.00     0.269 C 
HETATM   29  C   UNL     1      -2.343   4.039 -32.760  1.00  0.00     0.236 C 
HETATM   30  C   UNL     1      -2.857   4.276 -31.351  1.00  0.00     0.053 C 
ENDBRANCH  21  23
ENDBRANCH   2  21
TORSDOF 5
ENDMDL
MODEL 6
REMARK VINA RESULT:      -7.8      2.922      7.358
REMARK  5 active torsions:
REMARK  status: ('A' for Active; 'I' for Inactive)
REMARK    1  A    between atoms: C_5  and  C_6 
REMARK    2  A    between atoms: N_9  and  C_11 
REMARK    3  A    between atoms: C_11  and  C_12 
REMARK    4  A    between atoms: C_13  and  N_14 
REMARK    5  A    between atoms: N_14  and  C_15 
ROOT
HETATM    1  C   UNL     1      -7.561  -0.054 -33.101  1.00  0.00    -0.006 A 
HETATM    2  C   UNL     1      -6.246   0.465 -33.118  1.00  0.00     0.038 A 
HETATM    3  C   UNL     1      -5.229  -0.320 -33.698  1.00  0.00     0.030 A 
HETATM    4  C   UNL     1      -5.493  -1.577 -34.244  1.00  0.00     0.002 A 
HETATM    5  C   UNL     1      -6.787  -2.071 -34.248  1.00  0.00     0.001 A 
HETATM    6  C   UNL     1      -7.813  -1.313 -33.693  1.00  0.00     0.011 A 
ENDROOT
BRANCH   1   7
HETATM    7  C   UNL     1      -8.730   0.711 -32.535  1.00  0.00     0.275 C 
BRANCH   7   8
HETATM    8  N   UNL     1      -9.602   1.404 -33.585  1.00  0.00    -0.067 N 
HETATM    9  C   UNL     1     -10.993   0.815 -33.567  1.00  0.00     0.236 C 
HETATM   10  C   UNL     1     -11.856   1.468 -34.637  1.00  0.00     0.037 C 
HETATM   11  C   UNL     1     -11.955   2.989 -34.434  1.00  0.00     0.025 C 
HETATM   12  C   UNL     1     -10.531   3.556 -34.470  1.00  0.00     0.037 C 
HETATM   13  C   UNL     1      -9.611   2.910 -33.440  1.00  0.00     0.236 C 
HETATM   14  H   UNL     1      -9.168   1.193 -34.489  1.00  0.00     0.280 HD
BRANCH  11  15
HETATM   15  C   UNL     1     -12.727   3.350 -33.193  1.00  0.00    -0.018 A 
HETATM   16  C   UNL     1     -13.879   2.696 -32.684  1.00  0.00     0.147 A 
HETATM   17  N   UNL     1     -14.285   3.201 -31.522  1.00  0.00    -0.185 NA
HETATM   18  N   UNL     1     -13.485   4.259 -31.328  1.00  0.00    -0.285 N 
HETATM   19  C   UNL     1     -13.675   5.095 -30.166  1.00  0.00     0.179 C 
HETATM   20  C   UNL     1     -12.529   4.386 -32.299  1.00  0.00     0.120 A 
ENDBRANCH  11  15
ENDBRANCH   7   8
ENDBRANCH   1   7
BRANCH   2  21
HETATM   21  N   UNL     1      -5.979   1.780 -32.667  1.00  0.00    -0.380 N 
HETATM   22  C   UNL     1      -5.961   2.740 -33.781  1.00  0.00     0.150 C 
BRANCH  21  23
HETATM   23  C   UNL     1      -5.024   1.913 -31.539  1.00  0.00     0.087 C 
HETATM   24  C   UNL     1      -5.531   2.900 -30.473  1.00  0.00     0.053 C 
HETATM   25  C   UNL     1      -5.064   4.338 -30.650  1.00  0.00     0.236 C 
HETATM   26  N   UNL     1      -3.575   4.377 -30.843  1.00  0.00    -0.075 N 
HETATM   27  H   UNL     1      -3.125   3.953 -30.019  1.00  0.00     0.279 HD
HETATM   28  C   UNL     1      -3.054   5.796 -30.882  1.00  0.00     0.269 C 
HETATM   29  C   UNL     1      -3.156   3.605 -32.065  1.00  0.00     0.236 C 
HETATM   30  C   UNL     1      -3.557   2.148 -31.911  1.00  0.00     0.053 C 
ENDBRANCH  21  23
ENDBRANCH   2  21
TORSDOF 5
ENDMDL
MODEL 7
REMARK VINA RESULT:      -7.7      2.538      6.399
REMARK  5 active torsions:
REMARK  status: ('A' for Active; 'I' for Inactive)
REMARK    1  A    between atoms: C_5  and  C_6 
REMARK    2  A    between atoms: N_9  and  C_11 
REMARK    3  A    between atoms: C_11  and  C_12 
REMARK    4  A    between atoms: C_13  and  N_14 
REMARK    5  A    between atoms: N_14  and  C_15 
ROOT
HETATM    1  C   UNL     1      -5.915   2.401 -31.387  1.00  0.00    -0.006 A 
HETATM    2  C   UNL     1      -5.003   1.513 -32.003  1.00  0.00     0.038 A 
HETATM    3  C   UNL     1      -3.674   1.945 -32.184  1.00  0.00     0.030 A 
HETATM    4  C   UNL     1      -3.252   3.212 -31.777  1.00  0.00     0.002 A 
HETATM    5  C   UNL     1      -4.143   4.069 -31.152  1.00  0.00     0.001 A 
HETATM    6  C   UNL     1      -5.458   3.664 -30.948  1.00  0.00     0.011 A 
ENDROOT
BRANCH   1   7
HETATM    7  C   UNL     1      -7.351   2.032 -31.115  1.00  0.00     0.275 C 
BRANCH   7   8
HETATM    8  N   UNL     1      -8.119   1.527 -32.339  1.00  0.00    -0.067 N 
HETATM    9  C   UNL     1      -9.360   0.787 -31.897  1.00  0.00     0.236 C 
HETATM   10  C   UNL     1     -10.108   0.245 -33.106  1.00  0.00     0.037 C 
HETATM   11  C   UNL     1     -10.514   1.369 -34.073  1.00  0.00     0.025 C 
HETATM   12  C   UNL     1      -9.235   2.091 -34.510  1.00  0.00     0.037 C 
HETATM   13  C   UNL     1      -8.425   2.626 -33.334  1.00  0.00     0.236 C 
HETATM   14  H   UNL     1      -7.491   0.867 -32.806  1.00  0.00     0.280 HD
BRANCH  11  15
HETATM   15  C   UNL     1     -11.559   2.278 -33.482  1.00  0.00    -0.018 A 
HETATM   16  C   UNL     1     -11.407   3.649 -33.148  1.00  0.00     0.147 A 
HETATM   17  N   UNL     1     -12.539   4.201 -32.718  1.00  0.00    -0.185 NA
HETATM   18  N   UNL     1     -13.398   3.174 -32.649  1.00  0.00    -0.285 N 
HETATM   19  C   UNL     1     -14.739   3.396 -32.162  1.00  0.00     0.179 C 
HETATM   20  C   UNL     1     -12.860   2.001 -33.103  1.00  0.00     0.120 A 
ENDBRANCH  11  15
ENDBRANCH   7   8
ENDBRANCH   1   7
BRANCH   2  21
HETATM   21  N   UNL     1      -5.385   0.188 -32.324  1.00  0.00    -0.380 N 
HETATM   22  C   UNL     1      -5.131  -0.734 -31.206  1.00  0.00     0.150 C 
BRANCH  21  23
HETATM   23  C   UNL     1      -5.162  -0.245 -33.726  1.00  0.00     0.087 C 
HETATM   24  C   UNL     1      -6.487  -0.515 -34.459  1.00  0.00     0.053 C 
HETATM   25  C   UNL     1      -6.973  -1.958 -34.404  1.00  0.00     0.236 C 
HETATM   26  N   UNL     1      -5.865  -2.890 -34.803  1.00  0.00    -0.075 N 
HETATM   27  H   UNL     1      -5.561  -2.651 -35.757  1.00  0.00     0.279 HD
HETATM   28  C   UNL     1      -6.347  -4.321 -34.896  1.00  0.00     0.269 C 
HETATM   29  C   UNL     1      -4.682  -2.770 -33.880  1.00  0.00     0.236 C 
HETATM   30  C   UNL     1      -4.130  -1.356 -33.941  1.00  0.00     0.053 C 
ENDBRANCH  21  23
ENDBRANCH   2  21
TORSDOF 5
ENDMDL
MODEL 8
REMARK VINA RESULT:      -7.7      2.232      3.545
REMARK  5 active torsions:
REMARK  status: ('A' for Active; 'I' for Inactive)
REMARK    1  A    between atoms: C_5  and  C_6 
REMARK    2  A    between atoms: N_9  and  C_11 
REMARK    3  A    between atoms: C_11  and  C_12 
REMARK    4  A    between atoms: C_13  and  N_14 
REMARK    5  A    between atoms: N_14  and  C_15 
ROOT
HETATM    1  C   UNL     1      -6.713   3.275 -30.678  1.00  0.00    -0.006 A 
HETATM    2  C   UNL     1      -7.388   2.445 -31.602  1.00  0.00     0.038 A 
HETATM    3  C   UNL     1      -8.784   2.592 -31.731  1.00  0.00     0.030 A 
HETATM    4  C   UNL     1      -9.497   3.522 -30.975  1.00  0.00     0.002 A 
HETATM    5  C   UNL     1      -8.828   4.351 -30.089  1.00  0.00     0.001 A 
HETATM    6  C   UNL     1      -7.449   4.237 -29.950  1.00  0.00     0.011 A 
ENDROOT
BRANCH   1   7
HETATM    7  C   UNL     1      -5.219   3.226 -30.482  1.00  0.00     0.275 C 
BRANCH   7   8
HETATM    8  N   UNL     1      -4.422   4.097 -31.456  1.00  0.00    -0.067 N 
HETATM    9  C   UNL     1      -4.194   5.464 -30.855  1.00  0.00     0.236 C 
HETATM   10  C   UNL     1      -3.439   6.351 -31.834  1.00  0.00     0.037 C 
HETATM   11  C   UNL     1      -2.081   5.741 -32.221  1.00  0.00     0.025 C 
HETATM   12  C   UNL     1      -2.349   4.364 -32.838  1.00  0.00     0.037 C 
HETATM   13  C   UNL     1      -3.136   3.443 -31.911  1.00  0.00     0.236 C 
HETATM   14  H   UNL     1      -5.016   4.197 -32.286  1.00  0.00     0.280 HD
BRANCH  11  15
HETATM   15  C   UNL     1      -1.118   5.718 -31.065  1.00  0.00    -0.018 A 
HETATM   16  C   UNL     1      -0.027   4.829 -30.880  1.00  0.00     0.147 A 
HETATM   17  N   UNL     1       0.690   5.112 -29.796  1.00  0.00    -0.185 NA
HETATM   18  N   UNL     1       0.005   6.100 -29.201  1.00  0.00    -0.285 N 
HETATM   19  C   UNL     1       0.471   6.636 -27.943  1.00  0.00     0.179 C 
HETATM   20  C   UNL     1      -1.082   6.503 -29.927  1.00  0.00     0.120 A 
ENDBRANCH  11  15
ENDBRANCH   7   8
ENDBRANCH   1   7
BRANCH   2  21
HETATM   21  N   UNL     1      -6.669   1.572 -32.454  1.00  0.00    -0.380 N 
HETATM   22  C   UNL     1      -6.516   2.137 -33.803  1.00  0.00     0.150 C 
BRANCH  21  23
HETATM   23  C   UNL     1      -6.904   0.119 -32.265  1.00  0.00     0.087 C 
HETATM   24  C   UNL     1      -5.682  -0.585 -31.651  1.00  0.00     0.053 C 
HETATM   25  C   UNL     1      -4.704  -1.176 -32.658  1.00  0.00     0.236 C 
HETATM   26  N   UNL     1      -5.440  -2.019 -33.659  1.00  0.00    -0.075 N 
HETATM   27  H   UNL     1      -5.935  -2.770 -33.157  1.00  0.00     0.279 HD
HETATM   28  C   UNL     1      -4.490  -2.736 -34.591  1.00  0.00     0.269 C 
HETATM   29  C   UNL     1      -6.453  -1.209 -34.425  1.00  0.00     0.236 C 
HETATM   30  C   UNL     1      -7.482  -0.640 -33.464  1.00  0.00     0.053 C 
ENDBRANCH  21  23
ENDBRANCH   2  21
TORSDOF 5
ENDMDL
MODEL 9
REMARK VINA RESULT:      -7.7      2.171      5.138
REMARK  5 active torsions:
REMARK  status: ('A' for Active; 'I' for Inactive)
REMARK    1  A    between atoms: C_5  and  C_6 
REMARK    2  A    between atoms: N_9  and  C_11 
REMARK    3  A    between atoms: C_11  and  C_12 
REMARK    4  A    between atoms: C_13  and  N_14 
REMARK    5  A    between atoms: N_14  and  C_15 
ROOT
HETATM    1  C   UNL     1      -5.911   0.637 -32.898  1.00  0.00    -0.006 A 
HETATM    2  C   UNL     1      -7.254   0.337 -33.223  1.00  0.00     0.038 A 
HETATM    3  C   UNL     1      -7.518  -0.859 -33.919  1.00  0.00     0.030 A 
HETATM    4  C   UNL     1      -6.496  -1.735 -34.288  1.00  0.00     0.002 A 
HETATM    5  C   UNL     1      -5.184  -1.450 -33.946  1.00  0.00     0.001 A 
HETATM    6  C   UNL     1      -4.896  -0.282 -33.247  1.00  0.00     0.011 A 
ENDROOT
BRANCH   1   7
HETATM    7  C   UNL     1      -5.517   1.872 -32.128  1.00  0.00     0.275 C 
BRANCH   7   8
HETATM    8  N   UNL     1      -4.674   2.872 -32.922  1.00  0.00    -0.067 N 
HETATM    9  C   UNL     1      -5.437   4.164 -33.094  1.00  0.00     0.236 C 
HETATM   10  C   UNL     1      -4.623   5.151 -33.920  1.00  0.00     0.037 C 
HETATM   11  C   UNL     1      -3.266   5.455 -33.265  1.00  0.00     0.025 C 
HETATM   12  C   UNL     1      -2.514   4.127 -33.116  1.00  0.00     0.037 C 
HETATM   13  C   UNL     1      -3.300   3.086 -32.325  1.00  0.00     0.236 C 
HETATM   14  H   UNL     1      -4.536   2.446 -33.844  1.00  0.00     0.280 HD
BRANCH  11  15
HETATM   15  C   UNL     1      -3.414   6.221 -31.978  1.00  0.00    -0.018 A 
HETATM   16  C   UNL     1      -4.417   7.174 -31.662  1.00  0.00     0.147 A 
HETATM   17  N   UNL     1      -4.327   7.621 -30.412  1.00  0.00    -0.185 NA
HETATM   18  N   UNL     1      -3.199   7.064 -29.947  1.00  0.00    -0.285 N 
HETATM   19  C   UNL     1      -2.748   7.373 -28.610  1.00  0.00     0.179 C 
HETATM   20  C   UNL     1      -2.619   6.211 -30.846  1.00  0.00     0.120 A 
ENDBRANCH  11  15
ENDBRANCH   7   8
ENDBRANCH   1   7
BRANCH   2  21
HETATM   21  N   UNL     1      -8.312   1.158 -32.764  1.00  0.00    -0.380 N 
HETATM   22  C   UNL     1      -9.094   0.494 -31.710  1.00  0.00     0.150 C 
BRANCH  21  23
HETATM   23  C   UNL     1      -8.983   2.006 -33.781  1.00  0.00     0.087 C 
HETATM   24  C   UNL     1      -9.019   3.485 -33.360  1.00  0.00     0.053 C 
HETATM   25  C   UNL     1     -10.273   3.912 -32.609  1.00  0.00     0.236 C 
HETATM   26  N   UNL     1     -11.498   3.472 -33.358  1.00  0.00    -0.075 N 
HETATM   27  H   UNL     1     -11.480   3.896 -34.297  1.00  0.00     0.279 HD
HETATM   28  C   UNL     1     -12.763   3.998 -32.718  1.00  0.00     0.269 C 
HETATM   29  C   UNL     1     -11.543   1.975 -33.512  1.00  0.00     0.236 C 
HETATM   30  C   UNL     1     -10.334   1.507 -34.303  1.00  0.00     0.053 C 
ENDBRANCH  21  23
ENDBRANCH   2  21
TORSDOF 5
ENDMDL
MODEL 10
REMARK VINA RESULT:      -7.6      2.843      7.309
REMARK  5 active torsions:
REMARK  status: ('A' for Active; 'I' for Inactive)
REMARK    1  A    between atoms: C_5  and  C_6 
REMARK    2  A    between atoms: N_9  and  C_11 
REMARK    3  A    between atoms: C_11  and  C_12 
REMARK    4  A    between atoms: C_13  and  N_14 
REMARK    5  A    between atoms: N_14  and  C_15 
ROOT
HETATM    1  C   UNL     1      -7.450  -0.156 -32.893  1.00  0.00    -0.006 A 
HETATM    2  C   UNL     1      -6.141   0.057 -32.402  1.00  0.00     0.038 A 
HETATM    3  C   UNL     1      -5.087  -0.679 -32.979  1.00  0.00     0.030 A 
HETATM    4  C   UNL     1      -5.309  -1.600 -34.004  1.00  0.00     0.002 A 
HETATM    5  C   UNL     1      -6.590  -1.788 -34.499  1.00  0.00     0.001 A 
HETATM    6  C   UNL     1      -7.648  -1.065 -33.957  1.00  0.00     0.011 A 
ENDROOT
BRANCH   1   7
HETATM    7  C   UNL     1      -8.646   0.598 -32.372  1.00  0.00     0.275 C 
BRANCH   7   8
HETATM    8  N   UNL     1      -9.504   1.254 -33.457  1.00  0.00    -0.067 N 
HETATM    9  C   UNL     1     -10.892   0.659 -33.443  1.00  0.00     0.236 C 
HETATM   10  C   UNL     1     -11.741   1.274 -34.547  1.00  0.00     0.037 C 
HETATM   11  C   UNL     1     -11.849   2.800 -34.395  1.00  0.00     0.025 C 
HETATM   12  C   UNL     1     -10.427   3.372 -34.425  1.00  0.00     0.037 C 
HETATM   13  C   UNL     1      -9.521   2.764 -33.360  1.00  0.00     0.236 C 
HETATM   14  H   UNL     1      -9.054   1.016 -34.346  1.00  0.00     0.280 HD
BRANCH  11  15
HETATM   15  C   UNL     1     -12.642   3.196 -33.179  1.00  0.00    -0.018 A 
HETATM   16  C   UNL     1     -13.860   2.622 -32.729  1.00  0.00     0.147 A 
HETATM   17  N   UNL     1     -14.275   3.136 -31.574  1.00  0.00    -0.185 NA
HETATM   18  N   UNL     1     -13.408   4.128 -31.327  1.00  0.00    -0.285 N 
HETATM   19  C   UNL     1     -13.583   4.956 -30.157  1.00  0.00     0.179 C 
HETATM   20  C   UNL     1     -12.406   4.200 -32.256  1.00  0.00     0.120 A 
ENDBRANCH  11  15
ENDBRANCH   7   8
ENDBRANCH   1   7
BRANCH   2  21
HETATM   21  N   UNL     1      -5.882   1.062 -31.439  1.00  0.00    -0.380 N 
HETATM   22  C   UNL     1      -6.091   0.567 -30.070  1.00  0.00     0.150 C 
BRANCH  21  23
HETATM   23  C   UNL     1      -6.264   2.448 -31.808  1.00  0.00     0.087 C 
HETATM   24  C   UNL     1      -5.388   3.000 -32.946  1.00  0.00     0.053 C 
HETATM   25  C   UNL     1      -4.158   3.776 -32.495  1.00  0.00     0.236 C 
HETATM   26  N   UNL     1      -4.546   4.813 -31.480  1.00  0.00    -0.075 N 
HETATM   27  H   UNL     1      -5.235   5.449 -31.905  1.00  0.00     0.279 HD
HETATM   28  C   UNL     1      -3.376   5.697 -31.111  1.00  0.00     0.269 C 
HETATM   29  C   UNL     1      -5.166   4.186 -30.259  1.00  0.00     0.236 C 
HETATM   30  C   UNL     1      -6.429   3.441 -30.654  1.00  0.00     0.053 C 
ENDBRANCH  21  23
ENDBRANCH   2  21
TORSDOF 5
ENDMDL
