MODEL 1
REMARK VINA RESULT:      -9.9      0.000      0.000
REMARK  7 active torsions:
REMARK  status: ('A' for Active; 'I' for Inactive)
REMARK    1  A    between atoms: C_2  and  C_3 
REMARK    2  A    between atoms: C_3  and  C_4 
REMARK    3  A    between atoms: C_7  and  C_8 
REMARK    4  A    between atoms: C_14  and  C_15 
REMARK    5  A    between atoms: C_16  and  O_17 
REMARK    6  A    between atoms: O_17  and  C_18 
REMARK       I    between atoms: C_18  and  N_19 
REMARK    7  A    between atoms: C_33  and  N_34 
ROOT
HETATM    1  C   UNL     1      -9.416   1.188 -33.309  1.00  0.00     0.099 A 
HETATM    2  N   UNL     1     -10.628   0.603 -33.307  1.00  0.00    -0.172 NA
HETATM    3  N   UNL     1     -11.494   1.619 -33.144  1.00  0.00    -0.256 N 
HETATM    4  H   UNL     1     -12.488   1.421 -33.151  1.00  0.00     0.191 HD
HETATM    5  C   UNL     1     -10.877   2.821 -33.018  1.00  0.00     0.175 A 
HETATM    6  C   UNL     1      -9.525   2.585 -33.054  1.00  0.00     0.040 A 
HETATM    7  C   UNL     1      -8.572   3.733 -32.960  1.00  0.00     0.108 A 
HETATM    8  C   UNL     1      -9.345   5.036 -32.800  1.00  0.00     0.072 A 
HETATM    9  C   UNL     1      -8.497   6.265 -32.517  1.00  0.00     0.021 C 
HETATM   10  N   UNL     1      -7.793   7.285 -32.282  1.00  0.00    -0.096 N 
HETATM   11  C   UNL     1     -10.700   5.127 -32.809  1.00  0.00     0.160 A 
HETATM   12  O   UNL     1     -11.511   3.984 -32.919  1.00  0.00    -0.274 OA
ENDROOT
BRANCH   7  13
HETATM   13  C   UNL     1      -7.552   3.408 -31.874  1.00  0.00    -0.010 C 
HETATM   14  C   UNL     1      -6.167   3.237 -32.055  1.00  0.00     0.088 C 
HETATM   15  C   UNL     1      -5.306   3.090 -30.953  1.00  0.00     0.038 C 
HETATM   16  C   UNL     1      -5.819   2.987 -29.664  1.00  0.00     0.003 C 
HETATM   17  C   UNL     1      -7.190   3.040 -29.468  1.00  0.00     0.001 C 
HETATM   18  C   UNL     1      -8.040   3.247 -30.557  1.00  0.00     0.011 C 
BRANCH  14  19
HETATM   19  O   UNL     1      -5.624   3.192 -33.357  1.00  0.00    -0.261 OA
BRANCH  19  20
HETATM   20  C   UNL     1      -5.242   4.422 -33.920  1.00  0.00     0.368 C 
HETATM   21  N   UNL     1      -3.894   4.699 -33.775  1.00  0.00    -0.324 N 
HETATM   22  C   UNL     1      -3.314   5.799 -34.549  1.00  0.00     0.154 C 
HETATM   23  C   UNL     1      -2.925   3.769 -33.207  1.00  0.00     0.154 C 
HETATM   24  C   UNL     1      -2.152   6.462 -33.805  1.00  0.00     0.187 C 
HETATM   25  O   UNL     1      -1.190   5.489 -33.368  1.00  0.00    -0.388 OA
HETATM   26  C   UNL     1      -1.807   4.534 -32.491  1.00  0.00     0.187 C 
HETATM   27  O   UNL     1      -6.007   5.197 -34.488  1.00  0.00    -0.238 OA
ENDBRANCH  19  20
ENDBRANCH  14  19
ENDBRANCH   7  13
BRANCH  11  28
HETATM   28  N   UNL     1     -11.423   6.287 -32.689  1.00  0.00    -0.379 N 
HETATM   29  H   UNL     1     -10.978   7.068 -32.213  1.00  0.00     0.158 HD
HETATM   30  H   UNL     1     -12.401   6.142 -32.461  1.00  0.00     0.158 HD
ENDBRANCH  11  28
BRANCH   1  31
HETATM   31  C   UNL     1      -8.212   0.407 -33.561  1.00  0.00    -0.005 A 
HETATM   32  C   UNL     1      -7.449  -0.082 -32.496  1.00  0.00     0.014 A 
HETATM   33  C   UNL     1      -6.381  -0.951 -32.739  1.00  0.00     0.008 A 
HETATM   34  C   UNL     1      -6.051  -1.336 -34.047  1.00  0.00    -0.058 A 
HETATM   35  C   UNL     1      -6.748  -0.747 -35.110  1.00  0.00     0.008 A 
HETATM   36  C   UNL     1      -7.830   0.106 -34.870  1.00  0.00     0.014 A 
BRANCH  34  37
HETATM   37  C   UNL     1      -4.934  -2.337 -34.253  1.00  0.00     0.042 C 
BRANCH  37  38
HETATM   38  C   UNL     1      -5.309  -3.705 -34.864  1.00  0.00    -0.019 C 
HETATM   39  C   UNL     1      -6.792  -4.049 -34.688  1.00  0.00     0.010 C 
HETATM   40  C   UNL     1      -4.460  -4.805 -34.217  1.00  0.00     0.010 C 
ENDBRANCH  37  38
ENDBRANCH  34  37
ENDBRANCH   1  31
TORSDOF 7
ENDMDL
MODEL 2
REMARK VINA RESULT:      -9.5      2.271      4.317
REMARK  7 active torsions:
REMARK  status: ('A' for Active; 'I' for Inactive)
REMARK    1  A    between atoms: C_2  and  C_3 
REMARK    2  A    between atoms: C_3  and  C_4 
REMARK    3  A    between atoms: C_7  and  C_8 
REMARK    4  A    between atoms: C_14  and  C_15 
REMARK    5  A    between atoms: C_16  and  O_17 
REMARK    6  A    between atoms: O_17  and  C_18 
REMARK       I    between atoms: C_18  and  N_19 
REMARK    7  A    between atoms: C_33  and  N_34 
ROOT
HETATM    1  C   UNL     1      -8.446   2.081 -34.018  1.00  0.00     0.099 A 
HETATM    2  N   UNL     1      -9.725   2.391 -34.300  1.00  0.00    -0.172 NA
HETATM    3  N   UNL     1      -9.812   3.714 -34.068  1.00  0.00    -0.256 N 
HETATM    4  H   UNL     1     -10.689   4.186 -34.253  1.00  0.00     0.191 HD
HETATM    5  C   UNL     1      -8.646   4.248 -33.628  1.00  0.00     0.175 A 
HETATM    6  C   UNL     1      -7.747   3.216 -33.517  1.00  0.00     0.040 A 
HETATM    7  C   UNL     1      -6.347   3.499 -33.071  1.00  0.00     0.108 A 
HETATM    8  C   UNL     1      -6.190   4.985 -32.773  1.00  0.00     0.072 A 
HETATM    9  C   UNL     1      -4.866   5.386 -32.142  1.00  0.00     0.021 C 
HETATM   10  N   UNL     1      -3.768   5.718 -31.619  1.00  0.00    -0.096 N 
HETATM   11  C   UNL     1      -7.168   5.910 -32.955  1.00  0.00     0.160 A 
HETATM   12  O   UNL     1      -8.452   5.542 -33.396  1.00  0.00    -0.274 OA
ENDROOT
BRANCH   7  13
HETATM   13  C   UNL     1      -6.015   2.538 -31.935  1.00  0.00    -0.010 C 
HETATM   14  C   UNL     1      -6.733   2.387 -30.734  1.00  0.00     0.088 C 
HETATM   15  C   UNL     1      -6.417   1.360 -29.826  1.00  0.00     0.038 C 
HETATM   16  C   UNL     1      -5.309   0.546 -30.037  1.00  0.00     0.003 C 
HETATM   17  C   UNL     1      -4.518   0.746 -31.158  1.00  0.00     0.001 C 
HETATM   18  C   UNL     1      -4.867   1.727 -32.089  1.00  0.00     0.011 C 
BRANCH  14  19
HETATM   19  O   UNL     1      -7.774   3.285 -30.415  1.00  0.00    -0.261 OA
BRANCH  19  20
HETATM   20  C   UNL     1      -7.430   4.385 -29.609  1.00  0.00     0.368 C 
HETATM   21  N   UNL     1      -8.420   5.349 -29.541  1.00  0.00    -0.324 N 
HETATM   22  C   UNL     1      -8.309   6.401 -28.528  1.00  0.00     0.154 C 
HETATM   23  C   UNL     1      -9.743   5.205 -30.135  1.00  0.00     0.154 C 
HETATM   24  C   UNL     1      -8.942   7.712 -29.002  1.00  0.00     0.187 C 
HETATM   25  O   UNL     1     -10.282   7.501 -29.477  1.00  0.00    -0.388 OA
HETATM   26  C   UNL     1     -10.285   6.571 -30.570  1.00  0.00     0.187 C 
HETATM   27  O   UNL     1      -6.361   4.507 -29.017  1.00  0.00    -0.238 OA
ENDBRANCH  19  20
ENDBRANCH  14  19
ENDBRANCH   7  13
BRANCH  11  28
HETATM   28  N   UNL     1      -7.049   7.255 -32.718  1.00  0.00    -0.379 N 
HETATM   29  H   UNL     1      -6.941   7.865 -33.525  1.00  0.00     0.158 HD
HETATM   30  H   UNL     1      -6.461   7.483 -31.922  1.00  0.00     0.158 HD
ENDBRANCH  11  28
BRANCH   1  31
HETATM   31  C   UNL     1      -7.939   0.735 -34.244  1.00  0.00    -0.005 A 
HETATM   32  C   UNL     1      -7.113   0.462 -35.339  1.00  0.00     0.014 A 
HETATM   33  C   UNL     1      -6.512  -0.792 -35.469  1.00  0.00     0.008 A 
HETATM   34  C   UNL     1      -6.735  -1.799 -34.518  1.00  0.00    -0.058 A 
HETATM   35  C   UNL     1      -7.656  -1.552 -33.492  1.00  0.00     0.008 A 
HETATM   36  C   UNL     1      -8.243  -0.291 -33.346  1.00  0.00     0.014 A 
BRANCH  34  37
HETATM   37  C   UNL     1      -6.003  -3.116 -34.663  1.00  0.00     0.042 C 
BRANCH  37  38
HETATM   38  C   UNL     1      -4.479  -3.115 -34.410  1.00  0.00    -0.019 C 
HETATM   39  C   UNL     1      -3.928  -4.507 -34.086  1.00  0.00     0.010 C 
HETATM   40  C   UNL     1      -4.152  -2.165 -33.253  1.00  0.00     0.010 C 
ENDBRANCH  37  38
ENDBRANCH  34  37
ENDBRANCH   1  31
TORSDOF 7
ENDMDL
MODEL 3
REMARK VINA RESULT:      -9.4      2.931      5.218
REMARK  7 active torsions:
REMARK  status: ('A' for Active; 'I' for Inactive)
REMARK    1  A    between atoms: C_2  and  C_3 
REMARK    2  A    between atoms: C_3  and  C_4 
REMARK    3  A    between atoms: C_7  and  C_8 
REMARK    4  A    between atoms: C_14  and  C_15 
REMARK    5  A    between atoms: C_16  and  O_17 
REMARK    6  A    between atoms: O_17  and  C_18 
REMARK       I    between atoms: C_18  and  N_19 
REMARK    7  A    between atoms: C_33  and  N_34 
ROOT
HETATM    1  C   UNL     1      -9.490   0.315 -33.303  1.00  0.00     0.099 A 
HETATM    2  N   UNL     1     -10.430  -0.523 -32.828  1.00  0.00    -0.172 NA
HETATM    3  N   UNL     1     -11.592   0.127 -33.024  1.00  0.00    -0.256 N 
HETATM    4  H   UNL     1     -12.458  -0.336 -32.775  1.00  0.00     0.191 HD
HETATM    5  C   UNL     1     -11.423   1.351 -33.581  1.00  0.00     0.175 A 
HETATM    6  C   UNL     1     -10.071   1.546 -33.721  1.00  0.00     0.040 A 
HETATM    7  C   UNL     1      -9.566   2.813 -34.336  1.00  0.00     0.108 A 
HETATM    8  C   UNL     1     -10.739   3.721 -34.684  1.00  0.00     0.072 A 
HETATM    9  C   UNL     1     -10.362   5.117 -35.156  1.00  0.00     0.021 C 
HETATM   10  N   UNL     1     -10.050   6.274 -35.548  1.00  0.00    -0.096 N 
HETATM   11  C   UNL     1     -12.044   3.386 -34.514  1.00  0.00     0.160 A 
HETATM   12  O   UNL     1     -12.416   2.158 -33.939  1.00  0.00    -0.274 OA
ENDROOT
BRANCH   7  13
HETATM   13  C   UNL     1      -8.506   3.394 -33.408  1.00  0.00    -0.010 C 
HETATM   14  C   UNL     1      -8.709   3.846 -32.090  1.00  0.00     0.088 C 
HETATM   15  C   UNL     1      -7.623   4.222 -31.279  1.00  0.00     0.038 C 
HETATM   16  C   UNL     1      -6.335   4.271 -31.800  1.00  0.00     0.003 C 
HETATM   17  C   UNL     1      -6.123   3.937 -33.128  1.00  0.00     0.001 C 
HETATM   18  C   UNL     1      -7.192   3.507 -33.917  1.00  0.00     0.011 C 
BRANCH  14  19
HETATM   19  O   UNL     1     -10.018   3.947 -31.571  1.00  0.00    -0.261 OA
BRANCH  19  20
HETATM   20  C   UNL     1     -10.593   5.230 -31.564  1.00  0.00     0.368 C 
HETATM   21  N   UNL     1     -11.942   5.228 -31.258  1.00  0.00    -0.324 N 
HETATM   22  C   UNL     1     -12.595   6.501 -30.944  1.00  0.00     0.154 C 
HETATM   23  C   UNL     1     -12.687   4.040 -30.859  1.00  0.00     0.154 C 
HETATM   24  C   UNL     1     -14.067   6.500 -31.364  1.00  0.00     0.187 C 
HETATM   25  O   UNL     1     -14.756   5.350 -30.845  1.00  0.00    -0.388 OA
HETATM   26  C   UNL     1     -14.144   4.143 -31.323  1.00  0.00     0.187 C 
HETATM   27  O   UNL     1      -9.983   6.268 -31.806  1.00  0.00    -0.238 OA
ENDBRANCH  19  20
ENDBRANCH  14  19
ENDBRANCH   7  13
BRANCH  11  28
HETATM   28  N   UNL     1     -13.119   4.173 -34.839  1.00  0.00    -0.379 N 
HETATM   29  H   UNL     1     -13.045   5.169 -34.646  1.00  0.00     0.158 HD
HETATM   30  H   UNL     1     -14.017   3.756 -34.618  1.00  0.00     0.158 HD
ENDBRANCH  11  28
BRANCH   1  31
HETATM   31  C   UNL     1      -8.090  -0.086 -33.350  1.00  0.00    -0.005 A 
HETATM   32  C   UNL     1      -7.281   0.033 -32.216  1.00  0.00     0.014 A 
HETATM   33  C   UNL     1      -5.983  -0.488 -32.222  1.00  0.00     0.008 A 
HETATM   34  C   UNL     1      -5.470  -1.123 -33.363  1.00  0.00    -0.058 A 
HETATM   35  C   UNL     1      -6.247  -1.130 -34.528  1.00  0.00     0.008 A 
HETATM   36  C   UNL     1      -7.553  -0.629 -34.519  1.00  0.00     0.014 A 
BRANCH  34  37
HETATM   37  C   UNL     1      -4.086  -1.735 -33.296  1.00  0.00     0.042 C 
BRANCH  37  38
HETATM   38  C   UNL     1      -3.979  -3.198 -32.812  1.00  0.00    -0.019 C 
HETATM   39  C   UNL     1      -2.843  -3.410 -31.806  1.00  0.00     0.010 C 
HETATM   40  C   UNL     1      -3.762  -4.122 -34.015  1.00  0.00     0.010 C 
ENDBRANCH  37  38
ENDBRANCH  34  37
ENDBRANCH   1  31
TORSDOF 7
ENDMDL
MODEL 4
REMARK VINA RESULT:      -9.3      1.884      2.445
REMARK  7 active torsions:
REMARK  status: ('A' for Active; 'I' for Inactive)
REMARK    1  A    between atoms: C_2  and  C_3 
REMARK    2  A    between atoms: C_3  and  C_4 
REMARK    3  A    between atoms: C_7  and  C_8 
REMARK    4  A    between atoms: C_14  and  C_15 
REMARK    5  A    between atoms: C_16  and  O_17 
REMARK    6  A    between atoms: O_17  and  C_18 
REMARK       I    between atoms: C_18  and  N_19 
REMARK    7  A    between atoms: C_33  and  N_34 
ROOT
HETATM    1  C   UNL     1     -10.178   0.868 -33.110  1.00  0.00     0.099 A 
HETATM    2  N   UNL     1     -11.163  -0.049 -33.080  1.00  0.00    -0.172 NA
HETATM    3  N   UNL     1     -12.242   0.597 -33.556  1.00  0.00    -0.256 N 
HETATM    4  H   UNL     1     -13.110   0.085 -33.664  1.00  0.00     0.191 HD
HETATM    5  C   UNL     1     -11.987   1.893 -33.863  1.00  0.00     0.175 A 
HETATM    6  C   UNL     1     -10.677   2.135 -33.531  1.00  0.00     0.040 A 
HETATM    7  C   UNL     1     -10.089   3.488 -33.778  1.00  0.00     0.108 A 
HETATM    8  C   UNL     1     -11.148   4.412 -34.366  1.00  0.00     0.072 A 
HETATM    9  C   UNL     1     -10.735   5.869 -34.504  1.00  0.00     0.021 C 
HETATM   10  N   UNL     1     -10.392   7.077 -34.619  1.00  0.00    -0.096 N 
HETATM   11  C   UNL     1     -12.413   4.028 -34.674  1.00  0.00     0.160 A 
HETATM   12  O   UNL     1     -12.866   2.722 -34.416  1.00  0.00    -0.274 OA
ENDROOT
BRANCH   7  13
HETATM   13  C   UNL     1      -9.421   3.951 -32.488  1.00  0.00    -0.010 C 
HETATM   14  C   UNL     1      -8.036   4.061 -32.260  1.00  0.00     0.088 C 
HETATM   15  C   UNL     1      -7.542   4.645 -31.080  1.00  0.00     0.038 C 
HETATM   16  C   UNL     1      -8.409   5.016 -30.058  1.00  0.00     0.003 C 
HETATM   17  C   UNL     1      -9.772   4.815 -30.212  1.00  0.00     0.001 C 
HETATM   18  C   UNL     1     -10.267   4.290 -31.408  1.00  0.00     0.011 C 
BRANCH  14  19
HETATM   19  O   UNL     1      -7.121   3.564 -33.212  1.00  0.00    -0.261 OA
BRANCH  19  20
HETATM   20  C   UNL     1      -6.060   4.416 -33.566  1.00  0.00     0.368 C 
HETATM   21  N   UNL     1      -4.835   4.006 -33.070  1.00  0.00    -0.324 N 
HETATM   22  C   UNL     1      -3.618   4.636 -33.589  1.00  0.00     0.154 C 
HETATM   23  C   UNL     1      -4.621   2.754 -32.353  1.00  0.00     0.154 C 
HETATM   24  C   UNL     1      -2.513   4.686 -32.531  1.00  0.00     0.187 C 
HETATM   25  O   UNL     1      -2.293   3.393 -31.945  1.00  0.00    -0.388 OA
HETATM   26  C   UNL     1      -3.495   2.912 -31.326  1.00  0.00     0.187 C 
HETATM   27  O   UNL     1      -6.179   5.433 -34.244  1.00  0.00    -0.238 OA
ENDBRANCH  19  20
ENDBRANCH  14  19
ENDBRANCH   7  13
BRANCH  11  28
HETATM   28  N   UNL     1     -13.379   4.831 -35.225  1.00  0.00    -0.379 N 
HETATM   29  H   UNL     1     -13.069   5.658 -35.727  1.00  0.00     0.158 HD
HETATM   30  H   UNL     1     -14.192   4.964 -34.631  1.00  0.00     0.158 HD
ENDBRANCH  11  28
BRANCH   1  31
HETATM   31  C   UNL     1      -8.813   0.508 -32.753  1.00  0.00    -0.005 A 
HETATM   32  C   UNL     1      -8.344   0.713 -31.451  1.00  0.00     0.014 A 
HETATM   33  C   UNL     1      -7.087   0.233 -31.075  1.00  0.00     0.008 A 
HETATM   34  C   UNL     1      -6.273  -0.447 -31.994  1.00  0.00    -0.058 A 
HETATM   35  C   UNL     1      -6.704  -0.541 -33.323  1.00  0.00     0.008 A 
HETATM   36  C   UNL     1      -7.970  -0.080 -33.698  1.00  0.00     0.014 A 
BRANCH  34  37
HETATM   37  C   UNL     1      -4.951  -1.013 -31.518  1.00  0.00     0.042 C 
BRANCH  37  38
HETATM   38  C   UNL     1      -4.001  -1.596 -32.588  1.00  0.00    -0.019 C 
HETATM   39  C   UNL     1      -3.191  -2.792 -32.077  1.00  0.00     0.010 C 
HETATM   40  C   UNL     1      -3.037  -0.505 -33.067  1.00  0.00     0.010 C 
ENDBRANCH  37  38
ENDBRANCH  34  37
ENDBRANCH   1  31
TORSDOF 7
ENDMDL
MODEL 5
REMARK VINA RESULT:      -9.0      3.031      5.578
REMARK  7 active torsions:
REMARK  status: ('A' for Active; 'I' for Inactive)
REMARK    1  A    between atoms: C_2  and  C_3 
REMARK    2  A    between atoms: C_3  and  C_4 
REMARK    3  A    between atoms: C_7  and  C_8 
REMARK    4  A    between atoms: C_14  and  C_15 
REMARK    5  A    between atoms: C_16  and  O_17 
REMARK    6  A    between atoms: O_17  and  C_18 
REMARK       I    between atoms: C_18  and  N_19 
REMARK    7  A    between atoms: C_33  and  N_34 
ROOT
HETATM    1  C   UNL     1      -7.282   3.300 -32.634  1.00  0.00     0.099 A 
HETATM    2  N   UNL     1      -6.286   4.192 -32.793  1.00  0.00    -0.172 NA
HETATM    3  N   UNL     1      -6.736   5.310 -32.196  1.00  0.00    -0.256 N 
HETATM    4  H   UNL     1      -6.128   6.121 -32.155  1.00  0.00     0.191 HD
HETATM    5  C   UNL     1      -7.985   5.170 -31.687  1.00  0.00     0.175 A 
HETATM    6  C   UNL     1      -8.408   3.902 -32.003  1.00  0.00     0.040 A 
HETATM    7  C   UNL     1      -9.756   3.439 -31.551  1.00  0.00     0.108 A 
HETATM    8  C   UNL     1     -10.463   4.559 -30.799  1.00  0.00     0.072 A 
HETATM    9  C   UNL     1     -11.913   4.284 -30.435  1.00  0.00     0.021 C 
HETATM   10  N   UNL     1     -13.116   4.055 -30.132  1.00  0.00    -0.096 N 
HETATM   11  C   UNL     1      -9.909   5.770 -30.532  1.00  0.00     0.160 A 
HETATM   12  O   UNL     1      -8.622   6.104 -30.989  1.00  0.00    -0.274 OA
ENDROOT
BRANCH   7  13
HETATM   13  C   UNL     1     -10.484   2.866 -32.762  1.00  0.00    -0.010 C 
HETATM   14  C   UNL     1     -11.070   3.603 -33.808  1.00  0.00     0.088 C 
HETATM   15  C   UNL     1     -11.582   2.959 -34.949  1.00  0.00     0.038 C 
HETATM   16  C   UNL     1     -11.631   1.572 -35.015  1.00  0.00     0.003 C 
HETATM   17  C   UNL     1     -11.162   0.820 -33.949  1.00  0.00     0.001 C 
HETATM   18  C   UNL     1     -10.599   1.460 -32.842  1.00  0.00     0.011 C 
BRANCH  14  19
HETATM   19  O   UNL     1     -11.169   5.008 -33.714  1.00  0.00    -0.261 OA
BRANCH  19  20
HETATM   20  C   UNL     1     -10.485   5.752 -34.692  1.00  0.00     0.368 C 
HETATM   21  N   UNL     1     -11.232   6.793 -35.215  1.00  0.00    -0.324 N 
HETATM   22  C   UNL     1     -10.554   7.807 -36.027  1.00  0.00     0.154 C 
HETATM   23  C   UNL     1     -12.552   7.175 -34.730  1.00  0.00     0.154 C 
HETATM   24  C   UNL     1     -11.483   8.388 -37.096  1.00  0.00     0.187 C 
HETATM   25  O   UNL     1     -12.722   8.835 -36.522  1.00  0.00    -0.388 OA
HETATM   26  C   UNL     1     -13.397   7.746 -35.874  1.00  0.00     0.187 C 
HETATM   27  O   UNL     1      -9.338   5.522 -35.067  1.00  0.00    -0.238 OA
ENDBRANCH  19  20
ENDBRANCH  14  19
ENDBRANCH   7  13
BRANCH  11  28
HETATM   28  N   UNL     1     -10.512   6.788 -29.838  1.00  0.00    -0.379 N 
HETATM   29  H   UNL     1     -10.766   6.608 -28.870  1.00  0.00     0.158 HD
HETATM   30  H   UNL     1     -11.200   7.303 -30.378  1.00  0.00     0.158 HD
ENDBRANCH  11  28
BRANCH   1  31
HETATM   31  C   UNL     1      -7.123   1.921 -33.073  1.00  0.00    -0.005 A 
HETATM   32  C   UNL     1      -6.906   0.901 -32.142  1.00  0.00     0.014 A 
HETATM   33  C   UNL     1      -6.901  -0.435 -32.552  1.00  0.00     0.008 A 
HETATM   34  C   UNL     1      -7.100  -0.774 -33.899  1.00  0.00    -0.058 A 
HETATM   35  C   UNL     1      -7.197   0.261 -34.838  1.00  0.00     0.008 A 
HETATM   36  C   UNL     1      -7.224   1.598 -34.428  1.00  0.00     0.014 A 
BRANCH  34  37
HETATM   37  C   UNL     1      -7.159  -2.238 -34.282  1.00  0.00     0.042 C 
BRANCH  37  38
HETATM   38  C   UNL     1      -5.956  -2.820 -35.057  1.00  0.00    -0.019 C 
HETATM   39  C   UNL     1      -6.118  -4.309 -35.376  1.00  0.00     0.010 C 
HETATM   40  C   UNL     1      -4.675  -2.619 -34.239  1.00  0.00     0.010 C 
ENDBRANCH  37  38
ENDBRANCH  34  37
ENDBRANCH   1  31
TORSDOF 7
ENDMDL
MODEL 6
REMARK VINA RESULT:      -9.0      3.182      5.125
REMARK  7 active torsions:
REMARK  status: ('A' for Active; 'I' for Inactive)
REMARK    1  A    between atoms: C_2  and  C_3 
REMARK    2  A    between atoms: C_3  and  C_4 
REMARK    3  A    between atoms: C_7  and  C_8 
REMARK    4  A    between atoms: C_14  and  C_15 
REMARK    5  A    between atoms: C_16  and  O_17 
REMARK    6  A    between atoms: O_17  and  C_18 
REMARK       I    between atoms: C_18  and  N_19 
REMARK    7  A    between atoms: C_33  and  N_34 
ROOT
HETATM    1  C   UNL     1      -7.455   2.119 -32.378  1.00  0.00     0.099 A 
HETATM    2  N   UNL     1      -6.296   1.542 -32.746  1.00  0.00    -0.172 NA
HETATM    3  N   UNL     1      -5.384   2.038 -31.890  1.00  0.00    -0.256 N 
HETATM    4  H   UNL     1      -4.427   1.710 -31.951  1.00  0.00     0.191 HD
HETATM    5  C   UNL     1      -5.915   2.924 -31.011  1.00  0.00     0.175 A 
HETATM    6  C   UNL     1      -7.244   3.059 -31.329  1.00  0.00     0.040 A 
HETATM    7  C   UNL     1      -8.111   3.963 -30.511  1.00  0.00     0.108 A 
HETATM    8  C   UNL     1      -7.280   4.632 -29.423  1.00  0.00     0.072 A 
HETATM    9  C   UNL     1      -7.998   5.711 -28.628  1.00  0.00     0.021 C 
HETATM   10  N   UNL     1      -8.594   6.605 -27.968  1.00  0.00    -0.096 N 
HETATM   11  C   UNL     1      -5.964   4.381 -29.203  1.00  0.00     0.160 A 
HETATM   12  O   UNL     1      -5.239   3.498 -30.022  1.00  0.00    -0.274 OA
ENDROOT
BRANCH   7  13
HETATM   13  C   UNL     1      -8.854   4.889 -31.467  1.00  0.00    -0.010 C 
HETATM   14  C   UNL     1      -8.273   5.836 -32.331  1.00  0.00     0.088 C 
HETATM   15  C   UNL     1      -9.051   6.527 -33.277  1.00  0.00     0.038 C 
HETATM   16  C   UNL     1     -10.434   6.380 -33.297  1.00  0.00     0.003 C 
HETATM   17  C   UNL     1     -11.044   5.537 -32.382  1.00  0.00     0.001 C 
HETATM   18  C   UNL     1     -10.265   4.806 -31.483  1.00  0.00     0.011 C 
BRANCH  14  19
HETATM   19  O   UNL     1      -6.892   6.119 -32.244  1.00  0.00    -0.261 OA
BRANCH  19  20
HETATM   20  C   UNL     1      -6.085   5.635 -33.289  1.00  0.00     0.368 C 
HETATM   21  N   UNL     1      -4.744   5.939 -33.135  1.00  0.00    -0.324 N 
HETATM   22  C   UNL     1      -3.767   5.264 -33.993  1.00  0.00     0.154 C 
HETATM   23  C   UNL     1      -4.183   6.586 -31.956  1.00  0.00     0.154 C 
HETATM   24  C   UNL     1      -2.550   6.152 -34.269  1.00  0.00     0.187 C 
HETATM   25  O   UNL     1      -1.994   6.668 -33.049  1.00  0.00    -0.388 OA
HETATM   26  C   UNL     1      -2.973   7.443 -32.341  1.00  0.00     0.187 C 
HETATM   27  O   UNL     1      -6.503   5.007 -34.258  1.00  0.00    -0.238 OA
ENDBRANCH  19  20
ENDBRANCH  14  19
ENDBRANCH   7  13
BRANCH  11  28
HETATM   28  N   UNL     1      -5.197   4.951 -28.218  1.00  0.00    -0.379 N 
HETATM   29  H   UNL     1      -4.265   4.571 -28.073  1.00  0.00     0.158 HD
HETATM   30  H   UNL     1      -5.711   5.171 -27.371  1.00  0.00     0.158 HD
ENDBRANCH  11  28
BRANCH   1  31
HETATM   31  C   UNL     1      -8.708   1.751 -33.022  1.00  0.00    -0.005 A 
HETATM   32  C   UNL     1      -9.439   0.646 -32.573  1.00  0.00     0.014 A 
HETATM   33  C   UNL     1     -10.708   0.385 -33.096  1.00  0.00     0.008 A 
HETATM   34  C   UNL     1     -11.263   1.212 -34.084  1.00  0.00    -0.058 A 
HETATM   35  C   UNL     1     -10.473   2.243 -34.608  1.00  0.00     0.008 A 
HETATM   36  C   UNL     1      -9.212   2.520 -34.073  1.00  0.00     0.014 A 
BRANCH  34  37
HETATM   37  C   UNL     1     -12.671   0.931 -34.565  1.00  0.00     0.042 C 
BRANCH  37  38
HETATM   38  C   UNL     1     -13.816   1.076 -33.539  1.00  0.00    -0.019 C 
HETATM   39  C   UNL     1     -15.199   0.826 -34.150  1.00  0.00     0.010 C 
HETATM   40  C   UNL     1     -13.784   2.482 -32.930  1.00  0.00     0.010 C 
ENDBRANCH  37  38
ENDBRANCH  34  37
ENDBRANCH   1  31
TORSDOF 7
ENDMDL
MODEL 7
REMARK VINA RESULT:      -8.7      2.904      6.425
REMARK  7 active torsions:
REMARK  status: ('A' for Active; 'I' for Inactive)
REMARK    1  A    between atoms: C_2  and  C_3 
REMARK    2  A    between atoms: C_3  and  C_4 
REMARK    3  A    between atoms: C_7  and  C_8 
REMARK    4  A    between atoms: C_14  and  C_15 
REMARK    5  A    between atoms: C_16  and  O_17 
REMARK    6  A    between atoms: O_17  and  C_18 
REMARK       I    between atoms: C_18  and  N_19 
REMARK    7  A    between atoms: C_33  and  N_34 
ROOT
HETATM    1  C   UNL     1      -6.544   3.000 -31.215  1.00  0.00     0.099 A 
HETATM    2  N   UNL     1      -5.309   3.212 -30.724  1.00  0.00    -0.172 NA
HETATM    3  N   UNL     1      -5.462   4.221 -29.848  1.00  0.00    -0.256 N 
HETATM    4  H   UNL     1      -4.657   4.533 -29.316  1.00  0.00     0.191 HD
HETATM    5  C   UNL     1      -6.739   4.672 -29.782  1.00  0.00     0.175 A 
HETATM    6  C   UNL     1      -7.467   3.954 -30.699  1.00  0.00     0.040 A 
HETATM    7  C   UNL     1      -8.933   4.211 -30.843  1.00  0.00     0.108 A 
HETATM    8  C   UNL     1      -9.358   5.327 -29.897  1.00  0.00     0.072 A 
HETATM    9  C   UNL     1     -10.789   5.812 -30.064  1.00  0.00     0.021 C 
HETATM   10  N   UNL     1     -11.976   6.214 -30.203  1.00  0.00    -0.096 N 
HETATM   11  C   UNL     1      -8.528   5.938 -29.013  1.00  0.00     0.160 A 
HETATM   12  O   UNL     1      -7.162   5.611 -28.943  1.00  0.00    -0.274 OA
ENDROOT
BRANCH   7  13
HETATM   13  C   UNL     1      -9.226   4.426 -32.324  1.00  0.00    -0.010 C 
HETATM   14  C   UNL     1     -10.127   3.686 -33.112  1.00  0.00     0.088 C 
HETATM   15  C   UNL     1     -10.426   4.075 -34.430  1.00  0.00     0.038 C 
HETATM   16  C   UNL     1      -9.745   5.130 -35.026  1.00  0.00     0.003 C 
HETATM   17  C   UNL     1      -8.771   5.808 -34.309  1.00  0.00     0.001 C 
HETATM   18  C   UNL     1      -8.518   5.459 -32.980  1.00  0.00     0.011 C 
BRANCH  14  19
HETATM   19  O   UNL     1     -10.731   2.522 -32.589  1.00  0.00    -0.261 OA
BRANCH  19  20
HETATM   20  C   UNL     1     -11.311   1.643 -33.521  1.00  0.00     0.368 C 
HETATM   21  N   UNL     1     -12.693   1.692 -33.540  1.00  0.00    -0.324 N 
HETATM   22  C   UNL     1     -13.406   1.044 -34.643  1.00  0.00     0.154 C 
HETATM   23  C   UNL     1     -13.488   2.640 -32.768  1.00  0.00     0.154 C 
HETATM   24  C   UNL     1     -14.775   0.520 -34.201  1.00  0.00     0.187 C 
HETATM   25  O   UNL     1     -15.536   1.543 -33.540  1.00  0.00    -0.388 OA
HETATM   26  C   UNL     1     -14.834   2.020 -32.382  1.00  0.00     0.187 C 
HETATM   27  O   UNL     1     -10.677   0.890 -34.256  1.00  0.00    -0.238 OA
ENDBRANCH  19  20
ENDBRANCH  14  19
ENDBRANCH   7  13
BRANCH  11  28
HETATM   28  N   UNL     1      -8.887   6.928 -28.133  1.00  0.00    -0.379 N 
HETATM   29  H   UNL     1      -9.586   7.597 -28.444  1.00  0.00     0.158 HD
HETATM   30  H   UNL     1      -8.108   7.323 -27.617  1.00  0.00     0.158 HD
ENDBRANCH  11  28
BRANCH   1  31
HETATM   31  C   UNL     1      -6.800   1.903 -32.138  1.00  0.00    -0.005 A 
HETATM   32  C   UNL     1      -6.252   1.917 -33.425  1.00  0.00     0.014 A 
HETATM   33  C   UNL     1      -6.378   0.799 -34.254  1.00  0.00     0.008 A 
HETATM   34  C   UNL     1      -7.063  -0.345 -33.817  1.00  0.00    -0.058 A 
HETATM   35  C   UNL     1      -7.707  -0.302 -32.574  1.00  0.00     0.008 A 
HETATM   36  C   UNL     1      -7.565   0.807 -31.735  1.00  0.00     0.014 A 
BRANCH  34  37
HETATM   37  C   UNL     1      -7.109  -1.558 -34.723  1.00  0.00     0.042 C 
BRANCH  37  38
HETATM   38  C   UNL     1      -6.253  -2.780 -34.320  1.00  0.00    -0.019 C 
HETATM   39  C   UNL     1      -4.761  -2.581 -34.606  1.00  0.00     0.010 C 
HETATM   40  C   UNL     1      -6.747  -4.021 -35.070  1.00  0.00     0.010 C 
ENDBRANCH  37  38
ENDBRANCH  34  37
ENDBRANCH   1  31
TORSDOF 7
ENDMDL
MODEL 8
REMARK VINA RESULT:      -8.7      6.214     10.306
REMARK  7 active torsions:
REMARK  status: ('A' for Active; 'I' for Inactive)
REMARK    1  A    between atoms: C_2  and  C_3 
REMARK    2  A    between atoms: C_3  and  C_4 
REMARK    3  A    between atoms: C_7  and  C_8 
REMARK    4  A    between atoms: C_14  and  C_15 
REMARK    5  A    between atoms: C_16  and  O_17 
REMARK    6  A    between atoms: O_17  and  C_18 
REMARK       I    between atoms: C_18  and  N_19 
REMARK    7  A    between atoms: C_33  and  N_34 
ROOT
HETATM    1  C   UNL     1       0.549   8.134 -27.753  1.00  0.00     0.099 A 
HETATM    2  N   UNL     1       1.811   8.519 -27.487  1.00  0.00    -0.172 NA
HETATM    3  N   UNL     1       1.730   9.146 -26.299  1.00  0.00    -0.256 N 
HETATM    4  H   UNL     1       2.580   9.494 -25.871  1.00  0.00     0.191 HD
HETATM    5  C   UNL     1       0.464   9.195 -25.815  1.00  0.00     0.175 A 
HETATM    6  C   UNL     1      -0.348   8.608 -26.754  1.00  0.00     0.040 A 
HETATM    7  C   UNL     1      -1.816   8.490 -26.491  1.00  0.00     0.108 A 
HETATM    8  C   UNL     1      -2.153   9.120 -25.145  1.00  0.00     0.072 A 
HETATM    9  C   UNL     1      -3.636   9.226 -24.830  1.00  0.00     0.021 C 
HETATM   10  N   UNL     1      -4.867   9.314 -24.568  1.00  0.00    -0.096 N 
HETATM   11  C   UNL     1      -1.233   9.646 -24.295  1.00  0.00     0.160 A 
HETATM   12  O   UNL     1       0.131   9.696 -24.630  1.00  0.00    -0.274 OA
ENDROOT
BRANCH   7  13
HETATM   13  C   UNL     1      -2.555   9.041 -27.705  1.00  0.00    -0.010 C 
HETATM   14  C   UNL     1      -3.500   8.354 -28.489  1.00  0.00     0.088 C 
HETATM   15  C   UNL     1      -4.228   9.018 -29.493  1.00  0.00     0.038 C 
HETATM   16  C   UNL     1      -3.942  10.339 -29.816  1.00  0.00     0.003 C 
HETATM   17  C   UNL     1      -2.937  11.008 -29.134  1.00  0.00     0.001 C 
HETATM   18  C   UNL     1      -2.256  10.367 -28.097  1.00  0.00     0.011 C 
BRANCH  14  19
HETATM   19  O   UNL     1      -3.716   6.974 -28.287  1.00  0.00    -0.261 OA
BRANCH  19  20
HETATM   20  C   UNL     1      -5.000   6.596 -27.858  1.00  0.00     0.368 C 
HETATM   21  N   UNL     1      -5.703   5.864 -28.799  1.00  0.00    -0.324 N 
HETATM   22  C   UNL     1      -6.928   5.176 -28.384  1.00  0.00     0.154 C 
HETATM   23  C   UNL     1      -5.144   5.413 -30.067  1.00  0.00     0.154 C 
HETATM   24  C   UNL     1      -7.938   5.081 -29.530  1.00  0.00     0.187 C 
HETATM   25  O   UNL     1      -7.335   4.532 -30.713  1.00  0.00    -0.388 OA
HETATM   26  C   UNL     1      -6.236   5.350 -31.140  1.00  0.00     0.187 C 
HETATM   27  O   UNL     1      -5.479   6.876 -26.762  1.00  0.00    -0.238 OA
ENDBRANCH  19  20
ENDBRANCH  14  19
ENDBRANCH   7  13
BRANCH  11  28
HETATM   28  N   UNL     1      -1.504  10.199 -23.069  1.00  0.00    -0.379 N 
HETATM   29  H   UNL     1      -2.471  10.186 -22.754  1.00  0.00     0.158 HD
HETATM   30  H   UNL     1      -1.001  11.060 -22.885  1.00  0.00     0.158 HD
ENDBRANCH  11  28
BRANCH   1  31
HETATM   31  C   UNL     1       0.249   7.330 -28.929  1.00  0.00    -0.005 A 
HETATM   32  C   UNL     1       0.464   5.948 -28.917  1.00  0.00     0.014 A 
HETATM   33  C   UNL     1       0.039   5.162 -29.991  1.00  0.00     0.008 A 
HETATM   34  C   UNL     1      -0.596   5.742 -31.099  1.00  0.00    -0.058 A 
HETATM   35  C   UNL     1      -0.700   7.138 -31.151  1.00  0.00     0.008 A 
HETATM   36  C   UNL     1      -0.294   7.925 -30.069  1.00  0.00     0.014 A 
BRANCH  34  37
HETATM   37  C   UNL     1      -1.105   4.840 -32.204  1.00  0.00     0.042 C 
BRANCH  37  38
HETATM   38  C   UNL     1      -2.032   5.471 -33.267  1.00  0.00    -0.019 C 
HETATM   39  C   UNL     1      -3.327   4.678 -33.474  1.00  0.00     0.010 C 
HETATM   40  C   UNL     1      -1.287   5.571 -34.602  1.00  0.00     0.010 C 
ENDBRANCH  37  38
ENDBRANCH  34  37
ENDBRANCH   1  31
TORSDOF 7
ENDMDL
MODEL 9
REMARK VINA RESULT:      -8.4      3.888      8.398
REMARK  7 active torsions:
REMARK  status: ('A' for Active; 'I' for Inactive)
REMARK    1  A    between atoms: C_2  and  C_3 
REMARK    2  A    between atoms: C_3  and  C_4 
REMARK    3  A    between atoms: C_7  and  C_8 
REMARK    4  A    between atoms: C_14  and  C_15 
REMARK    5  A    between atoms: C_16  and  O_17 
REMARK    6  A    between atoms: O_17  and  C_18 
REMARK       I    between atoms: C_18  and  N_19 
REMARK    7  A    between atoms: C_33  and  N_34 
ROOT
HETATM    1  C   UNL     1      -2.387   5.205 -31.688  1.00  0.00     0.099 A 
HETATM    2  N   UNL     1      -2.078   4.039 -32.285  1.00  0.00    -0.172 NA
HETATM    3  N   UNL     1      -3.180   3.716 -32.986  1.00  0.00    -0.256 N 
HETATM    4  H   UNL     1      -3.167   2.879 -33.559  1.00  0.00     0.191 HD
HETATM    5  C   UNL     1      -4.181   4.618 -32.838  1.00  0.00     0.175 A 
HETATM    6  C   UNL     1      -3.738   5.569 -31.953  1.00  0.00     0.040 A 
HETATM    7  C   UNL     1      -4.623   6.723 -31.604  1.00  0.00     0.108 A 
HETATM    8  C   UNL     1      -5.957   6.589 -32.328  1.00  0.00     0.072 A 
HETATM    9  C   UNL     1      -7.018   7.602 -31.927  1.00  0.00     0.021 C 
HETATM   10  N   UNL     1      -7.898   8.441 -31.595  1.00  0.00    -0.096 N 
HETATM   11  C   UNL     1      -6.254   5.598 -33.207  1.00  0.00     0.160 A 
HETATM   12  O   UNL     1      -5.343   4.564 -33.482  1.00  0.00    -0.274 OA
ENDROOT
BRANCH   7  13
HETATM   13  C   UNL     1      -4.681   6.824 -30.083  1.00  0.00    -0.010 C 
HETATM   14  C   UNL     1      -5.110   5.820 -29.196  1.00  0.00     0.088 C 
HETATM   15  C   UNL     1      -4.975   5.976 -27.805  1.00  0.00     0.038 C 
HETATM   16  C   UNL     1      -4.526   7.178 -27.270  1.00  0.00     0.003 C 
HETATM   17  C   UNL     1      -4.201   8.225 -28.118  1.00  0.00     0.001 C 
HETATM   18  C   UNL     1      -4.279   8.048 -29.501  1.00  0.00     0.011 C 
BRANCH  14  19
HETATM   19  O   UNL     1      -5.705   4.641 -29.697  1.00  0.00    -0.261 OA
BRANCH  19  20
HETATM   20  C   UNL     1      -7.110   4.618 -29.742  1.00  0.00     0.368 C 
HETATM   21  N   UNL     1      -7.621   3.557 -30.468  1.00  0.00    -0.324 N 
HETATM   22  C   UNL     1      -9.051   3.256 -30.363  1.00  0.00     0.154 C 
HETATM   23  C   UNL     1      -6.808   2.487 -31.034  1.00  0.00     0.154 C 
HETATM   24  C   UNL     1      -9.598   2.655 -31.661  1.00  0.00     0.187 C 
HETATM   25  O   UNL     1      -8.800   1.542 -32.097  1.00  0.00    -0.388 OA
HETATM   26  C   UNL     1      -7.444   1.956 -32.322  1.00  0.00     0.187 C 
HETATM   27  O   UNL     1      -7.838   5.449 -29.205  1.00  0.00    -0.238 OA
ENDBRANCH  19  20
ENDBRANCH  14  19
ENDBRANCH   7  13
BRANCH  11  28
HETATM   28  N   UNL     1      -7.436   5.466 -33.890  1.00  0.00    -0.379 N 
HETATM   29  H   UNL     1      -8.256   5.923 -33.499  1.00  0.00     0.158 HD
HETATM   30  H   UNL     1      -7.596   4.535 -34.261  1.00  0.00     0.158 HD
ENDBRANCH  11  28
BRANCH   1  31
HETATM   31  C   UNL     1      -1.393   5.926 -30.905  1.00  0.00    -0.005 A 
HETATM   32  C   UNL     1      -1.305   7.320 -30.983  1.00  0.00     0.014 A 
HETATM   33  C   UNL     1      -0.453   8.018 -30.123  1.00  0.00     0.008 A 
HETATM   34  C   UNL     1       0.333   7.337 -29.182  1.00  0.00    -0.058 A 
HETATM   35  C   UNL     1       0.323   5.937 -29.194  1.00  0.00     0.008 A 
HETATM   36  C   UNL     1      -0.543   5.236 -30.038  1.00  0.00     0.014 A 
BRANCH  34  37
HETATM   37  C   UNL     1       1.185   8.143 -28.223  1.00  0.00     0.042 C 
BRANCH  37  38
HETATM   38  C   UNL     1       1.148   7.744 -26.731  1.00  0.00    -0.019 C 
HETATM   39  C   UNL     1      -0.233   7.939 -26.097  1.00  0.00     0.010 C 
HETATM   40  C   UNL     1       2.178   8.570 -25.953  1.00  0.00     0.010 C 
ENDBRANCH  37  38
ENDBRANCH  34  37
ENDBRANCH   1  31
TORSDOF 7
ENDMDL
MODEL 10
REMARK VINA RESULT:      -8.4      2.431      4.380
REMARK  7 active torsions:
REMARK  status: ('A' for Active; 'I' for Inactive)
REMARK    1  A    between atoms: C_2  and  C_3 
REMARK    2  A    between atoms: C_3  and  C_4 
REMARK    3  A    between atoms: C_7  and  C_8 
REMARK    4  A    between atoms: C_14  and  C_15 
REMARK    5  A    between atoms: C_16  and  O_17 
REMARK    6  A    between atoms: O_17  and  C_18 
REMARK       I    between atoms: C_18  and  N_19 
REMARK    7  A    between atoms: C_33  and  N_34 
ROOT
HETATM    1  C   UNL     1      -8.757   1.658 -34.211  1.00  0.00     0.099 A 
HETATM    2  N   UNL     1     -10.024   1.364 -34.555  1.00  0.00    -0.172 NA
HETATM    3  N   UNL     1     -10.661   2.549 -34.547  1.00  0.00    -0.256 N 
HETATM    4  H   UNL     1     -11.637   2.582 -34.819  1.00  0.00     0.191 HD
HETATM    5  C   UNL     1      -9.854   3.578 -34.188  1.00  0.00     0.175 A 
HETATM    6  C   UNL     1      -8.624   3.041 -33.897  1.00  0.00     0.040 A 
HETATM    7  C   UNL     1      -7.502   3.942 -33.487  1.00  0.00     0.108 A 
HETATM    8  C   UNL     1      -7.989   5.385 -33.438  1.00  0.00     0.072 A 
HETATM    9  C   UNL     1      -6.999   6.387 -32.867  1.00  0.00     0.021 C 
HETATM   10  N   UNL     1      -6.177   7.217 -32.393  1.00  0.00    -0.096 N 
HETATM   11  C   UNL     1      -9.241   5.782 -33.783  1.00  0.00     0.160 A 
HETATM   12  O   UNL     1     -10.223   4.854 -34.172  1.00  0.00    -0.274 OA
ENDROOT
BRANCH   7  13
HETATM   13  C   UNL     1      -6.898   3.383 -32.204  1.00  0.00    -0.010 C 
HETATM   14  C   UNL     1      -7.558   3.229 -30.970  1.00  0.00     0.088 C 
HETATM   15  C   UNL     1      -6.940   2.560 -29.898  1.00  0.00     0.038 C 
HETATM   16  C   UNL     1      -5.617   2.145 -29.992  1.00  0.00     0.003 C 
HETATM   17  C   UNL     1      -4.907   2.384 -31.159  1.00  0.00     0.001 C 
HETATM   18  C   UNL     1      -5.540   2.994 -32.244  1.00  0.00     0.011 C 
BRANCH  14  19
HETATM   19  O   UNL     1      -8.851   3.765 -30.788  1.00  0.00    -0.261 OA
BRANCH  19  20
HETATM   20  C   UNL     1      -8.923   5.052 -30.227  1.00  0.00     0.368 C 
HETATM   21  N   UNL     1     -10.177   5.629 -30.330  1.00  0.00    -0.324 N 
HETATM   22  C   UNL     1     -10.463   6.835 -29.550  1.00  0.00     0.154 C 
HETATM   23  C   UNL     1     -11.351   4.942 -30.854  1.00  0.00     0.154 C 
HETATM   24  C   UNL     1     -11.469   7.743 -30.263  1.00  0.00     0.187 C 
HETATM   25  O   UNL     1     -12.642   7.013 -30.656  1.00  0.00    -0.388 OA
HETATM   26  C   UNL     1     -12.291   5.939 -31.541  1.00  0.00     0.187 C 
HETATM   27  O   UNL     1      -7.982   5.634 -29.695  1.00  0.00    -0.238 OA
ENDBRANCH  19  20
ENDBRANCH  14  19
ENDBRANCH   7  13
BRANCH  11  28
HETATM   28  N   UNL     1      -9.700   7.074 -33.771  1.00  0.00    -0.379 N 
HETATM   29  H   UNL     1      -9.786   7.548 -34.666  1.00  0.00     0.158 HD
HETATM   30  H   UNL     1      -9.322   7.639 -33.017  1.00  0.00     0.158 HD
ENDBRANCH  11  28
BRANCH   1  31
HETATM   31  C   UNL     1      -7.729   0.627 -34.204  1.00  0.00    -0.005 A 
HETATM   32  C   UNL     1      -7.404  -0.042 -33.020  1.00  0.00     0.014 A 
HETATM   33  C   UNL     1      -6.526  -1.128 -33.045  1.00  0.00     0.008 A 
HETATM   34  C   UNL     1      -5.947  -1.556 -34.250  1.00  0.00    -0.058 A 
HETATM   35  C   UNL     1      -6.187  -0.805 -35.407  1.00  0.00     0.008 A 
HETATM   36  C   UNL     1      -7.082   0.269 -35.389  1.00  0.00     0.014 A 
BRANCH  34  37
HETATM   37  C   UNL     1      -5.059  -2.783 -34.238  1.00  0.00     0.042 C 
BRANCH  37  38
HETATM   38  C   UNL     1      -5.754  -4.163 -34.233  1.00  0.00    -0.019 C 
HETATM   39  C   UNL     1      -4.760  -5.329 -34.256  1.00  0.00     0.010 C 
HETATM   40  C   UNL     1      -6.684  -4.273 -35.445  1.00  0.00     0.010 C 
ENDBRANCH  37  38
ENDBRANCH  34  37
ENDBRANCH   1  31
TORSDOF 7
ENDMDL
