MODEL 1
REMARK VINA RESULT:      -7.2      0.000      0.000
REMARK  8 active torsions:
REMARK  status: ('A' for Active; 'I' for Inactive)
REMARK    1  A    between atoms: C_4  and  C_5 
REMARK    2  A    between atoms: C_5  and  N_6 
REMARK    3  A    between atoms: N_6  and  C_9 
REMARK    4  A    between atoms: C_9  and  C_10 
REMARK    5  A    between atoms: C_10  and  C_11 
REMARK    6  A    between atoms: C_11  and  N_12 
REMARK       I    between atoms: N_12  and  C_13 
REMARK    7  A    between atoms: C_13  and  C_14 
REMARK    8  A    between atoms: C_16  and  O_17 
ROOT
HETATM    1  C   UNL     1      -5.200   0.550 -30.260  1.00  0.00     0.047 C 
ENDROOT
BRANCH   1   2
HETATM    2  C   UNL     1      -5.873   1.841 -30.702  1.00  0.00     0.235 C 
BRANCH   2   3
HETATM    3  N   UNL     1      -5.061   2.458 -31.794  1.00  0.00    -0.067 N 
HETATM    4  H   UNL     1      -4.923   1.800 -32.571  1.00  0.00     0.277 HD
HETATM    5  H   UNL     1      -4.119   2.635 -31.413  1.00  0.00     0.277 HD
BRANCH   3   6
HETATM    6  C   UNL     1      -5.557   3.766 -32.344  1.00  0.00     0.223 C 
HETATM    7  C   UNL     1      -6.914   3.570 -33.019  1.00  0.00     0.046 C 
BRANCH   6   8
HETATM    8  C   UNL     1      -4.563   4.364 -33.290  1.00  0.00     0.032 A 
HETATM    9  S   UNL     1      -2.872   4.372 -32.970  1.00  0.00    -0.076 SA
HETATM   10  C   UNL     1      -2.594   5.162 -34.470  1.00  0.00     0.071 A 
HETATM   11  C   UNL     1      -1.209   5.502 -34.899  1.00  0.00     0.078 C 
HETATM   12  N   UNL     1      -3.675   5.420 -35.172  1.00  0.00    -0.257 NA
HETATM   13  C   UNL     1      -4.794   4.962 -34.514  1.00  0.00     0.134 A 
ENDBRANCH   6   8
ENDBRANCH   3   6
ENDBRANCH   2   3
ENDBRANCH   1   2
BRANCH   1  14
HETATM   14  C   UNL     1      -3.970   0.206 -31.103  1.00  0.00     0.124 C 
BRANCH  14  15
HETATM   15  N   UNL     1      -4.101  -0.929 -32.000  1.00  0.00    -0.357 N 
HETATM   16  C   UNL     1      -4.858  -0.890 -33.157  1.00  0.00     0.251 C 
HETATM   17  O   UNL     1      -5.253   0.149 -33.674  1.00  0.00    -0.268 OA
HETATM   18  H   UNL     1      -4.027  -1.844 -31.561  1.00  0.00     0.162 HD
BRANCH  16  19
HETATM   19  C   UNL     1      -5.163  -2.202 -33.775  1.00  0.00     0.034 A 
HETATM   20  C   UNL     1      -4.224  -3.232 -33.662  1.00  0.00     0.053 A 
HETATM   21  C   UNL     1      -4.503  -4.465 -34.240  1.00  0.00     0.066 A 
HETATM   22  C   UNL     1      -5.705  -4.687 -34.907  1.00  0.00     0.036 A 
HETATM   23  C   UNL     1      -6.647  -3.664 -35.005  1.00  0.00     0.004 A 
HETATM   24  C   UNL     1      -6.379  -2.416 -34.441  1.00  0.00     0.017 A 
BRANCH  21  25
HETATM   25  O   UNL     1      -3.617  -5.499 -34.181  1.00  0.00    -0.361 OA
HETATM   26  H   UNL     1      -3.839  -6.159 -34.857  1.00  0.00     0.217 HD
ENDBRANCH  21  25
ENDBRANCH  16  19
ENDBRANCH  14  15
ENDBRANCH   1  14
TORSDOF 8
ENDMDL
MODEL 2
REMARK VINA RESULT:      -7.1      2.032      2.672
REMARK  8 active torsions:
REMARK  status: ('A' for Active; 'I' for Inactive)
REMARK    1  A    between atoms: C_4  and  C_5 
REMARK    2  A    between atoms: C_5  and  N_6 
REMARK    3  A    between atoms: N_6  and  C_9 
REMARK    4  A    between atoms: C_9  and  C_10 
REMARK    5  A    between atoms: C_10  and  C_11 
REMARK    6  A    between atoms: C_11  and  N_12 
REMARK       I    between atoms: N_12  and  C_13 
REMARK    7  A    between atoms: C_13  and  C_14 
REMARK    8  A    between atoms: C_16  and  O_17 
ROOT
HETATM    1  C   UNL     1      -6.504   2.195 -34.212  1.00  0.00     0.047 C 
ENDROOT
BRANCH   1   2
HETATM    2  C   UNL     1      -6.168   3.646 -33.901  1.00  0.00     0.235 C 
BRANCH   2   3
HETATM    3  N   UNL     1      -4.740   3.728 -33.468  1.00  0.00    -0.067 N 
HETATM    4  H   UNL     1      -4.178   2.984 -33.899  1.00  0.00     0.277 HD
HETATM    5  H   UNL     1      -4.716   3.539 -32.455  1.00  0.00     0.277 HD
BRANCH   3   6
HETATM    6  C   UNL     1      -4.049   5.046 -33.678  1.00  0.00     0.223 C 
HETATM    7  C   UNL     1      -3.724   5.238 -35.158  1.00  0.00     0.046 C 
BRANCH   6   8
HETATM    8  C   UNL     1      -2.816   5.148 -32.836  1.00  0.00     0.032 A 
HETATM    9  S   UNL     1      -1.802   6.539 -32.848  1.00  0.00    -0.076 SA
HETATM   10  C   UNL     1      -0.780   5.801 -31.679  1.00  0.00     0.071 A 
HETATM   11  C   UNL     1       0.418   6.520 -31.162  1.00  0.00     0.078 C 
HETATM   12  N   UNL     1      -1.148   4.597 -31.300  1.00  0.00    -0.257 NA
HETATM   13  C   UNL     1      -2.306   4.224 -31.944  1.00  0.00     0.134 A 
ENDBRANCH   6   8
ENDBRANCH   3   6
ENDBRANCH   2   3
ENDBRANCH   1   2
BRANCH   1  14
HETATM   14  C   UNL     1      -6.589   1.326 -32.955  1.00  0.00     0.124 C 
BRANCH  14  15
HETATM   15  N   UNL     1      -6.488  -0.109 -33.157  1.00  0.00    -0.357 N 
HETATM   16  C   UNL     1      -5.301  -0.740 -33.484  1.00  0.00     0.251 C 
HETATM   17  O   UNL     1      -4.200  -0.216 -33.367  1.00  0.00    -0.268 OA
HETATM   18  H   UNL     1      -7.330  -0.563 -33.501  1.00  0.00     0.162 HD
BRANCH  16  19
HETATM   19  C   UNL     1      -5.424  -2.132 -33.980  1.00  0.00     0.034 A 
HETATM   20  C   UNL     1      -4.343  -3.003 -33.810  1.00  0.00     0.053 A 
HETATM   21  C   UNL     1      -4.450  -4.309 -34.274  1.00  0.00     0.066 A 
HETATM   22  C   UNL     1      -5.619  -4.758 -34.882  1.00  0.00     0.036 A 
HETATM   23  C   UNL     1      -6.702  -3.894 -35.036  1.00  0.00     0.004 A 
HETATM   24  C   UNL     1      -6.607  -2.575 -34.588  1.00  0.00     0.017 A 
BRANCH  21  25
HETATM   25  O   UNL     1      -3.423  -5.196 -34.156  1.00  0.00    -0.361 OA
HETATM   26  H   UNL     1      -3.743  -6.094 -34.339  1.00  0.00     0.217 HD
ENDBRANCH  21  25
ENDBRANCH  16  19
ENDBRANCH  14  15
ENDBRANCH   1  14
TORSDOF 8
ENDMDL
MODEL 3
REMARK VINA RESULT:      -7.0      3.173      4.689
REMARK  8 active torsions:
REMARK  status: ('A' for Active; 'I' for Inactive)
REMARK    1  A    between atoms: C_4  and  C_5 
REMARK    2  A    between atoms: C_5  and  N_6 
REMARK    3  A    between atoms: N_6  and  C_9 
REMARK    4  A    between atoms: C_9  and  C_10 
REMARK    5  A    between atoms: C_10  and  C_11 
REMARK    6  A    between atoms: C_11  and  N_12 
REMARK       I    between atoms: N_12  and  C_13 
REMARK    7  A    between atoms: C_13  and  C_14 
REMARK    8  A    between atoms: C_16  and  O_17 
ROOT
HETATM    1  C   UNL     1      -4.969   0.767 -30.638  1.00  0.00     0.047 C 
ENDROOT
BRANCH   1   2
HETATM    2  C   UNL     1      -6.033   1.852 -30.544  1.00  0.00     0.235 C 
BRANCH   2   3
HETATM    3  N   UNL     1      -6.821   1.866 -31.813  1.00  0.00    -0.067 N 
HETATM    4  H   UNL     1      -7.031   0.911 -32.131  1.00  0.00     0.277 HD
HETATM    5  H   UNL     1      -6.217   2.272 -32.544  1.00  0.00     0.277 HD
BRANCH   3   6
HETATM    6  C   UNL     1      -8.091   2.669 -31.807  1.00  0.00     0.223 C 
HETATM    7  C   UNL     1      -8.410   3.134 -30.387  1.00  0.00     0.046 C 
BRANCH   6   8
HETATM    8  C   UNL     1      -9.227   1.884 -32.386  1.00  0.00     0.032 A 
HETATM    9  S   UNL     1     -10.568   2.636 -33.160  1.00  0.00    -0.076 SA
HETATM   10  C   UNL     1     -11.251   1.090 -33.474  1.00  0.00     0.071 A 
HETATM   11  C   UNL     1     -12.544   0.970 -34.203  1.00  0.00     0.078 C 
HETATM   12  N   UNL     1     -10.547   0.072 -33.032  1.00  0.00    -0.257 NA
HETATM   13  C   UNL     1      -9.394   0.513 -32.423  1.00  0.00     0.134 A 
ENDBRANCH   6   8
ENDBRANCH   3   6
ENDBRANCH   2   3
ENDBRANCH   1   2
BRANCH   1  14
HETATM   14  C   UNL     1      -4.260   0.752 -31.994  1.00  0.00     0.124 C 
BRANCH  14  15
HETATM   15  N   UNL     1      -4.306  -0.500 -32.731  1.00  0.00    -0.357 N 
HETATM   16  C   UNL     1      -5.273  -0.779 -33.680  1.00  0.00     0.251 C 
HETATM   17  O   UNL     1      -5.996   0.074 -34.181  1.00  0.00    -0.268 OA
HETATM   18  H   UNL     1      -3.932  -1.309 -32.241  1.00  0.00     0.162 HD
BRANCH  16  19
HETATM   19  C   UNL     1      -5.386  -2.199 -34.090  1.00  0.00     0.034 A 
HETATM   20  C   UNL     1      -4.299  -3.050 -33.868  1.00  0.00     0.053 A 
HETATM   21  C   UNL     1      -4.397  -4.383 -34.251  1.00  0.00     0.066 A 
HETATM   22  C   UNL     1      -5.562  -4.877 -34.829  1.00  0.00     0.036 A 
HETATM   23  C   UNL     1      -6.652  -4.031 -35.035  1.00  0.00     0.004 A 
HETATM   24  C   UNL     1      -6.566  -2.687 -34.668  1.00  0.00     0.017 A 
BRANCH  21  25
HETATM   25  O   UNL     1      -3.363  -5.253 -34.080  1.00  0.00    -0.361 OA
HETATM   26  H   UNL     1      -3.691  -6.079 -33.687  1.00  0.00     0.217 HD
ENDBRANCH  21  25
ENDBRANCH  16  19
ENDBRANCH  14  15
ENDBRANCH   1  14
TORSDOF 8
ENDMDL
MODEL 4
REMARK VINA RESULT:      -7.0      5.207      6.763
REMARK  8 active torsions:
REMARK  status: ('A' for Active; 'I' for Inactive)
REMARK    1  A    between atoms: C_4  and  C_5 
REMARK    2  A    between atoms: C_5  and  N_6 
REMARK    3  A    between atoms: N_6  and  C_9 
REMARK    4  A    between atoms: C_9  and  C_10 
REMARK    5  A    between atoms: C_10  and  C_11 
REMARK    6  A    between atoms: C_11  and  N_12 
REMARK       I    between atoms: N_12  and  C_13 
REMARK    7  A    between atoms: C_13  and  C_14 
REMARK    8  A    between atoms: C_16  and  O_17 
ROOT
HETATM    1  C   UNL     1      -8.261   0.748 -31.856  1.00  0.00     0.047 C 
ENDROOT
BRANCH   1   2
HETATM    2  C   UNL     1      -9.374   0.347 -32.814  1.00  0.00     0.235 C 
BRANCH   2   3
HETATM    3  N   UNL     1     -10.467   1.363 -32.735  1.00  0.00    -0.067 N 
HETATM    4  H   UNL     1     -10.114   2.263 -32.386  1.00  0.00     0.277 HD
HETATM    5  H   UNL     1     -11.138   1.037 -32.023  1.00  0.00     0.277 HD
BRANCH   3   6
HETATM    6  C   UNL     1     -11.254   1.603 -33.993  1.00  0.00     0.223 C 
HETATM    7  C   UNL     1     -10.903   2.969 -34.579  1.00  0.00     0.046 C 
BRANCH   6   8
HETATM    8  C   UNL     1     -12.725   1.485 -33.738  1.00  0.00     0.032 A 
HETATM    9  S   UNL     1     -13.598   2.646 -32.814  1.00  0.00    -0.076 SA
HETATM   10  C   UNL     1     -15.046   1.759 -33.073  1.00  0.00     0.071 A 
HETATM   11  C   UNL     1     -16.338   2.242 -32.511  1.00  0.00     0.078 C 
HETATM   12  N   UNL     1     -14.908   0.665 -33.789  1.00  0.00    -0.257 NA
HETATM   13  C   UNL     1     -13.597   0.508 -34.177  1.00  0.00     0.134 A 
ENDBRANCH   6   8
ENDBRANCH   3   6
ENDBRANCH   2   3
ENDBRANCH   1   2
BRANCH   1  14
HETATM   14  C   UNL     1      -6.898   0.849 -32.545  1.00  0.00     0.124 C 
BRANCH  14  15
HETATM   15  N   UNL     1      -6.277  -0.407 -32.929  1.00  0.00    -0.357 N 
HETATM   16  C   UNL     1      -6.321  -0.904 -34.219  1.00  0.00     0.251 C 
HETATM   17  O   UNL     1      -6.633  -0.231 -35.195  1.00  0.00    -0.268 OA
HETATM   18  H   UNL     1      -6.219  -1.109 -32.196  1.00  0.00     0.162 HD
BRANCH  16  19
HETATM   19  C   UNL     1      -5.944  -2.328 -34.377  1.00  0.00     0.034 A 
HETATM   20  C   UNL     1      -4.685  -2.742 -33.931  1.00  0.00     0.053 A 
HETATM   21  C   UNL     1      -4.322  -4.077 -34.077  1.00  0.00     0.066 A 
HETATM   22  C   UNL     1      -5.201  -4.999 -34.639  1.00  0.00     0.036 A 
HETATM   23  C   UNL     1      -6.463  -4.588 -35.068  1.00  0.00     0.004 A 
HETATM   24  C   UNL     1      -6.838  -3.250 -34.941  1.00  0.00     0.017 A 
BRANCH  21  25
HETATM   25  O   UNL     1      -3.101  -4.533 -33.680  1.00  0.00    -0.361 OA
HETATM   26  H   UNL     1      -3.198  -5.070 -32.877  1.00  0.00     0.217 HD
ENDBRANCH  21  25
ENDBRANCH  16  19
ENDBRANCH  14  15
ENDBRANCH   1  14
TORSDOF 8
ENDMDL
MODEL 5
REMARK VINA RESULT:      -7.0      2.443      3.093
REMARK  8 active torsions:
REMARK  status: ('A' for Active; 'I' for Inactive)
REMARK    1  A    between atoms: C_4  and  C_5 
REMARK    2  A    between atoms: C_5  and  N_6 
REMARK    3  A    between atoms: N_6  and  C_9 
REMARK    4  A    between atoms: C_9  and  C_10 
REMARK    5  A    between atoms: C_10  and  C_11 
REMARK    6  A    between atoms: C_11  and  N_12 
REMARK       I    between atoms: N_12  and  C_13 
REMARK    7  A    between atoms: C_13  and  C_14 
REMARK    8  A    between atoms: C_16  and  O_17 
ROOT
HETATM    1  C   UNL     1      -4.914   2.704 -32.879  1.00  0.00     0.047 C 
ENDROOT
BRANCH   1   2
HETATM    2  C   UNL     1      -3.624   3.129 -32.191  1.00  0.00     0.235 C 
BRANCH   2   3
HETATM    3  N   UNL     1      -2.854   4.014 -33.117  1.00  0.00    -0.067 N 
HETATM    4  H   UNL     1      -2.477   3.483 -33.911  1.00  0.00     0.277 HD
HETATM    5  H   UNL     1      -2.030   4.356 -32.599  1.00  0.00     0.277 HD
BRANCH   3   6
HETATM    6  C   UNL     1      -3.571   5.228 -33.637  1.00  0.00     0.223 C 
HETATM    7  C   UNL     1      -3.501   5.264 -35.163  1.00  0.00     0.046 C 
BRANCH   6   8
HETATM    8  C   UNL     1      -3.011   6.482 -33.041  1.00  0.00     0.032 A 
HETATM    9  S   UNL     1      -3.579   7.128 -31.549  1.00  0.00    -0.076 SA
HETATM   10  C   UNL     1      -2.442   8.411 -31.675  1.00  0.00     0.071 A 
HETATM   11  C   UNL     1      -2.354   9.449 -30.611  1.00  0.00     0.078 C 
HETATM   12  N   UNL     1      -1.688   8.382 -32.752  1.00  0.00    -0.257 NA
HETATM   13  C   UNL     1      -1.998   7.286 -33.526  1.00  0.00     0.134 A 
ENDBRANCH   6   8
ENDBRANCH   3   6
ENDBRANCH   2   3
ENDBRANCH   1   2
BRANCH   1  14
HETATM   14  C   UNL     1      -5.529   1.449 -32.255  1.00  0.00     0.124 C 
BRANCH  14  15
HETATM   15  N   UNL     1      -5.139   0.180 -32.845  1.00  0.00    -0.357 N 
HETATM   16  C   UNL     1      -5.936  -0.510 -33.741  1.00  0.00     0.251 C 
HETATM   17  O   UNL     1      -6.890  -0.010 -34.323  1.00  0.00    -0.268 OA
HETATM   18  H   UNL     1      -4.527  -0.398 -32.274  1.00  0.00     0.162 HD
BRANCH  16  19
HETATM   19  C   UNL     1      -5.559  -1.922 -33.986  1.00  0.00     0.034 A 
HETATM   20  C   UNL     1      -6.479  -2.760 -34.625  1.00  0.00     0.053 A 
HETATM   21  C   UNL     1      -6.134  -4.087 -34.858  1.00  0.00     0.066 A 
HETATM   22  C   UNL     1      -4.886  -4.578 -34.483  1.00  0.00     0.036 A 
HETATM   23  C   UNL     1      -3.964  -3.737 -33.861  1.00  0.00     0.004 A 
HETATM   24  C   UNL     1      -4.299  -2.405 -33.608  1.00  0.00     0.017 A 
BRANCH  21  25
HETATM   25  O   UNL     1      -6.996  -4.956 -35.456  1.00  0.00    -0.361 OA
HETATM   26  H   UNL     1      -7.523  -4.486 -36.123  1.00  0.00     0.217 HD
ENDBRANCH  21  25
ENDBRANCH  16  19
ENDBRANCH  14  15
ENDBRANCH   1  14
TORSDOF 8
ENDMDL
MODEL 6
REMARK VINA RESULT:      -7.0      5.051      6.732
REMARK  8 active torsions:
REMARK  status: ('A' for Active; 'I' for Inactive)
REMARK    1  A    between atoms: C_4  and  C_5 
REMARK    2  A    between atoms: C_5  and  N_6 
REMARK    3  A    between atoms: N_6  and  C_9 
REMARK    4  A    between atoms: C_9  and  C_10 
REMARK    5  A    between atoms: C_10  and  C_11 
REMARK    6  A    between atoms: C_11  and  N_12 
REMARK       I    between atoms: N_12  and  C_13 
REMARK    7  A    between atoms: C_13  and  C_14 
REMARK    8  A    between atoms: C_16  and  O_17 
ROOT
HETATM    1  C   UNL     1      -9.327   1.831 -32.398  1.00  0.00     0.047 C 
ENDROOT
BRANCH   1   2
HETATM    2  C   UNL     1      -9.107   2.798 -33.552  1.00  0.00     0.235 C 
BRANCH   2   3
HETATM    3  N   UNL     1      -9.972   2.384 -34.699  1.00  0.00    -0.067 N 
HETATM    4  H   UNL     1     -10.274   1.406 -34.603  1.00  0.00     0.277 HD
HETATM    5  H   UNL     1      -9.386   2.407 -35.548  1.00  0.00     0.277 HD
BRANCH   3   6
HETATM    6  C   UNL     1     -11.173   3.241 -34.979  1.00  0.00     0.223 C 
HETATM    7  C   UNL     1     -10.934   4.662 -34.469  1.00  0.00     0.046 C 
BRANCH   6   8
HETATM    8  C   UNL     1     -12.409   2.651 -34.373  1.00  0.00     0.032 A 
HETATM    9  S   UNL     1     -13.180   3.337 -32.996  1.00  0.00    -0.076 SA
HETATM   10  C   UNL     1     -14.382   2.110 -33.061  1.00  0.00     0.071 A 
HETATM   11  C   UNL     1     -15.495   2.091 -32.071  1.00  0.00     0.078 C 
HETATM   12  N   UNL     1     -14.231   1.235 -34.030  1.00  0.00    -0.257 NA
HETATM   13  C   UNL     1     -13.121   1.540 -34.784  1.00  0.00     0.134 A 
ENDBRANCH   6   8
ENDBRANCH   3   6
ENDBRANCH   2   3
ENDBRANCH   1   2
BRANCH   1  14
HETATM   14  C   UNL     1      -9.437   0.375 -32.859  1.00  0.00     0.124 C 
BRANCH  14  15
HETATM   15  N   UNL     1      -8.185  -0.342 -33.027  1.00  0.00    -0.357 N 
HETATM   16  C   UNL     1      -7.633  -0.612 -34.266  1.00  0.00     0.251 C 
HETATM   17  O   UNL     1      -7.981  -0.053 -35.299  1.00  0.00    -0.268 OA
HETATM   18  H   UNL     1      -7.968  -1.018 -32.298  1.00  0.00     0.162 HD
BRANCH  16  19
HETATM   19  C   UNL     1      -6.552  -1.627 -34.286  1.00  0.00     0.034 A 
HETATM   20  C   UNL     1      -6.840  -2.904 -34.776  1.00  0.00     0.053 A 
HETATM   21  C   UNL     1      -5.832  -3.862 -34.797  1.00  0.00     0.066 A 
HETATM   22  C   UNL     1      -4.548  -3.557 -34.356  1.00  0.00     0.036 A 
HETATM   23  C   UNL     1      -4.257  -2.278 -33.883  1.00  0.00     0.004 A 
HETATM   24  C   UNL     1      -5.260  -1.308 -33.843  1.00  0.00     0.017 A 
BRANCH  21  25
HETATM   25  O   UNL     1      -6.059  -5.129 -35.243  1.00  0.00    -0.361 OA
HETATM   26  H   UNL     1      -6.995  -5.357 -35.118  1.00  0.00     0.217 HD
ENDBRANCH  21  25
ENDBRANCH  16  19
ENDBRANCH  14  15
ENDBRANCH   1  14
TORSDOF 8
ENDMDL
MODEL 7
REMARK VINA RESULT:      -6.9      3.260      3.829
REMARK  8 active torsions:
REMARK  status: ('A' for Active; 'I' for Inactive)
REMARK    1  A    between atoms: C_4  and  C_5 
REMARK    2  A    between atoms: C_5  and  N_6 
REMARK    3  A    between atoms: N_6  and  C_9 
REMARK    4  A    between atoms: C_9  and  C_10 
REMARK    5  A    between atoms: C_10  and  C_11 
REMARK    6  A    between atoms: C_11  and  N_12 
REMARK       I    between atoms: N_12  and  C_13 
REMARK    7  A    between atoms: C_13  and  C_14 
REMARK    8  A    between atoms: C_16  and  O_17 
ROOT
HETATM    1  C   UNL     1      -3.350   1.606 -31.499  1.00  0.00     0.047 C 
ENDROOT
BRANCH   1   2
HETATM    2  C   UNL     1      -3.521   2.977 -32.140  1.00  0.00     0.235 C 
BRANCH   2   3
HETATM    3  N   UNL     1      -3.078   4.022 -31.169  1.00  0.00    -0.067 N 
HETATM    4  H   UNL     1      -2.531   3.609 -30.403  1.00  0.00     0.277 HD
HETATM    5  H   UNL     1      -3.925   4.406 -30.724  1.00  0.00     0.277 HD
BRANCH   3   6
HETATM    6  C   UNL     1      -2.321   5.189 -31.737  1.00  0.00     0.223 C 
HETATM    7  C   UNL     1      -1.744   4.824 -33.104  1.00  0.00     0.046 C 
BRANCH   6   8
HETATM    8  C   UNL     1      -1.245   5.641 -30.799  1.00  0.00     0.032 A 
HETATM    9  S   UNL     1      -1.207   7.229 -30.134  1.00  0.00    -0.076 SA
HETATM   10  C   UNL     1       0.220   6.828 -29.265  1.00  0.00     0.071 A 
HETATM   11  C   UNL     1       0.868   7.831 -28.375  1.00  0.00     0.078 C 
HETATM   12  N   UNL     1       0.659   5.603 -29.451  1.00  0.00    -0.257 NA
HETATM   13  C   UNL     1      -0.171   4.921 -30.311  1.00  0.00     0.134 A 
ENDBRANCH   6   8
ENDBRANCH   3   6
ENDBRANCH   2   3
ENDBRANCH   1   2
BRANCH   1  14
HETATM   14  C   UNL     1      -4.582   0.716 -31.672  1.00  0.00     0.124 C 
BRANCH  14  15
HETATM   15  N   UNL     1      -4.359  -0.577 -32.297  1.00  0.00    -0.357 N 
HETATM   16  C   UNL     1      -5.001  -0.972 -33.457  1.00  0.00     0.251 C 
HETATM   17  O   UNL     1      -5.588  -0.198 -34.204  1.00  0.00    -0.268 OA
HETATM   18  H   UNL     1      -4.105  -1.331 -31.664  1.00  0.00     0.162 HD
BRANCH  16  19
HETATM   19  C   UNL     1      -4.928  -2.417 -33.776  1.00  0.00     0.034 A 
HETATM   20  C   UNL     1      -5.974  -2.998 -34.501  1.00  0.00     0.053 A 
HETATM   21  C   UNL     1      -5.914  -4.354 -34.803  1.00  0.00     0.066 A 
HETATM   22  C   UNL     1      -4.823  -5.126 -34.412  1.00  0.00     0.036 A 
HETATM   23  C   UNL     1      -3.773  -4.542 -33.704  1.00  0.00     0.004 A 
HETATM   24  C   UNL     1      -3.823  -3.185 -33.382  1.00  0.00     0.017 A 
BRANCH  21  25
HETATM   25  O   UNL     1      -6.912  -4.979 -35.487  1.00  0.00    -0.361 OA
HETATM   26  H   UNL     1      -7.369  -5.604 -34.901  1.00  0.00     0.217 HD
ENDBRANCH  21  25
ENDBRANCH  16  19
ENDBRANCH  14  15
ENDBRANCH   1  14
TORSDOF 8
ENDMDL
MODEL 8
REMARK VINA RESULT:      -6.9      1.565      2.139
REMARK  8 active torsions:
REMARK  status: ('A' for Active; 'I' for Inactive)
REMARK    1  A    between atoms: C_4  and  C_5 
REMARK    2  A    between atoms: C_5  and  N_6 
REMARK    3  A    between atoms: N_6  and  C_9 
REMARK    4  A    between atoms: C_9  and  C_10 
REMARK    5  A    between atoms: C_10  and  C_11 
REMARK    6  A    between atoms: C_11  and  N_12 
REMARK       I    between atoms: N_12  and  C_13 
REMARK    7  A    between atoms: C_13  and  C_14 
REMARK    8  A    between atoms: C_16  and  O_17 
ROOT
HETATM    1  C   UNL     1      -7.424   1.758 -31.157  1.00  0.00     0.047 C 
ENDROOT
BRANCH   1   2
HETATM    2  C   UNL     1      -6.990   3.178 -31.493  1.00  0.00     0.235 C 
BRANCH   2   3
HETATM    3  N   UNL     1      -5.501   3.260 -31.406  1.00  0.00    -0.067 N 
HETATM    4  H   UNL     1      -5.143   2.708 -30.616  1.00  0.00     0.277 HD
HETATM    5  H   UNL     1      -5.260   4.238 -31.188  1.00  0.00     0.277 HD
BRANCH   3   6
HETATM    6  C   UNL     1      -4.735   2.892 -32.646  1.00  0.00     0.223 C 
HETATM    7  C   UNL     1      -3.753   1.762 -32.339  1.00  0.00     0.046 C 
BRANCH   6   8
HETATM    8  C   UNL     1      -4.027   4.083 -33.214  1.00  0.00     0.032 A 
HETATM    9  S   UNL     1      -2.476   4.585 -32.663  1.00  0.00    -0.076 SA
HETATM   10  C   UNL     1      -2.491   5.872 -33.801  1.00  0.00     0.071 A 
HETATM   11  C   UNL     1      -1.334   6.805 -33.902  1.00  0.00     0.078 C 
HETATM   12  N   UNL     1      -3.573   5.945 -34.545  1.00  0.00    -0.257 NA
HETATM   13  C   UNL     1      -4.444   4.928 -34.224  1.00  0.00     0.134 A 
ENDBRANCH   6   8
ENDBRANCH   3   6
ENDBRANCH   2   3
ENDBRANCH   1   2
BRANCH   1  14
HETATM   14  C   UNL     1      -7.772   0.938 -32.402  1.00  0.00     0.124 C 
BRANCH  14  15
HETATM   15  N   UNL     1      -6.928  -0.214 -32.671  1.00  0.00    -0.357 N 
HETATM   16  C   UNL     1      -6.434  -0.506 -33.929  1.00  0.00     0.251 C 
HETATM   17  O   UNL     1      -6.422   0.295 -34.856  1.00  0.00    -0.268 OA
HETATM   18  H   UNL     1      -7.080  -1.017 -32.067  1.00  0.00     0.162 HD
BRANCH  16  19
HETATM   19  C   UNL     1      -5.882  -1.871 -34.106  1.00  0.00     0.034 A 
HETATM   20  C   UNL     1      -6.678  -2.841 -34.723  1.00  0.00     0.053 A 
HETATM   21  C   UNL     1      -6.168  -4.124 -34.891  1.00  0.00     0.066 A 
HETATM   22  C   UNL     1      -4.879  -4.441 -34.473  1.00  0.00     0.036 A 
HETATM   23  C   UNL     1      -4.080  -3.468 -33.873  1.00  0.00     0.004 A 
HETATM   24  C   UNL     1      -4.580  -2.179 -33.685  1.00  0.00     0.017 A 
BRANCH  21  25
HETATM   25  O   UNL     1      -6.904  -5.116 -35.465  1.00  0.00    -0.361 OA
HETATM   26  H   UNL     1      -6.313  -5.801 -35.816  1.00  0.00     0.217 HD
ENDBRANCH  21  25
ENDBRANCH  16  19
ENDBRANCH  14  15
ENDBRANCH   1  14
TORSDOF 8
ENDMDL
MODEL 9
REMARK VINA RESULT:      -6.8      4.274      5.866
REMARK  8 active torsions:
REMARK  status: ('A' for Active; 'I' for Inactive)
REMARK    1  A    between atoms: C_4  and  C_5 
REMARK    2  A    between atoms: C_5  and  N_6 
REMARK    3  A    between atoms: N_6  and  C_9 
REMARK    4  A    between atoms: C_9  and  C_10 
REMARK    5  A    between atoms: C_10  and  C_11 
REMARK    6  A    between atoms: C_11  and  N_12 
REMARK       I    between atoms: N_12  and  C_13 
REMARK    7  A    between atoms: C_13  and  C_14 
REMARK    8  A    between atoms: C_16  and  O_17 
ROOT
HETATM    1  C   UNL     1      -7.389   1.635 -32.918  1.00  0.00     0.047 C 
ENDROOT
BRANCH   1   2
HETATM    2  C   UNL     1      -7.687   3.059 -33.367  1.00  0.00     0.235 C 
BRANCH   2   3
HETATM    3  N   UNL     1      -9.162   3.288 -33.297  1.00  0.00    -0.067 N 
HETATM    4  H   UNL     1      -9.383   4.121 -32.738  1.00  0.00     0.277 HD
HETATM    5  H   UNL     1      -9.571   2.495 -32.779  1.00  0.00     0.277 HD
BRANCH   3   6
HETATM    6  C   UNL     1      -9.892   3.370 -34.607  1.00  0.00     0.223 C 
HETATM    7  C   UNL     1     -10.237   4.825 -34.925  1.00  0.00     0.046 C 
BRANCH   6   8
HETATM    8  C   UNL     1     -11.121   2.515 -34.595  1.00  0.00     0.032 A 
HETATM    9  S   UNL     1     -11.269   1.127 -33.587  1.00  0.00    -0.076 SA
HETATM   10  C   UNL     1     -12.853   0.857 -34.195  1.00  0.00     0.071 A 
HETATM   11  C   UNL     1     -13.667  -0.287 -33.700  1.00  0.00     0.078 C 
HETATM   12  N   UNL     1     -13.259   1.726 -35.095  1.00  0.00    -0.257 NA
HETATM   13  C   UNL     1     -12.286   2.674 -35.320  1.00  0.00     0.134 A 
ENDBRANCH   6   8
ENDBRANCH   3   6
ENDBRANCH   2   3
ENDBRANCH   1   2
BRANCH   1  14
HETATM   14  C   UNL     1      -6.133   1.060 -33.577  1.00  0.00     0.124 C 
BRANCH  14  15
HETATM   15  N   UNL     1      -5.985  -0.384 -33.530  1.00  0.00    -0.357 N 
HETATM   16  C   UNL     1      -4.757  -1.017 -33.595  1.00  0.00     0.251 C 
HETATM   17  O   UNL     1      -3.689  -0.443 -33.422  1.00  0.00    -0.268 OA
HETATM   18  H   UNL     1      -6.768  -0.915 -33.904  1.00  0.00     0.162 HD
BRANCH  16  19
HETATM   19  C   UNL     1      -4.794  -2.473 -33.873  1.00  0.00     0.034 A 
HETATM   20  C   UNL     1      -5.877  -2.992 -34.589  1.00  0.00     0.053 A 
HETATM   21  C   UNL     1      -5.920  -4.357 -34.853  1.00  0.00     0.066 A 
HETATM   22  C   UNL     1      -4.894  -5.198 -34.432  1.00  0.00     0.036 A 
HETATM   23  C   UNL     1      -3.806  -4.677 -33.732  1.00  0.00     0.004 A 
HETATM   24  C   UNL     1      -3.754  -3.311 -33.448  1.00  0.00     0.017 A 
BRANCH  21  25
HETATM   25  O   UNL     1      -6.960  -4.922 -35.527  1.00  0.00    -0.361 OA
HETATM   26  H   UNL     1      -7.330  -4.281 -36.156  1.00  0.00     0.217 HD
ENDBRANCH  21  25
ENDBRANCH  16  19
ENDBRANCH  14  15
ENDBRANCH   1  14
TORSDOF 8
ENDMDL
MODEL 10
REMARK VINA RESULT:      -6.8      2.428      3.258
REMARK  8 active torsions:
REMARK  status: ('A' for Active; 'I' for Inactive)
REMARK    1  A    between atoms: C_4  and  C_5 
REMARK    2  A    between atoms: C_5  and  N_6 
REMARK    3  A    between atoms: N_6  and  C_9 
REMARK    4  A    between atoms: C_9  and  C_10 
REMARK    5  A    between atoms: C_10  and  C_11 
REMARK    6  A    between atoms: C_11  and  N_12 
REMARK       I    between atoms: N_12  and  C_13 
REMARK    7  A    between atoms: C_13  and  C_14 
REMARK    8  A    between atoms: C_16  and  O_17 
ROOT
HETATM    1  C   UNL     1      -6.462   2.509 -33.328  1.00  0.00     0.047 C 
ENDROOT
BRANCH   1   2
HETATM    2  C   UNL     1      -5.906   3.872 -33.717  1.00  0.00     0.235 C 
BRANCH   2   3
HETATM    3  N   UNL     1      -4.490   3.967 -33.247  1.00  0.00    -0.067 N 
HETATM    4  H   UNL     1      -3.928   3.183 -33.601  1.00  0.00     0.277 HD
HETATM    5  H   UNL     1      -4.500   3.857 -32.222  1.00  0.00     0.277 HD
BRANCH   3   6
HETATM    6  C   UNL     1      -3.771   5.254 -33.537  1.00  0.00     0.223 C 
HETATM    7  C   UNL     1      -3.447   5.350 -35.028  1.00  0.00     0.046 C 
BRANCH   6   8
HETATM    8  C   UNL     1      -2.532   5.378 -32.706  1.00  0.00     0.032 A 
HETATM    9  S   UNL     1      -1.502   6.755 -32.784  1.00  0.00    -0.076 SA
HETATM   10  C   UNL     1      -0.483   6.058 -31.589  1.00  0.00     0.071 A 
HETATM   11  C   UNL     1       0.725   6.784 -31.109  1.00  0.00     0.078 C 
HETATM   12  N   UNL     1      -0.863   4.876 -31.155  1.00  0.00    -0.257 NA
HETATM   13  C   UNL     1      -2.028   4.488 -31.777  1.00  0.00     0.134 A 
ENDBRANCH   6   8
ENDBRANCH   3   6
ENDBRANCH   2   3
ENDBRANCH   1   2
BRANCH   1  14
HETATM   14  C   UNL     1      -7.097   1.772 -34.509  1.00  0.00     0.124 C 
BRANCH  14  15
HETATM   15  N   UNL     1      -6.623   0.421 -34.754  1.00  0.00    -0.357 N 
HETATM   16  C   UNL     1      -7.053  -0.671 -34.023  1.00  0.00     0.251 C 
HETATM   17  O   UNL     1      -8.048  -0.659 -33.308  1.00  0.00    -0.268 OA
HETATM   18  H   UNL     1      -5.679   0.349 -35.126  1.00  0.00     0.162 HD
BRANCH  16  19
HETATM   19  C   UNL     1      -6.241  -1.904 -34.162  1.00  0.00     0.034 A 
HETATM   20  C   UNL     1      -6.817  -3.020 -34.777  1.00  0.00     0.053 A 
HETATM   21  C   UNL     1      -6.062  -4.181 -34.911  1.00  0.00     0.066 A 
HETATM   22  C   UNL     1      -4.746  -4.233 -34.460  1.00  0.00     0.036 A 
HETATM   23  C   UNL     1      -4.168  -3.114 -33.861  1.00  0.00     0.004 A 
HETATM   24  C   UNL     1      -4.915  -1.945 -33.708  1.00  0.00     0.017 A 
BRANCH  21  25
HETATM   25  O   UNL     1      -6.576  -5.306 -35.482  1.00  0.00    -0.361 OA
HETATM   26  H   UNL     1      -6.030  -5.566 -36.241  1.00  0.00     0.217 HD
ENDBRANCH  21  25
ENDBRANCH  16  19
ENDBRANCH  14  15
ENDBRANCH   1  14
TORSDOF 8
ENDMDL
