MODEL 1
REMARK VINA RESULT:      -7.7      0.000      0.000
REMARK  10 active torsions:
REMARK  status: ('A' for Active; 'I' for Inactive)
REMARK    1  A    between atoms: C_2  and  N_3 
REMARK    2  A    between atoms: N_7  and  C_8 
REMARK    3  A    between atoms: C_8  and  C_9 
REMARK    4  A    between atoms: C_9  and  N_10 
REMARK    5  A    between atoms: N_10  and  C_11 
REMARK    6  A    between atoms: C_13  and  C_14 
REMARK    7  A    between atoms: C_14  and  N_15 
REMARK    8  A    between atoms: C_23  and  C_24 
REMARK    9  A    between atoms: C_24  and  O_25 
REMARK   10  A    between atoms: O_25  and  C_26 
ROOT
HETATM    1  C   UNL     1      -8.441   1.383 -31.824  1.00  0.00     0.139 A 
HETATM    2  N   UNL     1      -9.599   1.904 -32.305  1.00  0.00    -0.214 NA
HETATM    3  C   UNL     1     -10.024   1.563 -33.532  1.00  0.00     0.155 A 
HETATM    4  N   UNL     1      -9.385   0.771 -34.401  1.00  0.00    -0.224 NA
HETATM    5  C   UNL     1      -8.239   0.273 -33.912  1.00  0.00     0.115 A 
HETATM    6  C   UNL     1      -7.708   0.490 -32.651  1.00  0.00     0.053 A 
HETATM    7  S   UNL     1      -7.290  -0.735 -34.882  1.00  0.00    -0.063 SA
HETATM    8  C   UNL     1      -6.124  -0.960 -33.651  1.00  0.00     0.089 A 
HETATM    9  C   UNL     1      -6.487  -0.296 -32.477  1.00  0.00    -0.022 A 
HETATM   10  C   UNL     1      -5.710  -0.385 -31.195  1.00  0.00     0.051 C 
ENDROOT
BRANCH   1  11
HETATM   11  N   UNL     1      -8.026   1.731 -30.544  1.00  0.00    -0.372 N 
HETATM   12  H   UNL     1      -7.295   1.117 -30.196  1.00  0.00     0.161 HD
BRANCH  11  13
HETATM   13  C   UNL     1      -7.818   3.131 -30.202  1.00  0.00     0.145 C 
BRANCH  13  14
HETATM   14  C   UNL     1      -6.467   3.717 -30.697  1.00  0.00     0.092 C 
HETATM   15  C   UNL     1      -5.276   2.968 -30.073  1.00  0.00     0.033 C 
BRANCH  14  16
HETATM   16  N   UNL     1      -6.313   3.828 -32.168  1.00  0.00    -0.404 N 
HETATM   17  C   UNL     1      -5.171   3.112 -32.746  1.00  0.00     0.145 C 
HETATM   18  C   UNL     1      -3.897   3.948 -33.002  1.00  0.00     0.254 C 
HETATM   19  N   UNL     1      -4.221   5.225 -33.755  1.00  0.00    -0.068 N 
HETATM   20  H   UNL     1      -4.602   4.951 -34.671  1.00  0.00     0.280 HD
HETATM   21  C   UNL     1      -5.323   6.009 -33.050  1.00  0.00     0.254 C 
HETATM   22  C   UNL     1      -6.561   5.124 -32.811  1.00  0.00     0.145 C 
BRANCH  19  23
HETATM   23  C   UNL     1      -3.018   6.110 -34.004  1.00  0.00     0.230 C 
HETATM   24  C   UNL     1      -1.791   5.291 -34.358  1.00  0.00     0.034 C 
ENDBRANCH  19  23
ENDBRANCH  14  16
ENDBRANCH  13  14
ENDBRANCH  11  13
ENDBRANCH   1  11
BRANCH   3  25
HETATM   25  C   UNL     1     -11.372   2.080 -34.004  1.00  0.00     0.314 C 
BRANCH  25  26
HETATM   26  N   UNL     1     -12.546   1.598 -33.150  1.00  0.00    -0.072 N 
HETATM   27  H   UNL     1     -12.117   1.376 -32.234  1.00  0.00     0.279 HD
HETATM   28  C   UNL     1     -13.550   2.682 -32.886  1.00  0.00     0.269 C 
HETATM   29  C   UNL     1     -13.177   0.350 -33.679  1.00  0.00     0.269 C 
ENDBRANCH  25  26
ENDBRANCH   3  25
BRANCH   8  30
HETATM   30  C   UNL     1      -4.921  -1.755 -33.901  1.00  0.00     0.300 C 
HETATM   31  O   UNL     1      -3.891  -1.678 -33.245  1.00  0.00    -0.259 OA
BRANCH  30  32
HETATM   32  O   UNL     1      -5.099  -2.605 -34.952  1.00  0.00    -0.317 OA
BRANCH  32  33
HETATM   33  C   UNL     1      -5.242  -3.996 -34.625  1.00  0.00     0.174 C 
HETATM   34  C   UNL     1      -6.571  -4.515 -35.142  1.00  0.00     0.034 C 
ENDBRANCH  32  33
ENDBRANCH  30  32
ENDBRANCH   8  30
TORSDOF 10
ENDMDL
MODEL 2
REMARK VINA RESULT:      -7.6      2.076      6.996
REMARK  10 active torsions:
REMARK  status: ('A' for Active; 'I' for Inactive)
REMARK    1  A    between atoms: C_2  and  N_3 
REMARK    2  A    between atoms: N_7  and  C_8 
REMARK    3  A    between atoms: C_8  and  C_9 
REMARK    4  A    between atoms: C_9  and  N_10 
REMARK    5  A    between atoms: N_10  and  C_11 
REMARK    6  A    between atoms: C_13  and  C_14 
REMARK    7  A    between atoms: C_14  and  N_15 
REMARK    8  A    between atoms: C_23  and  C_24 
REMARK    9  A    between atoms: C_24  and  O_25 
REMARK   10  A    between atoms: O_25  and  C_26 
ROOT
HETATM    1  C   UNL     1      -6.570   2.315 -33.432  1.00  0.00     0.139 A 
HETATM    2  N   UNL     1      -5.867   3.178 -32.654  1.00  0.00    -0.214 NA
HETATM    3  C   UNL     1      -4.760   2.755 -32.022  1.00  0.00     0.155 A 
HETATM    4  N   UNL     1      -4.270   1.510 -32.029  1.00  0.00    -0.224 NA
HETATM    5  C   UNL     1      -4.983   0.670 -32.795  1.00  0.00     0.115 A 
HETATM    6  C   UNL     1      -6.106   0.978 -33.546  1.00  0.00     0.053 A 
HETATM    7  S   UNL     1      -4.518  -0.951 -32.907  1.00  0.00    -0.063 SA
HETATM    8  C   UNL     1      -5.785  -1.326 -33.993  1.00  0.00     0.089 A 
HETATM    9  C   UNL     1      -6.540  -0.194 -34.306  1.00  0.00    -0.022 A 
HETATM   10  C   UNL     1      -7.660  -0.190 -35.307  1.00  0.00     0.051 C 
ENDROOT
BRANCH   1  11
HETATM   11  N   UNL     1      -7.702   2.775 -34.095  1.00  0.00    -0.372 N 
HETATM   12  H   UNL     1      -7.770   2.410 -35.040  1.00  0.00     0.161 HD
BRANCH  11  13
HETATM   13  C   UNL     1      -8.981   2.826 -33.401  1.00  0.00     0.145 C 
BRANCH  13  14
HETATM   14  C   UNL     1     -10.087   1.933 -34.028  1.00  0.00     0.092 C 
HETATM   15  C   UNL     1     -10.467   0.778 -33.085  1.00  0.00     0.033 C 
BRANCH  14  16
HETATM   16  N   UNL     1     -11.296   2.646 -34.509  1.00  0.00    -0.404 N 
HETATM   17  C   UNL     1     -11.980   3.483 -33.517  1.00  0.00     0.145 C 
HETATM   18  C   UNL     1     -13.192   2.844 -32.802  1.00  0.00     0.254 C 
HETATM   19  N   UNL     1     -14.152   2.223 -33.799  1.00  0.00    -0.068 N 
HETATM   20  H   UNL     1     -14.509   2.984 -34.394  1.00  0.00     0.280 HD
HETATM   21  C   UNL     1     -13.426   1.257 -34.728  1.00  0.00     0.254 C 
HETATM   22  C   UNL     1     -12.224   1.944 -35.403  1.00  0.00     0.145 C 
BRANCH  19  23
HETATM   23  C   UNL     1     -15.345   1.545 -33.157  1.00  0.00     0.230 C 
HETATM   24  C   UNL     1     -15.996   2.436 -32.117  1.00  0.00     0.034 C 
ENDBRANCH  19  23
ENDBRANCH  14  16
ENDBRANCH  13  14
ENDBRANCH  11  13
ENDBRANCH   1  11
BRANCH   3  25
HETATM   25  C   UNL     1      -3.938   3.766 -31.241  1.00  0.00     0.314 C 
BRANCH  25  26
HETATM   26  N   UNL     1      -2.570   4.051 -31.860  1.00  0.00    -0.072 N 
HETATM   27  H   UNL     1      -2.026   3.188 -31.682  1.00  0.00     0.279 HD
HETATM   28  C   UNL     1      -2.632   4.200 -33.353  1.00  0.00     0.269 C 
HETATM   29  C   UNL     1      -1.857   5.189 -31.202  1.00  0.00     0.269 C 
ENDBRANCH  25  26
ENDBRANCH   3  25
BRANCH   8  30
HETATM   30  C   UNL     1      -5.979  -2.697 -34.464  1.00  0.00     0.300 C 
HETATM   31  O   UNL     1      -7.063  -3.265 -34.518  1.00  0.00    -0.259 OA
BRANCH  30  32
HETATM   32  O   UNL     1      -4.799  -3.260 -34.852  1.00  0.00    -0.317 OA
BRANCH  32  33
HETATM   33  C   UNL     1      -4.577  -4.617 -34.439  1.00  0.00     0.174 C 
HETATM   34  C   UNL     1      -3.465  -4.669 -33.409  1.00  0.00     0.034 C 
ENDBRANCH  32  33
ENDBRANCH  30  32
ENDBRANCH   8  30
TORSDOF 10
ENDMDL
MODEL 3
REMARK VINA RESULT:      -7.4      1.954      6.601
REMARK  10 active torsions:
REMARK  status: ('A' for Active; 'I' for Inactive)
REMARK    1  A    between atoms: C_2  and  N_3 
REMARK    2  A    between atoms: N_7  and  C_8 
REMARK    3  A    between atoms: C_8  and  C_9 
REMARK    4  A    between atoms: C_9  and  N_10 
REMARK    5  A    between atoms: N_10  and  C_11 
REMARK    6  A    between atoms: C_13  and  C_14 
REMARK    7  A    between atoms: C_14  and  N_15 
REMARK    8  A    between atoms: C_23  and  C_24 
REMARK    9  A    between atoms: C_24  and  O_25 
REMARK   10  A    between atoms: O_25  and  C_26 
ROOT
HETATM    1  C   UNL     1      -6.251   1.599 -32.543  1.00  0.00     0.139 A 
HETATM    2  N   UNL     1      -5.722   2.797 -32.184  1.00  0.00    -0.214 NA
HETATM    3  C   UNL     1      -4.391   2.932 -32.076  1.00  0.00     0.155 A 
HETATM    4  N   UNL     1      -3.480   1.965 -32.239  1.00  0.00    -0.224 NA
HETATM    5  C   UNL     1      -4.022   0.787 -32.583  1.00  0.00     0.115 A 
HETATM    6  C   UNL     1      -5.365   0.516 -32.786  1.00  0.00     0.053 A 
HETATM    7  S   UNL     1      -3.019  -0.554 -32.812  1.00  0.00    -0.063 SA
HETATM    8  C   UNL     1      -4.332  -1.570 -33.225  1.00  0.00     0.089 A 
HETATM    9  C   UNL     1      -5.538  -0.866 -33.231  1.00  0.00    -0.022 A 
HETATM   10  C   UNL     1      -6.851  -1.467 -33.646  1.00  0.00     0.051 C 
ENDROOT
BRANCH   1  11
HETATM   11  N   UNL     1      -7.631   1.482 -32.669  1.00  0.00    -0.372 N 
HETATM   12  H   UNL     1      -8.119   1.748 -31.820  1.00  0.00     0.161 HD
BRANCH  11  13
HETATM   13  C   UNL     1      -8.291   1.939 -33.885  1.00  0.00     0.145 C 
BRANCH  13  14
HETATM   14  C   UNL     1      -9.656   1.254 -34.168  1.00  0.00     0.092 C 
HETATM   15  C   UNL     1     -10.081   0.358 -32.991  1.00  0.00     0.033 C 
BRANCH  14  16
HETATM   16  N   UNL     1     -10.761   2.159 -34.571  1.00  0.00    -0.404 N 
HETATM   17  C   UNL     1     -10.768   3.480 -33.935  1.00  0.00     0.145 C 
HETATM   18  C   UNL     1     -11.687   3.642 -32.703  1.00  0.00     0.254 C 
HETATM   19  N   UNL     1     -13.086   3.131 -32.993  1.00  0.00    -0.068 N 
HETATM   20  H   UNL     1     -13.474   3.713 -33.749  1.00  0.00     0.280 HD
HETATM   21  C   UNL     1     -13.045   1.704 -33.529  1.00  0.00     0.254 C 
HETATM   22  C   UNL     1     -12.107   1.600 -34.745  1.00  0.00     0.145 C 
BRANCH  19  23
HETATM   23  C   UNL     1     -14.028   3.226 -31.811  1.00  0.00     0.230 C 
HETATM   24  C   UNL     1     -13.401   3.993 -30.663  1.00  0.00     0.034 C 
ENDBRANCH  19  23
ENDBRANCH  14  16
ENDBRANCH  13  14
ENDBRANCH  11  13
ENDBRANCH   1  11
BRANCH   3  25
HETATM   25  C   UNL     1      -3.821   4.308 -31.773  1.00  0.00     0.314 C 
BRANCH  25  26
HETATM   26  N   UNL     1      -2.353   4.463 -32.170  1.00  0.00    -0.072 N 
HETATM   27  H   UNL     1      -2.003   3.490 -32.230  1.00  0.00     0.279 HD
HETATM   28  C   UNL     1      -2.185   5.049 -33.542  1.00  0.00     0.269 C 
HETATM   29  C   UNL     1      -1.543   5.182 -31.139  1.00  0.00     0.269 C 
ENDBRANCH  25  26
ENDBRANCH   3  25
BRANCH   8  30
HETATM   30  C   UNL     1      -4.115  -2.989 -33.504  1.00  0.00     0.300 C 
HETATM   31  O   UNL     1      -3.526  -3.761 -32.757  1.00  0.00    -0.259 OA
BRANCH  30  32
HETATM   32  O   UNL     1      -4.668  -3.350 -34.697  1.00  0.00    -0.317 OA
BRANCH  32  33
HETATM   33  C   UNL     1      -5.250  -4.661 -34.756  1.00  0.00     0.174 C 
HETATM   34  C   UNL     1      -6.626  -4.588 -35.391  1.00  0.00     0.034 C 
ENDBRANCH  32  33
ENDBRANCH  30  32
ENDBRANCH   8  30
TORSDOF 10
ENDMDL
MODEL 4
REMARK VINA RESULT:      -7.3      1.607      2.603
REMARK  10 active torsions:
REMARK  status: ('A' for Active; 'I' for Inactive)
REMARK    1  A    between atoms: C_2  and  N_3 
REMARK    2  A    between atoms: N_7  and  C_8 
REMARK    3  A    between atoms: C_8  and  C_9 
REMARK    4  A    between atoms: C_9  and  N_10 
REMARK    5  A    between atoms: N_10  and  C_11 
REMARK    6  A    between atoms: C_13  and  C_14 
REMARK    7  A    between atoms: C_14  and  N_15 
REMARK    8  A    between atoms: C_23  and  C_24 
REMARK    9  A    between atoms: C_24  and  O_25 
REMARK   10  A    between atoms: O_25  and  C_26 
ROOT
HETATM    1  C   UNL     1      -8.573   1.698 -31.779  1.00  0.00     0.139 A 
HETATM    2  N   UNL     1      -9.751   2.177 -32.255  1.00  0.00    -0.214 NA
HETATM    3  C   UNL     1     -10.204   1.765 -33.450  1.00  0.00     0.155 A 
HETATM    4  N   UNL     1      -9.576   0.936 -34.293  1.00  0.00    -0.224 NA
HETATM    5  C   UNL     1      -8.409   0.482 -33.810  1.00  0.00     0.115 A 
HETATM    6  C   UNL     1      -7.848   0.774 -32.578  1.00  0.00     0.053 A 
HETATM    7  S   UNL     1      -7.472  -0.562 -34.751  1.00  0.00    -0.063 SA
HETATM    8  C   UNL     1      -6.269  -0.705 -33.543  1.00  0.00     0.089 A 
HETATM    9  C   UNL     1      -6.611   0.016 -32.396  1.00  0.00    -0.022 A 
HETATM   10  C   UNL     1      -5.798   0.006 -31.133  1.00  0.00     0.051 C 
ENDROOT
BRANCH   1  11
HETATM   11  N   UNL     1      -8.129   2.119 -30.531  1.00  0.00    -0.372 N 
HETATM   12  H   UNL     1      -7.210   1.752 -30.305  1.00  0.00     0.161 HD
BRANCH  11  13
HETATM   13  C   UNL     1      -8.316   3.505 -30.122  1.00  0.00     0.145 C 
BRANCH  13  14
HETATM   14  C   UNL     1      -7.023   4.365 -30.163  1.00  0.00     0.092 C 
HETATM   15  C   UNL     1      -5.767   3.475 -30.212  1.00  0.00     0.033 C 
BRANCH  14  16
HETATM   16  N   UNL     1      -6.975   5.408 -31.217  1.00  0.00    -0.404 N 
HETATM   17  C   UNL     1      -8.133   6.305 -31.280  1.00  0.00     0.145 C 
HETATM   18  C   UNL     1      -9.222   5.946 -32.316  1.00  0.00     0.254 C 
HETATM   19  N   UNL     1      -8.613   5.688 -33.682  1.00  0.00    -0.068 N 
HETATM   20  H   UNL     1      -8.169   6.564 -33.990  1.00  0.00     0.280 HD
HETATM   21  C   UNL     1      -7.500   4.650 -33.596  1.00  0.00     0.254 C 
HETATM   22  C   UNL     1      -6.453   5.053 -32.542  1.00  0.00     0.145 C 
BRANCH  19  23
HETATM   23  C   UNL     1      -9.626   5.292 -34.737  1.00  0.00     0.230 C 
HETATM   24  C   UNL     1     -10.287   6.509 -35.356  1.00  0.00     0.034 C 
ENDBRANCH  19  23
ENDBRANCH  14  16
ENDBRANCH  13  14
ENDBRANCH  11  13
ENDBRANCH   1  11
BRANCH   3  25
HETATM   25  C   UNL     1     -11.572   2.236 -33.911  1.00  0.00     0.314 C 
BRANCH  25  26
HETATM   26  N   UNL     1     -12.731   1.592 -33.149  1.00  0.00    -0.072 N 
HETATM   27  H   UNL     1     -12.310   1.299 -32.249  1.00  0.00     0.279 HD
HETATM   28  C   UNL     1     -13.810   2.576 -32.801  1.00  0.00     0.269 C 
HETATM   29  C   UNL     1     -13.267   0.371 -33.826  1.00  0.00     0.269 C 
ENDBRANCH  25  26
ENDBRANCH   3  25
BRANCH   8  30
HETATM   30  C   UNL     1      -5.061  -1.494 -33.785  1.00  0.00     0.300 C 
HETATM   31  O   UNL     1      -3.937  -1.024 -33.898  1.00  0.00    -0.259 OA
BRANCH  30  32
HETATM   32  O   UNL     1      -5.345  -2.827 -33.852  1.00  0.00    -0.317 OA
BRANCH  32  33
HETATM   33  C   UNL     1      -5.313  -3.416 -35.161  1.00  0.00     0.174 C 
HETATM   34  C   UNL     1      -6.425  -4.440 -35.295  1.00  0.00     0.034 C 
ENDBRANCH  32  33
ENDBRANCH  30  32
ENDBRANCH   8  30
TORSDOF 10
ENDMDL
MODEL 5
REMARK VINA RESULT:      -7.2      2.228      3.274
REMARK  10 active torsions:
REMARK  status: ('A' for Active; 'I' for Inactive)
REMARK    1  A    between atoms: C_2  and  N_3 
REMARK    2  A    between atoms: N_7  and  C_8 
REMARK    3  A    between atoms: C_8  and  C_9 
REMARK    4  A    between atoms: C_9  and  N_10 
REMARK    5  A    between atoms: N_10  and  C_11 
REMARK    6  A    between atoms: C_13  and  C_14 
REMARK    7  A    between atoms: C_14  and  N_15 
REMARK    8  A    between atoms: C_23  and  C_24 
REMARK    9  A    between atoms: C_24  and  O_25 
REMARK   10  A    between atoms: O_25  and  C_26 
ROOT
HETATM    1  C   UNL     1      -6.620   2.734 -33.119  1.00  0.00     0.139 A 
HETATM    2  N   UNL     1      -7.877   3.211 -33.314  1.00  0.00    -0.214 NA
HETATM    3  C   UNL     1      -8.869   2.362 -33.628  1.00  0.00     0.155 A 
HETATM    4  N   UNL     1      -8.752   1.045 -33.831  1.00  0.00    -0.224 NA
HETATM    5  C   UNL     1      -7.501   0.595 -33.643  1.00  0.00     0.115 A 
HETATM    6  C   UNL     1      -6.397   1.339 -33.264  1.00  0.00     0.053 A 
HETATM    7  S   UNL     1      -7.165  -1.045 -33.875  1.00  0.00    -0.063 SA
HETATM    8  C   UNL     1      -5.519  -0.853 -33.451  1.00  0.00     0.089 A 
HETATM    9  C   UNL     1      -5.237   0.466 -33.087  1.00  0.00    -0.022 A 
HETATM   10  C   UNL     1      -3.901   0.921 -32.575  1.00  0.00     0.051 C 
ENDROOT
BRANCH   1  11
HETATM   11  N   UNL     1      -5.608   3.624 -32.775  1.00  0.00    -0.372 N 
HETATM   12  H   UNL     1      -4.761   3.148 -32.483  1.00  0.00     0.161 HD
BRANCH  11  13
HETATM   13  C   UNL     1      -5.359   4.797 -33.601  1.00  0.00     0.145 C 
BRANCH  13  14
HETATM   14  C   UNL     1      -3.860   5.185 -33.728  1.00  0.00     0.092 C 
HETATM   15  C   UNL     1      -3.429   5.254 -35.204  1.00  0.00     0.033 C 
BRANCH  14  16
HETATM   16  N   UNL     1      -3.446   6.407 -32.996  1.00  0.00    -0.404 N 
HETATM   17  C   UNL     1      -2.315   7.143 -33.571  1.00  0.00     0.145 C 
HETATM   18  C   UNL     1      -0.926   6.851 -32.959  1.00  0.00     0.254 C 
HETATM   19  N   UNL     1      -0.965   6.938 -31.445  1.00  0.00    -0.068 N 
HETATM   20  H   UNL     1      -1.214   7.907 -31.201  1.00  0.00     0.280 HD
HETATM   21  C   UNL     1      -2.070   6.055 -30.876  1.00  0.00     0.254 C 
HETATM   22  C   UNL     1      -3.426   6.382 -31.529  1.00  0.00     0.145 C 
BRANCH  19  23
HETATM   23  C   UNL     1       0.359   6.623 -30.781  1.00  0.00     0.230 C 
HETATM   24  C   UNL     1       0.471   7.289 -29.422  1.00  0.00     0.034 C 
ENDBRANCH  19  23
ENDBRANCH  14  16
ENDBRANCH  13  14
ENDBRANCH  11  13
ENDBRANCH   1  11
BRANCH   3  25
HETATM   25  C   UNL     1     -10.283   2.907 -33.740  1.00  0.00     0.314 C 
BRANCH  25  26
HETATM   26  N   UNL     1     -10.657   3.350 -35.155  1.00  0.00    -0.072 N 
HETATM   27  H   UNL     1     -10.018   2.813 -35.766  1.00  0.00     0.279 HD
HETATM   28  C   UNL     1     -12.048   2.933 -35.541  1.00  0.00     0.269 C 
HETATM   29  C   UNL     1     -10.411   4.805 -35.394  1.00  0.00     0.269 C 
ENDBRANCH  25  26
ENDBRANCH   3  25
BRANCH   8  30
HETATM   30  C   UNL     1      -4.598  -1.988 -33.510  1.00  0.00     0.300 C 
HETATM   31  O   UNL     1      -3.818  -2.295 -32.618  1.00  0.00    -0.259 OA
BRANCH  30  32
HETATM   32  O   UNL     1      -4.730  -2.673 -34.683  1.00  0.00    -0.317 OA
BRANCH  32  33
HETATM   33  C   UNL     1      -4.915  -4.092 -34.571  1.00  0.00     0.174 C 
HETATM   34  C   UNL     1      -6.285  -4.478 -35.098  1.00  0.00     0.034 C 
ENDBRANCH  32  33
ENDBRANCH  30  32
ENDBRANCH   8  30
TORSDOF 10
ENDMDL
MODEL 6
REMARK VINA RESULT:      -7.1      2.107      6.042
REMARK  10 active torsions:
REMARK  status: ('A' for Active; 'I' for Inactive)
REMARK    1  A    between atoms: C_2  and  N_3 
REMARK    2  A    between atoms: N_7  and  C_8 
REMARK    3  A    between atoms: C_8  and  C_9 
REMARK    4  A    between atoms: C_9  and  N_10 
REMARK    5  A    between atoms: N_10  and  C_11 
REMARK    6  A    between atoms: C_13  and  C_14 
REMARK    7  A    between atoms: C_14  and  N_15 
REMARK    8  A    between atoms: C_23  and  C_24 
REMARK    9  A    between atoms: C_24  and  O_25 
REMARK   10  A    between atoms: O_25  and  C_26 
ROOT
HETATM    1  C   UNL     1      -6.924   2.273 -33.325  1.00  0.00     0.139 A 
HETATM    2  N   UNL     1      -6.391   3.197 -32.485  1.00  0.00    -0.214 NA
HETATM    3  C   UNL     1      -5.260   2.917 -31.819  1.00  0.00     0.155 A 
HETATM    4  N   UNL     1      -4.588   1.760 -31.847  1.00  0.00    -0.224 NA
HETATM    5  C   UNL     1      -5.136   0.857 -32.675  1.00  0.00     0.115 A 
HETATM    6  C   UNL     1      -6.261   1.025 -33.464  1.00  0.00     0.053 A 
HETATM    7  S   UNL     1      -4.429  -0.672 -32.822  1.00  0.00    -0.063 SA
HETATM    8  C   UNL     1      -5.580  -1.185 -33.977  1.00  0.00     0.089 A 
HETATM    9  C   UNL     1      -6.483  -0.164 -34.285  1.00  0.00    -0.022 A 
HETATM   10  C   UNL     1      -7.550  -0.285 -35.335  1.00  0.00     0.051 C 
ENDROOT
BRANCH   1  11
HETATM   11  N   UNL     1      -8.085   2.588 -34.023  1.00  0.00    -0.372 N 
HETATM   12  H   UNL     1      -8.118   2.144 -34.935  1.00  0.00     0.161 HD
BRANCH  11  13
HETATM   13  C   UNL     1      -9.369   2.593 -33.334  1.00  0.00     0.145 C 
BRANCH  13  14
HETATM   14  C   UNL     1     -10.326   1.445 -33.756  1.00  0.00     0.092 C 
HETATM   15  C   UNL     1     -10.135   0.207 -32.860  1.00  0.00     0.033 C 
BRANCH  14  16
HETATM   16  N   UNL     1     -11.761   1.807 -33.860  1.00  0.00    -0.404 N 
HETATM   17  C   UNL     1     -12.328   1.785 -35.212  1.00  0.00     0.145 C 
HETATM   18  C   UNL     1     -12.397   3.143 -35.948  1.00  0.00     0.254 C 
HETATM   19  N   UNL     1     -13.027   4.210 -35.071  1.00  0.00    -0.068 N 
HETATM   20  H   UNL     1     -13.993   3.913 -34.876  1.00  0.00     0.280 HD
HETATM   21  C   UNL     1     -12.323   4.292 -33.721  1.00  0.00     0.254 C 
HETATM   22  C   UNL     1     -12.275   2.911 -33.041  1.00  0.00     0.145 C 
BRANCH  19  23
HETATM   23  C   UNL     1     -13.088   5.577 -35.721  1.00  0.00     0.230 C 
HETATM   24  C   UNL     1     -11.990   6.486 -35.203  1.00  0.00     0.034 C 
ENDBRANCH  19  23
ENDBRANCH  14  16
ENDBRANCH  13  14
ENDBRANCH  11  13
ENDBRANCH   1  11
BRANCH   3  25
HETATM   25  C   UNL     1      -4.630   4.005 -30.965  1.00  0.00     0.314 C 
BRANCH  25  26
HETATM   26  N   UNL     1      -5.362   5.345 -31.044  1.00  0.00    -0.072 N 
HETATM   27  H   UNL     1      -6.197   5.143 -31.621  1.00  0.00     0.279 HD
HETATM   28  C   UNL     1      -5.881   5.798 -29.709  1.00  0.00     0.269 C 
HETATM   29  C   UNL     1      -4.566   6.404 -31.737  1.00  0.00     0.269 C 
ENDBRANCH  25  26
ENDBRANCH   3  25
BRANCH   8  30
HETATM   30  C   UNL     1      -5.548  -2.549 -34.506  1.00  0.00     0.300 C 
HETATM   31  O   UNL     1      -6.541  -3.219 -34.755  1.00  0.00    -0.259 OA
BRANCH  30  32
HETATM   32  O   UNL     1      -4.266  -2.974 -34.701  1.00  0.00    -0.317 OA
BRANCH  32  33
HETATM   33  C   UNL     1      -3.970  -4.311 -34.268  1.00  0.00     0.174 C 
HETATM   34  C   UNL     1      -3.380  -4.284 -32.871  1.00  0.00     0.034 C 
ENDBRANCH  32  33
ENDBRANCH  30  32
ENDBRANCH   8  30
TORSDOF 10
ENDMDL
MODEL 7
REMARK VINA RESULT:      -7.1      2.122      6.298
REMARK  10 active torsions:
REMARK  status: ('A' for Active; 'I' for Inactive)
REMARK    1  A    between atoms: C_2  and  N_3 
REMARK    2  A    between atoms: N_7  and  C_8 
REMARK    3  A    between atoms: C_8  and  C_9 
REMARK    4  A    between atoms: C_9  and  N_10 
REMARK    5  A    between atoms: N_10  and  C_11 
REMARK    6  A    between atoms: C_13  and  C_14 
REMARK    7  A    between atoms: C_14  and  N_15 
REMARK    8  A    between atoms: C_23  and  C_24 
REMARK    9  A    between atoms: C_24  and  O_25 
REMARK   10  A    between atoms: O_25  and  C_26 
ROOT
HETATM    1  C   UNL     1      -6.404   2.509 -33.266  1.00  0.00     0.139 A 
HETATM    2  N   UNL     1      -5.625   3.371 -32.563  1.00  0.00    -0.214 NA
HETATM    3  C   UNL     1      -4.448   2.953 -32.070  1.00  0.00     0.155 A 
HETATM    4  N   UNL     1      -3.948   1.715 -32.151  1.00  0.00    -0.224 NA
HETATM    5  C   UNL     1      -4.736   0.876 -32.841  1.00  0.00     0.115 A 
HETATM    6  C   UNL     1      -5.942   1.179 -33.451  1.00  0.00     0.053 A 
HETATM    7  S   UNL     1      -4.269  -0.738 -33.027  1.00  0.00    -0.063 SA
HETATM    8  C   UNL     1      -5.650  -1.115 -33.964  1.00  0.00     0.089 A 
HETATM    9  C   UNL     1      -6.448   0.012 -34.172  1.00  0.00    -0.022 A 
HETATM   10  C   UNL     1      -7.677   0.014 -35.036  1.00  0.00     0.051 C 
ENDROOT
BRANCH   1  11
HETATM   11  N   UNL     1      -7.611   2.963 -33.787  1.00  0.00    -0.372 N 
HETATM   12  H   UNL     1      -8.404   2.438 -33.433  1.00  0.00     0.161 HD
BRANCH  11  13
HETATM   13  C   UNL     1      -7.864   4.393 -33.895  1.00  0.00     0.145 C 
BRANCH  13  14
HETATM   14  C   UNL     1      -8.813   4.960 -32.803  1.00  0.00     0.092 C 
HETATM   15  C   UNL     1      -8.309   6.318 -32.283  1.00  0.00     0.033 C 
BRANCH  14  16
HETATM   16  N   UNL     1     -10.248   5.032 -33.170  1.00  0.00    -0.404 N 
HETATM   17  C   UNL     1     -11.146   4.156 -32.411  1.00  0.00     0.145 C 
HETATM   18  C   UNL     1     -11.509   2.807 -33.072  1.00  0.00     0.254 C 
HETATM   19  N   UNL     1     -11.967   3.006 -34.505  1.00  0.00    -0.068 N 
HETATM   20  H   UNL     1     -12.823   3.577 -34.476  1.00  0.00     0.280 HD
HETATM   21  C   UNL     1     -10.943   3.809 -35.300  1.00  0.00     0.254 C 
HETATM   22  C   UNL     1     -10.613   5.134 -34.588  1.00  0.00     0.145 C 
BRANCH  19  23
HETATM   23  C   UNL     1     -12.301   1.715 -35.224  1.00  0.00     0.230 C 
HETATM   24  C   UNL     1     -13.385   0.941 -34.499  1.00  0.00     0.034 C 
ENDBRANCH  19  23
ENDBRANCH  14  16
ENDBRANCH  13  14
ENDBRANCH  11  13
ENDBRANCH   1  11
BRANCH   3  25
HETATM   25  C   UNL     1      -3.551   3.965 -31.375  1.00  0.00     0.314 C 
BRANCH  25  26
HETATM   26  N   UNL     1      -2.185   4.131 -32.042  1.00  0.00    -0.072 N 
HETATM   27  H   UNL     1      -1.799   3.171 -32.070  1.00  0.00     0.279 HD
HETATM   28  C   UNL     1      -2.293   4.576 -33.473  1.00  0.00     0.269 C 
HETATM   29  C   UNL     1      -1.248   4.983 -31.248  1.00  0.00     0.269 C 
ENDBRANCH  25  26
ENDBRANCH   3  25
BRANCH   8  30
HETATM   30  C   UNL     1      -5.883  -2.483 -34.428  1.00  0.00     0.300 C 
HETATM   31  O   UNL     1      -6.984  -3.013 -34.497  1.00  0.00    -0.259 OA
BRANCH  30  32
HETATM   32  O   UNL     1      -4.716  -3.089 -34.790  1.00  0.00    -0.317 OA
BRANCH  32  33
HETATM   33  C   UNL     1      -4.565  -4.462 -34.396  1.00  0.00     0.174 C 
HETATM   34  C   UNL     1      -3.465  -4.584 -33.358  1.00  0.00     0.034 C 
ENDBRANCH  32  33
ENDBRANCH  30  32
ENDBRANCH   8  30
TORSDOF 10
ENDMDL
MODEL 8
REMARK VINA RESULT:      -7.1      2.158      6.478
REMARK  10 active torsions:
REMARK  status: ('A' for Active; 'I' for Inactive)
REMARK    1  A    between atoms: C_2  and  N_3 
REMARK    2  A    between atoms: N_7  and  C_8 
REMARK    3  A    between atoms: C_8  and  C_9 
REMARK    4  A    between atoms: C_9  and  N_10 
REMARK    5  A    between atoms: N_10  and  C_11 
REMARK    6  A    between atoms: C_13  and  C_14 
REMARK    7  A    between atoms: C_14  and  N_15 
REMARK    8  A    between atoms: C_23  and  C_24 
REMARK    9  A    between atoms: C_24  and  O_25 
REMARK   10  A    between atoms: O_25  and  C_26 
ROOT
HETATM    1  C   UNL     1      -5.264   1.851 -33.112  1.00  0.00     0.139 A 
HETATM    2  N   UNL     1      -4.906   3.045 -32.574  1.00  0.00    -0.214 NA
HETATM    3  C   UNL     1      -3.854   3.111 -31.742  1.00  0.00     0.155 A 
HETATM    4  N   UNL     1      -3.111   2.082 -31.320  1.00  0.00    -0.224 NA
HETATM    5  C   UNL     1      -3.486   0.910 -31.854  1.00  0.00     0.115 A 
HETATM    6  C   UNL     1      -4.509   0.700 -32.765  1.00  0.00     0.053 A 
HETATM    7  S   UNL     1      -2.668  -0.503 -31.417  1.00  0.00    -0.063 SA
HETATM    8  C   UNL     1      -3.625  -1.475 -32.449  1.00  0.00     0.089 A 
HETATM    9  C   UNL     1      -4.545  -0.707 -33.165  1.00  0.00    -0.022 A 
HETATM   10  C   UNL     1      -5.457  -1.267 -34.219  1.00  0.00     0.051 C 
ENDROOT
BRANCH   1  11
HETATM   11  N   UNL     1      -6.344   1.803 -33.988  1.00  0.00    -0.372 N 
HETATM   12  H   UNL     1      -6.516   0.865 -34.335  1.00  0.00     0.161 HD
BRANCH  11  13
HETATM   13  C   UNL     1      -7.561   2.541 -33.682  1.00  0.00     0.145 C 
BRANCH  13  14
HETATM   14  C   UNL     1      -8.872   1.801 -34.065  1.00  0.00     0.092 C 
HETATM   15  C   UNL     1      -8.569   0.465 -34.767  1.00  0.00     0.033 C 
BRANCH  14  16
HETATM   16  N   UNL     1      -9.851   1.612 -32.965  1.00  0.00    -0.404 N 
HETATM   17  C   UNL     1     -10.666   0.395 -33.038  1.00  0.00     0.145 C 
HETATM   18  C   UNL     1     -12.073   0.549 -33.658  1.00  0.00     0.254 C 
HETATM   19  N   UNL     1     -12.821   1.712 -33.034  1.00  0.00    -0.068 N 
HETATM   20  H   UNL     1     -12.944   1.496 -32.035  1.00  0.00     0.280 HD
HETATM   21  C   UNL     1     -11.993   2.991 -33.096  1.00  0.00     0.254 C 
HETATM   22  C   UNL     1     -10.600   2.775 -32.476  1.00  0.00     0.145 C 
BRANCH  19  23
HETATM   23  C   UNL     1     -14.196   1.942 -33.626  1.00  0.00     0.230 C 
HETATM   24  C   UNL     1     -14.737   0.684 -34.278  1.00  0.00     0.034 C 
ENDBRANCH  19  23
ENDBRANCH  14  16
ENDBRANCH  13  14
ENDBRANCH  11  13
ENDBRANCH   1  11
BRANCH   3  25
HETATM   25  C   UNL     1      -3.412   4.474 -31.236  1.00  0.00     0.314 C 
BRANCH  25  26
HETATM   26  N   UNL     1      -4.448   5.160 -30.345  1.00  0.00    -0.072 N 
HETATM   27  H   UNL     1      -3.884   5.609 -29.601  1.00  0.00     0.279 HD
HETATM   28  C   UNL     1      -5.166   6.276 -31.049  1.00  0.00     0.269 C 
HETATM   29  C   UNL     1      -5.387   4.197 -29.694  1.00  0.00     0.269 C 
ENDBRANCH  25  26
ENDBRANCH   3  25
BRANCH   8  30
HETATM   30  C   UNL     1      -3.435  -2.925 -32.492  1.00  0.00     0.300 C 
HETATM   31  O   UNL     1      -3.102  -3.609 -31.533  1.00  0.00    -0.259 OA
BRANCH  30  32
HETATM   32  O   UNL     1      -3.693  -3.423 -33.735  1.00  0.00    -0.317 OA
BRANCH  32  33
HETATM   33  C   UNL     1      -4.037  -4.815 -33.803  1.00  0.00     0.174 C 
HETATM   34  C   UNL     1      -5.307  -4.996 -34.613  1.00  0.00     0.034 C 
ENDBRANCH  32  33
ENDBRANCH  30  32
ENDBRANCH   8  30
TORSDOF 10
ENDMDL
MODEL 9
REMARK VINA RESULT:      -7.0      3.077      4.086
REMARK  10 active torsions:
REMARK  status: ('A' for Active; 'I' for Inactive)
REMARK    1  A    between atoms: C_2  and  N_3 
REMARK    2  A    between atoms: N_7  and  C_8 
REMARK    3  A    between atoms: C_8  and  C_9 
REMARK    4  A    between atoms: C_9  and  N_10 
REMARK    5  A    between atoms: N_10  and  C_11 
REMARK    6  A    between atoms: C_13  and  C_14 
REMARK    7  A    between atoms: C_14  and  N_15 
REMARK    8  A    between atoms: C_23  and  C_24 
REMARK    9  A    between atoms: C_24  and  O_25 
REMARK   10  A    between atoms: O_25  and  C_26 
ROOT
HETATM    1  C   UNL     1      -4.964   2.545 -32.379  1.00  0.00     0.139 A 
HETATM    2  N   UNL     1      -5.890   3.462 -32.760  1.00  0.00    -0.214 NA
HETATM    3  C   UNL     1      -6.898   3.094 -33.567  1.00  0.00     0.155 A 
HETATM    4  N   UNL     1      -7.079   1.884 -34.109  1.00  0.00    -0.224 NA
HETATM    5  C   UNL     1      -6.149   0.995 -33.729  1.00  0.00     0.115 A 
HETATM    6  C   UNL     1      -5.092   1.215 -32.861  1.00  0.00     0.053 A 
HETATM    7  S   UNL     1      -6.212  -0.583 -34.332  1.00  0.00    -0.063 SA
HETATM    8  C   UNL     1      -4.836  -1.068 -33.438  1.00  0.00     0.089 A 
HETATM    9  C   UNL     1      -4.354  -0.028 -32.640  1.00  0.00    -0.022 A 
HETATM   10  C   UNL     1      -3.214  -0.179 -31.673  1.00  0.00     0.051 C 
ENDROOT
BRANCH   1  11
HETATM   11  N   UNL     1      -3.938   2.938 -31.526  1.00  0.00    -0.372 N 
HETATM   12  H   UNL     1      -3.093   2.392 -31.663  1.00  0.00     0.161 HD
BRANCH  11  13
HETATM   13  C   UNL     1      -3.683   4.354 -31.299  1.00  0.00     0.145 C 
BRANCH  13  14
HETATM   14  C   UNL     1      -2.313   4.852 -31.837  1.00  0.00     0.092 C 
HETATM   15  C   UNL     1      -2.142   4.499 -33.326  1.00  0.00     0.033 C 
BRANCH  14  16
HETATM   16  N   UNL     1      -2.005   6.282 -31.592  1.00  0.00    -0.404 N 
HETATM   17  C   UNL     1      -0.660   6.721 -31.979  1.00  0.00     0.145 C 
HETATM   18  C   UNL     1       0.396   6.766 -30.851  1.00  0.00     0.254 C 
HETATM   19  N   UNL     1      -0.131   7.509 -29.637  1.00  0.00    -0.068 N 
HETATM   20  H   UNL     1      -0.314   8.479 -29.929  1.00  0.00     0.280 HD
HETATM   21  C   UNL     1      -1.469   6.936 -29.185  1.00  0.00     0.254 C 
HETATM   22  C   UNL     1      -2.476   6.906 -30.350  1.00  0.00     0.145 C 
BRANCH  19  23
HETATM   23  C   UNL     1       0.844   7.555 -28.479  1.00  0.00     0.230 C 
HETATM   24  C   UNL     1       0.240   6.962 -27.221  1.00  0.00     0.034 C 
ENDBRANCH  19  23
ENDBRANCH  14  16
ENDBRANCH  13  14
ENDBRANCH  11  13
ENDBRANCH   1  11
BRANCH   3  25
HETATM   25  C   UNL     1      -7.976   4.113 -33.895  1.00  0.00     0.314 C 
BRANCH  25  26
HETATM   26  N   UNL     1      -9.372   3.699 -33.427  1.00  0.00    -0.072 N 
HETATM   27  H   UNL     1      -9.222   2.788 -32.961  1.00  0.00     0.279 HD
HETATM   28  C   UNL     1      -9.923   4.618 -32.375  1.00  0.00     0.269 C 
HETATM   29  C   UNL     1     -10.327   3.488 -34.558  1.00  0.00     0.269 C 
ENDBRANCH  25  26
ENDBRANCH   3  25
BRANCH   8  30
HETATM   30  C   UNL     1      -4.298  -2.421 -33.576  1.00  0.00     0.300 C 
HETATM   31  O   UNL     1      -3.593  -2.975 -32.742  1.00  0.00    -0.259 OA
BRANCH  30  32
HETATM   32  O   UNL     1      -4.697  -2.997 -34.746  1.00  0.00    -0.317 OA
BRANCH  32  33
HETATM   33  C   UNL     1      -5.186  -4.344 -34.657  1.00  0.00     0.174 C 
HETATM   34  C   UNL     1      -6.639  -4.397 -35.091  1.00  0.00     0.034 C 
ENDBRANCH  32  33
ENDBRANCH  30  32
ENDBRANCH   8  30
TORSDOF 10
ENDMDL
MODEL 10
REMARK VINA RESULT:      -7.0      3.816      7.439
REMARK  10 active torsions:
REMARK  status: ('A' for Active; 'I' for Inactive)
REMARK    1  A    between atoms: C_2  and  N_3 
REMARK    2  A    between atoms: N_7  and  C_8 
REMARK    3  A    between atoms: C_8  and  C_9 
REMARK    4  A    between atoms: C_9  and  N_10 
REMARK    5  A    between atoms: N_10  and  C_11 
REMARK    6  A    between atoms: C_13  and  C_14 
REMARK    7  A    between atoms: C_14  and  N_15 
REMARK    8  A    between atoms: C_23  and  C_24 
REMARK    9  A    between atoms: C_24  and  O_25 
REMARK   10  A    between atoms: O_25  and  C_26 
ROOT
HETATM    1  C   UNL     1      -4.744   3.500 -31.667  1.00  0.00     0.139 A 
HETATM    2  N   UNL     1      -5.820   3.411 -30.843  1.00  0.00    -0.214 NA
HETATM    3  C   UNL     1      -6.285   4.512 -30.233  1.00  0.00     0.155 A 
HETATM    4  N   UNL     1      -5.757   5.740 -30.302  1.00  0.00    -0.224 NA
HETATM    5  C   UNL     1      -4.689   5.807 -31.112  1.00  0.00     0.115 A 
HETATM    6  C   UNL     1      -4.136   4.771 -31.847  1.00  0.00     0.053 A 
HETATM    7  S   UNL     1      -3.884   7.280 -31.304  1.00  0.00    -0.063 SA
HETATM    8  C   UNL     1      -2.761   6.616 -32.410  1.00  0.00     0.089 A 
HETATM    9  C   UNL     1      -3.033   5.270 -32.667  1.00  0.00    -0.022 A 
HETATM   10  C   UNL     1      -2.277   4.443 -33.668  1.00  0.00     0.051 C 
ENDROOT
BRANCH   1  11
HETATM   11  N   UNL     1      -4.288   2.353 -32.307  1.00  0.00    -0.372 N 
HETATM   12  H   UNL     1      -3.681   2.567 -33.092  1.00  0.00     0.161 HD
BRANCH  11  13
HETATM   13  C   UNL     1      -3.840   1.211 -31.522  1.00  0.00     0.145 C 
BRANCH  13  14
HETATM   14  C   UNL     1      -3.781  -0.125 -32.313  1.00  0.00     0.092 C 
HETATM   15  C   UNL     1      -2.552  -0.956 -31.903  1.00  0.00     0.033 C 
BRANCH  14  16
HETATM   16  N   UNL     1      -5.014  -0.950 -32.279  1.00  0.00    -0.404 N 
HETATM   17  C   UNL     1      -5.466  -1.474 -33.572  1.00  0.00     0.145 C 
HETATM   18  C   UNL     1      -6.568  -0.664 -34.292  1.00  0.00     0.254 C 
HETATM   19  N   UNL     1      -7.721  -0.355 -33.355  1.00  0.00    -0.068 N 
HETATM   20  H   UNL     1      -8.133  -1.255 -33.071  1.00  0.00     0.280 HD
HETATM   21  C   UNL     1      -7.223   0.311 -32.078  1.00  0.00     0.254 C 
HETATM   22  C   UNL     1      -6.121  -0.533 -31.411  1.00  0.00     0.145 C 
BRANCH  19  23
HETATM   23  C   UNL     1      -8.819   0.472 -33.991  1.00  0.00     0.230 C 
HETATM   24  C   UNL     1     -10.104   0.400 -33.188  1.00  0.00     0.034 C 
ENDBRANCH  19  23
ENDBRANCH  14  16
ENDBRANCH  13  14
ENDBRANCH  11  13
ENDBRANCH   1  11
BRANCH   3  25
HETATM   25  C   UNL     1      -7.551   4.402 -29.399  1.00  0.00     0.314 C 
BRANCH  25  26
HETATM   26  N   UNL     1      -8.833   4.401 -30.232  1.00  0.00    -0.072 N 
HETATM   27  H   UNL     1      -9.543   4.818 -29.604  1.00  0.00     0.279 HD
HETATM   28  C   UNL     1      -8.748   5.310 -31.424  1.00  0.00     0.269 C 
HETATM   29  C   UNL     1      -9.291   3.024 -30.595  1.00  0.00     0.269 C 
ENDBRANCH  25  26
ENDBRANCH   3  25
BRANCH   8  30
HETATM   30  C   UNL     1      -1.676   7.434 -32.951  1.00  0.00     0.300 C 
HETATM   31  O   UNL     1      -1.572   7.758 -34.128  1.00  0.00    -0.259 OA
BRANCH  30  32
HETATM   32  O   UNL     1      -0.800   7.806 -31.974  1.00  0.00    -0.317 OA
BRANCH  32  33
HETATM   33  C   UNL     1       0.059   6.774 -31.465  1.00  0.00     0.174 C 
HETATM   34  C   UNL     1       0.371   7.034 -30.004  1.00  0.00     0.034 C 
ENDBRANCH  32  33
ENDBRANCH  30  32
ENDBRANCH   8  30
TORSDOF 10
ENDMDL
