MODEL 1
REMARK VINA RESULT:     -10.3      0.000      0.000
REMARK  7 active torsions:
REMARK  status: ('A' for Active; 'I' for Inactive)
REMARK    1  A    between atoms: C_4  and  N_5 
REMARK    2  A    between atoms: C_6  and  S_7 
REMARK    3  A    between atoms: S_7  and  C_8 
REMARK    4  A    between atoms: C_8  and  C_9 
REMARK       I    between atoms: C_9  and  N_10 
REMARK    5  A    between atoms: C_12  and  C_13 
REMARK    6  A    between atoms: C_13  and  N_14 
REMARK       I    between atoms: N_14  and  C_15 
REMARK       I    between atoms: C_15  and  N_16 
REMARK    7  A    between atoms: N_16  and  C_17 
ROOT
HETATM    1  C   UNL     1      -5.085   4.724 -33.611  1.00  0.00     0.229 C 
HETATM    2  N   UNL     1      -3.792   5.273 -33.617  1.00  0.00    -0.351 N 
HETATM    3  C   UNL     1      -3.354   6.271 -32.644  1.00  0.00     0.132 C 
HETATM    4  C   UNL     1      -1.834   6.448 -32.537  1.00  0.00     0.021 C 
HETATM    5  C   UNL     1      -1.176   6.528 -33.920  1.00  0.00     0.009 C 
HETATM    6  C   UNL     1      -1.627   5.393 -34.828  1.00  0.00     0.020 C 
HETATM    7  C   UNL     1      -3.146   5.346 -34.928  1.00  0.00     0.126 C 
HETATM    8  O   UNL     1      -5.549   4.201 -34.633  1.00  0.00    -0.273 OA
ENDROOT
BRANCH   1   9
HETATM    9  C   UNL     1      -5.847   4.553 -32.301  1.00  0.00     0.185 C 
BRANCH   9  10
HETATM   10  S   UNL     1      -5.597   3.063 -31.318  1.00  0.00    -0.082 SA
BRANCH  10  11
HETATM   11  C   UNL     1      -7.109   2.223 -31.406  1.00  0.00     0.173 A 
HETATM   12  N   UNL     1      -7.288   0.980 -32.010  1.00  0.00    -0.300 N 
HETATM   13  C   UNL     1      -8.662   0.812 -32.069  1.00  0.00     0.118 A 
HETATM   14  C   UNL     1      -9.215   1.901 -31.443  1.00  0.00     0.137 A 
HETATM   15  N   UNL     1      -8.246   2.770 -31.043  1.00  0.00    -0.235 NA
BRANCH  12  16
HETATM   16  C   UNL     1      -6.335   0.021 -32.474  1.00  0.00     0.042 A 
HETATM   17  C   UNL     1      -5.043  -0.045 -31.935  1.00  0.00     0.037 A 
HETATM   18  C   UNL     1      -4.116  -0.992 -32.394  1.00  0.00    -0.059 A 
HETATM   19  C   UNL     1      -2.740  -1.070 -31.798  1.00  0.00     0.048 C 
HETATM   20  C   UNL     1      -4.498  -1.893 -33.392  1.00  0.00     0.013 A 
HETATM   21  C   UNL     1      -5.788  -1.856 -33.934  1.00  0.00    -0.059 A 
HETATM   22  C   UNL     1      -6.705  -0.905 -33.463  1.00  0.00     0.037 A 
HETATM   23  C   UNL     1      -6.171  -2.834 -35.006  1.00  0.00     0.048 C 
ENDBRANCH  12  16
ENDBRANCH  10  11
ENDBRANCH   9  10
ENDBRANCH   1   9
BRANCH   4  24
HETATM   24  C   UNL     1      -1.246   5.340 -31.642  1.00  0.00     0.130 C 
BRANCH  24  25
HETATM   25  N   UNL     1      -0.704   5.824 -30.385  1.00  0.00    -0.342 N 
HETATM   26  C   UNL     1       0.315   5.171 -29.757  1.00  0.00     0.320 C 
HETATM   27  N   UNL     1       0.833   5.746 -28.636  1.00  0.00    -0.309 N 
HETATM   28  O   UNL     1       0.815   4.132 -30.182  1.00  0.00    -0.247 OA
HETATM   29  H   UNL     1       1.691   5.280 -28.364  1.00  0.00     0.170 HD
HETATM   30  H   UNL     1      -0.621   6.829 -30.316  1.00  0.00     0.164 HD
BRANCH  27  31
HETATM   31  C   UNL     1       0.410   6.808 -27.817  1.00  0.00     0.039 A 
HETATM   32  C   UNL     1      -0.569   6.706 -26.829  1.00  0.00     0.071 A 
HETATM   33  C   UNL     1      -0.927   7.831 -26.089  1.00  0.00     0.118 A 
HETATM   34  F   UNL     1      -1.880   7.723 -25.153  1.00  0.00    -0.206 F 
HETATM   35  C   UNL     1      -0.314   9.059 -26.296  1.00  0.00     0.042 A 
HETATM   36  C   UNL     1       0.692   9.163 -27.251  1.00  0.00     0.005 A 
HETATM   37  C   UNL     1       1.057   8.040 -27.999  1.00  0.00     0.030 A 
ENDBRANCH  27  31
ENDBRANCH  24  25
ENDBRANCH   4  24
TORSDOF 7
ENDMDL
MODEL 2
REMARK VINA RESULT:     -10.0      3.340      9.234
REMARK  7 active torsions:
REMARK  status: ('A' for Active; 'I' for Inactive)
REMARK    1  A    between atoms: C_4  and  N_5 
REMARK    2  A    between atoms: C_6  and  S_7 
REMARK    3  A    between atoms: S_7  and  C_8 
REMARK    4  A    between atoms: C_8  and  C_9 
REMARK       I    between atoms: C_9  and  N_10 
REMARK    5  A    between atoms: C_12  and  C_13 
REMARK    6  A    between atoms: C_13  and  N_14 
REMARK       I    between atoms: N_14  and  C_15 
REMARK       I    between atoms: C_15  and  N_16 
REMARK    7  A    between atoms: N_16  and  C_17 
ROOT
HETATM    1  C   UNL     1      -2.729   8.400 -31.821  1.00  0.00     0.229 C 
HETATM    2  N   UNL     1      -2.569   7.194 -32.524  1.00  0.00    -0.351 N 
HETATM    3  C   UNL     1      -3.096   5.922 -32.038  1.00  0.00     0.132 C 
HETATM    4  C   UNL     1      -3.196   4.815 -33.097  1.00  0.00     0.021 C 
HETATM    5  C   UNL     1      -1.922   4.730 -33.945  1.00  0.00     0.009 C 
HETATM    6  C   UNL     1      -1.505   6.092 -34.480  1.00  0.00     0.020 C 
HETATM    7  C   UNL     1      -1.362   7.101 -33.349  1.00  0.00     0.126 C 
HETATM    8  O   UNL     1      -1.969   9.354 -32.034  1.00  0.00    -0.273 OA
ENDROOT
BRANCH   1   9
HETATM    9  C   UNL     1      -3.965   8.636 -30.962  1.00  0.00     0.185 C 
BRANCH   9  10
HETATM   10  S   UNL     1      -3.858   9.737 -29.539  1.00  0.00    -0.082 SA
BRANCH  10  11
HETATM   11  C   UNL     1      -4.001   8.692 -28.166  1.00  0.00     0.173 A 
HETATM   12  N   UNL     1      -3.024   7.786 -27.757  1.00  0.00    -0.300 N 
HETATM   13  C   UNL     1      -3.648   7.005 -26.797  1.00  0.00     0.118 A 
HETATM   14  C   UNL     1      -4.908   7.522 -26.632  1.00  0.00     0.137 A 
HETATM   15  N   UNL     1      -5.118   8.560 -27.488  1.00  0.00    -0.235 NA
BRANCH  12  16
HETATM   16  C   UNL     1      -1.661   7.637 -28.161  1.00  0.00     0.042 A 
HETATM   17  C   UNL     1      -1.292   6.736 -29.169  1.00  0.00     0.037 A 
HETATM   18  C   UNL     1       0.047   6.599 -29.561  1.00  0.00    -0.059 A 
HETATM   19  C   UNL     1       0.433   5.645 -30.656  1.00  0.00     0.048 C 
HETATM   20  C   UNL     1       1.023   7.389 -28.946  1.00  0.00     0.013 A 
HETATM   21  C   UNL     1       0.676   8.306 -27.947  1.00  0.00    -0.059 A 
HETATM   22  C   UNL     1      -0.669   8.434 -27.568  1.00  0.00     0.037 A 
HETATM   23  C   UNL     1       1.744   9.140 -27.302  1.00  0.00     0.048 C 
ENDBRANCH  12  16
ENDBRANCH  10  11
ENDBRANCH   9  10
ENDBRANCH   1   9
BRANCH   4  24
HETATM   24  C   UNL     1      -4.476   5.010 -33.931  1.00  0.00     0.130 C 
BRANCH  24  25
HETATM   25  N   UNL     1      -5.368   3.864 -33.919  1.00  0.00    -0.342 N 
HETATM   26  C   UNL     1      -6.720   4.020 -33.992  1.00  0.00     0.320 C 
HETATM   27  N   UNL     1      -7.480   2.892 -34.077  1.00  0.00    -0.309 N 
HETATM   28  O   UNL     1      -7.271   5.117 -34.038  1.00  0.00    -0.247 OA
HETATM   29  H   UNL     1      -8.437   3.128 -34.309  1.00  0.00     0.170 HD
HETATM   30  H   UNL     1      -5.041   3.065 -34.445  1.00  0.00     0.164 HD
BRANCH  27  31
HETATM   31  C   UNL     1      -7.196   1.527 -33.896  1.00  0.00     0.039 A 
HETATM   32  C   UNL     1      -6.796   0.953 -32.689  1.00  0.00     0.071 A 
HETATM   33  C   UNL     1      -6.519  -0.411 -32.629  1.00  0.00     0.118 A 
HETATM   34  F   UNL     1      -6.122  -0.948 -31.467  1.00  0.00    -0.206 F 
HETATM   35  C   UNL     1      -6.651  -1.227 -33.744  1.00  0.00     0.042 A 
HETATM   36  C   UNL     1      -7.088  -0.673 -34.943  1.00  0.00     0.005 A 
HETATM   37  C   UNL     1      -7.367   0.695 -35.014  1.00  0.00     0.030 A 
ENDBRANCH  27  31
ENDBRANCH  24  25
ENDBRANCH   4  24
TORSDOF 7
ENDMDL
MODEL 3
REMARK VINA RESULT:      -9.9      4.974      8.764
REMARK  7 active torsions:
REMARK  status: ('A' for Active; 'I' for Inactive)
REMARK    1  A    between atoms: C_4  and  N_5 
REMARK    2  A    between atoms: C_6  and  S_7 
REMARK    3  A    between atoms: S_7  and  C_8 
REMARK    4  A    between atoms: C_8  and  C_9 
REMARK       I    between atoms: C_9  and  N_10 
REMARK    5  A    between atoms: C_12  and  C_13 
REMARK    6  A    between atoms: C_13  and  N_14 
REMARK       I    between atoms: N_14  and  C_15 
REMARK       I    between atoms: C_15  and  N_16 
REMARK    7  A    between atoms: N_16  and  C_17 
ROOT
HETATM    1  C   UNL     1      -4.438   4.264 -32.425  1.00  0.00     0.229 C 
HETATM    2  N   UNL     1      -4.526   2.957 -31.918  1.00  0.00    -0.351 N 
HETATM    3  C   UNL     1      -5.328   2.618 -30.745  1.00  0.00     0.132 C 
HETATM    4  C   UNL     1      -5.638   1.124 -30.583  1.00  0.00     0.021 C 
HETATM    5  C   UNL     1      -4.392   0.261 -30.813  1.00  0.00     0.009 C 
HETATM    6  C   UNL     1      -3.678   0.630 -32.105  1.00  0.00     0.020 C 
HETATM    7  C   UNL     1      -3.348   2.116 -32.140  1.00  0.00     0.126 C 
HETATM    8  O   UNL     1      -3.484   4.595 -33.143  1.00  0.00    -0.273 OA
ENDROOT
BRANCH   1   9
HETATM    9  C   UNL     1      -5.615   5.224 -32.296  1.00  0.00     0.185 C 
BRANCH   9  10
HETATM   10  S   UNL     1      -7.166   4.841 -33.131  1.00  0.00    -0.082 SA
BRANCH  10  11
HETATM   11  C   UNL     1      -8.386   5.110 -31.932  1.00  0.00     0.173 A 
HETATM   12  N   UNL     1      -9.652   4.527 -31.947  1.00  0.00    -0.300 N 
HETATM   13  C   UNL     1     -10.363   5.202 -30.968  1.00  0.00     0.118 A 
HETATM   14  C   UNL     1      -9.484   6.078 -30.382  1.00  0.00     0.137 A 
HETATM   15  N   UNL     1      -8.266   6.018 -30.990  1.00  0.00    -0.235 NA
BRANCH  12  16
HETATM   16  C   UNL     1     -10.178   3.459 -32.739  1.00  0.00     0.042 A 
HETATM   17  C   UNL     1      -9.938   2.118 -32.409  1.00  0.00     0.037 A 
HETATM   18  C   UNL     1     -10.461   1.078 -33.189  1.00  0.00    -0.059 A 
HETATM   19  C   UNL     1     -10.216  -0.357 -32.818  1.00  0.00     0.048 C 
HETATM   20  C   UNL     1     -11.250   1.388 -34.301  1.00  0.00     0.013 A 
HETATM   21  C   UNL     1     -11.515   2.719 -34.641  1.00  0.00    -0.059 A 
HETATM   22  C   UNL     1     -10.987   3.749 -33.849  1.00  0.00     0.037 A 
HETATM   23  C   UNL     1     -12.363   3.024 -35.841  1.00  0.00     0.048 C 
ENDBRANCH  12  16
ENDBRANCH  10  11
ENDBRANCH   9  10
ENDBRANCH   1   9
BRANCH   4  24
HETATM   24  C   UNL     1      -6.825   0.740 -31.488  1.00  0.00     0.130 C 
BRANCH  24  25
HETATM   25  N   UNL     1      -6.491  -0.226 -32.519  1.00  0.00    -0.342 N 
HETATM   26  C   UNL     1      -6.606   0.083 -33.842  1.00  0.00     0.320 C 
HETATM   27  N   UNL     1      -6.177  -0.843 -34.744  1.00  0.00    -0.309 N 
HETATM   28  O   UNL     1      -7.023   1.165 -34.247  1.00  0.00    -0.247 OA
HETATM   29  H   UNL     1      -6.139  -0.440 -35.672  1.00  0.00     0.170 HD
HETATM   30  H   UNL     1      -5.678  -0.793 -32.323  1.00  0.00     0.164 HD
BRANCH  27  31
HETATM   31  C   UNL     1      -5.809  -2.196 -34.631  1.00  0.00     0.039 A 
HETATM   32  C   UNL     1      -4.556  -2.644 -34.210  1.00  0.00     0.071 A 
HETATM   33  C   UNL     1      -4.292  -4.011 -34.156  1.00  0.00     0.118 A 
HETATM   34  F   UNL     1      -3.080  -4.429 -33.765  1.00  0.00    -0.206 F 
HETATM   35  C   UNL     1      -5.258  -4.949 -34.493  1.00  0.00     0.042 A 
HETATM   36  C   UNL     1      -6.523  -4.515 -34.874  1.00  0.00     0.005 A 
HETATM   37  C   UNL     1      -6.797  -3.145 -34.933  1.00  0.00     0.030 A 
ENDBRANCH  27  31
ENDBRANCH  24  25
ENDBRANCH   4  24
TORSDOF 7
ENDMDL
MODEL 4
REMARK VINA RESULT:      -9.8      1.388      2.535
REMARK  7 active torsions:
REMARK  status: ('A' for Active; 'I' for Inactive)
REMARK    1  A    between atoms: C_4  and  N_5 
REMARK    2  A    between atoms: C_6  and  S_7 
REMARK    3  A    between atoms: S_7  and  C_8 
REMARK    4  A    between atoms: C_8  and  C_9 
REMARK       I    between atoms: C_9  and  N_10 
REMARK    5  A    between atoms: C_12  and  C_13 
REMARK    6  A    between atoms: C_13  and  N_14 
REMARK       I    between atoms: N_14  and  C_15 
REMARK       I    between atoms: C_15  and  N_16 
REMARK    7  A    between atoms: N_16  and  C_17 
ROOT
HETATM    1  C   UNL     1      -5.158   5.289 -33.701  1.00  0.00     0.229 C 
HETATM    2  N   UNL     1      -3.808   5.665 -33.605  1.00  0.00    -0.351 N 
HETATM    3  C   UNL     1      -3.326   6.628 -32.618  1.00  0.00     0.132 C 
HETATM    4  C   UNL     1      -1.810   6.608 -32.380  1.00  0.00     0.021 C 
HETATM    5  C   UNL     1      -1.033   6.559 -33.702  1.00  0.00     0.009 C 
HETATM    6  C   UNL     1      -1.551   5.464 -34.623  1.00  0.00     0.020 C 
HETATM    7  C   UNL     1      -3.049   5.612 -34.856  1.00  0.00     0.126 C 
HETATM    8  O   UNL     1      -5.599   4.799 -34.750  1.00  0.00    -0.273 OA
ENDROOT
BRANCH   1   9
HETATM    9  C   UNL     1      -6.043   5.260 -32.461  1.00  0.00     0.185 C 
BRANCH   9  10
HETATM   10  S   UNL     1      -6.604   3.676 -31.809  1.00  0.00    -0.082 SA
BRANCH  10  11
HETATM   11  C   UNL     1      -5.169   2.712 -31.708  1.00  0.00     0.173 A 
HETATM   12  N   UNL     1      -5.110   1.350 -31.997  1.00  0.00    -0.300 N 
HETATM   13  C   UNL     1      -3.862   0.948 -31.549  1.00  0.00     0.118 A 
HETATM   14  C   UNL     1      -3.227   2.078 -31.098  1.00  0.00     0.137 A 
HETATM   15  N   UNL     1      -4.047   3.162 -31.194  1.00  0.00    -0.235 NA
BRANCH  12  16
HETATM   16  C   UNL     1      -6.059   0.487 -32.629  1.00  0.00     0.042 A 
HETATM   17  C   UNL     1      -7.439   0.675 -32.468  1.00  0.00     0.037 A 
HETATM   18  C   UNL     1      -8.362  -0.174 -33.094  1.00  0.00    -0.059 A 
HETATM   19  C   UNL     1      -9.839   0.046 -32.932  1.00  0.00     0.048 C 
HETATM   20  C   UNL     1      -7.893  -1.212 -33.905  1.00  0.00     0.013 A 
HETATM   21  C   UNL     1      -6.521  -1.410 -34.093  1.00  0.00    -0.059 A 
HETATM   22  C   UNL     1      -5.610  -0.550 -33.462  1.00  0.00     0.037 A 
HETATM   23  C   UNL     1      -6.045  -2.533 -34.968  1.00  0.00     0.048 C 
ENDBRANCH  12  16
ENDBRANCH  10  11
ENDBRANCH   9  10
ENDBRANCH   1   9
BRANCH   4  24
HETATM   24  C   UNL     1      -1.451   5.462 -31.416  1.00  0.00     0.130 C 
BRANCH  24  25
HETATM   25  N   UNL     1      -0.812   5.903 -30.189  1.00  0.00    -0.342 N 
HETATM   26  C   UNL     1       0.264   5.241 -29.675  1.00  0.00     0.320 C 
HETATM   27  N   UNL     1       0.867   5.778 -28.578  1.00  0.00    -0.309 N 
HETATM   28  O   UNL     1       0.738   4.228 -30.184  1.00  0.00    -0.247 OA
HETATM   29  H   UNL     1       1.750   5.314 -28.398  1.00  0.00     0.170 HD
HETATM   30  H   UNL     1      -0.736   6.905 -30.085  1.00  0.00     0.164 HD
BRANCH  27  31
HETATM   31  C   UNL     1       0.501   6.799 -27.683  1.00  0.00     0.039 A 
HETATM   32  C   UNL     1       1.209   7.988 -27.505  1.00  0.00     0.071 A 
HETATM   33  C   UNL     1       0.766   8.924 -26.573  1.00  0.00     0.118 A 
HETATM   34  F   UNL     1       1.463  10.056 -26.400  1.00  0.00    -0.206 F 
HETATM   35  C   UNL     1      -0.384   8.713 -25.824  1.00  0.00     0.042 A 
HETATM   36  C   UNL     1      -1.119   7.550 -26.022  1.00  0.00     0.005 A 
HETATM   37  C   UNL     1      -0.682   6.604 -26.955  1.00  0.00     0.030 A 
ENDBRANCH  27  31
ENDBRANCH  24  25
ENDBRANCH   4  24
TORSDOF 7
ENDMDL
MODEL 5
REMARK VINA RESULT:      -9.6      3.961      9.970
REMARK  7 active torsions:
REMARK  status: ('A' for Active; 'I' for Inactive)
REMARK    1  A    between atoms: C_4  and  N_5 
REMARK    2  A    between atoms: C_6  and  S_7 
REMARK    3  A    between atoms: S_7  and  C_8 
REMARK    4  A    between atoms: C_8  and  C_9 
REMARK       I    between atoms: C_9  and  N_10 
REMARK    5  A    between atoms: C_12  and  C_13 
REMARK    6  A    between atoms: C_13  and  N_14 
REMARK       I    between atoms: N_14  and  C_15 
REMARK       I    between atoms: C_15  and  N_16 
REMARK    7  A    between atoms: N_16  and  C_17 
ROOT
HETATM    1  C   UNL     1      -8.157   4.631 -32.216  1.00  0.00     0.229 C 
HETATM    2  N   UNL     1      -8.634   3.447 -32.803  1.00  0.00    -0.351 N 
HETATM    3  C   UNL     1      -7.831   2.642 -33.719  1.00  0.00     0.132 C 
HETATM    4  C   UNL     1      -8.334   1.208 -33.932  1.00  0.00     0.021 C 
HETATM    5  C   UNL     1      -9.849   1.170 -34.161  1.00  0.00     0.009 C 
HETATM    6  C   UNL     1     -10.603   1.963 -33.103  1.00  0.00     0.020 C 
HETATM    7  C   UNL     1     -10.081   3.391 -33.019  1.00  0.00     0.126 C 
HETATM    8  O   UNL     1      -8.949   5.476 -31.778  1.00  0.00    -0.273 OA
ENDROOT
BRANCH   1   9
HETATM    9  C   UNL     1      -6.675   4.795 -31.900  1.00  0.00     0.185 C 
BRANCH   9  10
HETATM   10  S   UNL     1      -5.845   6.339 -32.320  1.00  0.00    -0.082 SA
BRANCH  10  11
HETATM   11  C   UNL     1      -4.591   5.877 -33.421  1.00  0.00     0.173 A 
HETATM   12  N   UNL     1      -3.250   6.231 -33.285  1.00  0.00    -0.300 N 
HETATM   13  C   UNL     1      -2.667   5.873 -34.489  1.00  0.00     0.118 A 
HETATM   14  C   UNL     1      -3.649   5.268 -35.233  1.00  0.00     0.137 A 
HETATM   15  N   UNL     1      -4.837   5.283 -34.566  1.00  0.00    -0.235 NA
BRANCH  12  16
HETATM   16  C   UNL     1      -2.545   6.813 -32.186  1.00  0.00     0.042 A 
HETATM   17  C   UNL     1      -1.547   6.105 -31.501  1.00  0.00     0.037 A 
HETATM   18  C   UNL     1      -0.858   6.686 -30.427  1.00  0.00    -0.059 A 
HETATM   19  C   UNL     1       0.224   5.928 -29.711  1.00  0.00     0.048 C 
HETATM   20  C   UNL     1      -1.163   7.996 -30.048  1.00  0.00     0.013 A 
HETATM   21  C   UNL     1      -2.145   8.727 -30.727  1.00  0.00    -0.059 A 
HETATM   22  C   UNL     1      -2.823   8.134 -31.801  1.00  0.00     0.037 A 
HETATM   23  C   UNL     1      -2.453  10.132 -30.298  1.00  0.00     0.048 C 
ENDBRANCH  12  16
ENDBRANCH  10  11
ENDBRANCH   9  10
ENDBRANCH   1   9
BRANCH   4  24
HETATM   24  C   UNL     1      -7.868   0.317 -32.764  1.00  0.00     0.130 C 
BRANCH  24  25
HETATM   25  N   UNL     1      -6.842  -0.643 -33.128  1.00  0.00    -0.342 N 
HETATM   26  C   UNL     1      -5.535  -0.272 -33.240  1.00  0.00     0.320 C 
HETATM   27  N   UNL     1      -4.621  -1.252 -33.486  1.00  0.00    -0.309 N 
HETATM   28  O   UNL     1      -5.145   0.882 -33.077  1.00  0.00    -0.247 OA
HETATM   29  H   UNL     1      -3.681  -0.896 -33.366  1.00  0.00     0.170 HD
HETATM   30  H   UNL     1      -6.950  -1.559 -32.715  1.00  0.00     0.164 HD
BRANCH  27  31
HETATM   31  C   UNL     1      -4.738  -2.600 -33.870  1.00  0.00     0.039 A 
HETATM   32  C   UNL     1      -5.736  -3.102 -34.706  1.00  0.00     0.071 A 
HETATM   33  C   UNL     1      -5.770  -4.463 -35.005  1.00  0.00     0.118 A 
HETATM   34  F   UNL     1      -6.742  -4.936 -35.796  1.00  0.00    -0.206 F 
HETATM   35  C   UNL     1      -4.814  -5.338 -34.505  1.00  0.00     0.042 A 
HETATM   36  C   UNL     1      -3.791  -4.841 -33.704  1.00  0.00     0.005 A 
HETATM   37  C   UNL     1      -3.751  -3.478 -33.397  1.00  0.00     0.030 A 
ENDBRANCH  27  31
ENDBRANCH  24  25
ENDBRANCH   4  24
TORSDOF 7
ENDMDL
MODEL 6
REMARK VINA RESULT:      -9.6      1.864      2.704
REMARK  7 active torsions:
REMARK  status: ('A' for Active; 'I' for Inactive)
REMARK    1  A    between atoms: C_4  and  N_5 
REMARK    2  A    between atoms: C_6  and  S_7 
REMARK    3  A    between atoms: S_7  and  C_8 
REMARK    4  A    between atoms: C_8  and  C_9 
REMARK       I    between atoms: C_9  and  N_10 
REMARK    5  A    between atoms: C_12  and  C_13 
REMARK    6  A    between atoms: C_13  and  N_14 
REMARK       I    between atoms: N_14  and  C_15 
REMARK       I    between atoms: C_15  and  N_16 
REMARK    7  A    between atoms: N_16  and  C_17 
ROOT
HETATM    1  C   UNL     1      -3.277   3.885 -31.741  1.00  0.00     0.229 C 
HETATM    2  N   UNL     1      -2.585   5.086 -31.968  1.00  0.00    -0.351 N 
HETATM    3  C   UNL     1      -3.095   6.136 -32.847  1.00  0.00     0.132 C 
HETATM    4  C   UNL     1      -2.442   7.512 -32.659  1.00  0.00     0.021 C 
HETATM    5  C   UNL     1      -0.915   7.402 -32.564  1.00  0.00     0.009 C 
HETATM    6  C   UNL     1      -0.485   6.346 -31.556  1.00  0.00     0.020 C 
HETATM    7  C   UNL     1      -1.127   5.001 -31.869  1.00  0.00     0.126 C 
HETATM    8  O   UNL     1      -2.675   2.883 -31.330  1.00  0.00    -0.273 OA
ENDROOT
BRANCH   1   9
HETATM    9  C   UNL     1      -4.800   3.851 -31.772  1.00  0.00     0.185 C 
BRANCH   9  10
HETATM   10  S   UNL     1      -5.640   3.034 -33.142  1.00  0.00    -0.082 SA
BRANCH  10  11
HETATM   11  C   UNL     1      -6.956   2.184 -32.403  1.00  0.00     0.173 A 
HETATM   12  N   UNL     1      -7.103   0.798 -32.408  1.00  0.00    -0.300 N 
HETATM   13  C   UNL     1      -8.389   0.579 -31.940  1.00  0.00     0.118 A 
HETATM   14  C   UNL     1      -8.901   1.810 -31.615  1.00  0.00     0.137 A 
HETATM   15  N   UNL     1      -8.009   2.796 -31.912  1.00  0.00    -0.235 NA
BRANCH  12  16
HETATM   16  C   UNL     1      -6.188  -0.238 -32.773  1.00  0.00     0.042 A 
HETATM   17  C   UNL     1      -6.512  -1.188 -33.752  1.00  0.00     0.037 A 
HETATM   18  C   UNL     1      -5.606  -2.198 -34.106  1.00  0.00    -0.059 A 
HETATM   19  C   UNL     1      -5.951  -3.200 -35.170  1.00  0.00     0.048 C 
HETATM   20  C   UNL     1      -4.355  -2.242 -33.482  1.00  0.00     0.013 A 
HETATM   21  C   UNL     1      -4.005  -1.295 -32.513  1.00  0.00    -0.059 A 
HETATM   22  C   UNL     1      -4.921  -0.289 -32.172  1.00  0.00     0.037 A 
HETATM   23  C   UNL     1      -2.656  -1.368 -31.858  1.00  0.00     0.048 C 
ENDBRANCH  12  16
ENDBRANCH  10  11
ENDBRANCH   9  10
ENDBRANCH   1   9
BRANCH   4  24
HETATM   24  C   UNL     1      -3.081   8.229 -31.455  1.00  0.00     0.130 C 
BRANCH  24  25
HETATM   25  N   UNL     1      -2.444   7.930 -30.185  1.00  0.00    -0.342 N 
HETATM   26  C   UNL     1      -3.068   7.167 -29.244  1.00  0.00     0.320 C 
HETATM   27  N   UNL     1      -2.363   6.849 -28.123  1.00  0.00    -0.309 N 
HETATM   28  O   UNL     1      -4.203   6.715 -29.385  1.00  0.00    -0.247 OA
HETATM   29  H   UNL     1      -2.849   6.139 -27.589  1.00  0.00     0.170 HD
HETATM   30  H   UNL     1      -1.453   7.742 -30.240  1.00  0.00     0.164 HD
BRANCH  27  31
HETATM   31  C   UNL     1      -1.147   7.313 -27.588  1.00  0.00     0.039 A 
HETATM   32  C   UNL     1      -1.018   8.438 -26.774  1.00  0.00     0.071 A 
HETATM   33  C   UNL     1       0.242   8.821 -26.317  1.00  0.00     0.118 A 
HETATM   34  F   UNL     1       0.355   9.912 -25.547  1.00  0.00    -0.206 F 
HETATM   35  C   UNL     1       1.380   8.093 -26.636  1.00  0.00     0.042 A 
HETATM   36  C   UNL     1       1.257   6.947 -27.414  1.00  0.00     0.005 A 
HETATM   37  C   UNL     1      -0.002   6.556 -27.879  1.00  0.00     0.030 A 
ENDBRANCH  27  31
ENDBRANCH  24  25
ENDBRANCH   4  24
TORSDOF 7
ENDMDL
MODEL 7
REMARK VINA RESULT:      -9.6      2.657      4.148
REMARK  7 active torsions:
REMARK  status: ('A' for Active; 'I' for Inactive)
REMARK    1  A    between atoms: C_4  and  N_5 
REMARK    2  A    between atoms: C_6  and  S_7 
REMARK    3  A    between atoms: S_7  and  C_8 
REMARK    4  A    between atoms: C_8  and  C_9 
REMARK       I    between atoms: C_9  and  N_10 
REMARK    5  A    between atoms: C_12  and  C_13 
REMARK    6  A    between atoms: C_13  and  N_14 
REMARK       I    between atoms: N_14  and  C_15 
REMARK       I    between atoms: C_15  and  N_16 
REMARK    7  A    between atoms: N_16  and  C_17 
ROOT
HETATM    1  C   UNL     1      -8.762   4.178 -31.858  1.00  0.00     0.229 C 
HETATM    2  N   UNL     1      -7.383   4.014 -31.648  1.00  0.00    -0.351 N 
HETATM    3  C   UNL     1      -6.478   3.533 -32.689  1.00  0.00     0.132 C 
HETATM    4  C   UNL     1      -4.990   3.804 -32.430  1.00  0.00     0.021 C 
HETATM    5  C   UNL     1      -4.596   3.458 -30.990  1.00  0.00     0.009 C 
HETATM    6  C   UNL     1      -5.547   4.080 -29.977  1.00  0.00     0.020 C 
HETATM    7  C   UNL     1      -6.989   3.694 -30.275  1.00  0.00     0.126 C 
HETATM    8  O   UNL     1      -9.544   4.203 -30.897  1.00  0.00    -0.273 OA
ENDROOT
BRANCH   1   9
HETATM    9  C   UNL     1      -9.295   4.556 -33.235  1.00  0.00     0.185 C 
BRANCH   9  10
HETATM   10  S   UNL     1      -9.401   3.298 -34.521  1.00  0.00    -0.082 SA
BRANCH  10  11
HETATM   11  C   UNL     1     -10.484   2.108 -33.880  1.00  0.00     0.173 A 
HETATM   12  N   UNL     1     -10.092   0.858 -33.405  1.00  0.00    -0.300 N 
HETATM   13  C   UNL     1     -11.277   0.159 -33.233  1.00  0.00     0.118 A 
HETATM   14  C   UNL     1     -12.292   1.033 -33.534  1.00  0.00     0.137 A 
HETATM   15  N   UNL     1     -11.790   2.233 -33.940  1.00  0.00    -0.235 NA
BRANCH  12  16
HETATM   16  C   UNL     1      -8.795   0.335 -33.109  1.00  0.00     0.042 A 
HETATM   17  C   UNL     1      -8.198   0.527 -31.855  1.00  0.00     0.037 A 
HETATM   18  C   UNL     1      -6.927   0.007 -31.574  1.00  0.00    -0.059 A 
HETATM   19  C   UNL     1      -6.301   0.200 -30.222  1.00  0.00     0.048 C 
HETATM   20  C   UNL     1      -6.256  -0.728 -32.556  1.00  0.00     0.013 A 
HETATM   21  C   UNL     1      -6.840  -0.945 -33.810  1.00  0.00    -0.059 A 
HETATM   22  C   UNL     1      -8.113  -0.421 -34.076  1.00  0.00     0.037 A 
HETATM   23  C   UNL     1      -6.097  -1.736 -34.847  1.00  0.00     0.048 C 
ENDBRANCH  12  16
ENDBRANCH  10  11
ENDBRANCH   9  10
ENDBRANCH   1   9
BRANCH   4  24
HETATM   24  C   UNL     1      -4.651   5.254 -32.826  1.00  0.00     0.130 C 
BRANCH  24  25
HETATM   25  N   UNL     1      -3.353   5.705 -32.355  1.00  0.00    -0.342 N 
HETATM   26  C   UNL     1      -2.484   6.346 -33.187  1.00  0.00     0.320 C 
HETATM   27  N   UNL     1      -1.331   6.826 -32.643  1.00  0.00    -0.309 N 
HETATM   28  O   UNL     1      -2.717   6.555 -34.375  1.00  0.00    -0.247 OA
HETATM   29  H   UNL     1      -0.857   7.434 -33.299  1.00  0.00     0.170 HD
HETATM   30  H   UNL     1      -3.349   6.088 -31.420  1.00  0.00     0.164 HD
BRANCH  27  31
HETATM   31  C   UNL     1      -0.700   6.630 -31.401  1.00  0.00     0.039 A 
HETATM   32  C   UNL     1       0.041   5.499 -31.058  1.00  0.00     0.071 A 
HETATM   33  C   UNL     1       0.605   5.400 -29.788  1.00  0.00     0.118 A 
HETATM   34  F   UNL     1       1.302   4.302 -29.465  1.00  0.00    -0.206 F 
HETATM   35  C   UNL     1       0.467   6.416 -28.852  1.00  0.00     0.042 A 
HETATM   36  C   UNL     1      -0.235   7.566 -29.198  1.00  0.00     0.005 A 
HETATM   37  C   UNL     1      -0.807   7.674 -30.469  1.00  0.00     0.030 A 
ENDBRANCH  27  31
ENDBRANCH  24  25
ENDBRANCH   4  24
TORSDOF 7
ENDMDL
MODEL 8
REMARK VINA RESULT:      -9.3      5.423      9.200
REMARK  7 active torsions:
REMARK  status: ('A' for Active; 'I' for Inactive)
REMARK    1  A    between atoms: C_4  and  N_5 
REMARK    2  A    between atoms: C_6  and  S_7 
REMARK    3  A    between atoms: S_7  and  C_8 
REMARK    4  A    between atoms: C_8  and  C_9 
REMARK       I    between atoms: C_9  and  N_10 
REMARK    5  A    between atoms: C_12  and  C_13 
REMARK    6  A    between atoms: C_13  and  N_14 
REMARK       I    between atoms: N_14  and  C_15 
REMARK       I    between atoms: C_15  and  N_16 
REMARK    7  A    between atoms: N_16  and  C_17 
ROOT
HETATM    1  C   UNL     1      -6.208   4.653 -32.361  1.00  0.00     0.229 C 
HETATM    2  N   UNL     1      -7.065   5.018 -31.308  1.00  0.00    -0.351 N 
HETATM    3  C   UNL     1      -8.397   5.573 -31.532  1.00  0.00     0.132 C 
HETATM    4  C   UNL     1      -9.332   5.524 -30.316  1.00  0.00     0.021 C 
HETATM    5  C   UNL     1      -8.620   5.988 -29.040  1.00  0.00     0.009 C 
HETATM    6  C   UNL     1      -7.283   5.286 -28.849  1.00  0.00     0.020 C 
HETATM    7  C   UNL     1      -6.400   5.452 -30.078  1.00  0.00     0.126 C 
HETATM    8  O   UNL     1      -4.987   4.563 -32.172  1.00  0.00    -0.273 OA
ENDROOT
BRANCH   1   9
HETATM    9  C   UNL     1      -6.777   4.142 -33.679  1.00  0.00     0.185 C 
BRANCH   9  10
HETATM   10  S   UNL     1      -6.469   2.437 -34.175  1.00  0.00    -0.082 SA
BRANCH  10  11
HETATM   11  C   UNL     1      -7.786   1.540 -33.497  1.00  0.00     0.173 A 
HETATM   12  N   UNL     1      -7.814   0.152 -33.369  1.00  0.00    -0.300 N 
HETATM   13  C   UNL     1      -9.123  -0.143 -33.023  1.00  0.00     0.118 A 
HETATM   14  C   UNL     1      -9.772   1.059 -32.890  1.00  0.00     0.137 A 
HETATM   15  N   UNL     1      -8.939   2.092 -33.193  1.00  0.00    -0.235 NA
BRANCH  12  16
HETATM   16  C   UNL     1      -6.777  -0.821 -33.517  1.00  0.00     0.042 A 
HETATM   17  C   UNL     1      -6.932  -1.932 -34.357  1.00  0.00     0.037 A 
HETATM   18  C   UNL     1      -5.908  -2.879 -34.499  1.00  0.00    -0.059 A 
HETATM   19  C   UNL     1      -6.074  -4.056 -35.416  1.00  0.00     0.048 C 
HETATM   20  C   UNL     1      -4.709  -2.697 -33.803  1.00  0.00     0.013 A 
HETATM   21  C   UNL     1      -4.526  -1.588 -32.970  1.00  0.00    -0.059 A 
HETATM   22  C   UNL     1      -5.559  -0.647 -32.841  1.00  0.00     0.037 A 
HETATM   23  C   UNL     1      -3.230  -1.419 -32.233  1.00  0.00     0.048 C 
ENDBRANCH  12  16
ENDBRANCH  10  11
ENDBRANCH   9  10
ENDBRANCH   1   9
BRANCH   4  24
HETATM   24  C   UNL     1      -9.952   4.119 -30.196  1.00  0.00     0.130 C 
BRANCH  24  25
HETATM   25  N   UNL     1     -10.928   3.816 -31.227  1.00  0.00    -0.342 N 
HETATM   26  C   UNL     1     -12.199   4.305 -31.163  1.00  0.00     0.320 C 
HETATM   27  N   UNL     1     -13.022   4.058 -32.221  1.00  0.00    -0.309 N 
HETATM   28  O   UNL     1     -12.611   4.994 -30.233  1.00  0.00    -0.247 OA
HETATM   29  H   UNL     1     -13.865   4.615 -32.150  1.00  0.00     0.170 HD
HETATM   30  H   UNL     1     -10.563   3.809 -32.170  1.00  0.00     0.164 HD
BRANCH  27  31
HETATM   31  C   UNL     1     -12.927   3.202 -33.333  1.00  0.00     0.039 A 
HETATM   32  C   UNL     1     -13.352   1.874 -33.349  1.00  0.00     0.071 A 
HETATM   33  C   UNL     1     -13.189   1.109 -34.502  1.00  0.00     0.118 A 
HETATM   34  F   UNL     1     -13.587  -0.171 -34.501  1.00  0.00    -0.206 F 
HETATM   35  C   UNL     1     -12.630   1.645 -35.654  1.00  0.00     0.042 A 
HETATM   36  C   UNL     1     -12.240   2.980 -35.662  1.00  0.00     0.005 A 
HETATM   37  C   UNL     1     -12.397   3.755 -34.509  1.00  0.00     0.030 A 
ENDBRANCH  27  31
ENDBRANCH  24  25
ENDBRANCH   4  24
TORSDOF 7
ENDMDL
MODEL 9
REMARK VINA RESULT:      -9.2      3.996      9.341
REMARK  7 active torsions:
REMARK  status: ('A' for Active; 'I' for Inactive)
REMARK    1  A    between atoms: C_4  and  N_5 
REMARK    2  A    between atoms: C_6  and  S_7 
REMARK    3  A    between atoms: S_7  and  C_8 
REMARK    4  A    between atoms: C_8  and  C_9 
REMARK       I    between atoms: C_9  and  N_10 
REMARK    5  A    between atoms: C_12  and  C_13 
REMARK    6  A    between atoms: C_13  and  N_14 
REMARK       I    between atoms: N_14  and  C_15 
REMARK       I    between atoms: C_15  and  N_16 
REMARK    7  A    between atoms: N_16  and  C_17 
ROOT
HETATM    1  C   UNL     1      -8.992   4.905 -32.657  1.00  0.00     0.229 C 
HETATM    2  N   UNL     1      -9.395   3.620 -33.056  1.00  0.00    -0.351 N 
HETATM    3  C   UNL     1      -8.633   2.813 -34.005  1.00  0.00     0.132 C 
HETATM    4  C   UNL     1      -8.979   1.318 -34.009  1.00  0.00     0.021 C 
HETATM    5  C   UNL     1     -10.495   1.090 -34.003  1.00  0.00     0.009 C 
HETATM    6  C   UNL     1     -11.187   1.906 -32.920  1.00  0.00     0.020 C 
HETATM    7  C   UNL     1     -10.840   3.383 -33.045  1.00  0.00     0.126 C 
HETATM    8  O   UNL     1      -9.814   5.702 -32.183  1.00  0.00    -0.273 OA
ENDROOT
BRANCH   1   9
HETATM    9  C   UNL     1      -7.512   5.264 -32.584  1.00  0.00     0.185 C 
BRANCH   9  10
HETATM   10  S   UNL     1      -6.738   5.507 -30.975  1.00  0.00    -0.082 SA
BRANCH  10  11
HETATM   11  C   UNL     1      -5.924   4.014 -30.650  1.00  0.00     0.173 A 
HETATM   12  N   UNL     1      -4.634   3.708 -31.079  1.00  0.00    -0.300 N 
HETATM   13  C   UNL     1      -4.489   2.354 -30.821  1.00  0.00     0.118 A 
HETATM   14  C   UNL     1      -5.642   1.950 -30.196  1.00  0.00     0.137 A 
HETATM   15  N   UNL     1      -6.526   2.983 -30.102  1.00  0.00    -0.235 NA
BRANCH  12  16
HETATM   16  C   UNL     1      -3.616   4.537 -31.645  1.00  0.00     0.042 A 
HETATM   17  C   UNL     1      -3.180   4.360 -32.966  1.00  0.00     0.037 A 
HETATM   18  C   UNL     1      -2.183   5.180 -33.513  1.00  0.00    -0.059 A 
HETATM   19  C   UNL     1      -1.735   4.997 -34.935  1.00  0.00     0.048 C 
HETATM   20  C   UNL     1      -1.633   6.200 -32.731  1.00  0.00     0.013 A 
HETATM   21  C   UNL     1      -2.064   6.405 -31.416  1.00  0.00    -0.059 A 
HETATM   22  C   UNL     1      -3.063   5.578 -30.883  1.00  0.00     0.037 A 
HETATM   23  C   UNL     1      -1.454   7.507 -30.598  1.00  0.00     0.048 C 
ENDBRANCH  12  16
ENDBRANCH  10  11
ENDBRANCH   9  10
ENDBRANCH   1   9
BRANCH   4  24
HETATM   24  C   UNL     1      -8.250   0.615 -32.848  1.00  0.00     0.130 C 
BRANCH  24  25
HETATM   25  N   UNL     1      -7.220  -0.315 -33.276  1.00  0.00    -0.342 N 
HETATM   26  C   UNL     1      -5.994   0.125 -33.680  1.00  0.00     0.320 C 
HETATM   27  N   UNL     1      -5.053  -0.816 -33.969  1.00  0.00    -0.309 N 
HETATM   28  O   UNL     1      -5.691   1.314 -33.741  1.00  0.00    -0.247 OA
HETATM   29  H   UNL     1      -4.143  -0.383 -34.076  1.00  0.00     0.170 HD
HETATM   30  H   UNL     1      -7.167  -1.168 -32.738  1.00  0.00     0.164 HD
BRANCH  27  31
HETATM   31  C   UNL     1      -5.110  -2.209 -34.151  1.00  0.00     0.039 A 
HETATM   32  C   UNL     1      -4.177  -3.114 -33.645  1.00  0.00     0.071 A 
HETATM   33  C   UNL     1      -4.320  -4.475 -33.906  1.00  0.00     0.118 A 
HETATM   34  F   UNL     1      -3.409  -5.333 -33.427  1.00  0.00    -0.206 F 
HETATM   35  C   UNL     1      -5.390  -4.962 -34.645  1.00  0.00     0.042 A 
HETATM   36  C   UNL     1      -6.348  -4.073 -35.120  1.00  0.00     0.005 A 
HETATM   37  C   UNL     1      -6.212  -2.705 -34.865  1.00  0.00     0.030 A 
ENDBRANCH  27  31
ENDBRANCH  24  25
ENDBRANCH   4  24
TORSDOF 7
ENDMDL
MODEL 10
REMARK VINA RESULT:      -9.2      2.143      3.906
REMARK  7 active torsions:
REMARK  status: ('A' for Active; 'I' for Inactive)
REMARK    1  A    between atoms: C_4  and  N_5 
REMARK    2  A    between atoms: C_6  and  S_7 
REMARK    3  A    between atoms: S_7  and  C_8 
REMARK    4  A    between atoms: C_8  and  C_9 
REMARK       I    between atoms: C_9  and  N_10 
REMARK    5  A    between atoms: C_12  and  C_13 
REMARK    6  A    between atoms: C_13  and  N_14 
REMARK       I    between atoms: N_14  and  C_15 
REMARK       I    between atoms: C_15  and  N_16 
REMARK    7  A    between atoms: N_16  and  C_17 
ROOT
HETATM    1  C   UNL     1      -5.533   4.969 -33.627  1.00  0.00     0.229 C 
HETATM    2  N   UNL     1      -4.186   5.367 -33.592  1.00  0.00    -0.351 N 
HETATM    3  C   UNL     1      -3.692   6.398 -32.682  1.00  0.00     0.132 C 
HETATM    4  C   UNL     1      -2.170   6.413 -32.486  1.00  0.00     0.021 C 
HETATM    5  C   UNL     1      -1.428   6.288 -33.822  1.00  0.00     0.009 C 
HETATM    6  C   UNL     1      -1.955   5.130 -34.657  1.00  0.00     0.020 C 
HETATM    7  C   UNL     1      -3.460   5.243 -34.857  1.00  0.00     0.126 C 
HETATM    8  O   UNL     1      -5.994   4.407 -34.630  1.00  0.00    -0.273 OA
ENDROOT
BRANCH   1   9
HETATM    9  C   UNL     1      -6.384   5.009 -32.363  1.00  0.00     0.185 C 
BRANCH   9  10
HETATM   10  S   UNL     1      -7.997   4.204 -32.355  1.00  0.00    -0.082 SA
BRANCH  10  11
HETATM   11  C   UNL     1      -7.641   2.510 -32.380  1.00  0.00     0.173 A 
HETATM   12  N   UNL     1      -8.544   1.518 -32.759  1.00  0.00    -0.300 N 
HETATM   13  C   UNL     1      -7.934   0.328 -32.393  1.00  0.00     0.118 A 
HETATM   14  C   UNL     1      -6.697   0.660 -31.899  1.00  0.00     0.137 A 
HETATM   15  N   UNL     1      -6.529   2.012 -31.889  1.00  0.00    -0.235 NA
BRANCH  12  16
HETATM   16  C   UNL     1      -9.817   1.610 -33.402  1.00  0.00     0.042 A 
HETATM   17  C   UNL     1     -10.806   0.636 -33.207  1.00  0.00     0.037 A 
HETATM   18  C   UNL     1     -12.053   0.737 -33.840  1.00  0.00    -0.059 A 
HETATM   19  C   UNL     1     -13.115  -0.301 -33.611  1.00  0.00     0.048 C 
HETATM   20  C   UNL     1     -12.315   1.837 -34.661  1.00  0.00     0.013 A 
HETATM   21  C   UNL     1     -11.348   2.830 -34.858  1.00  0.00    -0.059 A 
HETATM   22  C   UNL     1     -10.106   2.716 -34.216  1.00  0.00     0.037 A 
HETATM   23  C   UNL     1     -11.656   3.999 -35.747  1.00  0.00     0.048 C 
ENDBRANCH  12  16
ENDBRANCH  10  11
ENDBRANCH   9  10
ENDBRANCH   1   9
BRANCH   4  24
HETATM   24  C   UNL     1      -1.769   5.336 -31.460  1.00  0.00     0.130 C 
BRANCH  24  25
HETATM   25  N   UNL     1      -1.025   5.852 -30.324  1.00  0.00    -0.342 N 
HETATM   26  C   UNL     1       0.158   5.294 -29.942  1.00  0.00     0.320 C 
HETATM   27  N   UNL     1       0.841   5.900 -28.931  1.00  0.00    -0.309 N 
HETATM   28  O   UNL     1       0.653   4.316 -30.497  1.00  0.00    -0.247 OA
HETATM   29  H   UNL     1       1.776   5.516 -28.858  1.00  0.00     0.170 HD
HETATM   30  H   UNL     1      -1.024   6.859 -30.239  1.00  0.00     0.164 HD
BRANCH  27  31
HETATM   31  C   UNL     1       0.500   6.902 -28.006  1.00  0.00     0.039 A 
HETATM   32  C   UNL     1       1.023   8.195 -28.010  1.00  0.00     0.071 A 
HETATM   33  C   UNL     1       0.629   9.104 -27.030  1.00  0.00     0.118 A 
HETATM   34  F   UNL     1       1.150  10.339 -27.035  1.00  0.00    -0.206 F 
HETATM   35  C   UNL     1      -0.295   8.761 -26.052  1.00  0.00     0.042 A 
HETATM   36  C   UNL     1      -0.853   7.487 -26.063  1.00  0.00     0.005 A 
HETATM   37  C   UNL     1      -0.463   6.567 -27.042  1.00  0.00     0.030 A 
ENDBRANCH  27  31
ENDBRANCH  24  25
ENDBRANCH   4  24
TORSDOF 7
ENDMDL
