MODEL 1
REMARK VINA RESULT:      -8.8      0.000      0.000
REMARK  4 active torsions:
REMARK  status: ('A' for Active; 'I' for Inactive)
REMARK    1  A    between atoms: C_4  and  C_5 
REMARK    2  A    between atoms: C_9  and  C_10 
REMARK       I    between atoms: C_10  and  N_11 
REMARK    3  A    between atoms: N_11  and  C_12 
REMARK    4  A    between atoms: C_13  and  O_14 
ROOT
HETATM    1  C   UNL     1      -7.236   1.106 -34.256  1.00  0.00     0.270 C 
HETATM    2  N   UNL     1      -6.958  -0.211 -34.002  1.00  0.00    -0.344 N 
HETATM    3  O   UNL     1      -6.368   1.904 -34.595  1.00  0.00    -0.266 OA
HETATM    4  H   UNL     1      -7.648  -0.801 -33.561  1.00  0.00     0.163 HD
ENDROOT
BRANCH   1   5
HETATM    5  C   UNL     1      -8.604   1.494 -34.061  1.00  0.00     0.120 A 
HETATM    6  N   UNL     1      -8.996   2.805 -34.108  1.00  0.00    -0.272 N 
HETATM    7  N   UNL     1     -10.312   2.994 -33.920  1.00  0.00    -0.173 NA
HETATM    8  H   UNL     1      -8.401   3.613 -34.268  1.00  0.00     0.189 HD
HETATM    9  C   UNL     1     -10.801   1.755 -33.779  1.00  0.00     0.096 A 
HETATM   10  C   UNL     1      -9.769   0.785 -33.842  1.00  0.00     0.071 A 
BRANCH   9  11
HETATM   11  C   UNL     1     -12.266   1.491 -33.602  1.00  0.00     0.035 A 
HETATM   12  S   UNL     1     -13.400   2.648 -33.060  1.00  0.00    -0.093 SA
HETATM   13  C   UNL     1     -14.688   1.523 -33.116  1.00  0.00    -0.021 A 
HETATM   14  C   UNL     1     -16.065   1.926 -32.714  1.00  0.00     0.056 C 
HETATM   15  C   UNL     1     -14.262   0.290 -33.568  1.00  0.00     0.015 A 
HETATM   16  C   UNL     1     -12.864   0.271 -33.846  1.00  0.00     0.022 A 
ENDBRANCH   9  11
ENDBRANCH   1   5
BRANCH   2  17
HETATM   17  C   UNL     1      -5.633  -0.759 -34.206  1.00  0.00     0.147 C 
HETATM   18  C   UNL     1      -4.695  -0.627 -32.968  1.00  0.00     0.149 C 
HETATM   19  C   UNL     1      -3.744  -1.837 -33.021  1.00  0.00     0.073 C 
HETATM   20  C   UNL     1      -4.579  -2.854 -33.747  1.00  0.00    -0.047 A 
HETATM   21  C   UNL     1      -5.647  -2.248 -34.420  1.00  0.00    -0.027 A 
HETATM   22  C   UNL     1      -4.361  -4.219 -33.831  1.00  0.00     0.008 A 
HETATM   23  C   UNL     1      -6.509  -3.002 -35.203  1.00  0.00     0.010 A 
HETATM   24  C   UNL     1      -6.306  -4.381 -35.281  1.00  0.00     0.001 A 
HETATM   25  C   UNL     1      -5.240  -4.986 -34.597  1.00  0.00     0.001 A 
BRANCH  18  26
HETATM   26  O   UNL     1      -5.430  -0.676 -31.732  1.00  0.00    -0.393 OA
HETATM   27  H   UNL     1      -5.267  -1.559 -31.357  1.00  0.00     0.210 HD
ENDBRANCH  18  26
ENDBRANCH   2  17
TORSDOF 4
ENDMDL
MODEL 2
REMARK VINA RESULT:      -8.3      5.497      8.374
REMARK  4 active torsions:
REMARK  status: ('A' for Active; 'I' for Inactive)
REMARK    1  A    between atoms: C_4  and  C_5 
REMARK    2  A    between atoms: C_9  and  C_10 
REMARK       I    between atoms: C_10  and  N_11 
REMARK    3  A    between atoms: N_11  and  C_12 
REMARK    4  A    between atoms: C_13  and  O_14 
ROOT
HETATM    1  C   UNL     1      -5.362   2.226 -32.181  1.00  0.00     0.270 C 
HETATM    2  N   UNL     1      -5.157   1.132 -32.979  1.00  0.00    -0.344 N 
HETATM    3  O   UNL     1      -6.393   2.378 -31.532  1.00  0.00    -0.266 OA
HETATM    4  H   UNL     1      -4.385   1.115 -33.630  1.00  0.00     0.163 HD
ENDROOT
BRANCH   1   5
HETATM    5  C   UNL     1      -4.305   3.197 -32.185  1.00  0.00     0.120 A 
HETATM    6  N   UNL     1      -4.122   4.060 -33.232  1.00  0.00    -0.272 N 
HETATM    7  N   UNL     1      -3.099   4.913 -33.071  1.00  0.00    -0.173 NA
HETATM    8  H   UNL     1      -4.674   4.108 -34.084  1.00  0.00     0.189 HD
HETATM    9  C   UNL     1      -2.616   4.617 -31.857  1.00  0.00     0.096 A 
HETATM   10  C   UNL     1      -3.327   3.539 -31.272  1.00  0.00     0.071 A 
BRANCH   9  11
HETATM   11  C   UNL     1      -1.482   5.379 -31.241  1.00  0.00     0.035 A 
HETATM   12  S   UNL     1      -1.629   6.409 -29.887  1.00  0.00    -0.093 SA
HETATM   13  C   UNL     1       0.026   6.839 -29.939  1.00  0.00    -0.021 A 
HETATM   14  C   UNL     1       0.589   7.804 -28.953  1.00  0.00     0.056 C 
HETATM   15  C   UNL     1       0.686   6.185 -30.958  1.00  0.00     0.015 A 
HETATM   16  C   UNL     1      -0.185   5.343 -31.712  1.00  0.00     0.022 A 
ENDBRANCH   9  11
ENDBRANCH   1   5
BRANCH   2  17
HETATM   17  C   UNL     1      -6.112   0.046 -33.036  1.00  0.00     0.147 C 
HETATM   18  C   UNL     1      -7.227   0.237 -34.108  1.00  0.00     0.149 C 
HETATM   19  C   UNL     1      -7.614  -1.177 -34.579  1.00  0.00     0.073 C 
HETATM   20  C   UNL     1      -6.341  -1.939 -34.346  1.00  0.00    -0.047 A 
HETATM   21  C   UNL     1      -5.489  -1.252 -33.473  1.00  0.00    -0.027 A 
HETATM   22  C   UNL     1      -5.999  -3.183 -34.850  1.00  0.00     0.008 A 
HETATM   23  C   UNL     1      -4.282  -1.810 -33.077  1.00  0.00     0.010 A 
HETATM   24  C   UNL     1      -3.922  -3.057 -33.592  1.00  0.00     0.001 A 
HETATM   25  C   UNL     1      -4.774  -3.738 -34.475  1.00  0.00     0.001 A 
BRANCH  18  26
HETATM   26  O   UNL     1      -6.756   0.985 -35.243  1.00  0.00    -0.393 OA
HETATM   27  H   UNL     1      -6.713   0.353 -35.982  1.00  0.00     0.210 HD
ENDBRANCH  18  26
ENDBRANCH   2  17
TORSDOF 4
ENDMDL
MODEL 3
REMARK VINA RESULT:      -8.2      4.782      7.917
REMARK  4 active torsions:
REMARK  status: ('A' for Active; 'I' for Inactive)
REMARK    1  A    between atoms: C_4  and  C_5 
REMARK    2  A    between atoms: C_9  and  C_10 
REMARK       I    between atoms: C_10  and  N_11 
REMARK    3  A    between atoms: N_11  and  C_12 
REMARK    4  A    between atoms: C_13  and  O_14 
ROOT
HETATM    1  C   UNL     1      -6.353   3.002 -33.722  1.00  0.00     0.270 C 
HETATM    2  N   UNL     1      -5.203   3.343 -33.060  1.00  0.00    -0.344 N 
HETATM    3  O   UNL     1      -7.230   3.821 -33.973  1.00  0.00    -0.266 OA
HETATM    4  H   UNL     1      -4.582   2.626 -32.715  1.00  0.00     0.163 HD
ENDROOT
BRANCH   1   5
HETATM    5  C   UNL     1      -6.474   1.613 -34.067  1.00  0.00     0.120 A 
HETATM    6  N   UNL     1      -7.407   1.173 -34.967  1.00  0.00    -0.272 N 
HETATM    7  N   UNL     1      -7.378  -0.151 -35.187  1.00  0.00    -0.173 NA
HETATM    8  H   UNL     1      -8.090   1.739 -35.462  1.00  0.00     0.189 HD
HETATM    9  C   UNL     1      -6.364  -0.584 -34.427  1.00  0.00     0.096 A 
HETATM   10  C   UNL     1      -5.779   0.479 -33.695  1.00  0.00     0.071 A 
BRANCH   9  11
HETATM   11  C   UNL     1      -5.934  -2.021 -34.413  1.00  0.00     0.035 A 
HETATM   12  S   UNL     1      -4.403  -2.570 -33.892  1.00  0.00    -0.093 SA
HETATM   13  C   UNL     1      -4.779  -4.198 -34.256  1.00  0.00    -0.021 A 
HETATM   14  C   UNL     1      -3.775  -5.276 -34.031  1.00  0.00     0.056 C 
HETATM   15  C   UNL     1      -6.064  -4.324 -34.742  1.00  0.00     0.015 A 
HETATM   16  C   UNL     1      -6.731  -3.066 -34.835  1.00  0.00     0.022 A 
ENDBRANCH   9  11
ENDBRANCH   1   5
BRANCH   2  17
HETATM   17  C   UNL     1      -4.918   4.714 -32.695  1.00  0.00     0.147 C 
HETATM   18  C   UNL     1      -4.738   4.939 -31.163  1.00  0.00     0.149 C 
HETATM   19  C   UNL     1      -3.739   6.101 -31.015  1.00  0.00     0.073 C 
HETATM   20  C   UNL     1      -2.932   5.976 -32.275  1.00  0.00    -0.047 A 
HETATM   21  C   UNL     1      -3.596   5.195 -33.229  1.00  0.00    -0.027 A 
HETATM   22  C   UNL     1      -1.710   6.564 -32.556  1.00  0.00     0.008 A 
HETATM   23  C   UNL     1      -3.050   5.001 -34.490  1.00  0.00     0.010 A 
HETATM   24  C   UNL     1      -1.810   5.578 -34.776  1.00  0.00     0.001 A 
HETATM   25  C   UNL     1      -1.144   6.353 -33.814  1.00  0.00     0.001 A 
BRANCH  18  26
HETATM   26  O   UNL     1      -4.192   3.778 -30.512  1.00  0.00    -0.393 OA
HETATM   27  H   UNL     1      -4.820   3.054 -30.682  1.00  0.00     0.210 HD
ENDBRANCH  18  26
ENDBRANCH   2  17
TORSDOF 4
ENDMDL
MODEL 4
REMARK VINA RESULT:      -8.0      5.448      7.783
REMARK  4 active torsions:
REMARK  status: ('A' for Active; 'I' for Inactive)
REMARK    1  A    between atoms: C_4  and  C_5 
REMARK    2  A    between atoms: C_9  and  C_10 
REMARK       I    between atoms: C_10  and  N_11 
REMARK    3  A    between atoms: N_11  and  C_12 
REMARK    4  A    between atoms: C_13  and  O_14 
ROOT
HETATM    1  C   UNL     1      -5.499   1.883 -31.725  1.00  0.00     0.270 C 
HETATM    2  N   UNL     1      -5.315   0.994 -32.752  1.00  0.00    -0.344 N 
HETATM    3  O   UNL     1      -6.461   1.815 -30.966  1.00  0.00    -0.266 OA
HETATM    4  H   UNL     1      -4.619   1.172 -33.461  1.00  0.00     0.163 HD
ENDROOT
BRANCH   1   5
HETATM    5  C   UNL     1      -4.509   2.918 -31.624  1.00  0.00     0.120 A 
HETATM    6  N   UNL     1      -3.171   2.633 -31.572  1.00  0.00    -0.272 N 
HETATM    7  N   UNL     1      -2.381   3.715 -31.493  1.00  0.00    -0.173 NA
HETATM    8  H   UNL     1      -2.744   1.711 -31.588  1.00  0.00     0.189 HD
HETATM    9  C   UNL     1      -3.236   4.745 -31.530  1.00  0.00     0.096 A 
HETATM   10  C   UNL     1      -4.578   4.297 -31.594  1.00  0.00     0.071 A 
BRANCH   9  11
HETATM   11  C   UNL     1      -2.769   6.170 -31.523  1.00  0.00     0.035 A 
HETATM   12  S   UNL     1      -3.271   7.349 -30.394  1.00  0.00    -0.093 SA
HETATM   13  C   UNL     1      -2.340   8.573 -31.144  1.00  0.00    -0.021 A 
HETATM   14  C   UNL     1      -2.350   9.966 -30.614  1.00  0.00     0.056 C 
HETATM   15  C   UNL     1      -1.635   8.081 -32.224  1.00  0.00     0.015 A 
HETATM   16  C   UNL     1      -1.884   6.694 -32.444  1.00  0.00     0.022 A 
ENDBRANCH   9  11
ENDBRANCH   1   5
BRANCH   2  17
HETATM   17  C   UNL     1      -6.203  -0.133 -32.946  1.00  0.00     0.147 C 
HETATM   18  C   UNL     1      -7.230   0.061 -34.103  1.00  0.00     0.149 C 
HETATM   19  C   UNL     1      -7.500  -1.344 -34.674  1.00  0.00     0.073 C 
HETATM   20  C   UNL     1      -6.212  -2.054 -34.367  1.00  0.00    -0.047 A 
HETATM   21  C   UNL     1      -5.477  -1.374 -33.389  1.00  0.00    -0.027 A 
HETATM   22  C   UNL     1      -5.763  -3.251 -34.899  1.00  0.00     0.008 A 
HETATM   23  C   UNL     1      -4.280  -1.893 -32.915  1.00  0.00     0.010 A 
HETATM   24  C   UNL     1      -3.812  -3.092 -33.457  1.00  0.00     0.001 A 
HETATM   25  C   UNL     1      -4.547  -3.765 -34.444  1.00  0.00     0.001 A 
BRANCH  18  26
HETATM   26  O   UNL     1      -6.703   0.890 -35.153  1.00  0.00    -0.393 OA
HETATM   27  H   UNL     1      -7.474   1.215 -35.651  1.00  0.00     0.210 HD
ENDBRANCH  18  26
ENDBRANCH   2  17
TORSDOF 4
ENDMDL
MODEL 5
REMARK VINA RESULT:      -7.8      5.169      7.009
REMARK  4 active torsions:
REMARK  status: ('A' for Active; 'I' for Inactive)
REMARK    1  A    between atoms: C_4  and  C_5 
REMARK    2  A    between atoms: C_9  and  C_10 
REMARK       I    between atoms: C_10  and  N_11 
REMARK    3  A    between atoms: N_11  and  C_12 
REMARK    4  A    between atoms: C_13  and  O_14 
ROOT
HETATM    1  C   UNL     1      -4.231   2.735 -32.557  1.00  0.00     0.270 C 
HETATM    2  N   UNL     1      -3.936   3.891 -33.232  1.00  0.00    -0.344 N 
HETATM    3  O   UNL     1      -3.358   1.994 -32.118  1.00  0.00    -0.266 OA
HETATM    4  H   UNL     1      -4.660   4.389 -33.729  1.00  0.00     0.163 HD
ENDROOT
BRANCH   1   5
HETATM    5  C   UNL     1      -5.630   2.436 -32.434  1.00  0.00     0.120 A 
HETATM    6  N   UNL     1      -6.289   2.549 -31.239  1.00  0.00    -0.272 N 
HETATM    7  N   UNL     1      -7.595   2.245 -31.300  1.00  0.00    -0.173 NA
HETATM    8  H   UNL     1      -5.890   2.832 -30.349  1.00  0.00     0.189 HD
HETATM    9  C   UNL     1      -7.802   1.957 -32.591  1.00  0.00     0.096 A 
HETATM   10  C   UNL     1      -6.600   2.045 -33.336  1.00  0.00     0.071 A 
BRANCH   9  11
HETATM   11  C   UNL     1      -9.161   1.613 -33.124  1.00  0.00     0.035 A 
HETATM   12  S   UNL     1     -10.028   2.561 -34.250  1.00  0.00    -0.093 SA
HETATM   13  C   UNL     1     -11.370   1.500 -34.223  1.00  0.00    -0.021 A 
HETATM   14  C   UNL     1     -12.580   1.788 -35.044  1.00  0.00     0.056 C 
HETATM   15  C   UNL     1     -11.147   0.424 -33.388  1.00  0.00     0.015 A 
HETATM   16  C   UNL     1      -9.872   0.491 -32.752  1.00  0.00     0.022 A 
ENDBRANCH   9  11
ENDBRANCH   1   5
BRANCH   2  17
HETATM   17  C   UNL     1      -2.572   4.349 -33.389  1.00  0.00     0.147 C 
HETATM   18  C   UNL     1      -2.292   5.055 -34.750  1.00  0.00     0.149 C 
HETATM   19  C   UNL     1      -1.194   6.098 -34.474  1.00  0.00     0.073 C 
HETATM   20  C   UNL     1      -1.429   6.416 -33.024  1.00  0.00    -0.047 A 
HETATM   21  C   UNL     1      -2.205   5.428 -32.406  1.00  0.00    -0.027 A 
HETATM   22  C   UNL     1      -0.936   7.493 -32.307  1.00  0.00     0.008 A 
HETATM   23  C   UNL     1      -2.490   5.497 -31.050  1.00  0.00     0.010 A 
HETATM   24  C   UNL     1      -2.011   6.589 -30.322  1.00  0.00     0.001 A 
HETATM   25  C   UNL     1      -1.241   7.581 -30.948  1.00  0.00     0.001 A 
BRANCH  18  26
HETATM   26  O   UNL     1      -3.457   5.736 -35.249  1.00  0.00    -0.393 OA
HETATM   27  H   UNL     1      -4.075   5.796 -34.500  1.00  0.00     0.210 HD
ENDBRANCH  18  26
ENDBRANCH   2  17
TORSDOF 4
ENDMDL
MODEL 6
REMARK VINA RESULT:      -7.8      6.705      9.173
REMARK  4 active torsions:
REMARK  status: ('A' for Active; 'I' for Inactive)
REMARK    1  A    between atoms: C_4  and  C_5 
REMARK    2  A    between atoms: C_9  and  C_10 
REMARK       I    between atoms: C_10  and  N_11 
REMARK    3  A    between atoms: N_11  and  C_12 
REMARK    4  A    between atoms: C_13  and  O_14 
ROOT
HETATM    1  C   UNL     1      -6.481   3.992 -29.691  1.00  0.00     0.270 C 
HETATM    2  N   UNL     1      -5.337   4.536 -29.169  1.00  0.00    -0.344 N 
HETATM    3  O   UNL     1      -7.550   4.594 -29.693  1.00  0.00    -0.266 OA
HETATM    4  H   UNL     1      -4.521   3.961 -29.022  1.00  0.00     0.163 HD
ENDROOT
BRANCH   1   5
HETATM    5  C   UNL     1      -6.349   2.656 -30.201  1.00  0.00     0.120 A 
HETATM    6  N   UNL     1      -6.302   1.569 -29.371  1.00  0.00    -0.272 N 
HETATM    7  N   UNL     1      -6.191   0.393 -30.008  1.00  0.00    -0.173 NA
HETATM    8  H   UNL     1      -6.345   1.576 -28.355  1.00  0.00     0.189 HD
HETATM    9  C   UNL     1      -6.199   0.725 -31.306  1.00  0.00     0.096 A 
HETATM   10  C   UNL     1      -6.279   2.130 -31.476  1.00  0.00     0.071 A 
BRANCH   9  11
HETATM   11  C   UNL     1      -6.151  -0.306 -32.393  1.00  0.00     0.035 A 
HETATM   12  S   UNL     1      -4.777  -1.243 -32.780  1.00  0.00    -0.093 SA
HETATM   13  C   UNL     1      -5.581  -2.029 -34.068  1.00  0.00    -0.021 A 
HETATM   14  C   UNL     1      -4.872  -3.042 -34.900  1.00  0.00     0.056 C 
HETATM   15  C   UNL     1      -6.888  -1.602 -34.184  1.00  0.00     0.015 A 
HETATM   16  C   UNL     1      -7.217  -0.605 -33.218  1.00  0.00     0.022 A 
ENDBRANCH   9  11
ENDBRANCH   1   5
BRANCH   2  17
HETATM   17  C   UNL     1      -5.306   5.893 -28.666  1.00  0.00     0.147 C 
HETATM   18  C   UNL     1      -5.253   5.993 -27.111  1.00  0.00     0.149 C 
HETATM   19  C   UNL     1      -4.471   7.281 -26.792  1.00  0.00     0.073 C 
HETATM   20  C   UNL     1      -3.584   7.410 -27.998  1.00  0.00    -0.047 A 
HETATM   21  C   UNL     1      -4.054   6.630 -29.060  1.00  0.00    -0.027 A 
HETATM   22  C   UNL     1      -2.464   8.212 -28.138  1.00  0.00     0.008 A 
HETATM   23  C   UNL     1      -3.414   6.650 -30.291  1.00  0.00     0.010 A 
HETATM   24  C   UNL     1      -2.273   7.444 -30.437  1.00  0.00     0.001 A 
HETATM   25  C   UNL     1      -1.801   8.218 -29.366  1.00  0.00     0.001 A 
BRANCH  18  26
HETATM   26  O   UNL     1      -4.558   4.877 -26.527  1.00  0.00    -0.393 OA
HETATM   27  H   UNL     1      -5.184   4.467 -25.905  1.00  0.00     0.210 HD
ENDBRANCH  18  26
ENDBRANCH   2  17
TORSDOF 4
ENDMDL
MODEL 7
REMARK VINA RESULT:      -7.6     13.965     15.363
REMARK  4 active torsions:
REMARK  status: ('A' for Active; 'I' for Inactive)
REMARK    1  A    between atoms: C_4  and  C_5 
REMARK    2  A    between atoms: C_9  and  C_10 
REMARK       I    between atoms: C_10  and  N_11 
REMARK    3  A    between atoms: N_11  and  C_12 
REMARK    4  A    between atoms: C_13  and  O_14 
ROOT
HETATM    1  C   UNL     1      -3.481 -12.484 -38.317  1.00  0.00     0.270 C 
HETATM    2  N   UNL     1      -3.119 -13.669 -37.733  1.00  0.00    -0.344 N 
HETATM    3  O   UNL     1      -2.816 -11.461 -38.187  1.00  0.00    -0.266 OA
HETATM    4  H   UNL     1      -3.766 -14.444 -37.710  1.00  0.00     0.163 HD
ENDROOT
BRANCH   1   5
HETATM    5  C   UNL     1      -4.710 -12.514 -39.058  1.00  0.00     0.120 A 
HETATM    6  N   UNL     1      -4.776 -12.101 -40.362  1.00  0.00    -0.272 N 
HETATM    7  N   UNL     1      -5.995 -12.208 -40.912  1.00  0.00    -0.173 NA
HETATM    8  H   UNL     1      -4.012 -11.737 -40.924  1.00  0.00     0.189 HD
HETATM    9  C   UNL     1      -6.745 -12.743 -39.940  1.00  0.00     0.096 A 
HETATM   10  C   UNL     1      -5.990 -12.936 -38.757  1.00  0.00     0.071 A 
BRANCH   9  11
HETATM   11  C   UNL     1      -8.189 -13.092 -40.147  1.00  0.00     0.035 A 
HETATM   12  S   UNL     1      -8.744 -14.565 -40.809  1.00  0.00    -0.093 SA
HETATM   13  C   UNL     1     -10.381 -14.078 -40.714  1.00  0.00    -0.021 A 
HETATM   14  C   UNL     1     -11.469 -14.978 -41.190  1.00  0.00     0.056 C 
HETATM   15  C   UNL     1     -10.503 -12.820 -40.159  1.00  0.00     0.015 A 
HETATM   16  C   UNL     1      -9.236 -12.250 -39.834  1.00  0.00     0.022 A 
ENDBRANCH   9  11
ENDBRANCH   1   5
BRANCH   2  17
HETATM   17  C   UNL     1      -1.879 -13.804 -36.999  1.00  0.00     0.147 C 
HETATM   18  C   UNL     1      -1.946 -14.828 -35.824  1.00  0.00     0.149 C 
HETATM   19  C   UNL     1      -0.530 -15.419 -35.692  1.00  0.00     0.073 C 
HETATM   20  C   UNL     1      -0.009 -15.289 -37.095  1.00  0.00    -0.047 A 
HETATM   21  C   UNL     1      -0.767 -14.375 -37.836  1.00  0.00    -0.027 A 
HETATM   22  C   UNL     1       1.098 -15.915 -37.644  1.00  0.00     0.008 A 
HETATM   23  C   UNL     1      -0.419 -14.062 -39.143  1.00  0.00     0.010 A 
HETATM   24  C   UNL     1       0.686 -14.700 -39.710  1.00  0.00     0.001 A 
HETATM   25  C   UNL     1       1.438 -15.622 -38.966  1.00  0.00     0.001 A 
BRANCH  18  26
HETATM   26  O   UNL     1      -2.866 -15.899 -36.099  1.00  0.00    -0.393 OA
HETATM   27  H   UNL     1      -3.755 -15.504 -36.065  1.00  0.00     0.210 HD
ENDBRANCH  18  26
ENDBRANCH   2  17
TORSDOF 4
ENDMDL
MODEL 8
REMARK VINA RESULT:      -7.6      1.591      2.271
REMARK  4 active torsions:
REMARK  status: ('A' for Active; 'I' for Inactive)
REMARK    1  A    between atoms: C_4  and  C_5 
REMARK    2  A    between atoms: C_9  and  C_10 
REMARK       I    between atoms: C_10  and  N_11 
REMARK    3  A    between atoms: N_11  and  C_12 
REMARK    4  A    between atoms: C_13  and  O_14 
ROOT
HETATM    1  C   UNL     1      -8.386   2.473 -33.528  1.00  0.00     0.270 C 
HETATM    2  N   UNL     1      -7.918   1.335 -32.925  1.00  0.00    -0.344 N 
HETATM    3  O   UNL     1      -7.639   3.377 -33.887  1.00  0.00    -0.266 OA
HETATM    4  H   UNL     1      -8.560   0.691 -32.486  1.00  0.00     0.163 HD
ENDROOT
BRANCH   1   5
HETATM    5  C   UNL     1      -9.812   2.548 -33.675  1.00  0.00     0.120 A 
HETATM    6  N   UNL     1     -10.429   2.291 -34.870  1.00  0.00    -0.272 N 
HETATM    7  N   UNL     1     -11.766   2.391 -34.832  1.00  0.00    -0.173 NA
HETATM    8  H   UNL     1      -9.978   2.041 -35.745  1.00  0.00     0.189 HD
HETATM    9  C   UNL     1     -12.034   2.692 -33.555  1.00  0.00     0.096 A 
HETATM   10  C   UNL     1     -10.844   2.818 -32.797  1.00  0.00     0.071 A 
BRANCH   9  11
HETATM   11  C   UNL     1     -13.437   2.841 -33.047  1.00  0.00     0.035 A 
HETATM   12  S   UNL     1     -14.155   4.327 -32.607  1.00  0.00    -0.093 SA
HETATM   13  C   UNL     1     -15.616   3.570 -32.141  1.00  0.00    -0.021 A 
HETATM   14  C   UNL     1     -16.749   4.375 -31.602  1.00  0.00     0.056 C 
HETATM   15  C   UNL     1     -15.566   2.206 -32.345  1.00  0.00     0.015 A 
HETATM   16  C   UNL     1     -14.307   1.785 -32.867  1.00  0.00     0.022 A 
ENDBRANCH   9  11
ENDBRANCH   1   5
BRANCH   2  17
HETATM   17  C   UNL     1      -6.501   1.095 -32.756  1.00  0.00     0.147 C 
HETATM   18  C   UNL     1      -6.060   0.914 -31.272  1.00  0.00     0.149 C 
HETATM   19  C   UNL     1      -4.856  -0.046 -31.298  1.00  0.00     0.073 C 
HETATM   20  C   UNL     1      -5.127  -0.849 -32.538  1.00  0.00    -0.047 A 
HETATM   21  C   UNL     1      -6.055  -0.206 -33.367  1.00  0.00    -0.027 A 
HETATM   22  C   UNL     1      -4.543  -2.047 -32.911  1.00  0.00     0.008 A 
HETATM   23  C   UNL     1      -6.403  -0.750 -34.595  1.00  0.00     0.010 A 
HETATM   24  C   UNL     1      -5.830  -1.967 -34.972  1.00  0.00     0.001 A 
HETATM   25  C   UNL     1      -4.908  -2.612 -34.135  1.00  0.00     0.001 A 
BRANCH  18  26
HETATM   26  O   UNL     1      -7.100   0.322 -30.473  1.00  0.00    -0.393 OA
HETATM   27  H   UNL     1      -7.476   1.047 -29.942  1.00  0.00     0.210 HD
ENDBRANCH  18  26
ENDBRANCH   2  17
TORSDOF 4
ENDMDL
MODEL 9
REMARK VINA RESULT:      -7.6     14.184     16.897
REMARK  4 active torsions:
REMARK  status: ('A' for Active; 'I' for Inactive)
REMARK    1  A    between atoms: C_4  and  C_5 
REMARK    2  A    between atoms: C_9  and  C_10 
REMARK       I    between atoms: C_10  and  N_11 
REMARK    3  A    between atoms: N_11  and  C_12 
REMARK    4  A    between atoms: C_13  and  O_14 
ROOT
HETATM    1  C   UNL     1      -7.013 -13.347 -37.398  1.00  0.00     0.270 C 
HETATM    2  N   UNL     1      -7.597 -13.269 -38.635  1.00  0.00    -0.344 N 
HETATM    3  O   UNL     1      -7.671 -13.338 -36.363  1.00  0.00    -0.266 OA
HETATM    4  H   UNL     1      -7.033 -13.104 -39.456  1.00  0.00     0.163 HD
ENDROOT
BRANCH   1   5
HETATM    5  C   UNL     1      -5.578 -13.401 -37.399  1.00  0.00     0.120 A 
HETATM    6  N   UNL     1      -4.847 -13.161 -36.267  1.00  0.00    -0.272 N 
HETATM    7  N   UNL     1      -3.520 -13.266 -36.436  1.00  0.00    -0.173 NA
HETATM    8  H   UNL     1      -5.209 -12.921 -35.348  1.00  0.00     0.189 HD
HETATM    9  C   UNL     1      -3.383 -13.622 -37.720  1.00  0.00     0.096 A 
HETATM   10  C   UNL     1      -4.641 -13.702 -38.367  1.00  0.00     0.071 A 
BRANCH   9  11
HETATM   11  C   UNL     1      -2.043 -13.908 -38.330  1.00  0.00     0.035 A 
HETATM   12  S   UNL     1      -0.679 -14.454 -37.460  1.00  0.00    -0.093 SA
HETATM   13  C   UNL     1       0.308 -14.449 -38.857  1.00  0.00    -0.021 A 
HETATM   14  C   UNL     1       1.744 -14.840 -38.772  1.00  0.00     0.056 C 
HETATM   15  C   UNL     1      -0.401 -14.063 -39.975  1.00  0.00     0.015 A 
HETATM   16  C   UNL     1      -1.758 -13.748 -39.671  1.00  0.00     0.022 A 
ENDBRANCH   9  11
ENDBRANCH   1   5
BRANCH   2  17
HETATM   17  C   UNL     1      -9.036 -13.261 -38.794  1.00  0.00     0.147 C 
HETATM   18  C   UNL     1      -9.566 -12.122 -39.717  1.00  0.00     0.149 C 
HETATM   19  C   UNL     1     -10.838 -12.672 -40.387  1.00  0.00     0.073 C 
HETATM   20  C   UNL     1     -10.566 -14.149 -40.401  1.00  0.00    -0.047 A 
HETATM   21  C   UNL     1      -9.550 -14.487 -39.499  1.00  0.00    -0.027 A 
HETATM   22  C   UNL     1     -11.222 -15.120 -41.138  1.00  0.00     0.008 A 
HETATM   23  C   UNL     1      -9.182 -15.812 -39.311  1.00  0.00     0.010 A 
HETATM   24  C   UNL     1      -9.828 -16.796 -40.062  1.00  0.00     0.001 A 
HETATM   25  C   UNL     1     -10.840 -16.452 -40.971  1.00  0.00     0.001 A 
BRANCH  18  26
HETATM   26  O   UNL     1      -8.618 -11.780 -40.743  1.00  0.00    -0.393 OA
HETATM   27  H   UNL     1      -8.346 -12.621 -41.149  1.00  0.00     0.210 HD
ENDBRANCH  18  26
ENDBRANCH   2  17
TORSDOF 4
ENDMDL
MODEL 10
REMARK VINA RESULT:      -7.6      7.548     10.118
REMARK  4 active torsions:
REMARK  status: ('A' for Active; 'I' for Inactive)
REMARK    1  A    between atoms: C_4  and  C_5 
REMARK    2  A    between atoms: C_9  and  C_10 
REMARK       I    between atoms: C_10  and  N_11 
REMARK    3  A    between atoms: N_11  and  C_12 
REMARK    4  A    between atoms: C_13  and  O_14 
ROOT
HETATM    1  C   UNL     1      -3.918   5.495 -30.949  1.00  0.00     0.270 C 
HETATM    2  N   UNL     1      -2.987   5.864 -30.014  1.00  0.00    -0.344 N 
HETATM    3  O   UNL     1      -4.766   6.275 -31.370  1.00  0.00    -0.266 OA
HETATM    4  H   UNL     1      -2.417   5.165 -29.559  1.00  0.00     0.163 HD
ENDROOT
BRANCH   1   5
HETATM    5  C   UNL     1      -3.854   4.124 -31.371  1.00  0.00     0.120 A 
HETATM    6  N   UNL     1      -2.834   3.297 -30.986  1.00  0.00    -0.272 N 
HETATM    7  N   UNL     1      -2.932   2.044 -31.456  1.00  0.00    -0.173 NA
HETATM    8  H   UNL     1      -2.041   3.541 -30.398  1.00  0.00     0.189 HD
HETATM    9  C   UNL     1      -4.080   2.045 -32.147  1.00  0.00     0.096 A 
HETATM   10  C   UNL     1      -4.683   3.327 -32.137  1.00  0.00     0.071 A 
BRANCH   9  11
HETATM   11  C   UNL     1      -4.617   0.810 -32.805  1.00  0.00     0.035 A 
HETATM   12  S   UNL     1      -6.146   0.700 -33.558  1.00  0.00    -0.093 SA
HETATM   13  C   UNL     1      -5.924  -0.953 -33.939  1.00  0.00    -0.021 A 
HETATM   14  C   UNL     1      -6.990  -1.718 -34.645  1.00  0.00     0.056 C 
HETATM   15  C   UNL     1      -4.689  -1.406 -33.521  1.00  0.00     0.015 A 
HETATM   16  C   UNL     1      -3.935  -0.389 -32.864  1.00  0.00     0.022 A 
ENDBRANCH   9  11
ENDBRANCH   1   5
BRANCH   2  17
HETATM   17  C   UNL     1      -2.895   7.226 -29.533  1.00  0.00     0.147 C 
HETATM   18  C   UNL     1      -3.770   7.515 -28.275  1.00  0.00     0.149 C 
HETATM   19  C   UNL     1      -3.026   8.602 -27.478  1.00  0.00     0.073 C 
HETATM   20  C   UNL     1      -1.598   8.349 -27.869  1.00  0.00    -0.047 A 
HETATM   21  C   UNL     1      -1.519   7.574 -29.032  1.00  0.00    -0.027 A 
HETATM   22  C   UNL     1      -0.456   8.826 -27.247  1.00  0.00     0.008 A 
HETATM   23  C   UNL     1      -0.290   7.273 -29.601  1.00  0.00     0.010 A 
HETATM   24  C   UNL     1       0.868   7.737 -28.971  1.00  0.00     0.001 A 
HETATM   25  C   UNL     1       0.784   8.506 -27.800  1.00  0.00     0.001 A 
BRANCH  18  26
HETATM   26  O   UNL     1      -3.911   6.350 -27.442  1.00  0.00    -0.393 OA
HETATM   27  H   UNL     1      -3.066   5.871 -27.505  1.00  0.00     0.210 HD
ENDBRANCH  18  26
ENDBRANCH   2  17
TORSDOF 4
ENDMDL
