MODEL 1
REMARK VINA RESULT:      -9.3      0.000      0.000
REMARK  10 active torsions:
REMARK  status: ('A' for Active; 'I' for Inactive)
REMARK    1  A    between atoms: C_4  and  C_5 
REMARK    2  A    between atoms: C_6  and  O_7 
REMARK    3  A    between atoms: C_14  and  C_15 
REMARK    4  A    between atoms: C_18  and  C_19 
REMARK    5  A    between atoms: C_19  and  N_20 
REMARK    6  A    between atoms: N_20  and  C_21 
REMARK    7  A    between atoms: C_21  and  N_22 
REMARK    8  A    between atoms: N_22  and  C_23 
REMARK    9  A    between atoms: C_25  and  C_26 
REMARK   10  A    between atoms: C_26  and  O_27 
ROOT
HETATM    1  C   UNL     1      -6.969   2.824 -33.800  1.00  0.00     0.067 C 
HETATM    2  C   UNL     1      -5.547   3.453 -33.848  1.00  0.00     0.001 C 
HETATM    3  C   UNL     1      -4.842   3.316 -32.479  1.00  0.00     0.040 C 
HETATM    4  C   UNL     1      -5.589   4.124 -31.406  1.00  0.00     0.206 C 
HETATM    5  N   UNL     1      -6.923   4.574 -32.011  1.00  0.00    -0.065 N 
HETATM    6  H   UNL     1      -7.490   5.005 -31.267  1.00  0.00     0.280 HD
HETATM    7  C   UNL     1      -7.729   3.425 -32.595  1.00  0.00     0.246 C 
HETATM    8  C   UNL     1      -5.720   4.964 -34.130  1.00  0.00     0.033 C 
HETATM    9  C   UNL     1      -6.652   5.603 -33.094  1.00  0.00     0.236 C 
ENDROOT
BRANCH   4  10
HETATM   10  C   UNL     1      -5.759   3.435 -30.037  1.00  0.00     0.155 C 
BRANCH  10  11
HETATM   11  N   UNL     1      -5.356   4.234 -28.885  1.00  0.00    -0.365 N 
HETATM   12  H   UNL     1      -4.732   3.790 -28.218  1.00  0.00     0.161 HD
BRANCH  11  13
HETATM   13  C   UNL     1      -5.267   5.599 -28.869  1.00  0.00     0.172 C 
HETATM   14  S   UNL     1      -6.587   6.607 -28.707  1.00  0.00    -0.041 SA
BRANCH  13  15
HETATM   15  N   UNL     1      -4.006   6.132 -28.865  1.00  0.00    -0.333 N 
HETATM   16  H   UNL     1      -3.483   5.950 -28.011  1.00  0.00     0.168 HD
BRANCH  15  17
HETATM   17  C   UNL     1      -3.380   6.999 -29.790  1.00  0.00     0.035 A 
HETATM   18  C   UNL     1      -3.087   6.630 -31.104  1.00  0.00     0.047 A 
HETATM   19  C   UNL     1      -2.420   7.503 -31.974  1.00  0.00     0.041 A 
HETATM   20  C   UNL     1      -2.100   8.793 -31.545  1.00  0.00     0.018 A 
HETATM   21  C   UNL     1      -2.449   9.194 -30.253  1.00  0.00     0.003 A 
HETATM   22  C   UNL     1      -3.085   8.302 -29.381  1.00  0.00     0.029 A 
BRANCH  19  23
HETATM   23  C   UNL     1      -2.053   6.970 -33.309  1.00  0.00     0.293 C 
HETATM   24  O   UNL     1      -1.687   7.693 -34.226  1.00  0.00    -0.259 OA
BRANCH  23  25
HETATM   25  O   UNL     1      -2.184   5.624 -33.348  1.00  0.00    -0.323 OA
HETATM   26  C   UNL     1      -2.019   5.059 -34.650  1.00  0.00     0.213 C 
ENDBRANCH  23  25
ENDBRANCH  19  23
ENDBRANCH  15  17
ENDBRANCH  13  15
ENDBRANCH  11  13
ENDBRANCH  10  11
ENDBRANCH   4  10
BRANCH   1  27
HETATM   27  C   UNL     1      -6.991   1.319 -33.811  1.00  0.00     0.038 C 
HETATM   28  N   UNL     1      -8.149   0.570 -33.782  1.00  0.00    -0.277 N 
HETATM   29  C   UNL     1      -9.523   1.022 -33.808  1.00  0.00     0.179 C 
HETATM   30  N   UNL     1      -7.933  -0.748 -33.735  1.00  0.00    -0.172 NA
HETATM   31  C   UNL     1      -6.622  -0.887 -33.957  1.00  0.00     0.092 C 
HETATM   32  C   UNL     1      -5.984   0.378 -33.961  1.00  0.00     0.061 C 
BRANCH  31  33
HETATM   33  C   UNL     1      -6.011  -2.194 -34.142  1.00  0.00     0.028 A 
HETATM   34  C   UNL     1      -4.684  -2.441 -33.748  1.00  0.00     0.080 A 
HETATM   35  C   UNL     1      -4.131  -3.712 -33.936  1.00  0.00     0.037 A 
HETATM   36  C   UNL     1      -4.883  -4.726 -34.535  1.00  0.00     0.003 A 
HETATM   37  C   UNL     1      -6.195  -4.479 -34.938  1.00  0.00     0.001 A 
HETATM   38  C   UNL     1      -6.759  -3.219 -34.739  1.00  0.00     0.017 A 
BRANCH  34  39
HETATM   39  O   UNL     1      -3.998  -1.432 -33.116  1.00  0.00    -0.355 OA
HETATM   40  C   UNL     1      -3.236  -1.861 -31.989  1.00  0.00     0.210 C 
ENDBRANCH  34  39
ENDBRANCH  31  33
ENDBRANCH   1  27
TORSDOF 10
ENDMDL
MODEL 2
REMARK VINA RESULT:      -9.0      3.009      7.151
REMARK  10 active torsions:
REMARK  status: ('A' for Active; 'I' for Inactive)
REMARK    1  A    between atoms: C_4  and  C_5 
REMARK    2  A    between atoms: C_6  and  O_7 
REMARK    3  A    between atoms: C_14  and  C_15 
REMARK    4  A    between atoms: C_18  and  C_19 
REMARK    5  A    between atoms: C_19  and  N_20 
REMARK    6  A    between atoms: N_20  and  C_21 
REMARK    7  A    between atoms: C_21  and  N_22 
REMARK    8  A    between atoms: N_22  and  C_23 
REMARK    9  A    between atoms: C_25  and  C_26 
REMARK   10  A    between atoms: C_26  and  O_27 
ROOT
HETATM    1  C   UNL     1      -6.013   6.117 -30.526  1.00  0.00     0.067 C 
HETATM    2  C   UNL     1      -5.408   6.665 -31.850  1.00  0.00     0.001 C 
HETATM    3  C   UNL     1      -4.522   5.594 -32.530  1.00  0.00     0.040 C 
HETATM    4  C   UNL     1      -3.305   5.266 -31.652  1.00  0.00     0.206 C 
HETATM    5  N   UNL     1      -3.528   5.924 -30.287  1.00  0.00    -0.065 N 
HETATM    6  H   UNL     1      -2.786   5.608 -29.647  1.00  0.00     0.280 HD
HETATM    7  C   UNL     1      -4.863   5.553 -29.660  1.00  0.00     0.246 C 
HETATM    8  C   UNL     1      -4.492   7.855 -31.482  1.00  0.00     0.033 C 
HETATM    9  C   UNL     1      -3.446   7.432 -30.445  1.00  0.00     0.236 C 
ENDROOT
BRANCH   4  10
HETATM   10  C   UNL     1      -2.935   3.774 -31.540  1.00  0.00     0.155 C 
BRANCH  10  11
HETATM   11  N   UNL     1      -3.849   2.964 -30.741  1.00  0.00    -0.365 N 
HETATM   12  H   UNL     1      -4.273   3.415 -29.937  1.00  0.00     0.161 HD
BRANCH  11  13
HETATM   13  C   UNL     1      -4.591   1.918 -31.219  1.00  0.00     0.172 C 
HETATM   14  S   UNL     1      -5.614   1.005 -30.269  1.00  0.00    -0.041 SA
BRANCH  13  15
HETATM   15  N   UNL     1      -4.564   1.715 -32.572  1.00  0.00    -0.333 N 
HETATM   16  H   UNL     1      -3.912   2.318 -33.068  1.00  0.00     0.168 HD
BRANCH  15  17
HETATM   17  C   UNL     1      -5.390   0.909 -33.389  1.00  0.00     0.035 A 
HETATM   18  C   UNL     1      -5.239  -0.475 -33.497  1.00  0.00     0.047 A 
HETATM   19  C   UNL     1      -6.047  -1.231 -34.357  1.00  0.00     0.041 A 
HETATM   20  C   UNL     1      -7.069  -0.604 -35.072  1.00  0.00     0.018 A 
HETATM   21  C   UNL     1      -7.270   0.771 -34.920  1.00  0.00     0.003 A 
HETATM   22  C   UNL     1      -6.436   1.522 -34.083  1.00  0.00     0.029 A 
BRANCH  19  23
HETATM   23  C   UNL     1      -5.726  -2.674 -34.484  1.00  0.00     0.293 C 
HETATM   24  O   UNL     1      -4.586  -3.105 -34.370  1.00  0.00    -0.259 OA
BRANCH  23  25
HETATM   25  O   UNL     1      -6.840  -3.399 -34.736  1.00  0.00    -0.323 OA
HETATM   26  C   UNL     1      -6.598  -4.606 -35.461  1.00  0.00     0.213 C 
ENDBRANCH  23  25
ENDBRANCH  19  23
ENDBRANCH  15  17
ENDBRANCH  13  15
ENDBRANCH  11  13
ENDBRANCH  10  11
ENDBRANCH   4  10
BRANCH   1  27
HETATM   27  C   UNL     1      -7.140   5.137 -30.708  1.00  0.00     0.038 C 
HETATM   28  N   UNL     1      -8.325   5.193 -30.003  1.00  0.00    -0.277 N 
HETATM   29  C   UNL     1      -8.763   6.182 -29.043  1.00  0.00     0.179 C 
HETATM   30  N   UNL     1      -9.160   4.186 -30.279  1.00  0.00    -0.172 NA
HETATM   31  C   UNL     1      -8.620   3.575 -31.339  1.00  0.00     0.092 C 
HETATM   32  C   UNL     1      -7.334   4.103 -31.611  1.00  0.00     0.061 C 
BRANCH  31  33
HETATM   33  C   UNL     1      -9.317   2.514 -32.047  1.00  0.00     0.028 A 
HETATM   34  C   UNL     1     -10.216   2.803 -33.090  1.00  0.00     0.080 A 
HETATM   35  C   UNL     1     -10.865   1.756 -33.754  1.00  0.00     0.037 A 
HETATM   36  C   UNL     1     -10.642   0.431 -33.367  1.00  0.00     0.003 A 
HETATM   37  C   UNL     1      -9.761   0.145 -32.326  1.00  0.00     0.001 A 
HETATM   38  C   UNL     1      -9.098   1.182 -31.670  1.00  0.00     0.017 A 
BRANCH  34  39
HETATM   39  O   UNL     1     -10.366   4.114 -33.472  1.00  0.00    -0.355 OA
HETATM   40  C   UNL     1     -10.581   4.294 -34.870  1.00  0.00     0.210 C 
ENDBRANCH  34  39
ENDBRANCH  31  33
ENDBRANCH   1  27
TORSDOF 10
ENDMDL
MODEL 3
REMARK VINA RESULT:      -8.9      1.542      1.824
REMARK  10 active torsions:
REMARK  status: ('A' for Active; 'I' for Inactive)
REMARK    1  A    between atoms: C_4  and  C_5 
REMARK    2  A    between atoms: C_6  and  O_7 
REMARK    3  A    between atoms: C_14  and  C_15 
REMARK    4  A    between atoms: C_18  and  C_19 
REMARK    5  A    between atoms: C_19  and  N_20 
REMARK    6  A    between atoms: N_20  and  C_21 
REMARK    7  A    between atoms: C_21  and  N_22 
REMARK    8  A    between atoms: N_22  and  C_23 
REMARK    9  A    between atoms: C_25  and  C_26 
REMARK   10  A    between atoms: C_26  and  O_27 
ROOT
HETATM    1  C   UNL     1      -8.387   3.525 -32.418  1.00  0.00     0.067 C 
HETATM    2  C   UNL     1      -7.679   4.569 -33.328  1.00  0.00     0.001 C 
HETATM    3  C   UNL     1      -6.202   4.750 -32.906  1.00  0.00     0.040 C 
HETATM    4  C   UNL     1      -6.116   5.344 -31.492  1.00  0.00     0.206 C 
HETATM    5  N   UNL     1      -7.523   5.308 -30.888  1.00  0.00    -0.065 N 
HETATM    6  H   UNL     1      -7.460   5.582 -29.897  1.00  0.00     0.280 HD
HETATM    7  C   UNL     1      -8.158   3.928 -30.943  1.00  0.00     0.246 C 
HETATM    8  C   UNL     1      -8.390   5.926 -33.114  1.00  0.00     0.033 C 
HETATM    9  C   UNL     1      -8.404   6.299 -31.627  1.00  0.00     0.236 C 
ENDROOT
BRANCH   4  10
HETATM   10  C   UNL     1      -5.053   4.724 -30.562  1.00  0.00     0.155 C 
BRANCH  10  11
HETATM   11  N   UNL     1      -4.901   5.379 -29.267  1.00  0.00    -0.365 N 
HETATM   12  H   UNL     1      -4.773   4.775 -28.462  1.00  0.00     0.161 HD
BRANCH  11  13
HETATM   13  C   UNL     1      -4.386   6.633 -29.079  1.00  0.00     0.172 C 
HETATM   14  S   UNL     1      -5.322   8.012 -29.004  1.00  0.00    -0.041 SA
BRANCH  13  15
HETATM   15  N   UNL     1      -3.044   6.712 -28.819  1.00  0.00    -0.333 N 
HETATM   16  H   UNL     1      -2.821   6.835 -27.834  1.00  0.00     0.168 HD
BRANCH  15  17
HETATM   17  C   UNL     1      -1.947   6.789 -29.708  1.00  0.00     0.035 A 
HETATM   18  C   UNL     1      -2.089   6.803 -31.096  1.00  0.00     0.047 A 
HETATM   19  C   UNL     1      -0.973   6.829 -31.943  1.00  0.00     0.041 A 
HETATM   20  C   UNL     1       0.308   6.912 -31.392  1.00  0.00     0.018 A 
HETATM   21  C   UNL     1       0.457   6.966 -30.004  1.00  0.00     0.003 A 
HETATM   22  C   UNL     1      -0.665   6.905 -29.167  1.00  0.00     0.029 A 
BRANCH  19  23
HETATM   23  C   UNL     1      -1.232   6.722 -33.400  1.00  0.00     0.293 C 
HETATM   24  O   UNL     1      -1.495   7.696 -34.092  1.00  0.00    -0.259 OA
BRANCH  23  25
HETATM   25  O   UNL     1      -1.137   5.439 -33.817  1.00  0.00    -0.323 OA
HETATM   26  C   UNL     1      -2.011   5.112 -34.899  1.00  0.00     0.213 C 
ENDBRANCH  23  25
ENDBRANCH  19  23
ENDBRANCH  15  17
ENDBRANCH  13  15
ENDBRANCH  11  13
ENDBRANCH  10  11
ENDBRANCH   4  10
BRANCH   1  27
HETATM   27  C   UNL     1      -8.014   2.094 -32.696  1.00  0.00     0.038 C 
HETATM   28  N   UNL     1      -8.935   1.100 -32.957  1.00  0.00    -0.277 N 
HETATM   29  C   UNL     1     -10.371   1.206 -33.091  1.00  0.00     0.179 C 
HETATM   30  N   UNL     1      -8.387  -0.109 -33.112  1.00  0.00    -0.172 NA
HETATM   31  C   UNL     1      -7.071   0.117 -33.174  1.00  0.00     0.092 C 
HETATM   32  C   UNL     1      -6.788   1.472 -32.868  1.00  0.00     0.061 C 
BRANCH  31  33
HETATM   33  C   UNL     1      -6.127  -0.940 -33.500  1.00  0.00     0.028 A 
HETATM   34  C   UNL     1      -5.011  -1.198 -32.682  1.00  0.00     0.080 A 
HETATM   35  C   UNL     1      -4.127  -2.227 -33.023  1.00  0.00     0.037 A 
HETATM   36  C   UNL     1      -4.335  -2.979 -34.183  1.00  0.00     0.003 A 
HETATM   37  C   UNL     1      -5.432  -2.716 -35.000  1.00  0.00     0.001 A 
HETATM   38  C   UNL     1      -6.328  -1.702 -34.659  1.00  0.00     0.017 A 
BRANCH  34  39
HETATM   39  O   UNL     1      -4.874  -0.470 -31.525  1.00  0.00    -0.355 OA
HETATM   40  C   UNL     1      -3.537  -0.064 -31.245  1.00  0.00     0.210 C 
ENDBRANCH  34  39
ENDBRANCH  31  33
ENDBRANCH   1  27
TORSDOF 10
ENDMDL
MODEL 4
REMARK VINA RESULT:      -8.9      2.777      3.425
REMARK  10 active torsions:
REMARK  status: ('A' for Active; 'I' for Inactive)
REMARK    1  A    between atoms: C_4  and  C_5 
REMARK    2  A    between atoms: C_6  and  O_7 
REMARK    3  A    between atoms: C_14  and  C_15 
REMARK    4  A    between atoms: C_18  and  C_19 
REMARK    5  A    between atoms: C_19  and  N_20 
REMARK    6  A    between atoms: N_20  and  C_21 
REMARK    7  A    between atoms: C_21  and  N_22 
REMARK    8  A    between atoms: N_22  and  C_23 
REMARK    9  A    between atoms: C_25  and  C_26 
REMARK   10  A    between atoms: C_26  and  O_27 
ROOT
HETATM    1  C   UNL     1      -7.073   3.166 -32.439  1.00  0.00     0.067 C 
HETATM    2  C   UNL     1      -6.729   4.091 -33.641  1.00  0.00     0.001 C 
HETATM    3  C   UNL     1      -5.227   3.994 -33.993  1.00  0.00     0.040 C 
HETATM    4  C   UNL     1      -4.368   4.525 -32.834  1.00  0.00     0.206 C 
HETATM    5  N   UNL     1      -5.290   4.724 -31.628  1.00  0.00    -0.065 N 
HETATM    6  H   UNL     1      -4.710   4.956 -30.808  1.00  0.00     0.280 HD
HETATM    7  C   UNL     1      -6.096   3.481 -31.284  1.00  0.00     0.246 C 
HETATM    8  C   UNL     1      -7.007   5.546 -33.198  1.00  0.00     0.033 C 
HETATM    9  C   UNL     1      -6.237   5.876 -31.914  1.00  0.00     0.236 C 
ENDROOT
BRANCH   4  10
HETATM   10  C   UNL     1      -3.110   3.701 -32.492  1.00  0.00     0.155 C 
BRANCH  10  11
HETATM   11  N   UNL     1      -1.885   4.476 -32.326  1.00  0.00    -0.365 N 
HETATM   12  H   UNL     1      -1.174   4.080 -31.720  1.00  0.00     0.161 HD
BRANCH  11  13
HETATM   13  C   UNL     1      -1.372   5.341 -33.254  1.00  0.00     0.172 C 
HETATM   14  S   UNL     1      -1.671   5.220 -34.891  1.00  0.00    -0.041 SA
BRANCH  13  15
HETATM   15  N   UNL     1      -0.683   6.420 -32.770  1.00  0.00    -0.333 N 
HETATM   16  H   UNL     1       0.138   6.665 -33.319  1.00  0.00     0.168 HD
BRANCH  15  17
HETATM   17  C   UNL     1      -0.853   7.147 -31.570  1.00  0.00     0.035 A 
HETATM   18  C   UNL     1       0.036   7.066 -30.496  1.00  0.00     0.047 A 
HETATM   19  C   UNL     1      -0.196   7.765 -29.304  1.00  0.00     0.041 A 
HETATM   20  C   UNL     1      -1.300   8.614 -29.206  1.00  0.00     0.018 A 
HETATM   21  C   UNL     1      -2.159   8.752 -30.299  1.00  0.00     0.003 A 
HETATM   22  C   UNL     1      -1.936   8.023 -31.474  1.00  0.00     0.029 A 
BRANCH  19  23
HETATM   23  C   UNL     1       0.747   7.517 -28.186  1.00  0.00     0.293 C 
HETATM   24  O   UNL     1       1.579   8.342 -27.834  1.00  0.00    -0.259 OA
BRANCH  23  25
HETATM   25  O   UNL     1       0.550   6.291 -27.647  1.00  0.00    -0.323 OA
HETATM   26  C   UNL     1      -0.349   6.281 -26.537  1.00  0.00     0.213 C 
ENDBRANCH  23  25
ENDBRANCH  19  23
ENDBRANCH  15  17
ENDBRANCH  13  15
ENDBRANCH  11  13
ENDBRANCH  10  11
ENDBRANCH   4  10
BRANCH   1  27
HETATM   27  C   UNL     1      -7.129   1.699 -32.771  1.00  0.00     0.038 C 
HETATM   28  N   UNL     1      -8.304   0.983 -32.881  1.00  0.00    -0.277 N 
HETATM   29  C   UNL     1      -9.667   1.456 -32.784  1.00  0.00     0.179 C 
HETATM   30  N   UNL     1      -8.116  -0.319 -33.120  1.00  0.00    -0.172 NA
HETATM   31  C   UNL     1      -6.812  -0.432 -33.391  1.00  0.00     0.092 C 
HETATM   32  C   UNL     1      -6.146   0.793 -33.137  1.00  0.00     0.061 C 
BRANCH  31  33
HETATM   33  C   UNL     1      -6.234  -1.681 -33.862  1.00  0.00     0.028 A 
HETATM   34  C   UNL     1      -4.863  -1.952 -33.708  1.00  0.00     0.080 A 
HETATM   35  C   UNL     1      -4.342  -3.167 -34.167  1.00  0.00     0.037 A 
HETATM   36  C   UNL     1      -5.173  -4.095 -34.800  1.00  0.00     0.003 A 
HETATM   37  C   UNL     1      -6.529  -3.821 -34.966  1.00  0.00     0.001 A 
HETATM   38  C   UNL     1      -7.060  -2.620 -34.495  1.00  0.00     0.017 A 
BRANCH  34  39
HETATM   39  O   UNL     1      -4.092  -1.036 -33.033  1.00  0.00    -0.355 OA
HETATM   40  C   UNL     1      -3.320  -1.591 -31.972  1.00  0.00     0.210 C 
ENDBRANCH  34  39
ENDBRANCH  31  33
ENDBRANCH   1  27
TORSDOF 10
ENDMDL
MODEL 5
REMARK VINA RESULT:      -8.8      3.150     10.103
REMARK  10 active torsions:
REMARK  status: ('A' for Active; 'I' for Inactive)
REMARK    1  A    between atoms: C_4  and  C_5 
REMARK    2  A    between atoms: C_6  and  O_7 
REMARK    3  A    between atoms: C_14  and  C_15 
REMARK    4  A    between atoms: C_18  and  C_19 
REMARK    5  A    between atoms: C_19  and  N_20 
REMARK    6  A    between atoms: N_20  and  C_21 
REMARK    7  A    between atoms: C_21  and  N_22 
REMARK    8  A    between atoms: N_22  and  C_23 
REMARK    9  A    between atoms: C_25  and  C_26 
REMARK   10  A    between atoms: C_26  and  O_27 
ROOT
HETATM    1  C   UNL     1      -0.659   5.902 -31.848  1.00  0.00     0.067 C 
HETATM    2  C   UNL     1      -1.280   6.980 -32.781  1.00  0.00     0.001 C 
HETATM    3  C   UNL     1      -2.776   7.190 -32.452  1.00  0.00     0.040 C 
HETATM    4  C   UNL     1      -3.577   5.912 -32.746  1.00  0.00     0.206 C 
HETATM    5  N   UNL     1      -2.572   4.789 -33.017  1.00  0.00    -0.065 N 
HETATM    6  H   UNL     1      -3.088   3.900 -33.089  1.00  0.00     0.280 HD
HETATM    7  C   UNL     1      -1.541   4.634 -31.910  1.00  0.00     0.246 C 
HETATM    8  C   UNL     1      -1.197   6.441 -34.228  1.00  0.00     0.033 C 
HETATM    9  C   UNL     1      -1.864   5.064 -34.332  1.00  0.00     0.236 C 
ENDROOT
BRANCH   4  10
HETATM   10  C   UNL     1      -4.637   5.522 -31.697  1.00  0.00     0.155 C 
BRANCH  10  11
HETATM   11  N   UNL     1      -5.573   4.484 -32.115  1.00  0.00    -0.365 N 
HETATM   12  H   UNL     1      -5.978   4.580 -33.041  1.00  0.00     0.161 HD
BRANCH  11  13
HETATM   13  C   UNL     1      -5.556   3.189 -31.673  1.00  0.00     0.172 C 
HETATM   14  S   UNL     1      -6.217   2.701 -30.221  1.00  0.00    -0.041 SA
BRANCH  13  15
HETATM   15  N   UNL     1      -5.073   2.250 -32.545  1.00  0.00    -0.333 N 
HETATM   16  H   UNL     1      -4.072   2.319 -32.714  1.00  0.00     0.168 HD
BRANCH  15  17
HETATM   17  C   UNL     1      -5.761   1.306 -33.342  1.00  0.00     0.035 A 
HETATM   18  C   UNL     1      -5.420  -0.047 -33.388  1.00  0.00     0.047 A 
HETATM   19  C   UNL     1      -6.097  -0.940 -34.229  1.00  0.00     0.041 A 
HETATM   20  C   UNL     1      -7.178  -0.488 -34.988  1.00  0.00     0.018 A 
HETATM   21  C   UNL     1      -7.569   0.851 -34.899  1.00  0.00     0.003 A 
HETATM   22  C   UNL     1      -6.864   1.742 -34.080  1.00  0.00     0.029 A 
BRANCH  19  23
HETATM   23  C   UNL     1      -5.579  -2.329 -34.289  1.00  0.00     0.293 C 
HETATM   24  O   UNL     1      -4.525  -2.659 -33.762  1.00  0.00    -0.259 OA
BRANCH  23  25
HETATM   25  O   UNL     1      -6.417  -3.131 -34.985  1.00  0.00    -0.323 OA
HETATM   26  C   UNL     1      -6.045  -4.510 -34.977  1.00  0.00     0.213 C 
ENDBRANCH  23  25
ENDBRANCH  19  23
ENDBRANCH  15  17
ENDBRANCH  13  15
ENDBRANCH  11  13
ENDBRANCH  10  11
ENDBRANCH   4  10
BRANCH   1  27
HETATM   27  C   UNL     1      -0.401   6.364 -30.439  1.00  0.00     0.038 C 
HETATM   28  N   UNL     1       0.374   5.667 -29.535  1.00  0.00    -0.277 N 
HETATM   29  C   UNL     1       1.130   4.451 -29.736  1.00  0.00     0.179 C 
HETATM   30  N   UNL     1       0.416   6.228 -28.322  1.00  0.00    -0.172 NA
HETATM   31  C   UNL     1      -0.156   7.426 -28.480  1.00  0.00     0.092 C 
HETATM   32  C   UNL     1      -0.726   7.535 -29.773  1.00  0.00     0.061 C 
BRANCH  31  33
HETATM   33  C   UNL     1      -0.162   8.418 -27.416  1.00  0.00     0.028 A 
HETATM   34  C   UNL     1      -1.256   8.538 -26.540  1.00  0.00     0.080 A 
HETATM   35  C   UNL     1      -1.225   9.499 -25.523  1.00  0.00     0.037 A 
HETATM   36  C   UNL     1      -0.127  10.352 -25.394  1.00  0.00     0.003 A 
HETATM   37  C   UNL     1       0.952  10.242 -26.269  1.00  0.00     0.001 A 
HETATM   38  C   UNL     1       0.937   9.276 -27.275  1.00  0.00     0.017 A 
BRANCH  34  39
HETATM   39  O   UNL     1      -2.292   7.645 -26.670  1.00  0.00    -0.355 OA
HETATM   40  C   UNL     1      -2.232   6.545 -25.765  1.00  0.00     0.210 C 
ENDBRANCH  34  39
ENDBRANCH  31  33
ENDBRANCH   1  27
TORSDOF 10
ENDMDL
MODEL 6
REMARK VINA RESULT:      -8.7      2.724      3.548
REMARK  10 active torsions:
REMARK  status: ('A' for Active; 'I' for Inactive)
REMARK    1  A    between atoms: C_4  and  C_5 
REMARK    2  A    between atoms: C_6  and  O_7 
REMARK    3  A    between atoms: C_14  and  C_15 
REMARK    4  A    between atoms: C_18  and  C_19 
REMARK    5  A    between atoms: C_19  and  N_20 
REMARK    6  A    between atoms: N_20  and  C_21 
REMARK    7  A    between atoms: C_21  and  N_22 
REMARK    8  A    between atoms: N_22  and  C_23 
REMARK    9  A    between atoms: C_25  and  C_26 
REMARK   10  A    between atoms: C_26  and  O_27 
ROOT
HETATM    1  C   UNL     1      -6.805   2.816 -30.907  1.00  0.00     0.067 C 
HETATM    2  C   UNL     1      -6.774   4.105 -31.776  1.00  0.00     0.001 C 
HETATM    3  C   UNL     1      -5.417   4.239 -32.505  1.00  0.00     0.040 C 
HETATM    4  C   UNL     1      -4.277   4.426 -31.491  1.00  0.00     0.206 C 
HETATM    5  N   UNL     1      -4.849   4.152 -30.097  1.00  0.00    -0.065 N 
HETATM    6  H   UNL     1      -4.072   4.146 -29.420  1.00  0.00     0.280 HD
HETATM    7  C   UNL     1      -5.555   2.809 -29.997  1.00  0.00     0.246 C 
HETATM    8  C   UNL     1      -6.905   5.311 -30.818  1.00  0.00     0.033 C 
HETATM    9  C   UNL     1      -5.821   5.261 -29.734  1.00  0.00     0.236 C 
ENDROOT
BRANCH   4  10
HETATM   10  C   UNL     1      -2.986   3.631 -31.771  1.00  0.00     0.155 C 
BRANCH  10  11
HETATM   11  N   UNL     1      -2.198   4.103 -32.905  1.00  0.00    -0.365 N 
HETATM   12  H   UNL     1      -2.538   3.858 -33.830  1.00  0.00     0.161 HD
BRANCH  11  13
HETATM   13  C   UNL     1      -1.420   5.228 -32.904  1.00  0.00     0.172 C 
HETATM   14  S   UNL     1      -1.721   6.558 -33.866  1.00  0.00    -0.041 SA
BRANCH  13  15
HETATM   15  N   UNL     1      -0.423   5.283 -31.968  1.00  0.00    -0.333 N 
HETATM   16  H   UNL     1       0.437   4.819 -32.252  1.00  0.00     0.168 HD
BRANCH  15  17
HETATM   17  C   UNL     1      -0.448   5.755 -30.635  1.00  0.00     0.035 A 
HETATM   18  C   UNL     1      -1.469   6.564 -30.132  1.00  0.00     0.047 A 
HETATM   19  C   UNL     1      -1.431   7.051 -28.819  1.00  0.00     0.041 A 
HETATM   20  C   UNL     1      -0.390   6.668 -27.971  1.00  0.00     0.018 A 
HETATM   21  C   UNL     1       0.601   5.805 -28.446  1.00  0.00     0.003 A 
HETATM   22  C   UNL     1       0.571   5.351 -29.770  1.00  0.00     0.029 A 
BRANCH  19  23
HETATM   23  C   UNL     1      -2.503   7.997 -28.422  1.00  0.00     0.293 C 
HETATM   24  O   UNL     1      -2.557   8.498 -27.307  1.00  0.00    -0.259 OA
BRANCH  23  25
HETATM   25  O   UNL     1      -3.369   8.204 -29.441  1.00  0.00    -0.323 OA
HETATM   26  C   UNL     1      -3.805   9.559 -29.569  1.00  0.00     0.213 C 
ENDBRANCH  23  25
ENDBRANCH  19  23
ENDBRANCH  15  17
ENDBRANCH  13  15
ENDBRANCH  11  13
ENDBRANCH  10  11
ENDBRANCH   4  10
BRANCH   1  27
HETATM   27  C   UNL     1      -6.967   1.537 -31.684  1.00  0.00     0.038 C 
HETATM   28  N   UNL     1      -8.162   1.123 -32.236  1.00  0.00    -0.277 N 
HETATM   29  C   UNL     1      -9.435   1.808 -32.261  1.00  0.00     0.179 C 
HETATM   30  N   UNL     1      -8.091  -0.074 -32.828  1.00  0.00    -0.172 NA
HETATM   31  C   UNL     1      -6.786  -0.361 -32.864  1.00  0.00     0.092 C 
HETATM   32  C   UNL     1      -6.050   0.592 -32.117  1.00  0.00     0.061 C 
BRANCH  31  33
HETATM   33  C   UNL     1      -6.276  -1.519 -33.580  1.00  0.00     0.028 A 
HETATM   34  C   UNL     1      -4.898  -1.795 -33.632  1.00  0.00     0.080 A 
HETATM   35  C   UNL     1      -4.444  -2.923 -34.325  1.00  0.00     0.037 A 
HETATM   36  C   UNL     1      -5.351  -3.757 -34.984  1.00  0.00     0.003 A 
HETATM   37  C   UNL     1      -6.715  -3.477 -34.945  1.00  0.00     0.001 A 
HETATM   38  C   UNL     1      -7.178  -2.364 -34.242  1.00  0.00     0.017 A 
BRANCH  34  39
HETATM   39  O   UNL     1      -4.047  -0.980 -32.926  1.00  0.00    -0.355 OA
HETATM   40  C   UNL     1      -3.200  -1.672 -32.012  1.00  0.00     0.210 C 
ENDBRANCH  34  39
ENDBRANCH  31  33
ENDBRANCH   1  27
TORSDOF 10
ENDMDL
MODEL 7
REMARK VINA RESULT:      -8.6      2.880      3.651
REMARK  10 active torsions:
REMARK  status: ('A' for Active; 'I' for Inactive)
REMARK    1  A    between atoms: C_4  and  C_5 
REMARK    2  A    between atoms: C_6  and  O_7 
REMARK    3  A    between atoms: C_14  and  C_15 
REMARK    4  A    between atoms: C_18  and  C_19 
REMARK    5  A    between atoms: C_19  and  N_20 
REMARK    6  A    between atoms: N_20  and  C_21 
REMARK    7  A    between atoms: C_21  and  N_22 
REMARK    8  A    between atoms: N_22  and  C_23 
REMARK    9  A    between atoms: C_25  and  C_26 
REMARK   10  A    between atoms: C_26  and  O_27 
ROOT
HETATM    1  C   UNL     1      -6.702   3.552 -32.207  1.00  0.00     0.067 C 
HETATM    2  C   UNL     1      -6.334   4.379 -33.471  1.00  0.00     0.001 C 
HETATM    3  C   UNL     1      -4.828   4.242 -33.795  1.00  0.00     0.040 C 
HETATM    4  C   UNL     1      -3.978   4.852 -32.670  1.00  0.00     0.206 C 
HETATM    5  N   UNL     1      -4.913   5.152 -31.494  1.00  0.00    -0.065 N 
HETATM    6  H   UNL     1      -4.341   5.440 -30.688  1.00  0.00     0.280 HD
HETATM    7  C   UNL     1      -5.735   3.946 -31.067  1.00  0.00     0.246 C 
HETATM    8  C   UNL     1      -6.602   5.867 -33.145  1.00  0.00     0.033 C 
HETATM    9  C   UNL     1      -5.844   6.287 -31.880  1.00  0.00     0.236 C 
ENDROOT
BRANCH   4  10
HETATM   10  C   UNL     1      -2.733   4.045 -32.250  1.00  0.00     0.155 C 
BRANCH  10  11
HETATM   11  N   UNL     1      -2.110   4.468 -31.000  1.00  0.00    -0.365 N 
HETATM   12  H   UNL     1      -2.140   3.809 -30.229  1.00  0.00     0.161 HD
BRANCH  11  13
HETATM   13  C   UNL     1      -1.073   5.355 -30.903  1.00  0.00     0.172 C 
HETATM   14  S   UNL     1      -0.587   6.348 -32.153  1.00  0.00    -0.041 SA
BRANCH  13  15
HETATM   15  N   UNL     1      -0.503   5.499 -29.666  1.00  0.00    -0.333 N 
HETATM   16  H   UNL     1      -0.335   4.619 -29.184  1.00  0.00     0.168 HD
BRANCH  15  17
HETATM   17  C   UNL     1      -0.246   6.666 -28.911  1.00  0.00     0.035 A 
HETATM   18  C   UNL     1      -1.102   7.769 -28.896  1.00  0.00     0.047 A 
HETATM   19  C   UNL     1      -0.785   8.927 -28.173  1.00  0.00     0.041 A 
HETATM   20  C   UNL     1       0.374   8.958 -27.395  1.00  0.00     0.018 A 
HETATM   21  C   UNL     1       1.203   7.834 -27.351  1.00  0.00     0.003 A 
HETATM   22  C   UNL     1       0.893   6.695 -28.104  1.00  0.00     0.029 A 
BRANCH  19  23
HETATM   23  C   UNL     1      -1.704  10.083 -28.320  1.00  0.00     0.293 C 
HETATM   24  O   UNL     1      -2.053  10.508 -29.413  1.00  0.00    -0.259 OA
BRANCH  23  25
HETATM   25  O   UNL     1      -2.073  10.566 -27.112  1.00  0.00    -0.323 OA
HETATM   26  C   UNL     1      -3.206   9.907 -26.542  1.00  0.00     0.213 C 
ENDBRANCH  23  25
ENDBRANCH  19  23
ENDBRANCH  15  17
ENDBRANCH  13  15
ENDBRANCH  11  13
ENDBRANCH  10  11
ENDBRANCH   4  10
BRANCH   1  27
HETATM   27  C   UNL     1      -6.769   2.065 -32.426  1.00  0.00     0.038 C 
HETATM   28  N   UNL     1      -7.833   1.280 -32.030  1.00  0.00    -0.277 N 
HETATM   29  C   UNL     1      -9.080   1.683 -31.420  1.00  0.00     0.179 C 
HETATM   30  N   UNL     1      -7.653  -0.023 -32.268  1.00  0.00    -0.172 NA
HETATM   31  C   UNL     1      -6.556  -0.084 -33.029  1.00  0.00     0.092 C 
HETATM   32  C   UNL     1      -5.942   1.190 -33.113  1.00  0.00     0.061 C 
BRANCH  31  33
HETATM   33  C   UNL     1      -6.114  -1.329 -33.637  1.00  0.00     0.028 A 
HETATM   34  C   UNL     1      -4.755  -1.694 -33.645  1.00  0.00     0.080 A 
HETATM   35  C   UNL     1      -4.367  -2.902 -34.233  1.00  0.00     0.037 A 
HETATM   36  C   UNL     1      -5.318  -3.731 -34.834  1.00  0.00     0.003 A 
HETATM   37  C   UNL     1      -6.662  -3.364 -34.839  1.00  0.00     0.001 A 
HETATM   38  C   UNL     1      -7.060  -2.169 -34.239  1.00  0.00     0.017 A 
BRANCH  34  39
HETATM   39  O   UNL     1      -3.861  -0.876 -32.997  1.00  0.00    -0.355 OA
HETATM   40  C   UNL     1      -3.181  -1.499 -31.910  1.00  0.00     0.210 C 
ENDBRANCH  34  39
ENDBRANCH  31  33
ENDBRANCH   1  27
TORSDOF 10
ENDMDL
MODEL 8
REMARK VINA RESULT:      -8.4      2.865      4.647
REMARK  10 active torsions:
REMARK  status: ('A' for Active; 'I' for Inactive)
REMARK    1  A    between atoms: C_4  and  C_5 
REMARK    2  A    between atoms: C_6  and  O_7 
REMARK    3  A    between atoms: C_14  and  C_15 
REMARK    4  A    between atoms: C_18  and  C_19 
REMARK    5  A    between atoms: C_19  and  N_20 
REMARK    6  A    between atoms: N_20  and  C_21 
REMARK    7  A    between atoms: C_21  and  N_22 
REMARK    8  A    between atoms: N_22  and  C_23 
REMARK    9  A    between atoms: C_25  and  C_26 
REMARK   10  A    between atoms: C_26  and  O_27 
ROOT
HETATM    1  C   UNL     1     -11.889   3.178 -34.162  1.00  0.00     0.067 C 
HETATM    2  C   UNL     1     -11.426   4.069 -35.350  1.00  0.00     0.001 C 
HETATM    3  C   UNL     1     -10.271   5.001 -34.917  1.00  0.00     0.040 C 
HETATM    4  C   UNL     1     -10.754   5.995 -33.849  1.00  0.00     0.206 C 
HETATM    5  N   UNL     1     -12.146   5.547 -33.395  1.00  0.00    -0.065 N 
HETATM    6  H   UNL     1     -12.429   6.125 -32.591  1.00  0.00     0.280 HD
HETATM    7  C   UNL     1     -12.188   4.093 -32.952  1.00  0.00     0.246 C 
HETATM    8  C   UNL     1     -12.621   4.968 -35.746  1.00  0.00     0.033 C 
HETATM    9  C   UNL     1     -13.129   5.756 -34.533  1.00  0.00     0.236 C 
ENDROOT
BRANCH   4  10
HETATM   10  C   UNL     1      -9.793   6.239 -32.668  1.00  0.00     0.155 C 
BRANCH  10  11
HETATM   11  N   UNL     1      -8.482   5.609 -32.792  1.00  0.00    -0.365 N 
HETATM   12  H   UNL     1      -8.443   4.735 -33.307  1.00  0.00     0.161 HD
BRANCH  11  13
HETATM   13  C   UNL     1      -7.288   6.276 -32.785  1.00  0.00     0.172 C 
HETATM   14  S   UNL     1      -6.969   7.585 -31.802  1.00  0.00    -0.041 SA
BRANCH  13  15
HETATM   15  N   UNL     1      -6.283   5.741 -33.546  1.00  0.00    -0.333 N 
HETATM   16  H   UNL     1      -6.356   5.956 -34.538  1.00  0.00     0.168 HD
BRANCH  15  17
HETATM   17  C   UNL     1      -5.255   4.837 -33.193  1.00  0.00     0.035 A 
HETATM   18  C   UNL     1      -3.977   5.246 -32.808  1.00  0.00     0.047 A 
HETATM   19  C   UNL     1      -2.971   4.316 -32.514  1.00  0.00     0.041 A 
HETATM   20  C   UNL     1      -3.266   2.951 -32.540  1.00  0.00     0.018 A 
HETATM   21  C   UNL     1      -4.561   2.534 -32.860  1.00  0.00     0.003 A 
HETATM   22  C   UNL     1      -5.549   3.472 -33.184  1.00  0.00     0.029 A 
BRANCH  19  23
HETATM   23  C   UNL     1      -1.619   4.856 -32.231  1.00  0.00     0.293 C 
HETATM   24  O   UNL     1      -0.986   4.547 -31.230  1.00  0.00    -0.259 OA
BRANCH  23  25
HETATM   25  O   UNL     1      -1.220   5.704 -33.207  1.00  0.00    -0.323 OA
HETATM   26  C   UNL     1      -0.760   6.969 -32.727  1.00  0.00     0.213 C 
ENDBRANCH  23  25
ENDBRANCH  19  23
ENDBRANCH  15  17
ENDBRANCH  13  15
ENDBRANCH  11  13
ENDBRANCH  10  11
ENDBRANCH   4  10
BRANCH   1  27
HETATM   27  C   UNL     1     -10.954   2.049 -33.823  1.00  0.00     0.038 C 
HETATM   28  N   UNL     1     -11.376   0.770 -33.521  1.00  0.00    -0.277 N 
HETATM   29  C   UNL     1     -12.718   0.231 -33.533  1.00  0.00     0.179 C 
HETATM   30  N   UNL     1     -10.380  -0.057 -33.188  1.00  0.00    -0.172 NA
HETATM   31  C   UNL     1      -9.263   0.616 -33.484  1.00  0.00     0.092 C 
HETATM   32  C   UNL     1      -9.572   1.954 -33.836  1.00  0.00     0.061 C 
BRANCH  31  33
HETATM   33  C   UNL     1      -7.952  -0.008 -33.412  1.00  0.00     0.028 A 
HETATM   34  C   UNL     1      -7.229  -0.048 -32.206  1.00  0.00     0.080 A 
HETATM   35  C   UNL     1      -5.973  -0.663 -32.173  1.00  0.00     0.037 A 
HETATM   36  C   UNL     1      -5.426  -1.212 -33.336  1.00  0.00     0.003 A 
HETATM   37  C   UNL     1      -6.135  -1.161 -34.534  1.00  0.00     0.001 A 
HETATM   38  C   UNL     1      -7.396  -0.565 -34.573  1.00  0.00     0.017 A 
BRANCH  34  39
HETATM   39  O   UNL     1      -7.826   0.456 -31.076  1.00  0.00    -0.355 OA
HETATM   40  C   UNL     1      -7.323   1.725 -30.666  1.00  0.00     0.210 C 
ENDBRANCH  34  39
ENDBRANCH  31  33
ENDBRANCH   1  27
TORSDOF 10
ENDMDL
MODEL 9
REMARK VINA RESULT:      -8.4      2.884      6.220
REMARK  10 active torsions:
REMARK  status: ('A' for Active; 'I' for Inactive)
REMARK    1  A    between atoms: C_4  and  C_5 
REMARK    2  A    between atoms: C_6  and  O_7 
REMARK    3  A    between atoms: C_14  and  C_15 
REMARK    4  A    between atoms: C_18  and  C_19 
REMARK    5  A    between atoms: C_19  and  N_20 
REMARK    6  A    between atoms: N_20  and  C_21 
REMARK    7  A    between atoms: C_21  and  N_22 
REMARK    8  A    between atoms: N_22  and  C_23 
REMARK    9  A    between atoms: C_25  and  C_26 
REMARK   10  A    between atoms: C_26  and  O_27 
ROOT
HETATM    1  C   UNL     1      -6.165   1.526 -31.543  1.00  0.00     0.067 C 
HETATM    2  C   UNL     1      -6.720   1.305 -32.979  1.00  0.00     0.001 C 
HETATM    3  C   UNL     1      -7.255   2.631 -33.568  1.00  0.00     0.040 C 
HETATM    4  C   UNL     1      -8.460   3.132 -32.757  1.00  0.00     0.206 C 
HETATM    5  N   UNL     1      -8.552   2.279 -31.489  1.00  0.00    -0.065 N 
HETATM    6  H   UNL     1      -9.273   2.684 -30.875  1.00  0.00     0.280 HD
HETATM    7  C   UNL     1      -7.250   2.239 -30.704  1.00  0.00     0.246 C 
HETATM    8  C   UNL     1      -7.918   0.333 -32.867  1.00  0.00     0.033 C 
HETATM    9  C   UNL     1      -8.954   0.866 -31.871  1.00  0.00     0.236 C 
ENDROOT
BRANCH   4  10
HETATM   10  C   UNL     1      -8.493   4.645 -32.461  1.00  0.00     0.155 C 
BRANCH  10  11
HETATM   11  N   UNL     1      -7.362   5.406 -32.980  1.00  0.00    -0.365 N 
HETATM   12  H   UNL     1      -7.185   5.338 -33.977  1.00  0.00     0.161 HD
BRANCH  11  13
HETATM   13  C   UNL     1      -6.875   6.561 -32.431  1.00  0.00     0.172 C 
HETATM   14  S   UNL     1      -7.842   7.832 -31.950  1.00  0.00    -0.041 SA
BRANCH  13  15
HETATM   15  N   UNL     1      -5.533   6.594 -32.163  1.00  0.00    -0.333 N 
HETATM   16  H   UNL     1      -4.981   5.961 -32.738  1.00  0.00     0.168 HD
BRANCH  15  17
HETATM   17  C   UNL     1      -4.825   7.257 -31.135  1.00  0.00     0.035 A 
HETATM   18  C   UNL     1      -4.908   6.889 -29.791  1.00  0.00     0.047 A 
HETATM   19  C   UNL     1      -4.229   7.604 -28.796  1.00  0.00     0.041 A 
HETATM   20  C   UNL     1      -3.396   8.665 -29.157  1.00  0.00     0.018 A 
HETATM   21  C   UNL     1      -3.254   8.999 -30.506  1.00  0.00     0.003 A 
HETATM   22  C   UNL     1      -3.964   8.299 -31.489  1.00  0.00     0.029 A 
BRANCH  19  23
HETATM   23  C   UNL     1      -4.480   7.202 -27.390  1.00  0.00     0.293 C 
HETATM   24  O   UNL     1      -5.533   7.444 -26.816  1.00  0.00    -0.259 OA
BRANCH  23  25
HETATM   25  O   UNL     1      -3.409   6.560 -26.870  1.00  0.00    -0.323 OA
HETATM   26  C   UNL     1      -2.718   7.300 -25.862  1.00  0.00     0.213 C 
ENDBRANCH  23  25
ENDBRANCH  19  23
ENDBRANCH  15  17
ENDBRANCH  13  15
ENDBRANCH  11  13
ENDBRANCH  10  11
ENDBRANCH   4  10
BRANCH   1  27
HETATM   27  C   UNL     1      -4.832   2.221 -31.484  1.00  0.00     0.038 C 
HETATM   28  N   UNL     1      -3.634   1.565 -31.283  1.00  0.00    -0.277 N 
HETATM   29  C   UNL     1      -3.387   0.146 -31.164  1.00  0.00     0.179 C 
HETATM   30  N   UNL     1      -2.582   2.386 -31.202  1.00  0.00    -0.172 NA
HETATM   31  C   UNL     1      -3.052   3.582 -31.573  1.00  0.00     0.092 C 
HETATM   32  C   UNL     1      -4.462   3.537 -31.710  1.00  0.00     0.061 C 
BRANCH  31  33
HETATM   33  C   UNL     1      -2.171   4.722 -31.771  1.00  0.00     0.028 A 
HETATM   34  C   UNL     1      -1.862   5.188 -33.062  1.00  0.00     0.080 A 
HETATM   35  C   UNL     1      -1.017   6.292 -33.214  1.00  0.00     0.037 A 
HETATM   36  C   UNL     1      -0.460   6.913 -32.093  1.00  0.00     0.003 A 
HETATM   37  C   UNL     1      -0.755   6.444 -30.815  1.00  0.00     0.001 A 
HETATM   38  C   UNL     1      -1.611   5.354 -30.653  1.00  0.00     0.017 A 
BRANCH  34  39
HETATM   39  O   UNL     1      -2.473   4.582 -34.133  1.00  0.00    -0.355 OA
HETATM   40  C   UNL     1      -3.310   5.448 -34.895  1.00  0.00     0.210 C 
ENDBRANCH  34  39
ENDBRANCH  31  33
ENDBRANCH   1  27
TORSDOF 10
ENDMDL
MODEL 10
REMARK VINA RESULT:      -8.4      4.099      6.914
REMARK  10 active torsions:
REMARK  status: ('A' for Active; 'I' for Inactive)
REMARK    1  A    between atoms: C_4  and  C_5 
REMARK    2  A    between atoms: C_6  and  O_7 
REMARK    3  A    between atoms: C_14  and  C_15 
REMARK    4  A    between atoms: C_18  and  C_19 
REMARK    5  A    between atoms: C_19  and  N_20 
REMARK    6  A    between atoms: N_20  and  C_21 
REMARK    7  A    between atoms: C_21  and  N_22 
REMARK    8  A    between atoms: N_22  and  C_23 
REMARK    9  A    between atoms: C_25  and  C_26 
REMARK   10  A    between atoms: C_26  and  O_27 
ROOT
HETATM    1  C   UNL     1      -6.407   2.672 -32.689  1.00  0.00     0.067 C 
HETATM    2  C   UNL     1      -7.253   2.780 -31.388  1.00  0.00     0.001 C 
HETATM    3  C   UNL     1      -8.369   1.710 -31.373  1.00  0.00     0.040 C 
HETATM    4  C   UNL     1      -9.370   1.959 -32.511  1.00  0.00     0.206 C 
HETATM    5  N   UNL     1      -8.772   3.031 -33.427  1.00  0.00    -0.065 N 
HETATM    6  H   UNL     1      -9.369   3.117 -34.262  1.00  0.00     0.280 HD
HETATM    7  C   UNL     1      -7.367   2.691 -33.900  1.00  0.00     0.246 C 
HETATM    8  C   UNL     1      -7.942   4.165 -31.399  1.00  0.00     0.033 C 
HETATM    9  C   UNL     1      -8.749   4.357 -32.688  1.00  0.00     0.236 C 
ENDROOT
BRANCH   4  10
HETATM   10  C   UNL     1      -9.841   0.711 -33.284  1.00  0.00     0.155 C 
BRANCH  10  11
HETATM   11  N   UNL     1     -11.239   0.346 -33.083  1.00  0.00    -0.365 N 
HETATM   12  H   UNL     1     -11.537   0.190 -32.125  1.00  0.00     0.161 HD
BRANCH  11  13
HETATM   13  C   UNL     1     -12.269   0.703 -33.909  1.00  0.00     0.172 C 
HETATM   14  S   UNL     1     -13.785   0.010 -33.846  1.00  0.00    -0.041 SA
BRANCH  13  15
HETATM   15  N   UNL     1     -12.049   1.772 -34.736  1.00  0.00    -0.333 N 
HETATM   16  H   UNL     1     -11.582   1.531 -35.607  1.00  0.00     0.168 HD
BRANCH  15  17
HETATM   17  C   UNL     1     -12.242   3.154 -34.510  1.00  0.00     0.035 A 
HETATM   18  C   UNL     1     -11.581   4.146 -35.238  1.00  0.00     0.047 A 
HETATM   19  C   UNL     1     -11.763   5.505 -34.948  1.00  0.00     0.041 A 
HETATM   20  C   UNL     1     -12.672   5.883 -33.959  1.00  0.00     0.018 A 
HETATM   21  C   UNL     1     -13.387   4.900 -33.270  1.00  0.00     0.003 A 
HETATM   22  C   UNL     1     -13.173   3.544 -33.545  1.00  0.00     0.029 A 
BRANCH  19  23
HETATM   23  C   UNL     1     -10.925   6.470 -35.702  1.00  0.00     0.293 C 
HETATM   24  O   UNL     1      -9.747   6.257 -35.957  1.00  0.00    -0.259 OA
BRANCH  23  25
HETATM   25  O   UNL     1     -11.637   7.568 -36.043  1.00  0.00    -0.323 OA
HETATM   26  C   UNL     1     -10.896   8.788 -35.974  1.00  0.00     0.213 C 
ENDBRANCH  23  25
ENDBRANCH  19  23
ENDBRANCH  15  17
ENDBRANCH  13  15
ENDBRANCH  11  13
ENDBRANCH  10  11
ENDBRANCH   4  10
BRANCH   1  27
HETATM   27  C   UNL     1      -5.450   1.512 -32.721  1.00  0.00     0.038 C 
HETATM   28  N   UNL     1      -4.128   1.598 -32.335  1.00  0.00    -0.277 N 
HETATM   29  C   UNL     1      -3.418   2.727 -31.775  1.00  0.00     0.179 C 
HETATM   30  N   UNL     1      -3.446   0.461 -32.506  1.00  0.00    -0.172 NA
HETATM   31  C   UNL     1      -4.374  -0.454 -32.803  1.00  0.00     0.092 C 
HETATM   32  C   UNL     1      -5.634   0.166 -32.997  1.00  0.00     0.061 C 
BRANCH  31  33
HETATM   33  C   UNL     1      -4.050  -1.868 -32.908  1.00  0.00     0.028 A 
HETATM   34  C   UNL     1      -4.605  -2.669 -33.921  1.00  0.00     0.080 A 
HETATM   35  C   UNL     1      -4.265  -4.024 -33.996  1.00  0.00     0.037 A 
HETATM   36  C   UNL     1      -3.400  -4.586 -33.054  1.00  0.00     0.003 A 
HETATM   37  C   UNL     1      -2.859  -3.796 -32.041  1.00  0.00     0.001 A 
HETATM   38  C   UNL     1      -3.179  -2.440 -31.970  1.00  0.00     0.017 A 
BRANCH  34  39
HETATM   39  O   UNL     1      -5.410  -2.065 -34.857  1.00  0.00    -0.355 OA
HETATM   40  C   UNL     1      -6.710  -2.641 -34.968  1.00  0.00     0.210 C 
ENDBRANCH  34  39
ENDBRANCH  31  33
ENDBRANCH   1  27
TORSDOF 10
ENDMDL
