MODEL 1
REMARK VINA RESULT:      -9.7      0.000      0.000
REMARK  5 active torsions:
REMARK  status: ('A' for Active; 'I' for Inactive)
REMARK    1  A    between atoms: C_4  and  C_5 
REMARK    2  A    between atoms: C_17  and  C_18 
REMARK    3  A    between atoms: C_18  and  N_19 
REMARK       I    between atoms: N_19  and  C_20 
REMARK    4  A    between atoms: C_20  and  C_21 
REMARK    5  A    between atoms: C_21  and  C_22 
ROOT
HETATM    1  C   UNL     1      -5.790  -3.014 -34.973  1.00  0.00     0.048 C 
HETATM    2  C   UNL     1      -6.142  -1.893 -34.040  1.00  0.00    -0.060 A 
HETATM    3  C   UNL     1      -7.340  -1.166 -34.210  1.00  0.00     0.024 A 
HETATM    4  C   UNL     1      -7.693  -0.099 -33.360  1.00  0.00     0.034 A 
HETATM    5  C   UNL     1      -6.791   0.216 -32.351  1.00  0.00     0.088 A 
HETATM    6  C   UNL     1      -5.603  -0.485 -32.182  1.00  0.00    -0.021 A 
HETATM    7  C   UNL     1      -4.800   0.129 -31.099  1.00  0.00     0.075 C 
HETATM    8  C   UNL     1      -5.856   1.058 -30.488  1.00  0.00     0.151 C 
HETATM    9  O   UNL     1      -6.914   1.260 -31.465  1.00  0.00    -0.342 OA
HETATM   10  C   UNL     1      -5.262  -1.540 -33.010  1.00  0.00     0.017 A 
ENDROOT
BRANCH   8  11
HETATM   11  C   UNL     1      -5.300   2.436 -30.104  1.00  0.00     0.155 C 
BRANCH  11  12
HETATM   12  N   UNL     1      -4.127   2.862 -30.846  1.00  0.00    -0.359 N 
HETATM   13  C   UNL     1      -4.220   3.583 -32.015  1.00  0.00     0.219 C 
HETATM   14  O   UNL     1      -5.286   3.957 -32.487  1.00  0.00    -0.274 OA
HETATM   15  H   UNL     1      -3.225   2.508 -30.552  1.00  0.00     0.162 HD
BRANCH  13  16
HETATM   16  C   UNL     1      -2.871   3.846 -32.657  1.00  0.00     0.128 C 
BRANCH  16  17
HETATM   17  C   UNL     1      -2.554   5.346 -32.742  1.00  0.00     0.094 C 
HETATM   18  N   UNL     1      -3.314   6.092 -31.750  1.00  0.00    -0.362 N 
HETATM   19  C   UNL     1      -2.895   6.330 -30.484  1.00  0.00     0.168 C 
HETATM   20  H   UNL     1      -4.291   6.288 -31.949  1.00  0.00     0.162 HD
HETATM   21  S   UNL     1      -3.919   6.947 -29.336  1.00  0.00    -0.041 SA
HETATM   22  N   UNL     1      -1.596   6.066 -30.197  1.00  0.00    -0.363 N 
HETATM   23  C   UNL     1      -0.673   5.389 -31.094  1.00  0.00     0.081 C 
HETATM   24  H   UNL     1      -1.336   6.192 -29.225  1.00  0.00     0.162 HD
HETATM   25  C   UNL     1       0.759   5.837 -30.823  1.00  0.00     0.032 C 
HETATM   26  C   UNL     1      -1.063   5.633 -32.551  1.00  0.00     0.050 C 
ENDBRANCH  16  17
ENDBRANCH  13  16
ENDBRANCH  11  12
ENDBRANCH   8  11
BRANCH   4  27
HETATM   27  C   UNL     1      -8.951   0.620 -33.609  1.00  0.00     0.112 A 
HETATM   28  S   UNL     1      -8.963   2.229 -34.221  1.00  0.00    -0.067 SA
HETATM   29  C   UNL     1     -10.681   2.260 -34.144  1.00  0.00     0.035 A 
HETATM   30  C   UNL     1     -11.131   1.045 -33.629  1.00  0.00     0.075 A 
HETATM   31  C   UNL     1     -11.567   3.287 -34.507  1.00  0.00     0.021 A 
HETATM   32  N   UNL     1     -10.141   0.132 -33.314  1.00  0.00    -0.239 NA
HETATM   33  C   UNL     1     -12.518   0.848 -33.471  1.00  0.00     0.033 A 
HETATM   34  C   UNL     1     -13.410   1.863 -33.830  1.00  0.00     0.002 A 
HETATM   35  C   UNL     1     -12.939   3.067 -34.342  1.00  0.00     0.002 A 
ENDBRANCH   4  27
TORSDOF 5
ENDMDL
MODEL 2
REMARK VINA RESULT:      -9.6      0.739      1.151
REMARK  5 active torsions:
REMARK  status: ('A' for Active; 'I' for Inactive)
REMARK    1  A    between atoms: C_4  and  C_5 
REMARK    2  A    between atoms: C_17  and  C_18 
REMARK    3  A    between atoms: C_18  and  N_19 
REMARK       I    between atoms: N_19  and  C_20 
REMARK    4  A    between atoms: C_20  and  C_21 
REMARK    5  A    between atoms: C_21  and  C_22 
ROOT
HETATM    1  C   UNL     1      -5.928  -2.918 -34.963  1.00  0.00     0.048 C 
HETATM    2  C   UNL     1      -6.237  -1.782 -34.032  1.00  0.00    -0.060 A 
HETATM    3  C   UNL     1      -7.409  -1.014 -34.200  1.00  0.00     0.024 A 
HETATM    4  C   UNL     1      -7.721   0.068 -33.353  1.00  0.00     0.034 A 
HETATM    5  C   UNL     1      -6.804   0.355 -32.349  1.00  0.00     0.088 A 
HETATM    6  C   UNL     1      -5.641  -0.387 -32.181  1.00  0.00    -0.021 A 
HETATM    7  C   UNL     1      -4.813   0.202 -31.104  1.00  0.00     0.075 C 
HETATM    8  C   UNL     1      -5.833   1.170 -30.492  1.00  0.00     0.151 C 
HETATM    9  O   UNL     1      -6.888   1.406 -31.467  1.00  0.00    -0.342 OA
HETATM   10  C   UNL     1      -5.341  -1.456 -33.007  1.00  0.00     0.017 A 
ENDROOT
BRANCH   8  11
HETATM   11  C   UNL     1      -5.228   2.529 -30.116  1.00  0.00     0.155 C 
BRANCH  11  12
HETATM   12  N   UNL     1      -4.044   2.911 -30.865  1.00  0.00    -0.359 N 
HETATM   13  C   UNL     1      -4.118   3.612 -32.048  1.00  0.00     0.219 C 
HETATM   14  O   UNL     1      -5.175   4.005 -32.527  1.00  0.00    -0.274 OA
HETATM   15  H   UNL     1      -3.151   2.540 -30.564  1.00  0.00     0.162 HD
BRANCH  13  16
HETATM   16  C   UNL     1      -2.763   3.829 -32.693  1.00  0.00     0.128 C 
BRANCH  16  17
HETATM   17  C   UNL     1      -2.371   5.313 -32.730  1.00  0.00     0.094 C 
HETATM   18  N   UNL     1      -3.198   6.089 -31.817  1.00  0.00    -0.362 N 
HETATM   19  C   UNL     1      -2.905   6.301 -30.511  1.00  0.00     0.168 C 
HETATM   20  H   UNL     1      -4.138   6.331 -32.117  1.00  0.00     0.162 HD
HETATM   21  S   UNL     1      -4.018   6.960 -29.473  1.00  0.00    -0.041 SA
HETATM   22  N   UNL     1      -1.658   5.976 -30.090  1.00  0.00    -0.363 N 
HETATM   23  C   UNL     1      -0.677   5.261 -30.890  1.00  0.00     0.081 C 
HETATM   24  H   UNL     1      -1.498   6.085 -29.094  1.00  0.00     0.162 HD
HETATM   25  C   UNL     1       0.737   5.641 -30.463  1.00  0.00     0.032 C 
HETATM   26  C   UNL     1      -0.897   5.530 -32.378  1.00  0.00     0.050 C 
ENDBRANCH  16  17
ENDBRANCH  13  16
ENDBRANCH  11  12
ENDBRANCH   8  11
BRANCH   4  27
HETATM   27  C   UNL     1      -8.954   0.831 -33.601  1.00  0.00     0.112 A 
HETATM   28  S   UNL     1     -10.488   0.262 -33.068  1.00  0.00    -0.067 SA
HETATM   29  C   UNL     1     -11.256   1.628 -33.776  1.00  0.00     0.035 A 
HETATM   30  C   UNL     1     -10.289   2.417 -34.396  1.00  0.00     0.075 A 
HETATM   31  C   UNL     1     -12.617   1.975 -33.786  1.00  0.00     0.021 A 
HETATM   32  N   UNL     1      -8.991   1.946 -34.305  1.00  0.00    -0.239 NA
HETATM   33  C   UNL     1     -10.695   3.597 -35.051  1.00  0.00     0.033 A 
HETATM   34  C   UNL     1     -12.048   3.954 -35.068  1.00  0.00     0.002 A 
HETATM   35  C   UNL     1     -12.996   3.151 -34.442  1.00  0.00     0.002 A 
ENDBRANCH   4  27
TORSDOF 5
ENDMDL
MODEL 3
REMARK VINA RESULT:      -9.4      2.375      5.697
REMARK  5 active torsions:
REMARK  status: ('A' for Active; 'I' for Inactive)
REMARK    1  A    between atoms: C_4  and  C_5 
REMARK    2  A    between atoms: C_17  and  C_18 
REMARK    3  A    between atoms: C_18  and  N_19 
REMARK       I    between atoms: N_19  and  C_20 
REMARK    4  A    between atoms: C_20  and  C_21 
REMARK    5  A    between atoms: C_21  and  C_22 
ROOT
HETATM    1  C   UNL     1     -13.849   0.070 -33.492  1.00  0.00     0.048 C 
HETATM    2  C   UNL     1     -12.615   0.900 -33.694  1.00  0.00    -0.060 A 
HETATM    3  C   UNL     1     -11.333   0.338 -33.514  1.00  0.00     0.024 A 
HETATM    4  C   UNL     1     -10.155   1.093 -33.681  1.00  0.00     0.034 A 
HETATM    5  C   UNL     1     -10.319   2.432 -34.016  1.00  0.00     0.088 A 
HETATM    6  C   UNL     1     -11.576   3.000 -34.184  1.00  0.00    -0.021 A 
HETATM    7  C   UNL     1     -11.448   4.453 -34.439  1.00  0.00     0.075 C 
HETATM    8  C   UNL     1      -9.940   4.537 -34.708  1.00  0.00     0.151 C 
HETATM    9  O   UNL     1      -9.305   3.350 -34.155  1.00  0.00    -0.342 OA
HETATM   10  C   UNL     1     -12.732   2.254 -34.030  1.00  0.00     0.017 A 
ENDROOT
BRANCH   8  11
HETATM   11  C   UNL     1      -9.279   5.766 -34.070  1.00  0.00     0.155 C 
BRANCH  11  12
HETATM   12  N   UNL     1      -7.838   5.686 -33.914  1.00  0.00    -0.359 N 
HETATM   13  C   UNL     1      -7.203   6.058 -32.750  1.00  0.00     0.219 C 
HETATM   14  O   UNL     1      -7.805   6.434 -31.751  1.00  0.00    -0.274 OA
HETATM   15  H   UNL     1      -7.283   5.466 -34.732  1.00  0.00     0.162 HD
BRANCH  13  16
HETATM   16  C   UNL     1      -5.692   5.966 -32.843  1.00  0.00     0.128 C 
BRANCH  16  17
HETATM   17  C   UNL     1      -5.238   4.815 -33.751  1.00  0.00     0.094 C 
HETATM   18  N   UNL     1      -3.998   5.154 -34.435  1.00  0.00    -0.362 N 
HETATM   19  C   UNL     1      -2.760   4.919 -33.938  1.00  0.00     0.168 C 
HETATM   20  H   UNL     1      -4.054   5.767 -35.243  1.00  0.00     0.162 HD
HETATM   21  S   UNL     1      -1.408   5.571 -34.643  1.00  0.00    -0.041 SA
HETATM   22  N   UNL     1      -2.666   4.110 -32.854  1.00  0.00    -0.363 N 
HETATM   23  C   UNL     1      -3.800   3.621 -32.088  1.00  0.00     0.081 C 
HETATM   24  H   UNL     1      -1.732   4.012 -32.470  1.00  0.00     0.162 HD
HETATM   25  C   UNL     1      -3.467   2.282 -31.437  1.00  0.00     0.032 C 
HETATM   26  C   UNL     1      -5.040   3.511 -32.973  1.00  0.00     0.050 C 
ENDBRANCH  16  17
ENDBRANCH  13  16
ENDBRANCH  11  12
ENDBRANCH   8  11
BRANCH   4  27
HETATM   27  C   UNL     1      -8.856   0.440 -33.461  1.00  0.00     0.112 A 
HETATM   28  S   UNL     1      -7.973   0.657 -31.999  1.00  0.00    -0.067 SA
HETATM   29  C   UNL     1      -6.702  -0.329 -32.605  1.00  0.00     0.035 A 
HETATM   30  C   UNL     1      -7.025  -0.738 -33.897  1.00  0.00     0.075 A 
HETATM   31  C   UNL     1      -5.500  -0.709 -31.983  1.00  0.00     0.021 A 
HETATM   32  N   UNL     1      -8.239  -0.282 -34.378  1.00  0.00    -0.239 NA
HETATM   33  C   UNL     1      -6.115  -1.558 -34.596  1.00  0.00     0.033 A 
HETATM   34  C   UNL     1      -4.917  -1.944 -33.987  1.00  0.00     0.002 A 
HETATM   35  C   UNL     1      -4.615  -1.524 -32.697  1.00  0.00     0.002 A 
ENDBRANCH   4  27
TORSDOF 5
ENDMDL
MODEL 4
REMARK VINA RESULT:      -9.1      3.384      8.032
REMARK  5 active torsions:
REMARK  status: ('A' for Active; 'I' for Inactive)
REMARK    1  A    between atoms: C_4  and  C_5 
REMARK    2  A    between atoms: C_17  and  C_18 
REMARK    3  A    between atoms: C_18  and  N_19 
REMARK       I    between atoms: N_19  and  C_20 
REMARK    4  A    between atoms: C_20  and  C_21 
REMARK    5  A    between atoms: C_21  and  C_22 
ROOT
HETATM    1  C   UNL     1      -2.504   4.322 -32.932  1.00  0.00     0.048 C 
HETATM    2  C   UNL     1      -3.713   3.527 -32.535  1.00  0.00    -0.060 A 
HETATM    3  C   UNL     1      -3.846   2.178 -32.929  1.00  0.00     0.024 A 
HETATM    4  C   UNL     1      -4.975   1.407 -32.586  1.00  0.00     0.034 A 
HETATM    5  C   UNL     1      -5.964   2.049 -31.849  1.00  0.00     0.088 A 
HETATM    6  C   UNL     1      -5.848   3.380 -31.466  1.00  0.00    -0.021 A 
HETATM    7  C   UNL     1      -7.086   3.822 -30.783  1.00  0.00     0.075 C 
HETATM    8  C   UNL     1      -7.759   2.461 -30.561  1.00  0.00     0.151 C 
HETATM    9  O   UNL     1      -7.167   1.498 -31.476  1.00  0.00    -0.342 OA
HETATM   10  C   UNL     1      -4.735   4.133 -31.795  1.00  0.00     0.017 A 
ENDROOT
BRANCH   8  11
HETATM   11  C   UNL     1      -9.272   2.486 -30.817  1.00  0.00     0.155 C 
BRANCH  11  12
HETATM   12  N   UNL     1      -9.673   2.971 -32.126  1.00  0.00    -0.359 N 
HETATM   13  C   UNL     1     -10.134   2.128 -33.112  1.00  0.00     0.219 C 
HETATM   14  O   UNL     1     -10.286   0.924 -32.945  1.00  0.00    -0.274 OA
HETATM   15  H   UNL     1      -9.488   3.941 -32.350  1.00  0.00     0.162 HD
BRANCH  13  16
HETATM   16  C   UNL     1     -10.416   2.844 -34.419  1.00  0.00     0.128 C 
BRANCH  16  17
HETATM   17  C   UNL     1     -11.827   2.550 -34.946  1.00  0.00     0.094 C 
HETATM   18  N   UNL     1     -12.772   2.412 -33.847  1.00  0.00    -0.362 N 
HETATM   19  C   UNL     1     -13.462   3.440 -33.297  1.00  0.00     0.168 C 
HETATM   20  H   UNL     1     -12.781   1.534 -33.336  1.00  0.00     0.162 HD
HETATM   21  S   UNL     1     -14.309   3.254 -31.884  1.00  0.00    -0.041 SA
HETATM   22  N   UNL     1     -13.455   4.623 -33.961  1.00  0.00    -0.363 N 
HETATM   23  C   UNL     1     -12.625   4.915 -35.118  1.00  0.00     0.081 C 
HETATM   24  H   UNL     1     -13.925   5.386 -33.485  1.00  0.00     0.162 HD
HETATM   25  C   UNL     1     -13.294   5.961 -36.003  1.00  0.00     0.032 C 
HETATM   26  C   UNL     1     -12.325   3.638 -35.902  1.00  0.00     0.050 C 
ENDBRANCH  16  17
ENDBRANCH  13  16
ENDBRANCH  11  12
ENDBRANCH   8  11
BRANCH   4  27
HETATM   27  C   UNL     1      -5.050   0.013 -33.046  1.00  0.00     0.112 A 
HETATM   28  S   UNL     1      -3.699  -1.048 -32.930  1.00  0.00    -0.067 SA
HETATM   29  C   UNL     1      -4.604  -2.303 -33.679  1.00  0.00     0.035 A 
HETATM   30  C   UNL     1      -5.873  -1.820 -33.992  1.00  0.00     0.075 A 
HETATM   31  C   UNL     1      -4.218  -3.621 -33.974  1.00  0.00     0.021 A 
HETATM   32  N   UNL     1      -6.107  -0.501 -33.645  1.00  0.00    -0.239 NA
HETATM   33  C   UNL     1      -6.791  -2.683 -34.623  1.00  0.00     0.033 A 
HETATM   34  C   UNL     1      -6.419  -3.998 -34.921  1.00  0.00     0.002 A 
HETATM   35  C   UNL     1      -5.147  -4.460 -34.599  1.00  0.00     0.002 A 
ENDBRANCH   4  27
TORSDOF 5
ENDMDL
MODEL 5
REMARK VINA RESULT:      -8.9      2.234      9.158
REMARK  5 active torsions:
REMARK  status: ('A' for Active; 'I' for Inactive)
REMARK    1  A    between atoms: C_4  and  C_5 
REMARK    2  A    between atoms: C_17  and  C_18 
REMARK    3  A    between atoms: C_18  and  N_19 
REMARK       I    between atoms: N_19  and  C_20 
REMARK    4  A    between atoms: C_20  and  C_21 
REMARK    5  A    between atoms: C_21  and  C_22 
ROOT
HETATM    1  C   UNL     1      -4.081  -0.770 -32.137  1.00  0.00     0.048 C 
HETATM    2  C   UNL     1      -4.454   0.661 -32.392  1.00  0.00    -0.060 A 
HETATM    3  C   UNL     1      -3.625   1.710 -31.941  1.00  0.00     0.024 A 
HETATM    4  C   UNL     1      -3.954   3.065 -32.152  1.00  0.00     0.034 A 
HETATM    5  C   UNL     1      -5.149   3.318 -32.814  1.00  0.00     0.088 A 
HETATM    6  C   UNL     1      -5.979   2.292 -33.252  1.00  0.00    -0.021 A 
HETATM    7  C   UNL     1      -7.221   2.854 -33.831  1.00  0.00     0.075 C 
HETATM    8  C   UNL     1      -6.810   4.328 -33.943  1.00  0.00     0.151 C 
HETATM    9  O   UNL     1      -5.682   4.562 -33.055  1.00  0.00    -0.342 OA
HETATM   10  C   UNL     1      -5.650   0.962 -33.053  1.00  0.00     0.017 A 
ENDROOT
BRANCH   8  11
HETATM   11  C   UNL     1      -7.930   5.300 -33.548  1.00  0.00     0.155 C 
BRANCH  11  12
HETATM   12  N   UNL     1      -9.274   4.753 -33.599  1.00  0.00    -0.359 N 
HETATM   13  C   UNL     1     -10.104   4.944 -34.681  1.00  0.00     0.219 C 
HETATM   14  O   UNL     1      -9.757   5.543 -35.692  1.00  0.00    -0.274 OA
HETATM   15  H   UNL     1      -9.645   4.325 -32.759  1.00  0.00     0.162 HD
BRANCH  13  16
HETATM   16  C   UNL     1     -11.486   4.352 -34.479  1.00  0.00     0.128 C 
BRANCH  16  17
HETATM   17  C   UNL     1     -11.659   3.021 -35.223  1.00  0.00     0.094 C 
HETATM   18  N   UNL     1     -10.742   2.016 -34.705  1.00  0.00    -0.362 N 
HETATM   19  C   UNL     1     -11.019   1.188 -33.670  1.00  0.00     0.168 C 
HETATM   20  H   UNL     1      -9.772   2.057 -35.006  1.00  0.00     0.162 HD
HETATM   21  S   UNL     1      -9.838   0.262 -32.964  1.00  0.00    -0.041 SA
HETATM   22  N   UNL     1     -12.306   1.125 -33.248  1.00  0.00    -0.363 N 
HETATM   23  C   UNL     1     -13.369   2.005 -33.706  1.00  0.00     0.081 C 
HETATM   24  H   UNL     1     -12.463   0.547 -32.429  1.00  0.00     0.162 HD
HETATM   25  C   UNL     1     -14.719   1.302 -33.616  1.00  0.00     0.032 C 
HETATM   26  C   UNL     1     -13.091   2.488 -35.129  1.00  0.00     0.050 C 
ENDBRANCH  16  17
ENDBRANCH  13  16
ENDBRANCH  11  12
ENDBRANCH   8  11
BRANCH   4  27
HETATM   27  C   UNL     1      -3.048   4.103 -31.640  1.00  0.00     0.112 A 
HETATM   28  S   UNL     1      -3.640   5.478 -30.790  1.00  0.00    -0.067 SA
HETATM   29  C   UNL     1      -2.041   6.095 -30.647  1.00  0.00     0.035 A 
HETATM   30  C   UNL     1      -1.162   5.220 -31.282  1.00  0.00     0.075 A 
HETATM   31  C   UNL     1      -1.597   7.272 -30.022  1.00  0.00     0.021 A 
HETATM   32  N   UNL     1      -1.746   4.105 -31.856  1.00  0.00    -0.239 NA
HETATM   33  C   UNL     1       0.213   5.532 -31.295  1.00  0.00     0.033 A 
HETATM   34  C   UNL     1       0.667   6.701 -30.675  1.00  0.00     0.002 A 
HETATM   35  C   UNL     1      -0.228   7.559 -30.047  1.00  0.00     0.002 A 
ENDBRANCH   4  27
TORSDOF 5
ENDMDL
MODEL 6
REMARK VINA RESULT:      -8.8      2.676      7.458
REMARK  5 active torsions:
REMARK  status: ('A' for Active; 'I' for Inactive)
REMARK    1  A    between atoms: C_4  and  C_5 
REMARK    2  A    between atoms: C_17  and  C_18 
REMARK    3  A    between atoms: C_18  and  N_19 
REMARK       I    between atoms: N_19  and  C_20 
REMARK    4  A    between atoms: C_20  and  C_21 
REMARK    5  A    between atoms: C_21  and  C_22 
ROOT
HETATM    1  C   UNL     1      -1.434   5.490 -32.958  1.00  0.00     0.048 C 
HETATM    2  C   UNL     1      -2.622   4.816 -32.336  1.00  0.00    -0.060 A 
HETATM    3  C   UNL     1      -3.031   3.537 -32.772  1.00  0.00     0.024 A 
HETATM    4  C   UNL     1      -4.151   2.883 -32.219  1.00  0.00     0.034 A 
HETATM    5  C   UNL     1      -4.846   3.569 -31.231  1.00  0.00     0.088 A 
HETATM    6  C   UNL     1      -4.459   4.834 -30.803  1.00  0.00    -0.021 A 
HETATM    7  C   UNL     1      -5.434   5.358 -29.819  1.00  0.00     0.075 C 
HETATM    8  C   UNL     1      -6.225   4.077 -29.530  1.00  0.00     0.151 C 
HETATM    9  O   UNL     1      -5.998   3.138 -30.618  1.00  0.00    -0.342 OA
HETATM   10  C   UNL     1      -3.353   5.471 -31.339  1.00  0.00     0.017 A 
ENDROOT
BRANCH   8  11
HETATM   11  C   UNL     1      -7.738   4.312 -29.418  1.00  0.00     0.155 C 
BRANCH  11  12
HETATM   12  N   UNL     1      -8.398   4.706 -30.650  1.00  0.00    -0.359 N 
HETATM   13  C   UNL     1      -9.542   4.086 -31.101  1.00  0.00     0.219 C 
HETATM   14  O   UNL     1     -10.110   3.197 -30.479  1.00  0.00    -0.274 OA
HETATM   15  H   UNL     1      -7.927   5.374 -31.248  1.00  0.00     0.162 HD
BRANCH  13  16
HETATM   16  C   UNL     1     -10.007   4.609 -32.446  1.00  0.00     0.128 C 
BRANCH  16  17
HETATM   17  C   UNL     1      -9.408   3.814 -33.614  1.00  0.00     0.094 C 
HETATM   18  N   UNL     1      -9.225   2.417 -33.249  1.00  0.00    -0.362 N 
HETATM   19  C   UNL     1     -10.166   1.455 -33.403  1.00  0.00     0.168 C 
HETATM   20  H   UNL     1      -8.421   2.178 -32.675  1.00  0.00     0.162 HD
HETATM   21  S   UNL     1      -9.987  -0.046 -32.721  1.00  0.00    -0.041 SA
HETATM   22  N   UNL     1     -11.250   1.758 -34.159  1.00  0.00    -0.363 N 
HETATM   23  C   UNL     1     -11.558   3.085 -34.666  1.00  0.00     0.081 C 
HETATM   24  H   UNL     1     -11.964   1.038 -34.195  1.00  0.00     0.162 HD
HETATM   25  C   UNL     1     -12.363   2.989 -35.958  1.00  0.00     0.032 C 
HETATM   26  C   UNL     1     -10.277   3.893 -34.873  1.00  0.00     0.050 C 
ENDBRANCH  16  17
ENDBRANCH  13  16
ENDBRANCH  11  12
ENDBRANCH   8  11
BRANCH   4  27
HETATM   27  C   UNL     1      -4.525   1.558 -32.735  1.00  0.00     0.112 A 
HETATM   28  S   UNL     1      -3.497   0.191 -32.540  1.00  0.00    -0.067 SA
HETATM   29  C   UNL     1      -4.610  -0.788 -33.412  1.00  0.00     0.035 A 
HETATM   30  C   UNL     1      -5.683   0.003 -33.818  1.00  0.00     0.075 A 
HETATM   31  C   UNL     1      -4.536  -2.156 -33.720  1.00  0.00     0.021 A 
HETATM   32  N   UNL     1      -5.615   1.333 -33.444  1.00  0.00    -0.239 NA
HETATM   33  C   UNL     1      -6.723  -0.595 -34.559  1.00  0.00     0.033 A 
HETATM   34  C   UNL     1      -6.661  -1.957 -34.871  1.00  0.00     0.002 A 
HETATM   35  C   UNL     1      -5.580  -2.726 -34.456  1.00  0.00     0.002 A 
ENDBRANCH   4  27
TORSDOF 5
ENDMDL
MODEL 7
REMARK VINA RESULT:      -8.7      2.952      5.486
REMARK  5 active torsions:
REMARK  status: ('A' for Active; 'I' for Inactive)
REMARK    1  A    between atoms: C_4  and  C_5 
REMARK    2  A    between atoms: C_17  and  C_18 
REMARK    3  A    between atoms: C_18  and  N_19 
REMARK       I    between atoms: N_19  and  C_20 
REMARK    4  A    between atoms: C_20  and  C_21 
REMARK    5  A    between atoms: C_21  and  C_22 
ROOT
HETATM    1  C   UNL     1      -9.720   3.375 -30.436  1.00  0.00     0.048 C 
HETATM    2  C   UNL     1      -8.558   3.343 -31.385  1.00  0.00    -0.060 A 
HETATM    3  C   UNL     1      -7.999   2.113 -31.794  1.00  0.00     0.024 A 
HETATM    4  C   UNL     1      -6.898   2.048 -32.672  1.00  0.00     0.034 A 
HETATM    5  C   UNL     1      -6.376   3.262 -33.104  1.00  0.00     0.088 A 
HETATM    6  C   UNL     1      -6.911   4.479 -32.698  1.00  0.00    -0.021 A 
HETATM    7  C   UNL     1      -6.098   5.595 -33.233  1.00  0.00     0.075 C 
HETATM    8  C   UNL     1      -5.241   4.829 -34.249  1.00  0.00     0.151 C 
HETATM    9  O   UNL     1      -5.268   3.417 -33.903  1.00  0.00    -0.342 OA
HETATM   10  C   UNL     1      -7.998   4.541 -31.844  1.00  0.00     0.017 A 
ENDROOT
BRANCH   8  11
HETATM   11  C   UNL     1      -3.775   5.282 -34.267  1.00  0.00     0.155 C 
BRANCH  11  12
HETATM   12  N   UNL     1      -3.398   6.211 -33.217  1.00  0.00    -0.359 N 
HETATM   13  C   UNL     1      -2.236   6.948 -33.271  1.00  0.00     0.219 C 
HETATM   14  O   UNL     1      -1.465   6.912 -34.221  1.00  0.00    -0.274 OA
HETATM   15  H   UNL     1      -3.951   6.219 -32.369  1.00  0.00     0.162 HD
BRANCH  13  16
HETATM   16  C   UNL     1      -2.010   7.789 -32.029  1.00  0.00     0.128 C 
BRANCH  16  17
HETATM   17  C   UNL     1      -2.414   7.047 -30.747  1.00  0.00     0.094 C 
HETATM   18  N   UNL     1      -1.501   5.945 -30.479  1.00  0.00    -0.362 N 
HETATM   19  C   UNL     1      -0.359   6.054 -29.758  1.00  0.00     0.168 C 
HETATM   20  H   UNL     1      -1.622   5.088 -31.012  1.00  0.00     0.162 HD
HETATM   21  S   UNL     1       0.760   4.831 -29.722  1.00  0.00    -0.041 SA
HETATM   22  N   UNL     1      -0.177   7.194 -29.047  1.00  0.00    -0.363 N 
HETATM   23  C   UNL     1      -1.027   8.369 -29.139  1.00  0.00     0.081 C 
HETATM   24  H   UNL     1       0.719   7.268 -28.576  1.00  0.00     0.162 HD
HETATM   25  C   UNL     1      -1.010   9.144 -27.825  1.00  0.00     0.032 C 
HETATM   26  C   UNL     1      -2.450   7.975 -29.530  1.00  0.00     0.050 C 
ENDBRANCH  16  17
ENDBRANCH  13  16
ENDBRANCH  11  12
ENDBRANCH   8  11
BRANCH   4  27
HETATM   27  C   UNL     1      -6.361   0.730 -33.042  1.00  0.00     0.112 A 
HETATM   28  S   UNL     1      -4.813   0.205 -32.505  1.00  0.00    -0.067 SA
HETATM   29  C   UNL     1      -4.993  -1.265 -33.380  1.00  0.00     0.035 A 
HETATM   30  C   UNL     1      -6.217  -1.245 -34.046  1.00  0.00     0.075 A 
HETATM   31  C   UNL     1      -4.113  -2.355 -33.474  1.00  0.00     0.021 A 
HETATM   32  N   UNL     1      -6.975  -0.102 -33.861  1.00  0.00    -0.239 NA
HETATM   33  C   UNL     1      -6.576  -2.356 -34.837  1.00  0.00     0.033 A 
HETATM   34  C   UNL     1      -5.709  -3.448 -34.938  1.00  0.00     0.002 A 
HETATM   35  C   UNL     1      -4.492  -3.446 -34.264  1.00  0.00     0.002 A 
ENDBRANCH   4  27
TORSDOF 5
ENDMDL
MODEL 8
REMARK VINA RESULT:      -8.5      2.759      6.068
REMARK  5 active torsions:
REMARK  status: ('A' for Active; 'I' for Inactive)
REMARK    1  A    between atoms: C_4  and  C_5 
REMARK    2  A    between atoms: C_17  and  C_18 
REMARK    3  A    between atoms: C_18  and  N_19 
REMARK       I    between atoms: N_19  and  C_20 
REMARK    4  A    between atoms: C_20  and  C_21 
REMARK    5  A    between atoms: C_21  and  C_22 
ROOT
HETATM    1  C   UNL     1     -14.051  -0.008 -33.608  1.00  0.00     0.048 C 
HETATM    2  C   UNL     1     -12.846   0.855 -33.844  1.00  0.00    -0.060 A 
HETATM    3  C   UNL     1     -11.554   0.386 -33.525  1.00  0.00     0.024 A 
HETATM    4  C   UNL     1     -10.403   1.176 -33.721  1.00  0.00     0.034 A 
HETATM    5  C   UNL     1     -10.606   2.453 -34.231  1.00  0.00     0.088 A 
HETATM    6  C   UNL     1     -11.876   2.929 -34.537  1.00  0.00    -0.021 A 
HETATM    7  C   UNL     1     -11.798   4.345 -34.965  1.00  0.00     0.075 C 
HETATM    8  C   UNL     1     -10.282   4.474 -35.161  1.00  0.00     0.151 C 
HETATM    9  O   UNL     1      -9.629   3.399 -34.429  1.00  0.00    -0.342 OA
HETATM   10  C   UNL     1     -13.004   2.149 -34.354  1.00  0.00     0.017 A 
ENDROOT
BRANCH   8  11
HETATM   11  C   UNL     1      -9.717   5.805 -34.646  1.00  0.00     0.155 C 
BRANCH  11  12
HETATM   12  N   UNL     1      -8.642   5.691 -33.677  1.00  0.00    -0.359 N 
HETATM   13  C   UNL     1      -8.451   6.620 -32.679  1.00  0.00     0.219 C 
HETATM   14  O   UNL     1      -9.196   7.578 -32.506  1.00  0.00    -0.274 OA
HETATM   15  H   UNL     1      -7.945   4.971 -33.823  1.00  0.00     0.162 HD
BRANCH  13  16
HETATM   16  C   UNL     1      -7.221   6.341 -31.837  1.00  0.00     0.128 C 
BRANCH  16  17
HETATM   17  C   UNL     1      -7.367   5.056 -31.010  1.00  0.00     0.094 C 
HETATM   18  N   UNL     1      -6.348   4.084 -31.382  1.00  0.00    -0.362 N 
HETATM   19  C   UNL     1      -5.119   4.010 -30.818  1.00  0.00     0.168 C 
HETATM   20  H   UNL     1      -6.490   3.550 -32.235  1.00  0.00     0.162 HD
HETATM   21  S   UNL     1      -3.925   3.063 -31.472  1.00  0.00    -0.041 SA
HETATM   22  N   UNL     1      -4.908   4.722 -29.684  1.00  0.00    -0.363 N 
HETATM   23  C   UNL     1      -5.843   5.688 -29.130  1.00  0.00     0.081 C 
HETATM   24  H   UNL     1      -3.958   4.696 -29.330  1.00  0.00     0.162 HD
HETATM   25  C   UNL     1      -5.676   5.784 -27.617  1.00  0.00     0.032 C 
HETATM   26  C   UNL     1      -7.278   5.324 -29.505  1.00  0.00     0.050 C 
ENDBRANCH  16  17
ENDBRANCH  13  16
ENDBRANCH  11  12
ENDBRANCH   8  11
BRANCH   4  27
HETATM   27  C   UNL     1      -9.092   0.624 -33.351  1.00  0.00     0.112 A 
HETATM   28  S   UNL     1      -8.431   0.847 -31.778  1.00  0.00    -0.067 SA
HETATM   29  C   UNL     1      -7.009  -0.002 -32.240  1.00  0.00     0.035 A 
HETATM   30  C   UNL     1      -7.122  -0.378 -33.577  1.00  0.00     0.075 A 
HETATM   31  C   UNL     1      -5.871  -0.309 -31.475  1.00  0.00     0.021 A 
HETATM   32  N   UNL     1      -8.299  -0.002 -34.201  1.00  0.00    -0.239 NA
HETATM   33  C   UNL     1      -6.060  -1.087 -34.174  1.00  0.00     0.033 A 
HETATM   34  C   UNL     1      -4.922  -1.399 -33.423  1.00  0.00     0.002 A 
HETATM   35  C   UNL     1      -4.831  -1.014 -32.090  1.00  0.00     0.002 A 
ENDBRANCH   4  27
TORSDOF 5
ENDMDL
MODEL 9
REMARK VINA RESULT:      -8.5      2.770      7.254
REMARK  5 active torsions:
REMARK  status: ('A' for Active; 'I' for Inactive)
REMARK    1  A    between atoms: C_4  and  C_5 
REMARK    2  A    between atoms: C_17  and  C_18 
REMARK    3  A    between atoms: C_18  and  N_19 
REMARK       I    between atoms: N_19  and  C_20 
REMARK    4  A    between atoms: C_20  and  C_21 
REMARK    5  A    between atoms: C_21  and  C_22 
ROOT
HETATM    1  C   UNL     1      -0.814   5.385 -32.474  1.00  0.00     0.048 C 
HETATM    2  C   UNL     1      -2.311   5.371 -32.365  1.00  0.00    -0.060 A 
HETATM    3  C   UNL     1      -3.043   4.206 -32.675  1.00  0.00     0.024 A 
HETATM    4  C   UNL     1      -4.450   4.164 -32.597  1.00  0.00     0.034 A 
HETATM    5  C   UNL     1      -5.085   5.339 -32.215  1.00  0.00     0.088 A 
HETATM    6  C   UNL     1      -4.375   6.497 -31.919  1.00  0.00    -0.021 A 
HETATM    7  C   UNL     1      -5.310   7.611 -31.641  1.00  0.00     0.075 C 
HETATM    8  C   UNL     1      -6.620   6.823 -31.508  1.00  0.00     0.151 C 
HETATM    9  O   UNL     1      -6.445   5.527 -32.146  1.00  0.00    -0.342 OA
HETATM   10  C   UNL     1      -2.993   6.533 -31.986  1.00  0.00     0.017 A 
ENDROOT
BRANCH   8  11
HETATM   11  C   UNL     1      -7.815   7.518 -32.173  1.00  0.00     0.155 C 
BRANCH  11  12
HETATM   12  N   UNL     1      -8.559   6.706 -33.119  1.00  0.00    -0.359 N 
HETATM   13  C   UNL     1      -9.715   6.046 -32.769  1.00  0.00     0.219 C 
HETATM   14  O   UNL     1     -10.224   6.131 -31.659  1.00  0.00    -0.274 OA
HETATM   15  H   UNL     1      -8.141   6.529 -34.024  1.00  0.00     0.162 HD
BRANCH  13  16
HETATM   16  C   UNL     1     -10.275   5.196 -33.895  1.00  0.00     0.128 C 
BRANCH  16  17
HETATM   17  C   UNL     1      -9.448   3.924 -34.125  1.00  0.00     0.094 C 
HETATM   18  N   UNL     1      -8.683   3.582 -32.934  1.00  0.00    -0.362 N 
HETATM   19  C   UNL     1      -9.142   2.802 -31.927  1.00  0.00     0.168 C 
HETATM   20  H   UNL     1      -7.829   4.102 -32.752  1.00  0.00     0.162 HD
HETATM   21  S   UNL     1      -8.325   2.677 -30.489  1.00  0.00    -0.041 SA
HETATM   22  N   UNL     1     -10.285   2.105 -32.147  1.00  0.00    -0.363 N 
HETATM   23  C   UNL     1     -11.139   2.269 -33.311  1.00  0.00     0.081 C 
HETATM   24  H   UNL     1     -10.634   1.587 -31.348  1.00  0.00     0.162 HD
HETATM   25  C   UNL     1     -11.884   0.973 -33.613  1.00  0.00     0.032 C 
HETATM   26  C   UNL     1     -10.323   2.730 -34.518  1.00  0.00     0.050 C 
ENDBRANCH  16  17
ENDBRANCH  13  16
ENDBRANCH  11  12
ENDBRANCH   8  11
BRANCH   4  27
HETATM   27  C   UNL     1      -5.144   2.917 -32.949  1.00  0.00     0.112 A 
HETATM   28  S   UNL     1      -4.959   1.486 -32.011  1.00  0.00    -0.067 SA
HETATM   29  C   UNL     1      -5.983   0.627 -33.093  1.00  0.00     0.035 A 
HETATM   30  C   UNL     1      -6.378   1.486 -34.117  1.00  0.00     0.075 A 
HETATM   31  C   UNL     1      -6.402  -0.712 -33.044  1.00  0.00     0.021 A 
HETATM   32  N   UNL     1      -5.882   2.775 -34.034  1.00  0.00    -0.239 NA
HETATM   33  C   UNL     1      -7.223   0.990 -35.130  1.00  0.00     0.033 A 
HETATM   34  C   UNL     1      -7.649  -0.342 -35.091  1.00  0.00     0.002 A 
HETATM   35  C   UNL     1      -7.242  -1.181 -34.059  1.00  0.00     0.002 A 
ENDBRANCH   4  27
TORSDOF 5
ENDMDL
MODEL 10
REMARK VINA RESULT:      -8.5      2.316      5.561
REMARK  5 active torsions:
REMARK  status: ('A' for Active; 'I' for Inactive)
REMARK    1  A    between atoms: C_4  and  C_5 
REMARK    2  A    between atoms: C_17  and  C_18 
REMARK    3  A    between atoms: C_18  and  N_19 
REMARK       I    between atoms: N_19  and  C_20 
REMARK    4  A    between atoms: C_20  and  C_21 
REMARK    5  A    between atoms: C_21  and  C_22 
ROOT
HETATM    1  C   UNL     1     -13.722  -0.080 -33.644  1.00  0.00     0.048 C 
HETATM    2  C   UNL     1     -12.553   0.845 -33.820  1.00  0.00    -0.060 A 
HETATM    3  C   UNL     1     -11.233   0.372 -33.661  1.00  0.00     0.024 A 
HETATM    4  C   UNL     1     -10.114   1.217 -33.805  1.00  0.00     0.034 A 
HETATM    5  C   UNL     1     -10.377   2.551 -34.096  1.00  0.00     0.088 A 
HETATM    6  C   UNL     1     -11.674   3.030 -34.243  1.00  0.00    -0.021 A 
HETATM    7  C   UNL     1     -11.654   4.496 -34.450  1.00  0.00     0.075 C 
HETATM    8  C   UNL     1     -10.157   4.700 -34.719  1.00  0.00     0.151 C 
HETATM    9  O   UNL     1      -9.435   3.546 -34.207  1.00  0.00    -0.342 OA
HETATM   10  C   UNL     1     -12.771   2.196 -34.111  1.00  0.00     0.017 A 
ENDROOT
BRANCH   8  11
HETATM   11  C   UNL     1      -9.586   5.952 -34.042  1.00  0.00     0.155 C 
BRANCH  11  12
HETATM   12  N   UNL     1      -8.140   5.987 -33.917  1.00  0.00    -0.359 N 
HETATM   13  C   UNL     1      -7.510   6.110 -32.699  1.00  0.00     0.219 C 
HETATM   14  O   UNL     1      -8.115   6.151 -31.635  1.00  0.00    -0.274 OA
HETATM   15  H   UNL     1      -7.591   6.045 -34.767  1.00  0.00     0.162 HD
BRANCH  13  16
HETATM   16  C   UNL     1      -6.001   6.206 -32.819  1.00  0.00     0.128 C 
BRANCH  16  17
HETATM   17  C   UNL     1      -5.317   6.310 -31.449  1.00  0.00     0.094 C 
HETATM   18  N   UNL     1      -5.691   5.190 -30.598  1.00  0.00    -0.362 N 
HETATM   19  C   UNL     1      -5.033   4.006 -30.557  1.00  0.00     0.168 C 
HETATM   20  H   UNL     1      -6.600   5.219 -30.145  1.00  0.00     0.162 HD
HETATM   21  S   UNL     1      -5.668   2.691 -29.772  1.00  0.00    -0.041 SA
HETATM   22  N   UNL     1      -3.821   3.945 -31.163  1.00  0.00    -0.363 N 
HETATM   23  C   UNL     1      -3.260   4.996 -31.996  1.00  0.00     0.081 C 
HETATM   24  H   UNL     1      -3.390   3.027 -31.171  1.00  0.00     0.162 HD
HETATM   25  C   UNL     1      -1.736   4.958 -31.948  1.00  0.00     0.032 C 
HETATM   26  C   UNL     1      -3.792   6.363 -31.567  1.00  0.00     0.050 C 
ENDBRANCH  16  17
ENDBRANCH  13  16
ENDBRANCH  11  12
ENDBRANCH   8  11
BRANCH   4  27
HETATM   27  C   UNL     1      -8.770   0.655 -33.610  1.00  0.00     0.112 A 
HETATM   28  S   UNL     1      -7.844   0.053 -34.930  1.00  0.00    -0.067 SA
HETATM   29  C   UNL     1      -6.581  -0.401 -33.855  1.00  0.00     0.035 A 
HETATM   30  C   UNL     1      -6.962  -0.085 -32.553  1.00  0.00     0.075 A 
HETATM   31  C   UNL     1      -5.343  -0.999 -34.143  1.00  0.00     0.021 A 
HETATM   32  N   UNL     1      -8.211   0.497 -32.425  1.00  0.00    -0.239 NA
HETATM   33  C   UNL     1      -6.075  -0.376 -31.497  1.00  0.00     0.033 A 
HETATM   34  C   UNL     1      -4.839  -0.970 -31.771  1.00  0.00     0.002 A 
HETATM   35  C   UNL     1      -4.479  -1.277 -33.078  1.00  0.00     0.002 A 
ENDBRANCH   4  27
TORSDOF 5
ENDMDL
