MODEL 1
REMARK VINA RESULT:      -7.6      0.000      0.000
REMARK  5 active torsions:
REMARK  status: ('A' for Active; 'I' for Inactive)
REMARK    1  A    between atoms: S_2  and  C_3 
REMARK    2  A    between atoms: C_3  and  C_4 
REMARK    3  A    between atoms: C_7  and  C_8 
REMARK       I    between atoms: C_8  and  N_9 
REMARK    4  A    between atoms: N_9  and  C_10 
REMARK    5  A    between atoms: C_12  and  C_13 
ROOT
HETATM    1  C   UNL     1      -5.193   2.310 -31.933  1.00  0.00     0.256 C 
HETATM    2  N   UNL     1      -5.012   1.773 -33.197  1.00  0.00    -0.323 N 
HETATM    3  O   UNL     1      -5.996   1.920 -31.093  1.00  0.00    -0.267 OA
HETATM    4  H   UNL     1      -4.290   2.170 -33.779  1.00  0.00     0.169 HD
ENDROOT
BRANCH   2   5
HETATM    5  C   UNL     1      -5.791   0.770 -33.817  1.00  0.00     0.035 A 
HETATM    6  C   UNL     1      -5.390  -0.564 -33.943  1.00  0.00     0.042 A 
HETATM    7  C   UNL     1      -6.239  -1.532 -34.508  1.00  0.00    -0.021 A 
HETATM    8  C   UNL     1      -7.496  -1.131 -34.976  1.00  0.00     0.012 A 
HETATM    9  C   UNL     1      -7.901   0.200 -34.869  1.00  0.00     0.003 A 
HETATM   10  C   UNL     1      -7.056   1.142 -34.284  1.00  0.00     0.029 A 
BRANCH   7  11
HETATM   11  C   UNL     1      -5.817  -2.925 -34.562  1.00  0.00     0.010 A 
HETATM   12  C   UNL     1      -6.507  -4.082 -35.004  1.00  0.00     0.152 A 
HETATM   13  N   UNL     1      -5.771  -5.193 -34.911  1.00  0.00    -0.187 NA
HETATM   14  N   UNL     1      -4.612  -4.759 -34.397  1.00  0.00    -0.289 N 
HETATM   15  H   UNL     1      -3.878  -5.438 -34.226  1.00  0.00     0.188 HD
HETATM   16  C   UNL     1      -4.586  -3.413 -34.172  1.00  0.00     0.123 A 
ENDBRANCH   7  11
ENDBRANCH   2   5
BRANCH   1  17
HETATM   17  C   UNL     1      -4.352   3.501 -31.596  1.00  0.00     0.032 A 
HETATM   18  C   UNL     1      -4.848   4.642 -30.953  1.00  0.00     0.017 A 
HETATM   19  C   UNL     1      -3.981   5.683 -30.602  1.00  0.00     0.009 A 
HETATM   20  C   UNL     1      -2.612   5.610 -30.901  1.00  0.00    -0.049 A 
HETATM   21  C   UNL     1      -2.130   4.489 -31.587  1.00  0.00     0.009 A 
HETATM   22  C   UNL     1      -2.991   3.446 -31.931  1.00  0.00     0.017 A 
BRANCH  20  23
HETATM   23  C   UNL     1      -1.669   6.707 -30.474  1.00  0.00     0.112 C 
BRANCH  23  24
HETATM   24  S   UNL     1       0.084   6.288 -30.738  1.00  0.00    -0.169 SA
HETATM   25  C   UNL     1       0.490   5.629 -29.101  1.00  0.00     0.090 C 
ENDBRANCH  23  24
ENDBRANCH  20  23
ENDBRANCH   1  17
TORSDOF 5
ENDMDL
MODEL 2
REMARK VINA RESULT:      -7.5     16.067     17.356
REMARK  5 active torsions:
REMARK  status: ('A' for Active; 'I' for Inactive)
REMARK    1  A    between atoms: S_2  and  C_3 
REMARK    2  A    between atoms: C_3  and  C_4 
REMARK    3  A    between atoms: C_7  and  C_8 
REMARK       I    between atoms: C_8  and  N_9 
REMARK    4  A    between atoms: N_9  and  C_10 
REMARK    5  A    between atoms: C_12  and  C_13 
ROOT
HETATM    1  C   UNL     1      -6.990 -13.907 -34.467  1.00  0.00     0.256 C 
HETATM    2  N   UNL     1      -6.740 -14.449 -35.716  1.00  0.00    -0.323 N 
HETATM    3  O   UNL     1      -7.503 -12.816 -34.244  1.00  0.00    -0.267 OA
HETATM    4  H   UNL     1      -6.342 -15.375 -35.757  1.00  0.00     0.169 HD
ENDROOT
BRANCH   2   5
HETATM    5  C   UNL     1      -6.899 -13.814 -36.969  1.00  0.00     0.035 A 
HETATM    6  C   UNL     1      -8.096 -13.803 -37.692  1.00  0.00     0.042 A 
HETATM    7  C   UNL     1      -8.212 -13.095 -38.901  1.00  0.00    -0.021 A 
HETATM    8  C   UNL     1      -7.090 -12.417 -39.392  1.00  0.00     0.012 A 
HETATM    9  C   UNL     1      -5.886 -12.434 -38.688  1.00  0.00     0.003 A 
HETATM   10  C   UNL     1      -5.795 -13.122 -37.477  1.00  0.00     0.029 A 
BRANCH   7  11
HETATM   11  C   UNL     1      -9.493 -13.046 -39.594  1.00  0.00     0.010 A 
HETATM   12  C   UNL     1     -10.417 -14.076 -39.898  1.00  0.00     0.152 A 
HETATM   13  N   UNL     1     -11.500 -13.629 -40.541  1.00  0.00    -0.187 NA
HETATM   14  N   UNL     1     -11.271 -12.314 -40.663  1.00  0.00    -0.289 N 
HETATM   15  H   UNL     1     -11.968 -11.747 -41.134  1.00  0.00     0.188 HD
HETATM   16  C   UNL     1     -10.087 -11.914 -40.113  1.00  0.00     0.123 A 
ENDBRANCH   7  11
ENDBRANCH   2   5
BRANCH   1  17
HETATM   17  C   UNL     1      -6.548 -14.723 -33.292  1.00  0.00     0.032 A 
HETATM   18  C   UNL     1      -5.630 -14.271 -32.336  1.00  0.00     0.017 A 
HETATM   19  C   UNL     1      -5.327 -15.064 -31.224  1.00  0.00     0.009 A 
HETATM   20  C   UNL     1      -5.918 -16.325 -31.057  1.00  0.00    -0.049 A 
HETATM   21  C   UNL     1      -6.799 -16.793 -32.040  1.00  0.00     0.009 A 
HETATM   22  C   UNL     1      -7.110 -15.999 -33.146  1.00  0.00     0.017 A 
BRANCH  20  23
HETATM   23  C   UNL     1      -5.633 -17.155 -29.831  1.00  0.00     0.112 C 
BRANCH  23  24
HETATM   24  S   UNL     1      -6.950 -18.357 -29.457  1.00  0.00    -0.169 SA
HETATM   25  C   UNL     1      -7.945 -17.373 -28.307  1.00  0.00     0.090 C 
ENDBRANCH  23  24
ENDBRANCH  20  23
ENDBRANCH   1  17
TORSDOF 5
ENDMDL
MODEL 3
REMARK VINA RESULT:      -7.5      4.727      7.070
REMARK  5 active torsions:
REMARK  status: ('A' for Active; 'I' for Inactive)
REMARK    1  A    between atoms: S_2  and  C_3 
REMARK    2  A    between atoms: C_3  and  C_4 
REMARK    3  A    between atoms: C_7  and  C_8 
REMARK       I    between atoms: C_8  and  N_9 
REMARK    4  A    between atoms: N_9  and  C_10 
REMARK    5  A    between atoms: C_12  and  C_13 
ROOT
HETATM    1  C   UNL     1      -8.596   0.893 -32.456  1.00  0.00     0.256 C 
HETATM    2  N   UNL     1      -7.602   0.854 -33.420  1.00  0.00    -0.323 N 
HETATM    3  O   UNL     1      -8.552   0.358 -31.354  1.00  0.00    -0.267 OA
HETATM    4  H   UNL     1      -7.754   1.369 -34.274  1.00  0.00     0.169 HD
ENDROOT
BRANCH   2   5
HETATM    5  C   UNL     1      -6.411   0.093 -33.387  1.00  0.00     0.035 A 
HETATM    6  C   UNL     1      -6.338  -1.259 -33.739  1.00  0.00     0.042 A 
HETATM    7  C   UNL     1      -5.112  -1.945 -33.753  1.00  0.00    -0.021 A 
HETATM    8  C   UNL     1      -3.952  -1.255 -33.377  1.00  0.00     0.012 A 
HETATM    9  C   UNL     1      -4.015   0.090 -33.009  1.00  0.00     0.003 A 
HETATM   10  C   UNL     1      -5.237   0.761 -33.023  1.00  0.00     0.029 A 
BRANCH   7  11
HETATM   11  C   UNL     1      -5.061  -3.333 -34.191  1.00  0.00     0.010 A 
HETATM   12  C   UNL     1      -5.995  -4.104 -34.926  1.00  0.00     0.152 A 
HETATM   13  N   UNL     1      -5.578  -5.353 -35.149  1.00  0.00    -0.187 NA
HETATM   14  N   UNL     1      -4.381  -5.395 -34.548  1.00  0.00    -0.289 N 
HETATM   15  H   UNL     1      -3.859  -6.264 -34.577  1.00  0.00     0.188 HD
HETATM   16  C   UNL     1      -4.023  -4.215 -33.962  1.00  0.00     0.123 A 
ENDBRANCH   7  11
ENDBRANCH   2   5
BRANCH   1  17
HETATM   17  C   UNL     1      -9.848   1.626 -32.827  1.00  0.00     0.032 A 
HETATM   18  C   UNL     1     -10.766   1.157 -33.774  1.00  0.00     0.017 A 
HETATM   19  C   UNL     1     -11.952   1.862 -34.009  1.00  0.00     0.009 A 
HETATM   20  C   UNL     1     -12.231   3.051 -33.319  1.00  0.00    -0.049 A 
HETATM   21  C   UNL     1     -11.287   3.540 -32.409  1.00  0.00     0.009 A 
HETATM   22  C   UNL     1     -10.107   2.834 -32.166  1.00  0.00     0.017 A 
BRANCH  20  23
HETATM   23  C   UNL     1     -13.534   3.780 -33.533  1.00  0.00     0.112 C 
BRANCH  23  24
HETATM   24  S   UNL     1     -14.597   3.798 -32.053  1.00  0.00    -0.169 SA
HETATM   25  C   UNL     1     -15.259   2.114 -32.131  1.00  0.00     0.090 C 
ENDBRANCH  23  24
ENDBRANCH  20  23
ENDBRANCH   1  17
TORSDOF 5
ENDMDL
MODEL 4
REMARK VINA RESULT:      -7.4      3.821      8.958
REMARK  5 active torsions:
REMARK  status: ('A' for Active; 'I' for Inactive)
REMARK    1  A    between atoms: S_2  and  C_3 
REMARK    2  A    between atoms: C_3  and  C_4 
REMARK    3  A    between atoms: C_7  and  C_8 
REMARK       I    between atoms: C_8  and  N_9 
REMARK    4  A    between atoms: N_9  and  C_10 
REMARK    5  A    between atoms: C_12  and  C_13 
ROOT
HETATM    1  C   UNL     1      -4.701   3.204 -32.740  1.00  0.00     0.256 C 
HETATM    2  N   UNL     1      -3.434   3.433 -33.250  1.00  0.00    -0.323 N 
HETATM    3  O   UNL     1      -5.316   3.943 -31.979  1.00  0.00    -0.267 OA
HETATM    4  H   UNL     1      -3.056   2.756 -33.895  1.00  0.00     0.169 HD
ENDROOT
BRANCH   2   5
HETATM    5  C   UNL     1      -2.552   4.481 -32.902  1.00  0.00     0.035 A 
HETATM    6  C   UNL     1      -1.963   4.620 -31.640  1.00  0.00     0.042 A 
HETATM    7  C   UNL     1      -1.039   5.645 -31.375  1.00  0.00    -0.021 A 
HETATM    8  C   UNL     1      -0.732   6.554 -32.395  1.00  0.00     0.012 A 
HETATM    9  C   UNL     1      -1.324   6.434 -33.653  1.00  0.00     0.003 A 
HETATM   10  C   UNL     1      -2.222   5.397 -33.906  1.00  0.00     0.029 A 
BRANCH   7  11
HETATM   11  C   UNL     1      -0.393   5.720 -30.071  1.00  0.00     0.010 A 
HETATM   12  C   UNL     1      -0.642   6.570 -28.965  1.00  0.00     0.152 A 
HETATM   13  N   UNL     1       0.161   6.322 -27.927  1.00  0.00    -0.187 NA
HETATM   14  N   UNL     1       0.939   5.322 -28.365  1.00  0.00    -0.289 N 
HETATM   15  H   UNL     1       1.649   4.957 -27.740  1.00  0.00     0.188 HD
HETATM   16  C   UNL     1       0.649   4.924 -29.638  1.00  0.00     0.123 A 
ENDBRANCH   7  11
ENDBRANCH   2   5
BRANCH   1  17
HETATM   17  C   UNL     1      -5.345   1.910 -33.130  1.00  0.00     0.032 A 
HETATM   18  C   UNL     1      -6.497   1.826 -33.921  1.00  0.00     0.017 A 
HETATM   19  C   UNL     1      -6.994   0.576 -34.307  1.00  0.00     0.009 A 
HETATM   20  C   UNL     1      -6.362  -0.607 -33.896  1.00  0.00    -0.049 A 
HETATM   21  C   UNL     1      -5.239  -0.519 -33.065  1.00  0.00     0.009 A 
HETATM   22  C   UNL     1      -4.736   0.727 -32.686  1.00  0.00     0.017 A 
BRANCH  20  23
HETATM   23  C   UNL     1      -6.866  -1.952 -34.357  1.00  0.00     0.112 C 
BRANCH  23  24
HETATM   24  S   UNL     1      -5.527  -3.128 -34.732  1.00  0.00    -0.169 SA
HETATM   25  C   UNL     1      -6.512  -4.559 -35.244  1.00  0.00     0.090 C 
ENDBRANCH  23  24
ENDBRANCH  20  23
ENDBRANCH   1  17
TORSDOF 5
ENDMDL
MODEL 5
REMARK VINA RESULT:      -7.2      4.373      7.123
REMARK  5 active torsions:
REMARK  status: ('A' for Active; 'I' for Inactive)
REMARK    1  A    between atoms: S_2  and  C_3 
REMARK    2  A    between atoms: C_3  and  C_4 
REMARK    3  A    between atoms: C_7  and  C_8 
REMARK       I    between atoms: C_8  and  N_9 
REMARK    4  A    between atoms: N_9  and  C_10 
REMARK    5  A    between atoms: C_12  and  C_13 
ROOT
HETATM    1  C   UNL     1       0.264   5.878 -29.587  1.00  0.00     0.256 C 
HETATM    2  N   UNL     1      -0.624   6.386 -30.520  1.00  0.00    -0.323 N 
HETATM    3  O   UNL     1       0.803   4.778 -29.630  1.00  0.00    -0.267 OA
HETATM    4  H   UNL     1      -0.969   7.324 -30.380  1.00  0.00     0.169 HD
ENDROOT
BRANCH   2   5
HETATM    5  C   UNL     1      -1.187   5.703 -31.622  1.00  0.00     0.035 A 
HETATM    6  C   UNL     1      -2.081   4.634 -31.505  1.00  0.00     0.042 A 
HETATM    7  C   UNL     1      -2.661   4.039 -32.639  1.00  0.00    -0.021 A 
HETATM    8  C   UNL     1      -2.304   4.519 -33.906  1.00  0.00     0.012 A 
HETATM    9  C   UNL     1      -1.401   5.574 -34.035  1.00  0.00     0.003 A 
HETATM   10  C   UNL     1      -0.853   6.169 -32.899  1.00  0.00     0.029 A 
BRANCH   7  11
HETATM   11  C   UNL     1      -3.642   2.974 -32.479  1.00  0.00     0.010 A 
HETATM   12  C   UNL     1      -3.504   1.663 -31.960  1.00  0.00     0.152 A 
HETATM   13  N   UNL     1      -4.651   0.978 -31.964  1.00  0.00    -0.187 NA
HETATM   14  N   UNL     1      -5.527   1.840 -32.498  1.00  0.00    -0.289 N 
HETATM   15  H   UNL     1      -6.489   1.538 -32.612  1.00  0.00     0.188 HD
HETATM   16  C   UNL     1      -4.977   3.047 -32.822  1.00  0.00     0.123 A 
ENDBRANCH   7  11
ENDBRANCH   2   5
BRANCH   1  17
HETATM   17  C   UNL     1       0.549   6.750 -28.404  1.00  0.00     0.032 A 
HETATM   18  C   UNL     1       0.276   6.375 -27.083  1.00  0.00     0.017 A 
HETATM   19  C   UNL     1       0.643   7.214 -26.025  1.00  0.00     0.009 A 
HETATM   20  C   UNL     1       1.270   8.445 -26.268  1.00  0.00    -0.049 A 
HETATM   21  C   UNL     1       1.497   8.837 -27.592  1.00  0.00     0.009 A 
HETATM   22  C   UNL     1       1.140   7.997 -28.649  1.00  0.00     0.017 A 
BRANCH  20  23
HETATM   23  C   UNL     1       1.715   9.323 -25.125  1.00  0.00     0.112 C 
BRANCH  23  24
HETATM   24  S   UNL     1       0.341  10.219 -24.333  1.00  0.00    -0.169 SA
HETATM   25  C   UNL     1       0.869  10.120 -22.603  1.00  0.00     0.090 C 
ENDBRANCH  23  24
ENDBRANCH  20  23
ENDBRANCH   1  17
TORSDOF 5
ENDMDL
MODEL 6
REMARK VINA RESULT:      -7.2      1.412      1.453
REMARK  5 active torsions:
REMARK  status: ('A' for Active; 'I' for Inactive)
REMARK    1  A    between atoms: S_2  and  C_3 
REMARK    2  A    between atoms: C_3  and  C_4 
REMARK    3  A    between atoms: C_7  and  C_8 
REMARK       I    between atoms: C_8  and  N_9 
REMARK    4  A    between atoms: N_9  and  C_10 
REMARK    5  A    between atoms: C_12  and  C_13 
ROOT
HETATM    1  C   UNL     1      -5.129   3.396 -33.537  1.00  0.00     0.256 C 
HETATM    2  N   UNL     1      -5.246   2.158 -32.927  1.00  0.00    -0.323 N 
HETATM    3  O   UNL     1      -5.844   3.827 -34.436  1.00  0.00    -0.267 OA
HETATM    4  H   UNL     1      -4.611   1.942 -32.174  1.00  0.00     0.169 HD
ENDROOT
BRANCH   2   5
HETATM    5  C   UNL     1      -6.111   1.103 -33.298  1.00  0.00     0.035 A 
HETATM    6  C   UNL     1      -5.671  -0.166 -33.691  1.00  0.00     0.042 A 
HETATM    7  C   UNL     1      -6.580  -1.197 -33.982  1.00  0.00    -0.021 A 
HETATM    8  C   UNL     1      -7.952  -0.925 -33.900  1.00  0.00     0.012 A 
HETATM    9  C   UNL     1      -8.402   0.341 -33.523  1.00  0.00     0.003 A 
HETATM   10  C   UNL     1      -7.486   1.346 -33.215  1.00  0.00     0.029 A 
BRANCH   7  11
HETATM   11  C   UNL     1      -6.089  -2.525 -34.321  1.00  0.00     0.010 A 
HETATM   12  C   UNL     1      -6.778  -3.675 -34.780  1.00  0.00     0.152 A 
HETATM   13  N   UNL     1      -5.968  -4.715 -34.999  1.00  0.00    -0.187 NA
HETATM   14  N   UNL     1      -4.757  -4.242 -34.671  1.00  0.00    -0.289 N 
HETATM   15  H   UNL     1      -3.961  -4.864 -34.751  1.00  0.00     0.188 HD
HETATM   16  C   UNL     1      -4.773  -2.940 -34.261  1.00  0.00     0.123 A 
ENDBRANCH   7  11
ENDBRANCH   2   5
BRANCH   1  17
HETATM   17  C   UNL     1      -3.996   4.256 -33.072  1.00  0.00     0.032 A 
HETATM   18  C   UNL     1      -3.873   5.614 -33.391  1.00  0.00     0.017 A 
HETATM   19  C   UNL     1      -2.825   6.369 -32.854  1.00  0.00     0.009 A 
HETATM   20  C   UNL     1      -1.875   5.780 -32.006  1.00  0.00    -0.049 A 
HETATM   21  C   UNL     1      -1.975   4.412 -31.728  1.00  0.00     0.009 A 
HETATM   22  C   UNL     1      -3.025   3.658 -32.256  1.00  0.00     0.017 A 
BRANCH  20  23
HETATM   23  C   UNL     1      -0.778   6.607 -31.383  1.00  0.00     0.112 C 
BRANCH  23  24
HETATM   24  S   UNL     1       0.578   5.600 -30.701  1.00  0.00    -0.169 SA
HETATM   25  C   UNL     1       0.271   5.833 -28.931  1.00  0.00     0.090 C 
ENDBRANCH  23  24
ENDBRANCH  20  23
ENDBRANCH   1  17
TORSDOF 5
ENDMDL
MODEL 7
REMARK VINA RESULT:      -7.1     16.050     17.780
REMARK  5 active torsions:
REMARK  status: ('A' for Active; 'I' for Inactive)
REMARK    1  A    between atoms: S_2  and  C_3 
REMARK    2  A    between atoms: C_3  and  C_4 
REMARK    3  A    between atoms: C_7  and  C_8 
REMARK       I    between atoms: C_8  and  N_9 
REMARK    4  A    between atoms: N_9  and  C_10 
REMARK    5  A    between atoms: C_12  and  C_13 
ROOT
HETATM    1  C   UNL     1      -3.804 -12.625 -38.802  1.00  0.00     0.256 C 
HETATM    2  N   UNL     1      -3.142 -13.779 -39.185  1.00  0.00    -0.323 N 
HETATM    3  O   UNL     1      -3.311 -11.677 -38.201  1.00  0.00    -0.267 OA
HETATM    4  H   UNL     1      -3.661 -14.470 -39.706  1.00  0.00     0.169 HD
ENDROOT
BRANCH   2   5
HETATM    5  C   UNL     1      -1.821 -14.156 -38.850  1.00  0.00     0.035 A 
HETATM    6  C   UNL     1      -1.430 -14.588 -37.578  1.00  0.00     0.042 A 
HETATM    7  C   UNL     1      -0.116 -15.015 -37.324  1.00  0.00    -0.021 A 
HETATM    8  C   UNL     1       0.817 -14.974 -38.368  1.00  0.00     0.012 A 
HETATM    9  C   UNL     1       0.443 -14.530 -39.636  1.00  0.00     0.003 A 
HETATM   10  C   UNL     1      -0.872 -14.132 -39.877  1.00  0.00     0.029 A 
BRANCH   7  11
HETATM   11  C   UNL     1       0.240 -15.525 -36.007  1.00  0.00     0.010 A 
HETATM   12  C   UNL     1       1.321 -16.343 -35.595  1.00  0.00     0.152 A 
HETATM   13  N   UNL     1       1.318 -16.588 -34.282  1.00  0.00    -0.187 NA
HETATM   14  N   UNL     1       0.229 -15.940 -33.846  1.00  0.00    -0.289 N 
HETATM   15  H   UNL     1       0.007 -15.984 -32.857  1.00  0.00     0.188 HD
HETATM   16  C   UNL     1      -0.449 -15.287 -34.835  1.00  0.00     0.123 A 
ENDBRANCH   7  11
ENDBRANCH   2   5
BRANCH   1  17
HETATM   17  C   UNL     1      -5.265 -12.564 -39.125  1.00  0.00     0.032 A 
HETATM   18  C   UNL     1      -6.276 -12.718 -38.169  1.00  0.00     0.017 A 
HETATM   19  C   UNL     1      -7.618 -12.571 -38.536  1.00  0.00     0.009 A 
HETATM   20  C   UNL     1      -7.973 -12.286 -39.862  1.00  0.00    -0.049 A 
HETATM   21  C   UNL     1      -6.961 -12.181 -40.824  1.00  0.00     0.009 A 
HETATM   22  C   UNL     1      -5.621 -12.319 -40.459  1.00  0.00     0.017 A 
BRANCH  20  23
HETATM   23  C   UNL     1      -9.416 -12.073 -40.247  1.00  0.00     0.112 C 
BRANCH  23  24
HETATM   24  S   UNL     1     -10.470 -13.518 -39.902  1.00  0.00    -0.169 SA
HETATM   25  C   UNL     1      -9.586 -14.777 -40.857  1.00  0.00     0.090 C 
ENDBRANCH  23  24
ENDBRANCH  20  23
ENDBRANCH   1  17
TORSDOF 5
ENDMDL
MODEL 8
REMARK VINA RESULT:      -6.7      4.515      9.005
REMARK  5 active torsions:
REMARK  status: ('A' for Active; 'I' for Inactive)
REMARK    1  A    between atoms: S_2  and  C_3 
REMARK    2  A    between atoms: C_3  and  C_4 
REMARK    3  A    between atoms: C_7  and  C_8 
REMARK       I    between atoms: C_8  and  N_9 
REMARK    4  A    between atoms: N_9  and  C_10 
REMARK    5  A    between atoms: C_12  and  C_13 
ROOT
HETATM    1  C   UNL     1      -4.933   2.272 -32.643  1.00  0.00     0.256 C 
HETATM    2  N   UNL     1      -4.732   3.642 -32.662  1.00  0.00    -0.323 N 
HETATM    3  O   UNL     1      -4.060   1.417 -32.530  1.00  0.00    -0.267 OA
HETATM    4  H   UNL     1      -5.545   4.236 -32.727  1.00  0.00     0.169 HD
ENDROOT
BRANCH   2   5
HETATM    5  C   UNL     1      -3.493   4.322 -32.689  1.00  0.00     0.035 A 
HETATM    6  C   UNL     1      -2.770   4.674 -31.545  1.00  0.00     0.042 A 
HETATM    7  C   UNL     1      -1.509   5.288 -31.638  1.00  0.00    -0.021 A 
HETATM    8  C   UNL     1      -0.994   5.575 -32.908  1.00  0.00     0.012 A 
HETATM    9  C   UNL     1      -1.713   5.243 -34.056  1.00  0.00     0.003 A 
HETATM   10  C   UNL     1      -2.952   4.611 -33.946  1.00  0.00     0.029 A 
BRANCH   7  11
HETATM   11  C   UNL     1      -0.752   5.578 -30.428  1.00  0.00     0.010 A 
HETATM   12  C   UNL     1       0.402   4.956 -29.890  1.00  0.00     0.152 A 
HETATM   13  N   UNL     1       0.819   5.524 -28.755  1.00  0.00    -0.187 NA
HETATM   14  N   UNL     1      -0.073   6.505 -28.551  1.00  0.00    -0.289 N 
HETATM   15  H   UNL     1       0.034   7.086 -27.727  1.00  0.00     0.188 HD
HETATM   16  C   UNL     1      -1.030   6.582 -29.522  1.00  0.00     0.123 A 
ENDBRANCH   7  11
ENDBRANCH   2   5
BRANCH   1  17
HETATM   17  C   UNL     1      -6.345   1.809 -32.819  1.00  0.00     0.032 A 
HETATM   18  C   UNL     1      -6.961   1.659 -34.067  1.00  0.00     0.017 A 
HETATM   19  C   UNL     1      -8.260   1.146 -34.153  1.00  0.00     0.009 A 
HETATM   20  C   UNL     1      -8.971   0.793 -32.996  1.00  0.00    -0.049 A 
HETATM   21  C   UNL     1      -8.369   0.991 -31.748  1.00  0.00     0.009 A 
HETATM   22  C   UNL     1      -7.070   1.493 -31.661  1.00  0.00     0.017 A 
BRANCH  20  23
HETATM   23  C   UNL     1     -10.350   0.190 -33.092  1.00  0.00     0.112 C 
BRANCH  23  24
HETATM   24  S   UNL     1     -11.573   1.312 -33.844  1.00  0.00    -0.169 SA
HETATM   25  C   UNL     1     -13.061   0.292 -33.683  1.00  0.00     0.090 C 
ENDBRANCH  23  24
ENDBRANCH  20  23
ENDBRANCH   1  17
TORSDOF 5
ENDMDL
MODEL 9
REMARK VINA RESULT:      -6.7      3.343      4.725
REMARK  5 active torsions:
REMARK  status: ('A' for Active; 'I' for Inactive)
REMARK    1  A    between atoms: S_2  and  C_3 
REMARK    2  A    between atoms: C_3  and  C_4 
REMARK    3  A    between atoms: C_7  and  C_8 
REMARK       I    between atoms: C_8  and  N_9 
REMARK    4  A    between atoms: N_9  and  C_10 
REMARK    5  A    between atoms: C_12  and  C_13 
ROOT
HETATM    1  C   UNL     1      -5.097   4.137 -33.682  1.00  0.00     0.256 C 
HETATM    2  N   UNL     1      -5.649   3.031 -33.060  1.00  0.00    -0.323 N 
HETATM    3  O   UNL     1      -5.503   4.662 -34.713  1.00  0.00    -0.267 OA
HETATM    4  H   UNL     1      -5.235   2.720 -32.194  1.00  0.00     0.169 HD
ENDROOT
BRANCH   2   5
HETATM    5  C   UNL     1      -6.694   2.211 -33.547  1.00  0.00     0.035 A 
HETATM    6  C   UNL     1      -8.044   2.399 -33.233  1.00  0.00     0.042 A 
HETATM    7  C   UNL     1      -9.045   1.593 -33.803  1.00  0.00    -0.021 A 
HETATM    8  C   UNL     1      -8.665   0.569 -34.679  1.00  0.00     0.012 A 
HETATM    9  C   UNL     1      -7.320   0.363 -34.987  1.00  0.00     0.003 A 
HETATM   10  C   UNL     1      -6.341   1.186 -34.431  1.00  0.00     0.029 A 
BRANCH   7  11
HETATM   11  C   UNL     1     -10.446   1.859 -33.509  1.00  0.00     0.010 A 
HETATM   12  C   UNL     1     -11.624   1.217 -33.967  1.00  0.00     0.152 A 
HETATM   13  N   UNL     1     -12.738   1.746 -33.454  1.00  0.00    -0.187 NA
HETATM   14  N   UNL     1     -12.284   2.738 -32.676  1.00  0.00    -0.289 N 
HETATM   15  H   UNL     1     -12.960   3.302 -32.173  1.00  0.00     0.188 HD
HETATM   16  C   UNL     1     -10.923   2.848 -32.672  1.00  0.00     0.123 A 
ENDBRANCH   7  11
ENDBRANCH   2   5
BRANCH   1  17
HETATM   17  C   UNL     1      -3.867   4.707 -33.046  1.00  0.00     0.032 A 
HETATM   18  C   UNL     1      -2.974   3.953 -32.276  1.00  0.00     0.017 A 
HETATM   19  C   UNL     1      -1.805   4.540 -31.779  1.00  0.00     0.009 A 
HETATM   20  C   UNL     1      -1.519   5.891 -32.027  1.00  0.00    -0.049 A 
HETATM   21  C   UNL     1      -2.439   6.654 -32.757  1.00  0.00     0.009 A 
HETATM   22  C   UNL     1      -3.601   6.067 -33.261  1.00  0.00     0.017 A 
BRANCH  20  23
HETATM   23  C   UNL     1      -0.233   6.510 -31.539  1.00  0.00     0.112 C 
BRANCH  23  24
HETATM   24  S   UNL     1       0.258   5.931 -29.883  1.00  0.00    -0.169 SA
HETATM   25  C   UNL     1       0.496   7.526 -29.059  1.00  0.00     0.090 C 
ENDBRANCH  23  24
ENDBRANCH  20  23
ENDBRANCH   1  17
TORSDOF 5
ENDMDL
MODEL 10
REMARK VINA RESULT:      -6.7     16.152     17.208
REMARK  5 active torsions:
REMARK  status: ('A' for Active; 'I' for Inactive)
REMARK    1  A    between atoms: S_2  and  C_3 
REMARK    2  A    between atoms: C_3  and  C_4 
REMARK    3  A    between atoms: C_7  and  C_8 
REMARK       I    between atoms: C_8  and  N_9 
REMARK    4  A    between atoms: N_9  and  C_10 
REMARK    5  A    between atoms: C_12  and  C_13 
ROOT
HETATM    1  C   UNL     1      -6.647 -15.218 -35.715  1.00  0.00     0.256 C 
HETATM    2  N   UNL     1      -6.330 -13.965 -36.213  1.00  0.00    -0.323 N 
HETATM    3  O   UNL     1      -7.157 -16.137 -36.346  1.00  0.00    -0.267 OA
HETATM    4  H   UNL     1      -5.881 -13.310 -35.591  1.00  0.00     0.169 HD
ENDROOT
BRANCH   2   5
HETATM    5  C   UNL     1      -6.645 -13.452 -37.492  1.00  0.00     0.035 A 
HETATM    6  C   UNL     1      -7.922 -13.500 -38.060  1.00  0.00     0.042 A 
HETATM    7  C   UNL     1      -8.190 -12.911 -39.308  1.00  0.00    -0.021 A 
HETATM    8  C   UNL     1      -7.139 -12.291 -39.996  1.00  0.00     0.012 A 
HETATM    9  C   UNL     1      -5.858 -12.250 -39.447  1.00  0.00     0.003 A 
HETATM   10  C   UNL     1      -5.615 -12.819 -38.197  1.00  0.00     0.029 A 
BRANCH   7  11
HETATM   11  C   UNL     1      -9.546 -12.919 -39.840  1.00  0.00     0.010 A 
HETATM   12  C   UNL     1     -10.445 -13.992 -40.058  1.00  0.00     0.152 A 
HETATM   13  N   UNL     1     -11.620 -13.593 -40.553  1.00  0.00    -0.187 NA
HETATM   14  N   UNL     1     -11.477 -12.265 -40.667  1.00  0.00    -0.289 N 
HETATM   15  H   UNL     1     -12.255 -11.728 -41.035  1.00  0.00     0.188 HD
HETATM   16  C   UNL     1     -10.258 -11.811 -40.253  1.00  0.00     0.123 A 
ENDBRANCH   7  11
ENDBRANCH   2   5
BRANCH   1  17
HETATM   17  C   UNL     1      -6.373 -15.437 -34.259  1.00  0.00     0.032 A 
HETATM   18  C   UNL     1      -6.608 -16.651 -33.602  1.00  0.00     0.017 A 
HETATM   19  C   UNL     1      -6.253 -16.801 -32.257  1.00  0.00     0.009 A 
HETATM   20  C   UNL     1      -5.676 -15.740 -31.543  1.00  0.00    -0.049 A 
HETATM   21  C   UNL     1      -5.488 -14.513 -32.191  1.00  0.00     0.009 A 
HETATM   22  C   UNL     1      -5.833 -14.364 -33.536  1.00  0.00     0.017 A 
BRANCH  20  23
HETATM   23  C   UNL     1      -5.243 -15.919 -30.109  1.00  0.00     0.112 C 
BRANCH  23  24
HETATM   24  S   UNL     1      -3.779 -16.987 -29.931  1.00  0.00    -0.169 SA
HETATM   25  C   UNL     1      -2.499 -15.853 -30.528  1.00  0.00     0.090 C 
ENDBRANCH  23  24
ENDBRANCH  20  23
ENDBRANCH   1  17
TORSDOF 5
ENDMDL
