MODEL 1
REMARK VINA RESULT:     -10.5      0.000      0.000
REMARK  8 active torsions:
REMARK  status: ('A' for Active; 'I' for Inactive)
REMARK    1  A    between atoms: C_4  and  C_5 
REMARK    2  A    between atoms: C_5  and  N_6 
REMARK    3  A    between atoms: N_10  and  C_11 
REMARK    4  A    between atoms: C_13  and  N_14 
REMARK    5  A    between atoms: N_17  and  C_19 
REMARK    6  A    between atoms: C_19  and  C_20 
REMARK    7  A    between atoms: C_29  and  N_30 
REMARK    8  A    between atoms: C_31  and  N_32 
ROOT
HETATM    1  C   UNL     1      -1.960   5.575 -32.083  1.00  0.00     0.181 A 
HETATM    2  N   UNL     1      -2.686   4.613 -31.464  1.00  0.00    -0.042 NA
HETATM    3  C   UNL     1      -3.652   3.940 -32.110  1.00  0.00     0.728 A 
HETATM    4  N   UNL     1      -3.996   4.202 -33.371  1.00  0.00    -0.048 NA
HETATM    5  C   UNL     1      -3.312   5.158 -34.018  1.00  0.00     0.157 A 
HETATM    6  C   UNL     1      -2.302   5.871 -33.391  1.00  0.00     0.189 A 
ENDROOT
BRANCH   1   7
HETATM    7  N   UNL     1      -0.958   6.130 -31.304  1.00  0.00    -0.360 N 
HETATM    8  C   UNL     1       0.340   5.538 -30.919  1.00  0.00     0.152 C 
HETATM    9  C   UNL     1       0.386   5.247 -29.397  1.00  0.00     0.255 C 
HETATM   10  N   UNL     1       0.055   6.522 -28.613  1.00  0.00    -0.064 N 
HETATM   11  H   UNL     1       0.780   7.202 -28.872  1.00  0.00     0.280 HD
HETATM   12  C   UNL     1      -1.262   7.147 -29.064  1.00  0.00     0.255 C 
HETATM   13  C   UNL     1      -1.251   7.396 -30.591  1.00  0.00     0.152 C 
BRANCH  10  14
HETATM   14  C   UNL     1       0.189   6.389 -27.106  1.00  0.00     0.273 C 
BRANCH  14  15
HETATM   15  C   UNL     1       0.577   7.609 -26.312  1.00  0.00    -0.033 A 
HETATM   16  C   UNL     1       1.939   7.877 -26.089  1.00  0.00     0.009 A 
HETATM   17  C   UNL     1       2.343   9.019 -25.394  1.00  0.00     0.001 A 
HETATM   18  C   UNL     1       1.393   9.909 -24.907  1.00  0.00     0.000 A 
HETATM   19  C   UNL     1       0.041   9.668 -25.128  1.00  0.00     0.001 A 
HETATM   20  C   UNL     1      -0.365   8.535 -25.838  1.00  0.00     0.009 A 
ENDBRANCH  14  15
ENDBRANCH  10  14
ENDBRANCH   1   7
BRANCH   6  21
HETATM   21  N   UNL     1      -1.565   6.798 -34.176  1.00  0.00    -0.108 N 
HETATM   22  O   UNL     1      -0.711   6.324 -34.937  1.00  0.00    -0.532 OA
HETATM   23  O   UNL     1      -1.783   8.002 -33.996  1.00  0.00    -0.532 OA
ENDBRANCH   6  21
BRANCH   3  24
HETATM   24  N   UNL     1      -4.280   2.900 -31.436  1.00  0.00    -0.211 N 
HETATM   25  C   UNL     1      -3.474   1.689 -31.212  1.00  0.00     0.169 C 
HETATM   26  C   UNL     1      -3.532   0.718 -32.409  1.00  0.00     0.255 C 
HETATM   27  N   UNL     1      -4.994   0.415 -32.754  1.00  0.00    -0.064 N 
HETATM   28  H   UNL     1      -5.413  -0.003 -31.914  1.00  0.00     0.280 HD
HETATM   29  C   UNL     1      -5.754   1.704 -33.056  1.00  0.00     0.255 C 
HETATM   30  C   UNL     1      -5.672   2.669 -31.848  1.00  0.00     0.169 C 
BRANCH  27  31
HETATM   31  C   UNL     1      -5.139  -0.616 -33.849  1.00  0.00     0.273 C 
BRANCH  31  32
HETATM   32  C   UNL     1      -4.452  -1.912 -33.510  1.00  0.00    -0.033 A 
HETATM   33  C   UNL     1      -4.484  -2.992 -34.407  1.00  0.00     0.009 A 
HETATM   34  C   UNL     1      -3.886  -4.208 -34.073  1.00  0.00     0.001 A 
HETATM   35  C   UNL     1      -3.247  -4.357 -32.844  1.00  0.00     0.000 A 
HETATM   36  C   UNL     1      -3.197  -3.289 -31.951  1.00  0.00     0.001 A 
HETATM   37  C   UNL     1      -3.796  -2.072 -32.280  1.00  0.00     0.009 A 
ENDBRANCH  31  32
ENDBRANCH  27  31
ENDBRANCH   3  24
BRANCH   5  38
HETATM   38  N   UNL     1      -3.745   5.387 -35.319  1.00  0.00    -0.284 NA
HETATM   39  H   UNL     1      -4.017   6.358 -35.446  1.00  0.00     0.125 HD
HETATM   40  H   UNL     1      -4.466   4.760 -35.669  1.00  0.00     0.125 HD
ENDBRANCH   5  38
TORSDOF 8
ENDMDL
MODEL 2
REMARK VINA RESULT:     -10.2      2.661      4.402
REMARK  8 active torsions:
REMARK  status: ('A' for Active; 'I' for Inactive)
REMARK    1  A    between atoms: C_4  and  C_5 
REMARK    2  A    between atoms: C_5  and  N_6 
REMARK    3  A    between atoms: N_10  and  C_11 
REMARK    4  A    between atoms: C_13  and  N_14 
REMARK    5  A    between atoms: N_17  and  C_19 
REMARK    6  A    between atoms: C_19  and  C_20 
REMARK    7  A    between atoms: C_29  and  N_30 
REMARK    8  A    between atoms: C_31  and  N_32 
ROOT
HETATM    1  C   UNL     1      -5.495   3.904 -31.353  1.00  0.00     0.181 A 
HETATM    2  N   UNL     1      -6.131   2.722 -31.538  1.00  0.00    -0.042 NA
HETATM    3  C   UNL     1      -7.292   2.447 -30.922  1.00  0.00     0.728 A 
HETATM    4  N   UNL     1      -7.867   3.281 -30.057  1.00  0.00    -0.048 NA
HETATM    5  C   UNL     1      -7.265   4.460 -29.833  1.00  0.00     0.157 A 
HETATM    6  C   UNL     1      -6.070   4.787 -30.454  1.00  0.00     0.189 A 
ENDROOT
BRANCH   1   7
HETATM    7  N   UNL     1      -4.346   4.064 -32.108  1.00  0.00    -0.360 N 
HETATM    8  C   UNL     1      -2.990   3.541 -31.840  1.00  0.00     0.152 C 
HETATM    9  C   UNL     1      -2.006   4.694 -31.514  1.00  0.00     0.255 C 
HETATM   10  N   UNL     1      -2.033   5.735 -32.640  1.00  0.00    -0.064 N 
HETATM   11  H   UNL     1      -1.735   5.234 -33.486  1.00  0.00     0.280 HD
HETATM   12  C   UNL     1      -3.448   6.221 -32.939  1.00  0.00     0.255 C 
HETATM   13  C   UNL     1      -4.382   5.024 -33.237  1.00  0.00     0.152 C 
BRANCH  10  14
HETATM   14  C   UNL     1      -1.017   6.853 -32.490  1.00  0.00     0.273 C 
BRANCH  14  15
HETATM   15  C   UNL     1      -0.724   7.372 -31.106  1.00  0.00    -0.033 A 
HETATM   16  C   UNL     1      -1.669   8.196 -30.470  1.00  0.00     0.009 A 
HETATM   17  C   UNL     1      -1.455   8.665 -29.172  1.00  0.00     0.001 A 
HETATM   18  C   UNL     1      -0.292   8.322 -28.491  1.00  0.00     0.000 A 
HETATM   19  C   UNL     1       0.648   7.497 -29.099  1.00  0.00     0.001 A 
HETATM   20  C   UNL     1       0.429   7.013 -30.391  1.00  0.00     0.009 A 
ENDBRANCH  14  15
ENDBRANCH  10  14
ENDBRANCH   1   7
BRANCH   6  21
HETATM   21  N   UNL     1      -5.549   6.091 -30.236  1.00  0.00    -0.108 N 
HETATM   22  O   UNL     1      -4.618   6.188 -29.426  1.00  0.00    -0.532 OA
HETATM   23  O   UNL     1      -6.102   7.033 -30.815  1.00  0.00    -0.532 OA
ENDBRANCH   6  21
BRANCH   3  24
HETATM   24  N   UNL     1      -7.930   1.254 -31.243  1.00  0.00    -0.211 N 
HETATM   25  C   UNL     1      -7.158   0.022 -31.013  1.00  0.00     0.169 C 
HETATM   26  C   UNL     1      -6.257  -0.337 -32.212  1.00  0.00     0.255 C 
HETATM   27  N   UNL     1      -7.098  -0.382 -33.492  1.00  0.00    -0.064 N 
HETATM   28  H   UNL     1      -7.822  -1.096 -33.342  1.00  0.00     0.280 HD
HETATM   29  C   UNL     1      -7.806   0.952 -33.717  1.00  0.00     0.255 C 
HETATM   30  C   UNL     1      -8.694   1.299 -32.498  1.00  0.00     0.169 C 
BRANCH  27  31
HETATM   31  C   UNL     1      -6.310  -0.834 -34.699  1.00  0.00     0.273 C 
BRANCH  31  32
HETATM   32  C   UNL     1      -5.876  -2.271 -34.594  1.00  0.00    -0.033 A 
HETATM   33  C   UNL     1      -4.564  -2.594 -34.213  1.00  0.00     0.009 A 
HETATM   34  C   UNL     1      -4.148  -3.925 -34.162  1.00  0.00     0.001 A 
HETATM   35  C   UNL     1      -5.039  -4.947 -34.484  1.00  0.00     0.000 A 
HETATM   36  C   UNL     1      -6.347  -4.640 -34.851  1.00  0.00     0.001 A 
HETATM   37  C   UNL     1      -6.766  -3.310 -34.907  1.00  0.00     0.009 A 
ENDBRANCH  31  32
ENDBRANCH  27  31
ENDBRANCH   3  24
BRANCH   5  38
HETATM   38  N   UNL     1      -7.913   5.263 -28.903  1.00  0.00    -0.284 NA
HETATM   39  H   UNL     1      -8.222   4.718 -28.103  1.00  0.00     0.125 HD
HETATM   40  H   UNL     1      -8.670   5.843 -29.260  1.00  0.00     0.125 HD
ENDBRANCH   5  38
TORSDOF 8
ENDMDL
MODEL 3
REMARK VINA RESULT:     -10.0      3.923      7.492
REMARK  8 active torsions:
REMARK  status: ('A' for Active; 'I' for Inactive)
REMARK    1  A    between atoms: C_4  and  C_5 
REMARK    2  A    between atoms: C_5  and  N_6 
REMARK    3  A    between atoms: N_10  and  C_11 
REMARK    4  A    between atoms: C_13  and  N_14 
REMARK    5  A    between atoms: N_17  and  C_19 
REMARK    6  A    between atoms: C_19  and  C_20 
REMARK    7  A    between atoms: C_29  and  N_30 
REMARK    8  A    between atoms: C_31  and  N_32 
ROOT
HETATM    1  C   UNL     1      -4.546   4.853 -31.872  1.00  0.00     0.181 A 
HETATM    2  N   UNL     1      -4.723   3.530 -31.634  1.00  0.00    -0.042 NA
HETATM    3  C   UNL     1      -3.689   2.728 -31.335  1.00  0.00     0.728 A 
HETATM    4  N   UNL     1      -2.427   3.156 -31.303  1.00  0.00    -0.048 NA
HETATM    5  C   UNL     1      -2.204   4.457 -31.546  1.00  0.00     0.157 A 
HETATM    6  C   UNL     1      -3.243   5.321 -31.851  1.00  0.00     0.189 A 
ENDROOT
BRANCH   1   7
HETATM    7  N   UNL     1      -5.715   5.558 -32.101  1.00  0.00    -0.360 N 
HETATM    8  C   UNL     1      -6.623   6.177 -31.114  1.00  0.00     0.152 C 
HETATM    9  C   UNL     1      -7.988   5.441 -31.079  1.00  0.00     0.255 C 
HETATM   10  N   UNL     1      -8.586   5.388 -32.490  1.00  0.00    -0.064 N 
HETATM   11  H   UNL     1      -8.711   6.368 -32.773  1.00  0.00     0.280 HD
HETATM   12  C   UNL     1      -7.612   4.798 -33.505  1.00  0.00     0.255 C 
HETATM   13  C   UNL     1      -6.268   5.562 -33.477  1.00  0.00     0.152 C 
BRANCH  10  14
HETATM   14  C   UNL     1      -9.984   4.798 -32.561  1.00  0.00     0.273 C 
BRANCH  14  15
HETATM   15  C   UNL     1     -10.125   3.326 -32.845  1.00  0.00    -0.033 A 
HETATM   16  C   UNL     1     -10.797   2.915 -34.010  1.00  0.00     0.009 A 
HETATM   17  C   UNL     1     -10.913   1.561 -34.333  1.00  0.00     0.001 A 
HETATM   18  C   UNL     1     -10.365   0.596 -33.495  1.00  0.00     0.000 A 
HETATM   19  C   UNL     1      -9.685   0.984 -32.345  1.00  0.00     0.001 A 
HETATM   20  C   UNL     1      -9.553   2.339 -32.028  1.00  0.00     0.009 A 
ENDBRANCH  14  15
ENDBRANCH  10  14
ENDBRANCH   1   7
BRANCH   6  21
HETATM   21  N   UNL     1      -2.931   6.699 -32.002  1.00  0.00    -0.108 N 
HETATM   22  O   UNL     1      -2.621   7.077 -33.139  1.00  0.00    -0.532 OA
HETATM   23  O   UNL     1      -2.930   7.401 -30.983  1.00  0.00    -0.532 OA
ENDBRANCH   6  21
BRANCH   3  24
HETATM   24  N   UNL     1      -3.967   1.407 -31.004  1.00  0.00    -0.211 N 
HETATM   25  C   UNL     1      -3.150   0.383 -31.676  1.00  0.00     0.169 C 
HETATM   26  C   UNL     1      -3.727  -0.019 -33.048  1.00  0.00     0.255 C 
HETATM   27  N   UNL     1      -5.195  -0.427 -32.889  1.00  0.00    -0.064 N 
HETATM   28  H   UNL     1      -5.210  -1.217 -32.232  1.00  0.00     0.280 HD
HETATM   29  C   UNL     1      -6.004   0.707 -32.265  1.00  0.00     0.255 C 
HETATM   30  C   UNL     1      -5.402   1.103 -30.895  1.00  0.00     0.169 C 
BRANCH  27  31
HETATM   31  C   UNL     1      -5.806  -0.940 -34.172  1.00  0.00     0.273 C 
BRANCH  31  32
HETATM   32  C   UNL     1      -5.597  -2.419 -34.355  1.00  0.00    -0.033 A 
HETATM   33  C   UNL     1      -6.642  -3.236 -34.818  1.00  0.00     0.009 A 
HETATM   34  C   UNL     1      -6.461  -4.614 -34.943  1.00  0.00     0.001 A 
HETATM   35  C   UNL     1      -5.236  -5.190 -34.613  1.00  0.00     0.000 A 
HETATM   36  C   UNL     1      -4.188  -4.390 -34.166  1.00  0.00     0.001 A 
HETATM   37  C   UNL     1      -4.365  -3.011 -34.036  1.00  0.00     0.009 A 
ENDBRANCH  31  32
ENDBRANCH  27  31
ENDBRANCH   3  24
BRANCH   5  38
HETATM   38  N   UNL     1      -0.862   4.820 -31.516  1.00  0.00    -0.284 NA
HETATM   39  H   UNL     1      -0.298   4.174 -32.062  1.00  0.00     0.125 HD
HETATM   40  H   UNL     1      -0.456   4.964 -30.595  1.00  0.00     0.125 HD
ENDBRANCH   5  38
TORSDOF 8
ENDMDL
MODEL 4
REMARK VINA RESULT:     -10.0      2.961     10.467
REMARK  8 active torsions:
REMARK  status: ('A' for Active; 'I' for Inactive)
REMARK    1  A    between atoms: C_4  and  C_5 
REMARK    2  A    between atoms: C_5  and  N_6 
REMARK    3  A    between atoms: N_10  and  C_11 
REMARK    4  A    between atoms: C_13  and  N_14 
REMARK    5  A    between atoms: N_17  and  C_19 
REMARK    6  A    between atoms: C_19  and  C_20 
REMARK    7  A    between atoms: C_29  and  N_30 
REMARK    8  A    between atoms: C_31  and  N_32 
ROOT
HETATM    1  C   UNL     1      -5.778   4.547 -32.055  1.00  0.00     0.181 A 
HETATM    2  N   UNL     1      -4.807   5.490 -32.109  1.00  0.00    -0.042 NA
HETATM    3  C   UNL     1      -4.850   6.585 -31.332  1.00  0.00     0.728 A 
HETATM    4  N   UNL     1      -5.860   6.844 -30.503  1.00  0.00    -0.048 NA
HETATM    5  C   UNL     1      -6.851   5.942 -30.427  1.00  0.00     0.157 A 
HETATM    6  C   UNL     1      -6.843   4.795 -31.205  1.00  0.00     0.189 A 
ENDROOT
BRANCH   1   7
HETATM    7  N   UNL     1      -5.558   3.447 -32.867  1.00  0.00    -0.360 N 
HETATM    8  C   UNL     1      -6.174   3.132 -34.173  1.00  0.00     0.152 C 
HETATM    9  C   UNL     1      -7.100   1.892 -34.064  1.00  0.00     0.255 C 
HETATM   10  N   UNL     1      -6.322   0.713 -33.469  1.00  0.00    -0.064 N 
HETATM   11  H   UNL     1      -5.552   0.531 -34.125  1.00  0.00     0.280 HD
HETATM   12  C   UNL     1      -5.648   1.076 -32.150  1.00  0.00     0.255 C 
HETATM   13  C   UNL     1      -4.755   2.327 -32.321  1.00  0.00     0.152 C 
BRANCH  10  14
HETATM   14  C   UNL     1      -7.094  -0.595 -33.428  1.00  0.00     0.273 C 
BRANCH  14  15
HETATM   15  C   UNL     1      -6.414  -1.843 -33.927  1.00  0.00    -0.033 A 
HETATM   16  C   UNL     1      -7.199  -2.891 -34.440  1.00  0.00     0.009 A 
HETATM   17  C   UNL     1      -6.606  -4.048 -34.952  1.00  0.00     0.001 A 
HETATM   18  C   UNL     1      -5.222  -4.178 -34.955  1.00  0.00     0.000 A 
HETATM   19  C   UNL     1      -4.429  -3.146 -34.464  1.00  0.00     0.001 A 
HETATM   20  C   UNL     1      -5.018  -1.980 -33.967  1.00  0.00     0.009 A 
ENDBRANCH  14  15
ENDBRANCH  10  14
ENDBRANCH   1   7
BRANCH   6  21
HETATM   21  N   UNL     1      -7.881   3.848 -30.994  1.00  0.00    -0.108 N 
HETATM   22  O   UNL     1      -8.874   3.942 -31.727  1.00  0.00    -0.532 OA
HETATM   23  O   UNL     1      -7.746   3.048 -30.061  1.00  0.00    -0.532 OA
ENDBRANCH   6  21
BRANCH   3  24
HETATM   24  N   UNL     1      -3.765   7.453 -31.375  1.00  0.00    -0.211 N 
HETATM   25  C   UNL     1      -2.600   7.000 -32.153  1.00  0.00     0.169 C 
HETATM   26  C   UNL     1      -1.645   6.123 -31.318  1.00  0.00     0.255 C 
HETATM   27  N   UNL     1      -1.262   6.861 -30.031  1.00  0.00    -0.064 N 
HETATM   28  H   UNL     1      -0.809   7.737 -30.320  1.00  0.00     0.280 HD
HETATM   29  C   UNL     1      -2.509   7.230 -29.231  1.00  0.00     0.255 C 
HETATM   30  C   UNL     1      -3.459   8.098 -30.090  1.00  0.00     0.169 C 
BRANCH  27  31
HETATM   31  C   UNL     1      -0.240   6.115 -29.206  1.00  0.00     0.273 C 
BRANCH  31  32
HETATM   32  C   UNL     1       0.435   6.999 -28.192  1.00  0.00    -0.033 A 
HETATM   33  C   UNL     1       1.135   8.146 -28.599  1.00  0.00     0.009 A 
HETATM   34  C   UNL     1       1.799   8.940 -27.664  1.00  0.00     0.001 A 
HETATM   35  C   UNL     1       1.768   8.601 -26.313  1.00  0.00     0.000 A 
HETATM   36  C   UNL     1       1.066   7.473 -25.894  1.00  0.00     0.001 A 
HETATM   37  C   UNL     1       0.402   6.674 -26.827  1.00  0.00     0.009 A 
ENDBRANCH  31  32
ENDBRANCH  27  31
ENDBRANCH   3  24
BRANCH   5  38
HETATM   38  N   UNL     1      -7.877   6.295 -29.558  1.00  0.00    -0.284 NA
HETATM   39  H   UNL     1      -8.775   6.291 -30.035  1.00  0.00     0.125 HD
HETATM   40  H   UNL     1      -7.748   7.160 -29.038  1.00  0.00     0.125 HD
ENDBRANCH   5  38
TORSDOF 8
ENDMDL
MODEL 5
REMARK VINA RESULT:      -9.9      2.620      3.869
REMARK  8 active torsions:
REMARK  status: ('A' for Active; 'I' for Inactive)
REMARK    1  A    between atoms: C_4  and  C_5 
REMARK    2  A    between atoms: C_5  and  N_6 
REMARK    3  A    between atoms: N_10  and  C_11 
REMARK    4  A    between atoms: C_13  and  N_14 
REMARK    5  A    between atoms: N_17  and  C_19 
REMARK    6  A    between atoms: C_19  and  C_20 
REMARK    7  A    between atoms: C_29  and  N_30 
REMARK    8  A    between atoms: C_31  and  N_32 
ROOT
HETATM    1  C   UNL     1      -6.401   4.417 -31.530  1.00  0.00     0.181 A 
HETATM    2  N   UNL     1      -6.860   3.149 -31.668  1.00  0.00    -0.042 NA
HETATM    3  C   UNL     1      -7.757   2.828 -32.614  1.00  0.00     0.728 A 
HETATM    4  N   UNL     1      -8.292   3.728 -33.439  1.00  0.00    -0.048 NA
HETATM    5  C   UNL     1      -7.876   4.999 -33.328  1.00  0.00     0.157 A 
HETATM    6  C   UNL     1      -6.946   5.372 -32.371  1.00  0.00     0.189 A 
ENDROOT
BRANCH   1   7
HETATM    7  N   UNL     1      -5.432   4.575 -30.554  1.00  0.00    -0.360 N 
HETATM    8  C   UNL     1      -5.587   5.098 -29.181  1.00  0.00     0.152 C 
HETATM    9  C   UNL     1      -4.865   6.461 -29.023  1.00  0.00     0.255 C 
HETATM   10  N   UNL     1      -3.398   6.326 -29.448  1.00  0.00    -0.064 N 
HETATM   11  H   UNL     1      -2.991   5.627 -28.816  1.00  0.00     0.280 HD
HETATM   12  C   UNL     1      -3.259   5.733 -30.847  1.00  0.00     0.255 C 
HETATM   13  C   UNL     1      -4.014   4.386 -30.944  1.00  0.00     0.152 C 
BRANCH  10  14
HETATM   14  C   UNL     1      -2.558   7.570 -29.220  1.00  0.00     0.273 C 
BRANCH  14  15
HETATM   15  C   UNL     1      -1.278   7.435 -28.439  1.00  0.00    -0.033 A 
HETATM   16  C   UNL     1      -0.088   7.954 -28.979  1.00  0.00     0.009 A 
HETATM   17  C   UNL     1       1.113   7.887 -28.270  1.00  0.00     0.001 A 
HETATM   18  C   UNL     1       1.146   7.297 -27.011  1.00  0.00     0.000 A 
HETATM   19  C   UNL     1      -0.024   6.789 -26.455  1.00  0.00     0.001 A 
HETATM   20  C   UNL     1      -1.230   6.870 -27.156  1.00  0.00     0.009 A 
ENDBRANCH  14  15
ENDBRANCH  10  14
ENDBRANCH   1   7
BRANCH   6  21
HETATM   21  N   UNL     1      -6.491   6.718 -32.384  1.00  0.00    -0.108 N 
HETATM   22  O   UNL     1      -7.215   7.554 -31.830  1.00  0.00    -0.532 OA
HETATM   23  O   UNL     1      -5.446   6.964 -32.998  1.00  0.00    -0.532 OA
ENDBRANCH   6  21
BRANCH   3  24
HETATM   24  N   UNL     1      -8.099   1.488 -32.755  1.00  0.00    -0.211 N 
HETATM   25  C   UNL     1      -7.595   0.576 -31.716  1.00  0.00     0.169 C 
HETATM   26  C   UNL     1      -6.172   0.067 -32.025  1.00  0.00     0.255 C 
HETATM   27  N   UNL     1      -6.138  -0.541 -33.431  1.00  0.00    -0.064 N 
HETATM   28  H   UNL     1      -6.818  -1.311 -33.434  1.00  0.00     0.280 HD
HETATM   29  C   UNL     1      -6.592   0.480 -34.470  1.00  0.00     0.255 C 
HETATM   30  C   UNL     1      -8.016   0.987 -34.135  1.00  0.00     0.169 C 
BRANCH  27  31
HETATM   31  C   UNL     1      -4.804  -1.163 -33.771  1.00  0.00     0.273 C 
BRANCH  31  32
HETATM   32  C   UNL     1      -4.924  -2.621 -34.124  1.00  0.00    -0.033 A 
HETATM   33  C   UNL     1      -6.058  -3.101 -34.799  1.00  0.00     0.009 A 
HETATM   34  C   UNL     1      -6.190  -4.461 -35.085  1.00  0.00     0.001 A 
HETATM   35  C   UNL     1      -5.190  -5.353 -34.705  1.00  0.00     0.000 A 
HETATM   36  C   UNL     1      -4.054  -4.889 -34.046  1.00  0.00     0.001 A 
HETATM   37  C   UNL     1      -3.920  -3.530 -33.756  1.00  0.00     0.009 A 
ENDBRANCH  31  32
ENDBRANCH  27  31
ENDBRANCH   3  24
BRANCH   5  38
HETATM   38  N   UNL     1      -8.497   5.880 -34.206  1.00  0.00    -0.284 NA
HETATM   39  H   UNL     1      -9.490   5.955 -34.005  1.00  0.00     0.125 HD
HETATM   40  H   UNL     1      -8.341   5.711 -35.197  1.00  0.00     0.125 HD
ENDBRANCH   5  38
TORSDOF 8
ENDMDL
MODEL 6
REMARK VINA RESULT:      -9.8      3.771     10.489
REMARK  8 active torsions:
REMARK  status: ('A' for Active; 'I' for Inactive)
REMARK    1  A    between atoms: C_4  and  C_5 
REMARK    2  A    between atoms: C_5  and  N_6 
REMARK    3  A    between atoms: N_10  and  C_11 
REMARK    4  A    between atoms: C_13  and  N_14 
REMARK    5  A    between atoms: N_17  and  C_19 
REMARK    6  A    between atoms: C_19  and  C_20 
REMARK    7  A    between atoms: C_29  and  N_30 
REMARK    8  A    between atoms: C_31  and  N_32 
ROOT
HETATM    1  C   UNL     1      -7.422   3.112 -31.771  1.00  0.00     0.181 A 
HETATM    2  N   UNL     1      -6.828   4.163 -31.155  1.00  0.00    -0.042 NA
HETATM    3  C   UNL     1      -7.494   4.925 -30.272  1.00  0.00     0.728 A 
HETATM    4  N   UNL     1      -8.781   4.738 -29.983  1.00  0.00    -0.048 NA
HETATM    5  C   UNL     1      -9.413   3.716 -30.580  1.00  0.00     0.157 A 
HETATM    6  C   UNL     1      -8.761   2.901 -31.492  1.00  0.00     0.189 A 
ENDROOT
BRANCH   1   7
HETATM    7  N   UNL     1      -6.586   2.385 -32.602  1.00  0.00    -0.360 N 
HETATM    8  C   UNL     1      -6.423   2.496 -34.067  1.00  0.00     0.152 C 
HETATM    9  C   UNL     1      -6.957   1.228 -34.781  1.00  0.00     0.255 C 
HETATM   10  N   UNL     1      -6.283  -0.020 -34.198  1.00  0.00    -0.064 N 
HETATM   11  H   UNL     1      -5.279   0.099 -34.377  1.00  0.00     0.280 HD
HETATM   12  C   UNL     1      -6.415  -0.086 -32.679  1.00  0.00     0.255 C 
HETATM   13  C   UNL     1      -5.883   1.213 -32.030  1.00  0.00     0.152 C 
BRANCH  10  14
HETATM   14  C   UNL     1      -6.638  -1.316 -34.905  1.00  0.00     0.273 C 
BRANCH  14  15
HETATM   15  C   UNL     1      -5.830  -2.548 -34.588  1.00  0.00    -0.033 A 
HETATM   16  C   UNL     1      -6.318  -3.806 -34.980  1.00  0.00     0.009 A 
HETATM   17  C   UNL     1      -5.581  -4.969 -34.744  1.00  0.00     0.001 A 
HETATM   18  C   UNL     1      -4.346  -4.893 -34.107  1.00  0.00     0.000 A 
HETATM   19  C   UNL     1      -3.841  -3.655 -33.723  1.00  0.00     0.001 A 
HETATM   20  C   UNL     1      -4.569  -2.489 -33.974  1.00  0.00     0.009 A 
ENDBRANCH  14  15
ENDBRANCH  10  14
ENDBRANCH   1   7
BRANCH   6  21
HETATM   21  N   UNL     1      -9.475   1.785 -32.006  1.00  0.00    -0.108 N 
HETATM   22  O   UNL     1     -10.165   1.985 -33.014  1.00  0.00    -0.532 OA
HETATM   23  O   UNL     1      -9.408   0.722 -31.378  1.00  0.00    -0.532 OA
ENDBRANCH   6  21
BRANCH   3  24
HETATM   24  N   UNL     1      -6.785   5.920 -29.610  1.00  0.00    -0.211 N 
HETATM   25  C   UNL     1      -6.847   7.267 -30.200  1.00  0.00     0.169 C 
HETATM   26  C   UNL     1      -5.781   7.476 -31.295  1.00  0.00     0.255 C 
HETATM   27  N   UNL     1      -4.398   7.124 -30.738  1.00  0.00    -0.064 N 
HETATM   28  H   UNL     1      -4.238   7.748 -29.938  1.00  0.00     0.280 HD
HETATM   29  C   UNL     1      -4.376   5.690 -30.218  1.00  0.00     0.255 C 
HETATM   30  C   UNL     1      -5.461   5.498 -29.131  1.00  0.00     0.169 C 
BRANCH  27  31
HETATM   31  C   UNL     1      -3.281   7.406 -31.716  1.00  0.00     0.273 C 
BRANCH  31  32
HETATM   32  C   UNL     1      -1.927   7.394 -31.059  1.00  0.00    -0.033 A 
HETATM   33  C   UNL     1      -0.822   6.823 -31.712  1.00  0.00     0.009 A 
HETATM   34  C   UNL     1       0.422   6.771 -31.083  1.00  0.00     0.001 A 
HETATM   35  C   UNL     1       0.578   7.290 -29.800  1.00  0.00     0.000 A 
HETATM   36  C   UNL     1      -0.507   7.871 -29.147  1.00  0.00     0.001 A 
HETATM   37  C   UNL     1      -1.754   7.923 -29.771  1.00  0.00     0.009 A 
ENDBRANCH  31  32
ENDBRANCH  27  31
ENDBRANCH   3  24
BRANCH   5  38
HETATM   38  N   UNL     1     -10.756   3.602 -30.243  1.00  0.00    -0.284 NA
HETATM   39  H   UNL     1     -11.198   2.846 -30.761  1.00  0.00     0.125 HD
HETATM   40  H   UNL     1     -11.310   4.454 -30.304  1.00  0.00     0.125 HD
ENDBRANCH   5  38
TORSDOF 8
ENDMDL
MODEL 7
REMARK VINA RESULT:      -9.8      5.757      9.615
REMARK  8 active torsions:
REMARK  status: ('A' for Active; 'I' for Inactive)
REMARK    1  A    between atoms: C_4  and  C_5 
REMARK    2  A    between atoms: C_5  and  N_6 
REMARK    3  A    between atoms: N_10  and  C_11 
REMARK    4  A    between atoms: C_13  and  N_14 
REMARK    5  A    between atoms: N_17  and  C_19 
REMARK    6  A    between atoms: C_19  and  C_20 
REMARK    7  A    between atoms: C_29  and  N_30 
REMARK    8  A    between atoms: C_31  and  N_32 
ROOT
HETATM    1  C   UNL     1      -8.006   4.458 -31.535  1.00  0.00     0.181 A 
HETATM    2  N   UNL     1      -8.163   3.116 -31.631  1.00  0.00    -0.042 NA
HETATM    3  C   UNL     1      -7.453   2.271 -30.865  1.00  0.00     0.728 A 
HETATM    4  N   UNL     1      -6.522   2.683 -30.006  1.00  0.00    -0.048 NA
HETATM    5  C   UNL     1      -6.324   4.005 -29.888  1.00  0.00     0.157 A 
HETATM    6  C   UNL     1      -7.039   4.912 -30.653  1.00  0.00     0.189 A 
ENDROOT
BRANCH   1   7
HETATM    7  N   UNL     1      -8.855   5.196 -32.343  1.00  0.00    -0.360 N 
HETATM    8  C   UNL     1     -10.033   5.996 -31.949  1.00  0.00     0.152 C 
HETATM    9  C   UNL     1     -11.341   5.356 -32.484  1.00  0.00     0.255 C 
HETATM   10  N   UNL     1     -11.237   5.150 -34.000  1.00  0.00    -0.064 N 
HETATM   11  H   UNL     1     -11.106   6.089 -34.397  1.00  0.00     0.280 HD
HETATM   12  C   UNL     1      -9.985   4.371 -34.389  1.00  0.00     0.255 C 
HETATM   13  C   UNL     1      -8.720   5.049 -33.812  1.00  0.00     0.152 C 
BRANCH  10  14
HETATM   14  C   UNL     1     -12.509   4.642 -34.655  1.00  0.00     0.273 C 
BRANCH  14  15
HETATM   15  C   UNL     1     -13.038   3.294 -34.240  1.00  0.00    -0.033 A 
HETATM   16  C   UNL     1     -13.912   3.210 -33.142  1.00  0.00     0.009 A 
HETATM   17  C   UNL     1     -14.458   1.985 -32.751  1.00  0.00     0.001 A 
HETATM   18  C   UNL     1     -14.136   0.825 -33.447  1.00  0.00     0.000 A 
HETATM   19  C   UNL     1     -13.282   0.891 -34.543  1.00  0.00     0.001 A 
HETATM   20  C   UNL     1     -12.748   2.117 -34.947  1.00  0.00     0.009 A 
ENDBRANCH  14  15
ENDBRANCH  10  14
ENDBRANCH   1   7
BRANCH   6  21
HETATM   21  N   UNL     1      -6.836   6.295 -30.399  1.00  0.00    -0.108 N 
HETATM   22  O   UNL     1      -7.579   6.819 -29.558  1.00  0.00    -0.532 OA
HETATM   23  O   UNL     1      -5.985   6.883 -31.075  1.00  0.00    -0.532 OA
ENDBRANCH   6  21
BRANCH   3  24
HETATM   24  N   UNL     1      -7.746   0.915 -30.952  1.00  0.00    -0.211 N 
HETATM   25  C   UNL     1      -6.606  -0.006 -30.817  1.00  0.00     0.169 C 
HETATM   26  C   UNL     1      -5.888  -0.250 -32.160  1.00  0.00     0.255 C 
HETATM   27  N   UNL     1      -6.906  -0.700 -33.212  1.00  0.00    -0.064 N 
HETATM   28  H   UNL     1      -7.334  -1.564 -32.856  1.00  0.00     0.280 HD
HETATM   29  C   UNL     1      -8.017   0.336 -33.365  1.00  0.00     0.255 C 
HETATM   30  C   UNL     1      -8.715   0.575 -32.004  1.00  0.00     0.169 C 
BRANCH  27  31
HETATM   31  C   UNL     1      -6.267  -1.066 -34.532  1.00  0.00     0.273 C 
BRANCH  31  32
HETATM   32  C   UNL     1      -5.765  -2.484 -34.552  1.00  0.00    -0.033 A 
HETATM   33  C   UNL     1      -6.605  -3.534 -34.957  1.00  0.00     0.009 A 
HETATM   34  C   UNL     1      -6.153  -4.854 -34.931  1.00  0.00     0.001 A 
HETATM   35  C   UNL     1      -4.857  -5.139 -34.506  1.00  0.00     0.000 A 
HETATM   36  C   UNL     1      -4.009  -4.106 -34.113  1.00  0.00     0.001 A 
HETATM   37  C   UNL     1      -4.458  -2.785 -34.135  1.00  0.00     0.009 A 
ENDBRANCH  31  32
ENDBRANCH  27  31
ENDBRANCH   3  24
BRANCH   5  38
HETATM   38  N   UNL     1      -5.322   4.353 -28.989  1.00  0.00    -0.284 NA
HETATM   39  H   UNL     1      -5.516   5.253 -28.558  1.00  0.00     0.125 HD
HETATM   40  H   UNL     1      -4.369   4.320 -29.343  1.00  0.00     0.125 HD
ENDBRANCH   5  38
TORSDOF 8
ENDMDL
MODEL 8
REMARK VINA RESULT:      -9.8      4.199     10.979
REMARK  8 active torsions:
REMARK  status: ('A' for Active; 'I' for Inactive)
REMARK    1  A    between atoms: C_4  and  C_5 
REMARK    2  A    between atoms: C_5  and  N_6 
REMARK    3  A    between atoms: N_10  and  C_11 
REMARK    4  A    between atoms: C_13  and  N_14 
REMARK    5  A    between atoms: N_17  and  C_19 
REMARK    6  A    between atoms: C_19  and  C_20 
REMARK    7  A    between atoms: C_29  and  N_30 
REMARK    8  A    between atoms: C_31  and  N_32 
ROOT
HETATM    1  C   UNL     1      -5.526   2.550 -32.199  1.00  0.00     0.181 A 
HETATM    2  N   UNL     1      -4.786   3.676 -32.348  1.00  0.00    -0.042 NA
HETATM    3  C   UNL     1      -3.467   3.685 -32.098  1.00  0.00     0.728 A 
HETATM    4  N   UNL     1      -2.810   2.619 -31.641  1.00  0.00    -0.048 NA
HETATM    5  C   UNL     1      -3.506   1.486 -31.465  1.00  0.00     0.157 A 
HETATM    6  C   UNL     1      -4.868   1.430 -31.719  1.00  0.00     0.189 A 
ENDROOT
BRANCH   1   7
HETATM    7  N   UNL     1      -6.856   2.684 -32.559  1.00  0.00    -0.360 N 
HETATM    8  C   UNL     1      -8.019   2.962 -31.692  1.00  0.00     0.152 C 
HETATM    9  C   UNL     1      -8.965   1.735 -31.624  1.00  0.00     0.255 C 
HETATM   10  N   UNL     1      -9.365   1.307 -33.041  1.00  0.00    -0.064 N 
HETATM   11  H   UNL     1      -9.852   2.116 -33.447  1.00  0.00     0.280 HD
HETATM   12  C   UNL     1      -8.151   1.079 -33.936  1.00  0.00     0.255 C 
HETATM   13  C   UNL     1      -7.240   2.330 -33.946  1.00  0.00     0.152 C 
BRANCH  10  14
HETATM   14  C   UNL     1     -10.390   0.189 -33.096  1.00  0.00     0.273 C 
BRANCH  14  15
HETATM   15  C   UNL     1     -11.804   0.533 -33.485  1.00  0.00    -0.033 A 
HETATM   16  C   UNL     1     -12.100   1.843 -33.900  1.00  0.00     0.009 A 
HETATM   17  C   UNL     1     -13.390   2.193 -34.308  1.00  0.00     0.001 A 
HETATM   18  C   UNL     1     -14.404   1.242 -34.303  1.00  0.00     0.000 A 
HETATM   19  C   UNL     1     -14.127  -0.063 -33.907  1.00  0.00     0.001 A 
HETATM   20  C   UNL     1     -12.834  -0.420 -33.515  1.00  0.00     0.009 A 
ENDBRANCH  14  15
ENDBRANCH  10  14
ENDBRANCH   1   7
BRANCH   6  21
HETATM   21  N   UNL     1      -5.510   0.168 -31.599  1.00  0.00    -0.108 N 
HETATM   22  O   UNL     1      -6.078  -0.064 -30.524  1.00  0.00    -0.532 OA
HETATM   23  O   UNL     1      -5.400  -0.623 -32.542  1.00  0.00    -0.532 OA
ENDBRANCH   6  21
BRANCH   3  24
HETATM   24  N   UNL     1      -2.763   4.851 -32.372  1.00  0.00    -0.211 N 
HETATM   25  C   UNL     1      -1.456   4.994 -31.709  1.00  0.00     0.169 C 
HETATM   26  C   UNL     1      -1.581   5.606 -30.298  1.00  0.00     0.255 C 
HETATM   27  N   UNL     1      -2.365   6.919 -30.375  1.00  0.00    -0.064 N 
HETATM   28  H   UNL     1      -1.840   7.538 -31.005  1.00  0.00     0.280 HD
HETATM   29  C   UNL     1      -3.741   6.689 -30.996  1.00  0.00     0.255 C 
HETATM   30  C   UNL     1      -3.594   6.063 -32.404  1.00  0.00     0.169 C 
BRANCH  27  31
HETATM   31  C   UNL     1      -2.439   7.639 -29.049  1.00  0.00     0.273 C 
BRANCH  31  32
HETATM   32  C   UNL     1      -1.136   7.589 -28.297  1.00  0.00    -0.033 A 
HETATM   33  C   UNL     1       0.002   8.242 -28.796  1.00  0.00     0.009 A 
HETATM   34  C   UNL     1       1.221   8.157 -28.122  1.00  0.00     0.001 A 
HETATM   35  C   UNL     1       1.315   7.424 -26.941  1.00  0.00     0.000 A 
HETATM   36  C   UNL     1       0.190   6.783 -26.427  1.00  0.00     0.001 A 
HETATM   37  C   UNL     1      -1.031   6.863 -27.100  1.00  0.00     0.009 A 
ENDBRANCH  31  32
ENDBRANCH  27  31
ENDBRANCH   3  24
BRANCH   5  38
HETATM   38  N   UNL     1      -2.756   0.427 -30.966  1.00  0.00    -0.284 NA
HETATM   39  H   UNL     1      -2.697   0.470 -29.952  1.00  0.00     0.125 HD
HETATM   40  H   UNL     1      -1.835   0.296 -31.378  1.00  0.00     0.125 HD
ENDBRANCH   5  38
TORSDOF 8
ENDMDL
MODEL 9
REMARK VINA RESULT:      -9.8      3.811      5.930
REMARK  8 active torsions:
REMARK  status: ('A' for Active; 'I' for Inactive)
REMARK    1  A    between atoms: C_4  and  C_5 
REMARK    2  A    between atoms: C_5  and  N_6 
REMARK    3  A    between atoms: N_10  and  C_11 
REMARK    4  A    between atoms: C_13  and  N_14 
REMARK    5  A    between atoms: N_17  and  C_19 
REMARK    6  A    between atoms: C_19  and  C_20 
REMARK    7  A    between atoms: C_29  and  N_30 
REMARK    8  A    between atoms: C_31  and  N_32 
ROOT
HETATM    1  C   UNL     1      -8.339   4.488 -32.016  1.00  0.00     0.181 A 
HETATM    2  N   UNL     1      -8.280   3.151 -31.806  1.00  0.00    -0.042 NA
HETATM    3  C   UNL     1      -9.356   2.367 -31.980  1.00  0.00     0.728 A 
HETATM    4  N   UNL     1     -10.553   2.846 -32.316  1.00  0.00    -0.048 NA
HETATM    5  C   UNL     1     -10.660   4.168 -32.521  1.00  0.00     0.157 A 
HETATM    6  C   UNL     1      -9.573   5.012 -32.360  1.00  0.00     0.189 A 
ENDROOT
BRANCH   1   7
HETATM    7  N   UNL     1      -7.132   5.149 -31.859  1.00  0.00    -0.360 N 
HETATM    8  C   UNL     1      -6.419   6.002 -32.832  1.00  0.00     0.152 C 
HETATM    9  C   UNL     1      -5.102   5.328 -33.300  1.00  0.00     0.255 C 
HETATM   10  N   UNL     1      -4.244   4.963 -32.083  1.00  0.00    -0.064 N 
HETATM   11  H   UNL     1      -4.045   5.852 -31.609  1.00  0.00     0.280 HD
HETATM   12  C   UNL     1      -5.016   4.129 -31.066  1.00  0.00     0.255 C 
HETATM   13  C   UNL     1      -6.324   4.846 -30.654  1.00  0.00     0.152 C 
BRANCH  10  14
HETATM   14  C   UNL     1      -2.873   4.406 -32.423  1.00  0.00     0.273 C 
BRANCH  14  15
HETATM   15  C   UNL     1      -1.657   5.170 -31.966  1.00  0.00    -0.033 A 
HETATM   16  C   UNL     1      -1.298   6.351 -32.637  1.00  0.00     0.009 A 
HETATM   17  C   UNL     1      -0.203   7.111 -32.219  1.00  0.00     0.001 A 
HETATM   18  C   UNL     1       0.553   6.700 -31.126  1.00  0.00     0.000 A 
HETATM   19  C   UNL     1       0.205   5.540 -30.442  1.00  0.00     0.001 A 
HETATM   20  C   UNL     1      -0.900   4.787 -30.848  1.00  0.00     0.009 A 
ENDBRANCH  14  15
ENDBRANCH  10  14
ENDBRANCH   1   7
BRANCH   6  21
HETATM   21  N   UNL     1      -9.749   6.383 -32.689  1.00  0.00    -0.108 N 
HETATM   22  O   UNL     1      -9.974   7.155 -31.748  1.00  0.00    -0.532 OA
HETATM   23  O   UNL     1      -9.730   6.692 -33.886  1.00  0.00    -0.532 OA
ENDBRANCH   6  21
BRANCH   3  24
HETATM   24  N   UNL     1      -9.187   0.994 -31.842  1.00  0.00    -0.211 N 
HETATM   25  C   UNL     1      -7.907   0.551 -31.266  1.00  0.00     0.169 C 
HETATM   26  C   UNL     1      -6.804   0.406 -32.334  1.00  0.00     0.255 C 
HETATM   27  N   UNL     1      -7.300  -0.498 -33.466  1.00  0.00    -0.064 N 
HETATM   28  H   UNL     1      -7.528  -1.404 -33.040  1.00  0.00     0.280 HD
HETATM   29  C   UNL     1      -8.584   0.060 -34.076  1.00  0.00     0.255 C 
HETATM   30  C   UNL     1      -9.673   0.209 -32.987  1.00  0.00     0.169 C 
BRANCH  27  31
HETATM   31  C   UNL     1      -6.238  -0.780 -34.503  1.00  0.00     0.273 C 
BRANCH  31  32
HETATM   32  C   UNL     1      -5.818  -2.225 -34.514  1.00  0.00    -0.033 A 
HETATM   33  C   UNL     1      -6.741  -3.235 -34.830  1.00  0.00     0.009 A 
HETATM   34  C   UNL     1      -6.362  -4.578 -34.795  1.00  0.00     0.001 A 
HETATM   35  C   UNL     1      -5.059  -4.926 -34.450  1.00  0.00     0.000 A 
HETATM   36  C   UNL     1      -4.129  -3.933 -34.148  1.00  0.00     0.001 A 
HETATM   37  C   UNL     1      -4.505  -2.589 -34.178  1.00  0.00     0.009 A 
ENDBRANCH  31  32
ENDBRANCH  27  31
ENDBRANCH   3  24
BRANCH   5  38
HETATM   38  N   UNL     1     -11.944   4.592 -32.845  1.00  0.00    -0.284 NA
HETATM   39  H   UNL     1     -12.594   4.396 -32.089  1.00  0.00     0.125 HD
HETATM   40  H   UNL     1     -12.314   4.264 -33.734  1.00  0.00     0.125 HD
ENDBRANCH   5  38
TORSDOF 8
ENDMDL
MODEL 10
REMARK VINA RESULT:      -9.7      1.969      2.805
REMARK  8 active torsions:
REMARK  status: ('A' for Active; 'I' for Inactive)
REMARK    1  A    between atoms: C_4  and  C_5 
REMARK    2  A    between atoms: C_5  and  N_6 
REMARK    3  A    between atoms: N_10  and  C_11 
REMARK    4  A    between atoms: C_13  and  N_14 
REMARK    5  A    between atoms: N_17  and  C_19 
REMARK    6  A    between atoms: C_19  and  C_20 
REMARK    7  A    between atoms: C_29  and  N_30 
REMARK    8  A    between atoms: C_31  and  N_32 
ROOT
HETATM    1  C   UNL     1      -4.019   6.720 -31.782  1.00  0.00     0.181 A 
HETATM    2  N   UNL     1      -5.152   5.997 -31.962  1.00  0.00    -0.042 NA
HETATM    3  C   UNL     1      -5.335   5.246 -33.060  1.00  0.00     0.728 A 
HETATM    4  N   UNL     1      -4.455   5.198 -34.059  1.00  0.00    -0.048 NA
HETATM    5  C   UNL     1      -3.324   5.909 -33.928  1.00  0.00     0.157 A 
HETATM    6  C   UNL     1      -3.091   6.692 -32.809  1.00  0.00     0.189 A 
ENDROOT
BRANCH   1   7
HETATM    7  N   UNL     1      -3.951   7.389 -30.572  1.00  0.00    -0.360 N 
HETATM    8  C   UNL     1      -4.428   8.749 -30.245  1.00  0.00     0.152 C 
HETATM    9  C   UNL     1      -3.236   9.698 -29.954  1.00  0.00     0.255 C 
HETATM   10  N   UNL     1      -2.348   9.097 -28.858  1.00  0.00    -0.064 N 
HETATM   11  H   UNL     1      -2.951   9.011 -28.031  1.00  0.00     0.280 HD
HETATM   12  C   UNL     1      -1.913   7.673 -29.189  1.00  0.00     0.255 C 
HETATM   13  C   UNL     1      -3.143   6.784 -29.486  1.00  0.00     0.152 C 
BRANCH  10  14
HETATM   14  C   UNL     1      -1.214   9.998 -28.401  1.00  0.00     0.273 C 
BRANCH  14  15
HETATM   15  C   UNL     1      -0.258   9.473 -27.362  1.00  0.00    -0.033 A 
HETATM   16  C   UNL     1       0.917   8.825 -27.780  1.00  0.00     0.009 A 
HETATM   17  C   UNL     1       1.851   8.360 -26.851  1.00  0.00     0.001 A 
HETATM   18  C   UNL     1       1.623   8.532 -25.490  1.00  0.00     0.000 A 
HETATM   19  C   UNL     1       0.471   9.183 -25.058  1.00  0.00     0.001 A 
HETATM   20  C   UNL     1      -0.456   9.663 -25.986  1.00  0.00     0.009 A 
ENDBRANCH  14  15
ENDBRANCH  10  14
ENDBRANCH   1   7
BRANCH   6  21
HETATM   21  N   UNL     1      -1.829   7.337 -32.707  1.00  0.00    -0.108 N 
HETATM   22  O   UNL     1      -1.815   8.560 -32.896  1.00  0.00    -0.532 OA
HETATM   23  O   UNL     1      -0.837   6.627 -32.502  1.00  0.00    -0.532 OA
ENDBRANCH   6  21
BRANCH   3  24
HETATM   24  N   UNL     1      -6.478   4.457 -33.122  1.00  0.00    -0.211 N 
HETATM   25  C   UNL     1      -7.071   4.069 -31.831  1.00  0.00     0.169 C 
HETATM   26  C   UNL     1      -6.429   2.792 -31.252  1.00  0.00     0.255 C 
HETATM   27  N   UNL     1      -6.476   1.674 -32.298  1.00  0.00    -0.064 N 
HETATM   28  H   UNL     1      -7.467   1.524 -32.522  1.00  0.00     0.280 HD
HETATM   29  C   UNL     1      -5.773   2.107 -33.581  1.00  0.00     0.255 C 
HETATM   30  C   UNL     1      -6.423   3.397 -34.139  1.00  0.00     0.169 C 
BRANCH  27  31
HETATM   31  C   UNL     1      -5.964   0.354 -31.771  1.00  0.00     0.273 C 
BRANCH  31  32
HETATM   32  C   UNL     1      -5.870  -0.695 -32.847  1.00  0.00    -0.033 A 
HETATM   33  C   UNL     1      -7.009  -1.076 -33.574  1.00  0.00     0.009 A 
HETATM   34  C   UNL     1      -6.929  -2.081 -34.539  1.00  0.00     0.001 A 
HETATM   35  C   UNL     1      -5.713  -2.711 -34.792  1.00  0.00     0.000 A 
HETATM   36  C   UNL     1      -4.573  -2.333 -34.087  1.00  0.00     0.001 A 
HETATM   37  C   UNL     1      -4.648  -1.330 -33.119  1.00  0.00     0.009 A 
ENDBRANCH  31  32
ENDBRANCH  27  31
ENDBRANCH   3  24
BRANCH   5  38
HETATM   38  N   UNL     1      -2.469   5.825 -35.021  1.00  0.00    -0.284 NA
HETATM   39  H   UNL     1      -1.996   4.925 -35.044  1.00  0.00     0.125 HD
HETATM   40  H   UNL     1      -1.803   6.586 -35.130  1.00  0.00     0.125 HD
ENDBRANCH   5  38
TORSDOF 8
ENDMDL
