MODEL 1
REMARK VINA RESULT:      -8.2      0.000      0.000
REMARK  2 active torsions:
REMARK  status: ('A' for Active; 'I' for Inactive)
REMARK    1  A    between atoms: C_7  and  C_8 
REMARK    2  A    between atoms: C_8  and  O_9 
ROOT
HETATM    1  C   UNL     1      -6.064   0.941 -31.531  1.00  0.00     0.199 A 
HETATM    2  C   UNL     1      -5.940   1.031 -29.975  1.00  0.00     0.266 A 
HETATM    3  O   UNL     1      -6.299   0.202 -29.151  1.00  0.00    -0.269 OA
HETATM    4  N   UNL     1      -5.394   2.278 -29.671  1.00  0.00    -0.323 N 
HETATM    5  C   UNL     1      -5.150   3.013 -30.822  1.00  0.00     0.045 A 
HETATM    6  C   UNL     1      -5.510   2.279 -31.957  1.00  0.00     0.019 A 
HETATM    7  C   UNL     1      -4.645   4.295 -30.893  1.00  0.00     0.032 A 
HETATM    8  C   UNL     1      -4.498   4.859 -32.163  1.00  0.00     0.026 A 
HETATM    9  C   UNL     1      -4.859   4.134 -33.313  1.00  0.00     0.034 A 
HETATM   10 CL   UNL     1      -4.673   4.861 -34.862  1.00  0.00    -0.084 Cl
HETATM   11  C   UNL     1      -5.374   2.839 -33.220  1.00  0.00     0.037 A 
HETATM   12  H   UNL     1      -5.245   2.594 -28.724  1.00  0.00     0.169 HD
ENDROOT
BRANCH   1  13
HETATM   13  C   UNL     1      -5.215  -0.130 -32.179  1.00  0.00     0.025 A 
HETATM   14  C   UNL     1      -3.860  -0.366 -31.933  1.00  0.00     0.016 A 
HETATM   15  C   UNL     1      -2.892   0.307 -31.022  1.00  0.00     0.069 C 
HETATM   16  N   UNL     1      -3.457  -1.413 -32.719  1.00  0.00    -0.359 N 
HETATM   17  H   UNL     1      -2.522  -1.794 -32.745  1.00  0.00     0.166 HD
HETATM   18  C   UNL     1      -4.500  -1.885 -33.472  1.00  0.00     0.043 A 
HETATM   19  C   UNL     1      -5.620  -1.113 -33.161  1.00  0.00     0.003 A 
HETATM   20  C   UNL     1      -4.521  -2.933 -34.401  1.00  0.00     0.030 A 
HETATM   21  C   UNL     1      -6.830  -1.427 -33.822  1.00  0.00     0.014 A 
HETATM   22  C   UNL     1      -6.869  -2.470 -34.757  1.00  0.00     0.001 A 
HETATM   23  C   UNL     1      -5.729  -3.212 -35.042  1.00  0.00     0.002 A 
ENDBRANCH   1  13
BRANCH   1  24
HETATM   24  O   UNL     1      -7.442   0.856 -31.884  1.00  0.00    -0.371 OA
HETATM   25  H   UNL     1      -7.711   1.782 -32.019  1.00  0.00     0.212 HD
ENDBRANCH   1  24
TORSDOF 2
ENDMDL
MODEL 2
REMARK VINA RESULT:      -8.1      3.362      5.408
REMARK  2 active torsions:
REMARK  status: ('A' for Active; 'I' for Inactive)
REMARK    1  A    between atoms: C_7  and  C_8 
REMARK    2  A    between atoms: C_8  and  O_9 
ROOT
HETATM    1  C   UNL     1      -4.263  -0.564 -32.749  1.00  0.00     0.199 A 
HETATM    2  C   UNL     1      -3.202  -0.599 -31.601  1.00  0.00     0.266 A 
HETATM    3  O   UNL     1      -2.766   0.348 -30.962  1.00  0.00    -0.269 OA
HETATM    4  N   UNL     1      -2.778  -1.920 -31.465  1.00  0.00    -0.323 N 
HETATM    5  C   UNL     1      -3.417  -2.749 -32.375  1.00  0.00     0.045 A 
HETATM    6  C   UNL     1      -4.317  -2.016 -33.156  1.00  0.00     0.019 A 
HETATM    7  C   UNL     1      -3.217  -4.104 -32.542  1.00  0.00     0.032 A 
HETATM    8  C   UNL     1      -3.957  -4.745 -33.540  1.00  0.00     0.026 A 
HETATM    9  C   UNL     1      -4.862  -4.021 -34.334  1.00  0.00     0.034 A 
HETATM   10 CL   UNL     1      -5.752  -4.840 -35.560  1.00  0.00    -0.084 Cl
HETATM   11  C   UNL     1      -5.048  -2.648 -34.153  1.00  0.00     0.037 A 
HETATM   12  H   UNL     1      -2.064  -2.201 -30.808  1.00  0.00     0.169 HD
ENDROOT
BRANCH   1  13
HETATM   13  C   UNL     1      -5.656  -0.159 -32.321  1.00  0.00     0.025 A 
HETATM   14  C   UNL     1      -6.093   0.015 -31.005  1.00  0.00     0.016 A 
HETATM   15  C   UNL     1      -5.383  -0.127 -29.704  1.00  0.00     0.069 C 
HETATM   16  N   UNL     1      -7.416   0.372 -31.036  1.00  0.00    -0.359 N 
HETATM   17  H   UNL     1      -7.987   0.559 -30.224  1.00  0.00     0.166 HD
HETATM   18  C   UNL     1      -7.868   0.449 -32.327  1.00  0.00     0.043 A 
HETATM   19  C   UNL     1      -6.797   0.129 -33.162  1.00  0.00     0.003 A 
HETATM   20  C   UNL     1      -9.144   0.777 -32.802  1.00  0.00     0.030 A 
HETATM   21  C   UNL     1      -7.032   0.149 -34.557  1.00  0.00     0.014 A 
HETATM   22  C   UNL     1      -8.303   0.471 -35.051  1.00  0.00     0.001 A 
HETATM   23  C   UNL     1      -9.345   0.780 -34.184  1.00  0.00     0.002 A 
ENDBRANCH   1  13
BRANCH   1  24
HETATM   24  O   UNL     1      -3.757   0.219 -33.827  1.00  0.00    -0.371 OA
HETATM   25  H   UNL     1      -3.834   1.137 -33.511  1.00  0.00     0.212 HD
ENDBRANCH   1  24
TORSDOF 2
ENDMDL
MODEL 3
REMARK VINA RESULT:      -8.0      1.642      2.440
REMARK  2 active torsions:
REMARK  status: ('A' for Active; 'I' for Inactive)
REMARK    1  A    between atoms: C_7  and  C_8 
REMARK    2  A    between atoms: C_8  and  O_9 
ROOT
HETATM    1  C   UNL     1      -6.470   1.536 -31.971  1.00  0.00     0.199 A 
HETATM    2  C   UNL     1      -5.861   0.966 -30.648  1.00  0.00     0.266 A 
HETATM    3  O   UNL     1      -6.377   0.174 -29.873  1.00  0.00    -0.269 OA
HETATM    4  N   UNL     1      -4.621   1.578 -30.462  1.00  0.00    -0.323 N 
HETATM    5  C   UNL     1      -4.345   2.473 -31.484  1.00  0.00     0.045 A 
HETATM    6  C   UNL     1      -5.388   2.489 -32.417  1.00  0.00     0.019 A 
HETATM    7  C   UNL     1      -3.227   3.273 -31.604  1.00  0.00     0.032 A 
HETATM    8  C   UNL     1      -3.160   4.124 -32.710  1.00  0.00     0.026 A 
HETATM    9  C   UNL     1      -4.202   4.153 -33.653  1.00  0.00     0.034 A 
HETATM   10 CL   UNL     1      -4.092   5.219 -35.001  1.00  0.00    -0.084 Cl
HETATM   11  C   UNL     1      -5.328   3.339 -33.513  1.00  0.00     0.037 A 
HETATM   12  H   UNL     1      -4.041   1.403 -29.655  1.00  0.00     0.169 HD
ENDROOT
BRANCH   1  13
HETATM   13  C   UNL     1      -6.665   0.520 -33.075  1.00  0.00     0.025 A 
HETATM   14  C   UNL     1      -7.696   0.518 -34.018  1.00  0.00     0.016 A 
HETATM   15  C   UNL     1      -8.843   1.444 -34.226  1.00  0.00     0.069 C 
HETATM   16  N   UNL     1      -7.525  -0.568 -34.837  1.00  0.00    -0.359 N 
HETATM   17  H   UNL     1      -8.130  -0.816 -35.607  1.00  0.00     0.166 HD
HETATM   18  C   UNL     1      -6.412  -1.280 -34.474  1.00  0.00     0.043 A 
HETATM   19  C   UNL     1      -5.842  -0.631 -33.379  1.00  0.00     0.003 A 
HETATM   20  C   UNL     1      -5.882  -2.447 -35.040  1.00  0.00     0.030 A 
HETATM   21  C   UNL     1      -4.664  -1.191 -32.832  1.00  0.00     0.014 A 
HETATM   22  C   UNL     1      -4.121  -2.360 -33.382  1.00  0.00     0.001 A 
HETATM   23  C   UNL     1      -4.723  -2.979 -34.471  1.00  0.00     0.002 A 
ENDBRANCH   1  13
BRANCH   1  24
HETATM   24  O   UNL     1      -7.655   2.264 -31.662  1.00  0.00    -0.371 OA
HETATM   25  H   UNL     1      -8.357   1.590 -31.668  1.00  0.00     0.212 HD
ENDBRANCH   1  24
TORSDOF 2
ENDMDL
MODEL 4
REMARK VINA RESULT:      -8.0     15.482     16.904
REMARK  2 active torsions:
REMARK  status: ('A' for Active; 'I' for Inactive)
REMARK    1  A    between atoms: C_7  and  C_8 
REMARK    2  A    between atoms: C_8  and  O_9 
ROOT
HETATM    1  C   UNL     1      -4.898 -12.675 -39.788  1.00  0.00     0.199 A 
HETATM    2  C   UNL     1      -3.689 -12.571 -38.801  1.00  0.00     0.266 A 
HETATM    3  O   UNL     1      -3.624 -11.911 -37.774  1.00  0.00    -0.269 OA
HETATM    4  N   UNL     1      -2.646 -13.326 -39.336  1.00  0.00    -0.323 N 
HETATM    5  C   UNL     1      -3.013 -13.904 -40.542  1.00  0.00     0.045 A 
HETATM    6  C   UNL     1      -4.334 -13.573 -40.863  1.00  0.00     0.019 A 
HETATM    7  C   UNL     1      -2.223 -14.687 -41.359  1.00  0.00     0.032 A 
HETATM    8  C   UNL     1      -2.789 -15.153 -42.549  1.00  0.00     0.026 A 
HETATM    9  C   UNL     1      -4.114 -14.824 -42.885  1.00  0.00     0.034 A 
HETATM   10 CL   UNL     1      -4.780 -15.408 -44.362  1.00  0.00    -0.084 Cl
HETATM   11  C   UNL     1      -4.898 -14.027 -42.048  1.00  0.00     0.037 A 
HETATM   12  H   UNL     1      -1.738 -13.391 -38.901  1.00  0.00     0.169 HD
ENDROOT
BRANCH   1  13
HETATM   13  C   UNL     1      -6.126 -13.355 -39.225  1.00  0.00     0.025 A 
HETATM   14  C   UNL     1      -6.133 -14.431 -38.334  1.00  0.00     0.016 A 
HETATM   15  C   UNL     1      -5.023 -15.192 -37.698  1.00  0.00     0.069 C 
HETATM   16  N   UNL     1      -7.437 -14.762 -38.072  1.00  0.00    -0.359 N 
HETATM   17  H   UNL     1      -7.736 -15.508 -37.460  1.00  0.00     0.166 HD
HETATM   18  C   UNL     1      -8.294 -13.937 -38.753  1.00  0.00     0.043 A 
HETATM   19  C   UNL     1      -7.514 -13.039 -39.483  1.00  0.00     0.003 A 
HETATM   20  C   UNL     1      -9.695 -13.931 -38.769  1.00  0.00     0.030 A 
HETATM   21  C   UNL     1      -8.193 -12.078 -40.267  1.00  0.00     0.014 A 
HETATM   22  C   UNL     1      -9.593 -12.059 -40.298  1.00  0.00     0.001 A 
HETATM   23  C   UNL     1     -10.333 -12.974 -39.560  1.00  0.00     0.002 A 
ENDBRANCH   1  13
BRANCH   1  24
HETATM   24  O   UNL     1      -5.169 -11.386 -40.331  1.00  0.00    -0.371 OA
HETATM   25  H   UNL     1      -5.104 -10.787 -39.566  1.00  0.00     0.212 HD
ENDBRANCH   1  24
TORSDOF 2
ENDMDL
MODEL 5
REMARK VINA RESULT:      -7.8      1.854      2.206
REMARK  2 active torsions:
REMARK  status: ('A' for Active; 'I' for Inactive)
REMARK    1  A    between atoms: C_7  and  C_8 
REMARK    2  A    between atoms: C_8  and  O_9 
ROOT
HETATM    1  C   UNL     1      -7.508   0.919 -33.168  1.00  0.00     0.199 A 
HETATM    2  C   UNL     1      -8.615   1.054 -32.071  1.00  0.00     0.266 A 
HETATM    3  O   UNL     1      -9.372   0.183 -31.668  1.00  0.00    -0.269 OA
HETATM    4  N   UNL     1      -8.637   2.388 -31.663  1.00  0.00    -0.323 N 
HETATM    5  C   UNL     1      -7.696   3.139 -32.351  1.00  0.00     0.045 A 
HETATM    6  C   UNL     1      -6.985   2.333 -33.246  1.00  0.00     0.019 A 
HETATM    7  C   UNL     1      -7.466   4.494 -32.224  1.00  0.00     0.032 A 
HETATM    8  C   UNL     1      -6.478   5.057 -33.036  1.00  0.00     0.026 A 
HETATM    9  C   UNL     1      -5.757   4.259 -33.942  1.00  0.00     0.034 A 
HETATM   10 CL   UNL     1      -4.551   4.986 -34.933  1.00  0.00    -0.084 Cl
HETATM   11  C   UNL     1      -6.008   2.890 -34.060  1.00  0.00     0.037 A 
HETATM   12  H   UNL     1      -9.294   2.740 -30.982  1.00  0.00     0.169 HD
ENDROOT
BRANCH   1  13
HETATM   13  C   UNL     1      -6.347   0.024 -32.797  1.00  0.00     0.025 A 
HETATM   14  C   UNL     1      -5.544   0.148 -31.660  1.00  0.00     0.016 A 
HETATM   15  C   UNL     1      -5.573   1.122 -30.534  1.00  0.00     0.069 C 
HETATM   16  N   UNL     1      -4.600  -0.845 -31.691  1.00  0.00    -0.359 N 
HETATM   17  H   UNL     1      -3.886  -0.991 -30.992  1.00  0.00     0.166 HD
HETATM   18  C   UNL     1      -4.755  -1.628 -32.805  1.00  0.00     0.043 A 
HETATM   19  C   UNL     1      -5.840  -1.121 -33.522  1.00  0.00     0.003 A 
HETATM   20  C   UNL     1      -4.009  -2.739 -33.220  1.00  0.00     0.030 A 
HETATM   21  C   UNL     1      -6.192  -1.783 -34.721  1.00  0.00     0.014 A 
HETATM   22  C   UNL     1      -5.456  -2.893 -35.153  1.00  0.00     0.001 A 
HETATM   23  C   UNL     1      -4.379  -3.364 -34.412  1.00  0.00     0.002 A 
ENDBRANCH   1  13
BRANCH   1  24
HETATM   24  O   UNL     1      -8.119   0.563 -34.405  1.00  0.00    -0.371 OA
HETATM   25  H   UNL     1      -7.518  -0.102 -34.785  1.00  0.00     0.212 HD
ENDBRANCH   1  24
TORSDOF 2
ENDMDL
MODEL 6
REMARK VINA RESULT:      -7.6      2.811      5.848
REMARK  2 active torsions:
REMARK  status: ('A' for Active; 'I' for Inactive)
REMARK    1  A    between atoms: C_7  and  C_8 
REMARK    2  A    between atoms: C_8  and  O_9 
ROOT
HETATM    1  C   UNL     1      -5.230   3.080 -31.436  1.00  0.00     0.199 A 
HETATM    2  C   UNL     1      -6.619   3.442 -30.816  1.00  0.00     0.266 A 
HETATM    3  O   UNL     1      -6.919   4.459 -30.207  1.00  0.00    -0.269 OA
HETATM    4  N   UNL     1      -7.466   2.354 -31.023  1.00  0.00    -0.323 N 
HETATM    5  C   UNL     1      -6.813   1.329 -31.691  1.00  0.00     0.045 A 
HETATM    6  C   UNL     1      -5.493   1.696 -31.978  1.00  0.00     0.019 A 
HETATM    7  C   UNL     1      -7.335   0.098 -32.032  1.00  0.00     0.032 A 
HETATM    8  C   UNL     1      -6.489  -0.800 -32.688  1.00  0.00     0.026 A 
HETATM    9  C   UNL     1      -5.160  -0.447 -32.980  1.00  0.00     0.034 A 
HETATM   10 CL   UNL     1      -4.142  -1.580 -33.783  1.00  0.00    -0.084 Cl
HETATM   11  C   UNL     1      -4.648   0.803 -32.623  1.00  0.00     0.037 A 
HETATM   12  H   UNL     1      -8.416   2.327 -30.681  1.00  0.00     0.169 HD
ENDROOT
BRANCH   1  13
HETATM   13  C   UNL     1      -4.803   3.949 -32.598  1.00  0.00     0.025 A 
HETATM   14  C   UNL     1      -5.624   4.394 -33.637  1.00  0.00     0.016 A 
HETATM   15  C   UNL     1      -7.071   4.176 -33.913  1.00  0.00     0.069 C 
HETATM   16  N   UNL     1      -4.863   5.147 -34.492  1.00  0.00    -0.359 N 
HETATM   17  H   UNL     1      -5.202   5.592 -35.334  1.00  0.00     0.166 HD
HETATM   18  C   UNL     1      -3.568   5.224 -34.052  1.00  0.00     0.043 A 
HETATM   19  C   UNL     1      -3.489   4.492 -32.866  1.00  0.00     0.003 A 
HETATM   20  C   UNL     1      -2.473   5.886 -34.623  1.00  0.00     0.030 A 
HETATM   21  C   UNL     1      -2.232   4.434 -32.221  1.00  0.00     0.014 A 
HETATM   22  C   UNL     1      -1.125   5.087 -32.779  1.00  0.00     0.001 A 
HETATM   23  C   UNL     1      -1.245   5.803 -33.964  1.00  0.00     0.002 A 
ENDBRANCH   1  13
BRANCH   1  24
HETATM   24  O   UNL     1      -4.259   3.013 -30.397  1.00  0.00    -0.371 OA
HETATM   25  H   UNL     1      -4.782   3.063 -29.578  1.00  0.00     0.212 HD
ENDBRANCH   1  24
TORSDOF 2
ENDMDL
MODEL 7
REMARK VINA RESULT:      -7.5      2.459      5.473
REMARK  2 active torsions:
REMARK  status: ('A' for Active; 'I' for Inactive)
REMARK    1  A    between atoms: C_7  and  C_8 
REMARK    2  A    between atoms: C_8  and  O_9 
ROOT
HETATM    1  C   UNL     1      -7.302   0.973 -32.058  1.00  0.00     0.199 A 
HETATM    2  C   UNL     1      -8.432   1.551 -32.972  1.00  0.00     0.266 A 
HETATM    3  O   UNL     1      -9.246   2.418 -32.688  1.00  0.00    -0.269 OA
HETATM    4  N   UNL     1      -8.395   0.850 -34.177  1.00  0.00    -0.323 N 
HETATM    5  C   UNL     1      -7.395  -0.111 -34.167  1.00  0.00     0.045 A 
HETATM    6  C   UNL     1      -6.702  -0.085 -32.953  1.00  0.00     0.019 A 
HETATM    7  C   UNL     1      -7.096  -1.005 -35.176  1.00  0.00     0.032 A 
HETATM    8  C   UNL     1      -6.056  -1.909 -34.947  1.00  0.00     0.026 A 
HETATM    9  C   UNL     1      -5.352  -1.896 -33.730  1.00  0.00     0.034 A 
HETATM   10 CL   UNL     1      -4.080  -3.028 -33.478  1.00  0.00    -0.084 Cl
HETATM   11  C   UNL     1      -5.672  -0.987 -32.719  1.00  0.00     0.037 A 
HETATM   12  H   UNL     1      -9.052   1.013 -34.925  1.00  0.00     0.169 HD
ENDROOT
BRANCH   1  13
HETATM   13  C   UNL     1      -6.202   1.949 -31.707  1.00  0.00     0.025 A 
HETATM   14  C   UNL     1      -5.453   1.954 -30.527  1.00  0.00     0.016 A 
HETATM   15  C   UNL     1      -5.491   1.067 -29.332  1.00  0.00     0.069 C 
HETATM   16  N   UNL     1      -4.566   2.997 -30.587  1.00  0.00    -0.359 N 
HETATM   17  H   UNL     1      -3.901   3.237 -29.865  1.00  0.00     0.166 HD
HETATM   18  C   UNL     1      -4.695   3.679 -31.769  1.00  0.00     0.043 A 
HETATM   19  C   UNL     1      -5.705   3.052 -32.501  1.00  0.00     0.003 A 
HETATM   20  C   UNL     1      -3.991   4.799 -32.230  1.00  0.00     0.030 A 
HETATM   21  C   UNL     1      -6.012   3.587 -33.773  1.00  0.00     0.014 A 
HETATM   22  C   UNL     1      -5.321   4.709 -34.249  1.00  0.00     0.001 A 
HETATM   23  C   UNL     1      -4.325   5.306 -33.486  1.00  0.00     0.002 A 
ENDBRANCH   1  13
BRANCH   1  24
HETATM   24  O   UNL     1      -7.894   0.359 -30.917  1.00  0.00    -0.371 OA
HETATM   25  H   UNL     1      -7.631  -0.576 -30.986  1.00  0.00     0.212 HD
ENDBRANCH   1  24
TORSDOF 2
ENDMDL
MODEL 8
REMARK VINA RESULT:      -7.5      3.198      6.150
REMARK  2 active torsions:
REMARK  status: ('A' for Active; 'I' for Inactive)
REMARK    1  A    between atoms: C_7  and  C_8 
REMARK    2  A    between atoms: C_8  and  O_9 
ROOT
HETATM    1  C   UNL     1      -8.840   1.514 -32.802  1.00  0.00     0.199 A 
HETATM    2  C   UNL     1      -9.583   1.523 -34.179  1.00  0.00     0.266 A 
HETATM    3  O   UNL     1     -10.633   2.086 -34.454  1.00  0.00    -0.269 OA
HETATM    4  N   UNL     1      -8.859   0.708 -35.049  1.00  0.00    -0.323 N 
HETATM    5  C   UNL     1      -7.748   0.165 -34.421  1.00  0.00     0.045 A 
HETATM    6  C   UNL     1      -7.668   0.609 -33.097  1.00  0.00     0.019 A 
HETATM    7  C   UNL     1      -6.832  -0.708 -34.970  1.00  0.00     0.032 A 
HETATM    8  C   UNL     1      -5.793  -1.152 -34.148  1.00  0.00     0.026 A 
HETATM    9  C   UNL     1      -5.702  -0.716 -32.814  1.00  0.00     0.034 A 
HETATM   10 CL   UNL     1      -4.413  -1.287 -31.825  1.00  0.00    -0.084 Cl
HETATM   11  C   UNL     1      -6.642   0.165 -32.274  1.00  0.00     0.037 A 
HETATM   12  H   UNL     1      -9.154   0.521 -35.996  1.00  0.00     0.169 HD
ENDROOT
BRANCH   1  13
HETATM   13  C   UNL     1      -8.285   2.851 -32.367  1.00  0.00     0.025 A 
HETATM   14  C   UNL     1      -8.743   3.622 -31.295  1.00  0.00     0.016 A 
HETATM   15  C   UNL     1      -9.836   3.391 -30.311  1.00  0.00     0.069 C 
HETATM   16  N   UNL     1      -7.988   4.764 -31.235  1.00  0.00    -0.359 N 
HETATM   17  H   UNL     1      -8.104   5.503 -30.555  1.00  0.00     0.166 HD
HETATM   18  C   UNL     1      -7.039   4.773 -32.224  1.00  0.00     0.043 A 
HETATM   19  C   UNL     1      -7.188   3.592 -32.952  1.00  0.00     0.003 A 
HETATM   20  C   UNL     1      -6.072   5.743 -32.518  1.00  0.00     0.030 A 
HETATM   21  C   UNL     1      -6.302   3.379 -34.033  1.00  0.00     0.014 A 
HETATM   22  C   UNL     1      -5.330   4.340 -34.345  1.00  0.00     0.001 A 
HETATM   23  C   UNL     1      -5.218   5.505 -33.597  1.00  0.00     0.002 A 
ENDBRANCH   1  13
BRANCH   1  24
HETATM   24  O   UNL     1      -9.681   0.909 -31.824  1.00  0.00    -0.371 OA
HETATM   25  H   UNL     1      -9.062   0.447 -31.231  1.00  0.00     0.212 HD
ENDBRANCH   1  24
TORSDOF 2
ENDMDL
MODEL 9
REMARK VINA RESULT:      -7.4      3.576      5.620
REMARK  2 active torsions:
REMARK  status: ('A' for Active; 'I' for Inactive)
REMARK    1  A    between atoms: C_7  and  C_8 
REMARK    2  A    between atoms: C_8  and  O_9 
ROOT
HETATM    1  C   UNL     1      -6.244   0.914 -33.664  1.00  0.00     0.199 A 
HETATM    2  C   UNL     1      -4.979   1.422 -32.897  1.00  0.00     0.266 A 
HETATM    3  O   UNL     1      -4.733   2.567 -32.545  1.00  0.00    -0.269 OA
HETATM    4  N   UNL     1      -4.125   0.332 -32.733  1.00  0.00    -0.323 N 
HETATM    5  C   UNL     1      -4.662  -0.816 -33.295  1.00  0.00     0.045 A 
HETATM    6  C   UNL     1      -5.918  -0.548 -33.850  1.00  0.00     0.019 A 
HETATM    7  C   UNL     1      -4.077  -2.065 -33.345  1.00  0.00     0.032 A 
HETATM    8  C   UNL     1      -4.790  -3.084 -33.982  1.00  0.00     0.026 A 
HETATM    9  C   UNL     1      -6.051  -2.829 -34.548  1.00  0.00     0.034 A 
HETATM   10 CL   UNL     1      -6.899  -4.105 -35.333  1.00  0.00    -0.084 Cl
HETATM   11  C   UNL     1      -6.625  -1.556 -34.492  1.00  0.00     0.037 A 
HETATM   12  H   UNL     1      -3.219   0.409 -32.295  1.00  0.00     0.169 HD
ENDROOT
BRANCH   1  13
HETATM   13  C   UNL     1      -7.539   0.996 -32.887  1.00  0.00     0.025 A 
HETATM   14  C   UNL     1      -7.745   0.537 -31.583  1.00  0.00     0.016 A 
HETATM   15  C   UNL     1      -6.828  -0.125 -30.615  1.00  0.00     0.069 C 
HETATM   16  N   UNL     1      -9.048   0.786 -31.242  1.00  0.00    -0.359 N 
HETATM   17  H   UNL     1      -9.472   0.555 -30.354  1.00  0.00     0.166 HD
HETATM   18  C   UNL     1      -9.711   1.403 -32.271  1.00  0.00     0.043 A 
HETATM   19  C   UNL     1      -8.801   1.557 -33.318  1.00  0.00     0.003 A 
HETATM   20  C   UNL     1     -11.044   1.826 -32.341  1.00  0.00     0.030 A 
HETATM   21  C   UNL     1      -9.267   2.182 -34.497  1.00  0.00     0.014 A 
HETATM   22  C   UNL     1     -10.599   2.609 -34.587  1.00  0.00     0.001 A 
HETATM   23  C   UNL     1     -11.475   2.432 -33.522  1.00  0.00     0.002 A 
ENDBRANCH   1  13
BRANCH   1  24
HETATM   24  O   UNL     1      -6.309   1.558 -34.934  1.00  0.00    -0.371 OA
HETATM   25  H   UNL     1      -7.217   1.906 -34.978  1.00  0.00     0.212 HD
ENDBRANCH   1  24
TORSDOF 2
ENDMDL
MODEL 10
REMARK VINA RESULT:      -7.4      4.895      6.072
REMARK  2 active torsions:
REMARK  status: ('A' for Active; 'I' for Inactive)
REMARK    1  A    between atoms: C_7  and  C_8 
REMARK    2  A    between atoms: C_8  and  O_9 
ROOT
HETATM    1  C   UNL     1      -9.660   3.334 -33.020  1.00  0.00     0.199 A 
HETATM    2  C   UNL     1      -9.294   4.368 -34.134  1.00  0.00     0.266 A 
HETATM    3  O   UNL     1      -8.462   5.263 -34.074  1.00  0.00    -0.269 OA
HETATM    4  N   UNL     1     -10.142   4.135 -35.216  1.00  0.00    -0.323 N 
HETATM    5  C   UNL     1     -11.014   3.090 -34.954  1.00  0.00     0.045 A 
HETATM    6  C   UNL     1     -10.777   2.562 -33.680  1.00  0.00     0.019 A 
HETATM    7  C   UNL     1     -12.007   2.611 -35.785  1.00  0.00     0.032 A 
HETATM    8  C   UNL     1     -12.791   1.557 -35.310  1.00  0.00     0.026 A 
HETATM    9  C   UNL     1     -12.566   1.019 -34.031  1.00  0.00     0.034 A 
HETATM   10 CL   UNL     1     -13.555  -0.275 -33.472  1.00  0.00    -0.084 Cl
HETATM   11  C   UNL     1     -11.559   1.520 -33.201  1.00  0.00     0.037 A 
HETATM   12  H   UNL     1     -10.128   4.698 -36.053  1.00  0.00     0.169 HD
ENDROOT
BRANCH   1  13
HETATM   13  C   UNL     1      -8.565   2.348 -32.679  1.00  0.00     0.025 A 
HETATM   14  C   UNL     1      -7.878   2.269 -31.464  1.00  0.00     0.016 A 
HETATM   15  C   UNL     1      -7.997   3.065 -30.212  1.00  0.00     0.069 C 
HETATM   16  N   UNL     1      -6.962   1.255 -31.555  1.00  0.00    -0.359 N 
HETATM   17  H   UNL     1      -6.326   0.978 -30.820  1.00  0.00     0.166 HD
HETATM   18  C   UNL     1      -7.022   0.653 -32.785  1.00  0.00     0.043 A 
HETATM   19  C   UNL     1      -8.016   1.303 -33.517  1.00  0.00     0.003 A 
HETATM   20  C   UNL     1      -6.267  -0.414 -33.289  1.00  0.00     0.030 A 
HETATM   21  C   UNL     1      -8.262   0.842 -34.831  1.00  0.00     0.014 A 
HETATM   22  C   UNL     1      -7.514  -0.221 -35.354  1.00  0.00     0.001 A 
HETATM   23  C   UNL     1      -6.529  -0.839 -34.592  1.00  0.00     0.002 A 
ENDBRANCH   1  13
BRANCH   1  24
HETATM   24  O   UNL     1     -10.163   4.031 -31.884  1.00  0.00    -0.371 OA
HETATM   25  H   UNL     1     -11.117   4.115 -32.059  1.00  0.00     0.212 HD
ENDBRANCH   1  24
TORSDOF 2
ENDMDL
