MODEL 1
REMARK VINA RESULT:      -9.4      0.000      0.000
REMARK  5 active torsions:
REMARK  status: ('A' for Active; 'I' for Inactive)
REMARK    1  A    between atoms: C_2  and  N_3 
REMARK    2  A    between atoms: C_11  and  C_12 
REMARK    3  A    between atoms: C_14  and  C_15 
REMARK    4  A    between atoms: C_15  and  O_16 
REMARK    5  A    between atoms: O_16  and  C_17 
ROOT
HETATM    1  N   UNL     1       0.022   8.149 -26.663  1.00  0.00    -0.067 N 
HETATM    2  H   UNL     1      -0.618   7.436 -26.290  1.00  0.00     0.280 HD
HETATM    3  C   UNL     1      -0.790   8.950 -27.681  1.00  0.00     0.281 C 
HETATM    4  C   UNL     1      -1.054   8.145 -28.905  1.00  0.00     0.018 A 
HETATM    5  C   UNL     1      -0.411   6.968 -29.243  1.00  0.00    -0.023 A 
HETATM    6  C   UNL     1      -0.880   6.462 -30.497  1.00  0.00     0.073 A 
HETATM    7  C   UNL     1      -1.835   7.283 -31.051  1.00  0.00     0.088 A 
HETATM    8  N   UNL     1      -2.423   7.034 -32.244  1.00  0.00    -0.357 N 
HETATM    9  C   UNL     1      -2.408   5.657 -32.718  1.00  0.00     0.243 C 
HETATM   10  N   UNL     1      -1.131   5.060 -32.406  1.00  0.00    -0.330 N 
HETATM   11  C   UNL     1      -0.479   5.271 -31.222  1.00  0.00     0.256 C 
HETATM   12  O   UNL     1       0.405   4.518 -30.829  1.00  0.00    -0.267 OA
HETATM   13  S   UNL     1      -2.188   8.631 -30.078  1.00  0.00    -0.074 SA
HETATM   14  C   UNL     1       0.625   6.361 -28.350  1.00  0.00     0.068 C 
HETATM   15  C   UNL     1       1.167   7.390 -27.343  1.00  0.00     0.240 C 
HETATM   16  H   UNL     1      -3.324   7.479 -32.408  1.00  0.00     0.162 HD
HETATM   17  H   UNL     1      -0.878   4.206 -32.878  1.00  0.00     0.165 HD
ENDROOT
BRANCH   9  18
HETATM   18  C   UNL     1      -3.514   4.781 -32.203  1.00  0.00     0.095 A 
HETATM   19  O   UNL     1      -4.029   3.861 -33.076  1.00  0.00    -0.313 OA
HETATM   20  C   UNL     1      -5.010   3.178 -32.419  1.00  0.00     0.077 A 
HETATM   21  C   UNL     1      -5.110   3.632 -31.122  1.00  0.00     0.037 A 
HETATM   22  C   UNL     1      -4.145   4.657 -30.979  1.00  0.00     0.039 A 
BRANCH  20  23
HETATM   23  C   UNL     1      -5.713   2.111 -33.181  1.00  0.00     0.240 C 
BRANCH  23  24
HETATM   24  O   UNL     1      -5.720   0.935 -32.359  1.00  0.00    -0.341 OA
BRANCH  24  25
HETATM   25  C   UNL     1      -5.820  -0.223 -33.089  1.00  0.00     0.112 A 
HETATM   26  C   UNL     1      -7.050  -0.778 -33.468  1.00  0.00     0.070 A 
HETATM   27 CL   UNL     1      -8.558  -0.052 -33.044  1.00  0.00    -0.081 Cl
HETATM   28  C   UNL     1      -7.094  -1.980 -34.181  1.00  0.00     0.050 A 
HETATM   29  C   UNL     1      -5.910  -2.641 -34.492  1.00  0.00     0.037 A 
HETATM   30 CL   UNL     1      -5.967  -4.127 -35.358  1.00  0.00    -0.084 Cl
HETATM   31  C   UNL     1      -4.681  -2.123 -34.093  1.00  0.00     0.050 A 
HETATM   32  C   UNL     1      -4.638  -0.921 -33.386  1.00  0.00     0.070 A 
HETATM   33 CL   UNL     1      -3.095  -0.323 -32.886  1.00  0.00    -0.081 Cl
ENDBRANCH  24  25
ENDBRANCH  23  24
ENDBRANCH  20  23
ENDBRANCH   9  18
BRANCH   1  34
HETATM   34  C   UNL     1       0.524   8.983 -25.512  1.00  0.00     0.231 C 
HETATM   35  C   UNL     1       2.039   8.940 -25.422  1.00  0.00     0.034 C 
ENDBRANCH   1  34
TORSDOF 5
ENDMDL
MODEL 2
REMARK VINA RESULT:      -9.3      0.072      1.615
REMARK  5 active torsions:
REMARK  status: ('A' for Active; 'I' for Inactive)
REMARK    1  A    between atoms: C_2  and  N_3 
REMARK    2  A    between atoms: C_11  and  C_12 
REMARK    3  A    between atoms: C_14  and  C_15 
REMARK    4  A    between atoms: C_15  and  O_16 
REMARK    5  A    between atoms: O_16  and  C_17 
ROOT
HETATM    1  N   UNL     1      -0.017   8.111 -26.689  1.00  0.00    -0.067 N 
HETATM    2  H   UNL     1      -0.649   7.391 -26.315  1.00  0.00     0.280 HD
HETATM    3  C   UNL     1      -0.844   8.914 -27.694  1.00  0.00     0.281 C 
HETATM    4  C   UNL     1      -1.115   8.116 -28.921  1.00  0.00     0.018 A 
HETATM    5  C   UNL     1      -0.467   6.945 -29.273  1.00  0.00    -0.023 A 
HETATM    6  C   UNL     1      -0.945   6.445 -30.526  1.00  0.00     0.073 A 
HETATM    7  C   UNL     1      -1.910   7.264 -31.065  1.00  0.00     0.088 A 
HETATM    8  N   UNL     1      -2.508   7.019 -32.255  1.00  0.00    -0.357 N 
HETATM    9  C   UNL     1      -2.488   5.645 -32.739  1.00  0.00     0.243 C 
HETATM   10  N   UNL     1      -1.204   5.055 -32.443  1.00  0.00    -0.330 N 
HETATM   11  C   UNL     1      -0.542   5.262 -31.263  1.00  0.00     0.256 C 
HETATM   12  O   UNL     1       0.351   4.513 -30.884  1.00  0.00    -0.267 OA
HETATM   13  S   UNL     1      -2.263   8.602 -30.080  1.00  0.00    -0.074 SA
HETATM   14  C   UNL     1       0.582   6.340 -28.394  1.00  0.00     0.068 C 
HETATM   15  C   UNL     1       1.126   7.365 -27.385  1.00  0.00     0.240 C 
HETATM   16  H   UNL     1      -3.413   7.459 -32.407  1.00  0.00     0.162 HD
HETATM   17  H   UNL     1      -0.949   4.206 -32.923  1.00  0.00     0.165 HD
ENDROOT
BRANCH   9  18
HETATM   18  C   UNL     1      -3.583   4.759 -32.219  1.00  0.00     0.095 A 
HETATM   19  O   UNL     1      -4.091   3.833 -33.090  1.00  0.00    -0.313 OA
HETATM   20  C   UNL     1      -5.063   3.140 -32.430  1.00  0.00     0.077 A 
HETATM   21  C   UNL     1      -5.163   3.593 -31.132  1.00  0.00     0.037 A 
HETATM   22  C   UNL     1      -4.208   4.628 -30.993  1.00  0.00     0.039 A 
BRANCH  20  23
HETATM   23  C   UNL     1      -5.758   2.065 -33.188  1.00  0.00     0.240 C 
BRANCH  23  24
HETATM   24  O   UNL     1      -5.857   0.927 -32.320  1.00  0.00    -0.341 OA
BRANCH  24  25
HETATM   25  C   UNL     1      -5.836  -0.265 -33.002  1.00  0.00     0.112 A 
HETATM   26  C   UNL     1      -4.646  -0.919 -33.350  1.00  0.00     0.070 A 
HETATM   27 CL   UNL     1      -3.092  -0.280 -32.953  1.00  0.00    -0.081 Cl
HETATM   28  C   UNL     1      -4.683  -2.112 -34.077  1.00  0.00     0.050 A 
HETATM   29  C   UNL     1      -5.906  -2.638 -34.480  1.00  0.00     0.037 A 
HETATM   30 CL   UNL     1      -5.949  -4.100 -35.386  1.00  0.00    -0.084 Cl
HETATM   31  C   UNL     1      -7.096  -1.983 -34.174  1.00  0.00     0.050 A 
HETATM   32  C   UNL     1      -7.059  -0.794 -33.444  1.00  0.00     0.070 A 
HETATM   33 CL   UNL     1      -8.555   0.003 -33.106  1.00  0.00    -0.081 Cl
ENDBRANCH  24  25
ENDBRANCH  23  24
ENDBRANCH  20  23
ENDBRANCH   9  18
BRANCH   1  34
HETATM   34  C   UNL     1       0.490   8.941 -25.537  1.00  0.00     0.231 C 
HETATM   35  C   UNL     1       2.001   8.856 -25.423  1.00  0.00     0.034 C 
ENDBRANCH   1  34
TORSDOF 5
ENDMDL
MODEL 3
REMARK VINA RESULT:      -9.3      1.798      2.366
REMARK  5 active torsions:
REMARK  status: ('A' for Active; 'I' for Inactive)
REMARK    1  A    between atoms: C_2  and  N_3 
REMARK    2  A    between atoms: C_11  and  C_12 
REMARK    3  A    between atoms: C_14  and  C_15 
REMARK    4  A    between atoms: C_15  and  O_16 
REMARK    5  A    between atoms: O_16  and  C_17 
ROOT
HETATM    1  N   UNL     1      -0.354   6.282 -28.605  1.00  0.00    -0.067 N 
HETATM    2  H   UNL     1      -0.790   5.430 -28.227  1.00  0.00     0.280 HD
HETATM    3  C   UNL     1      -1.497   7.274 -28.828  1.00  0.00     0.281 C 
HETATM    4  C   UNL     1      -2.346   6.860 -29.979  1.00  0.00     0.018 A 
HETATM    5  C   UNL     1      -2.004   5.911 -30.925  1.00  0.00    -0.023 A 
HETATM    6  C   UNL     1      -3.030   5.771 -31.912  1.00  0.00     0.073 A 
HETATM    7  C   UNL     1      -4.082   6.625 -31.677  1.00  0.00     0.088 A 
HETATM    8  N   UNL     1      -5.170   6.697 -32.479  1.00  0.00    -0.357 N 
HETATM    9  C   UNL     1      -5.458   5.539 -33.315  1.00  0.00     0.243 C 
HETATM   10  N   UNL     1      -4.220   5.003 -33.828  1.00  0.00    -0.330 N 
HETATM   11  C   UNL     1      -3.081   4.904 -33.074  1.00  0.00     0.256 C 
HETATM   12  O   UNL     1      -2.162   4.156 -33.390  1.00  0.00    -0.267 OA
HETATM   13  S   UNL     1      -3.864   7.569 -30.282  1.00  0.00    -0.074 SA
HETATM   14  C   UNL     1      -0.709   5.164 -30.848  1.00  0.00     0.068 C 
HETATM   15  C   UNL     1       0.298   5.883 -29.933  1.00  0.00     0.240 C 
HETATM   16  H   UNL     1      -6.016   7.081 -32.063  1.00  0.00     0.162 HD
HETATM   17  H   UNL     1      -4.265   4.364 -34.606  1.00  0.00     0.165 HD
ENDROOT
BRANCH   9  18
HETATM   18  C   UNL     1      -6.248   4.446 -32.658  1.00  0.00     0.095 A 
HETATM   19  O   UNL     1      -5.818   3.163 -32.867  1.00  0.00    -0.313 OA
HETATM   20  C   UNL     1      -6.663   2.332 -32.192  1.00  0.00     0.077 A 
HETATM   21  C   UNL     1      -7.617   3.072 -31.526  1.00  0.00     0.037 A 
HETATM   22  C   UNL     1      -7.348   4.430 -31.819  1.00  0.00     0.039 A 
BRANCH  20  23
HETATM   23  C   UNL     1      -6.381   0.874 -32.272  1.00  0.00     0.240 C 
BRANCH  23  24
HETATM   24  O   UNL     1      -5.471   0.676 -33.364  1.00  0.00    -0.341 OA
BRANCH  24  25
HETATM   25  C   UNL     1      -5.431  -0.628 -33.793  1.00  0.00     0.112 A 
HETATM   26  C   UNL     1      -6.416  -1.184 -34.622  1.00  0.00     0.070 A 
HETATM   27 CL   UNL     1      -7.775  -0.275 -35.176  1.00  0.00    -0.081 Cl
HETATM   28  C   UNL     1      -6.344  -2.528 -34.998  1.00  0.00     0.050 A 
HETATM   29  C   UNL     1      -5.305  -3.324 -34.527  1.00  0.00     0.037 A 
HETATM   30 CL   UNL     1      -5.227  -4.981 -34.981  1.00  0.00    -0.084 Cl
HETATM   31  C   UNL     1      -4.339  -2.797 -33.674  1.00  0.00     0.050 A 
HETATM   32  C   UNL     1      -4.408  -1.454 -33.302  1.00  0.00     0.070 A 
HETATM   33 CL   UNL     1      -3.204  -0.843 -32.223  1.00  0.00    -0.081 Cl
ENDBRANCH  24  25
ENDBRANCH  23  24
ENDBRANCH  20  23
ENDBRANCH   9  18
BRANCH   1  34
HETATM   34  C   UNL     1       0.673   6.768 -27.614  1.00  0.00     0.231 C 
HETATM   35  C   UNL     1       1.172   8.155 -27.977  1.00  0.00     0.034 C 
ENDBRANCH   1  34
TORSDOF 5
ENDMDL
MODEL 4
REMARK VINA RESULT:      -9.2      4.545      9.512
REMARK  5 active torsions:
REMARK  status: ('A' for Active; 'I' for Inactive)
REMARK    1  A    between atoms: C_2  and  N_3 
REMARK    2  A    between atoms: C_11  and  C_12 
REMARK    3  A    between atoms: C_14  and  C_15 
REMARK    4  A    between atoms: C_15  and  O_16 
REMARK    5  A    between atoms: O_16  and  C_17 
ROOT
HETATM    1  N   UNL     1      -5.580  -1.837 -34.275  1.00  0.00    -0.067 N 
HETATM    2  H   UNL     1      -5.159  -1.016 -34.730  1.00  0.00     0.280 HD
HETATM    3  C   UNL     1      -7.069  -1.520 -34.133  1.00  0.00     0.281 C 
HETATM    4  C   UNL     1      -7.297  -0.479 -33.094  1.00  0.00     0.018 A 
HETATM    5  C   UNL     1      -6.368  -0.069 -32.156  1.00  0.00    -0.023 A 
HETATM    6  C   UNL     1      -6.914   0.928 -31.286  1.00  0.00     0.073 A 
HETATM    7  C   UNL     1      -8.225   1.208 -31.595  1.00  0.00     0.088 A 
HETATM    8  N   UNL     1      -8.972   2.104 -30.909  1.00  0.00    -0.357 N 
HETATM    9  C   UNL     1      -8.259   3.125 -30.154  1.00  0.00     0.243 C 
HETATM   10  N   UNL     1      -7.095   2.535 -29.537  1.00  0.00    -0.330 N 
HETATM   11  C   UNL     1      -6.297   1.621 -30.171  1.00  0.00     0.256 C 
HETATM   12  O   UNL     1      -5.155   1.388 -29.792  1.00  0.00    -0.267 OA
HETATM   13  S   UNL     1      -8.794   0.313 -32.922  1.00  0.00    -0.074 SA
HETATM   14  C   UNL     1      -4.984  -0.638 -32.127  1.00  0.00     0.068 C 
HETATM   15  C   UNL     1      -4.909  -1.964 -32.903  1.00  0.00     0.240 C 
HETATM   16  H   UNL     1      -9.779   2.490 -31.395  1.00  0.00     0.162 HD
HETATM   17  H   UNL     1      -6.641   3.043 -28.794  1.00  0.00     0.165 HD
ENDROOT
BRANCH   9  18
HETATM   18  C   UNL     1      -7.854   4.343 -30.932  1.00  0.00     0.095 A 
HETATM   19  O   UNL     1      -6.719   4.989 -30.521  1.00  0.00    -0.313 OA
HETATM   20  C   UNL     1      -6.531   6.056 -31.350  1.00  0.00     0.077 A 
HETATM   21  C   UNL     1      -7.520   6.084 -32.310  1.00  0.00     0.037 A 
HETATM   22  C   UNL     1      -8.366   4.980 -32.048  1.00  0.00     0.039 A 
BRANCH  20  23
HETATM   23  C   UNL     1      -5.340   6.908 -31.091  1.00  0.00     0.240 C 
BRANCH  23  24
HETATM   24  O   UNL     1      -4.455   6.755 -32.210  1.00  0.00    -0.341 OA
BRANCH  24  25
HETATM   25  C   UNL     1      -3.186   6.386 -31.837  1.00  0.00     0.112 A 
HETATM   26  C   UNL     1      -2.195   7.316 -31.492  1.00  0.00     0.070 A 
HETATM   27 CL   UNL     1      -2.484   9.019 -31.509  1.00  0.00    -0.081 Cl
HETATM   28  C   UNL     1      -0.909   6.886 -31.156  1.00  0.00     0.050 A 
HETATM   29  C   UNL     1      -0.603   5.529 -31.189  1.00  0.00     0.037 A 
HETATM   30 CL   UNL     1       0.984   5.003 -30.787  1.00  0.00    -0.084 Cl
HETATM   31  C   UNL     1      -1.565   4.594 -31.564  1.00  0.00     0.050 A 
HETATM   32  C   UNL     1      -2.850   5.024 -31.895  1.00  0.00     0.070 A 
HETATM   33 CL   UNL     1      -4.008   3.836 -32.380  1.00  0.00    -0.081 Cl
ENDBRANCH  24  25
ENDBRANCH  23  24
ENDBRANCH  20  23
ENDBRANCH   9  18
BRANCH   1  34
HETATM   34  C   UNL     1      -5.306  -3.045 -35.134  1.00  0.00     0.231 C 
HETATM   35  C   UNL     1      -6.405  -4.082 -34.988  1.00  0.00     0.034 C 
ENDBRANCH   1  34
TORSDOF 5
ENDMDL
MODEL 5
REMARK VINA RESULT:      -8.9      5.139      9.249
REMARK  5 active torsions:
REMARK  status: ('A' for Active; 'I' for Inactive)
REMARK    1  A    between atoms: C_2  and  N_3 
REMARK    2  A    between atoms: C_11  and  C_12 
REMARK    3  A    between atoms: C_14  and  C_15 
REMARK    4  A    between atoms: C_15  and  O_16 
REMARK    5  A    between atoms: O_16  and  C_17 
ROOT
HETATM    1  N   UNL     1      -5.579  -1.674 -34.203  1.00  0.00    -0.067 N 
HETATM    2  H   UNL     1      -5.311  -0.839 -34.741  1.00  0.00     0.280 HD
HETATM    3  C   UNL     1      -7.098  -1.601 -34.044  1.00  0.00     0.281 C 
HETATM    4  C   UNL     1      -7.483  -0.522 -33.093  1.00  0.00     0.018 A 
HETATM    5  C   UNL     1      -6.623   0.124 -32.224  1.00  0.00    -0.023 A 
HETATM    6  C   UNL     1      -7.317   1.090 -31.429  1.00  0.00     0.073 A 
HETATM    7  C   UNL     1      -8.661   1.116 -31.721  1.00  0.00     0.088 A 
HETATM    8  N   UNL     1      -9.539   1.933 -31.092  1.00  0.00    -0.357 N 
HETATM    9  C   UNL     1      -8.998   3.124 -30.452  1.00  0.00     0.243 C 
HETATM   10  N   UNL     1      -7.741   2.797 -29.822  1.00  0.00    -0.330 N 
HETATM   11  C   UNL     1      -6.810   1.975 -30.398  1.00  0.00     0.256 C 
HETATM   12  O   UNL     1      -5.638   1.974 -30.036  1.00  0.00    -0.267 OA
HETATM   13  S   UNL     1      -9.090   0.020 -32.945  1.00  0.00    -0.074 SA
HETATM   14  C   UNL     1      -5.162  -0.200 -32.189  1.00  0.00     0.068 C 
HETATM   15  C   UNL     1      -4.874  -1.560 -32.847  1.00  0.00     0.240 C 
HETATM   16  H   UNL     1     -10.407   2.131 -31.585  1.00  0.00     0.162 HD
HETATM   17  H   UNL     1      -7.369   3.440 -29.141  1.00  0.00     0.165 HD
ENDROOT
BRANCH   9  18
HETATM   18  C   UNL     1      -8.818   4.316 -31.347  1.00  0.00     0.095 A 
HETATM   19  O   UNL     1      -7.675   5.050 -31.175  1.00  0.00    -0.313 OA
HETATM   20  C   UNL     1      -7.707   6.075 -32.074  1.00  0.00     0.077 A 
HETATM   21  C   UNL     1      -8.848   5.990 -32.842  1.00  0.00     0.037 A 
HETATM   22  C   UNL     1      -9.560   4.857 -32.382  1.00  0.00     0.039 A 
BRANCH  20  23
HETATM   23  C   UNL     1      -6.550   7.009 -32.072  1.00  0.00     0.240 C 
BRANCH  23  24
HETATM   24  O   UNL     1      -5.448   6.320 -31.463  1.00  0.00    -0.341 OA
BRANCH  24  25
HETATM   25  C   UNL     1      -4.393   6.142 -32.323  1.00  0.00     0.112 A 
HETATM   26  C   UNL     1      -4.260   5.007 -33.136  1.00  0.00     0.070 A 
HETATM   27 CL   UNL     1      -5.416   3.726 -33.126  1.00  0.00    -0.081 Cl
HETATM   28  C   UNL     1      -3.145   4.860 -33.966  1.00  0.00     0.050 A 
HETATM   29  C   UNL     1      -2.150   5.832 -33.965  1.00  0.00     0.037 A 
HETATM   30 CL   UNL     1      -0.772   5.643 -34.978  1.00  0.00    -0.084 Cl
HETATM   31  C   UNL     1      -2.248   6.948 -33.137  1.00  0.00     0.050 A 
HETATM   32  C   UNL     1      -3.363   7.096 -32.312  1.00  0.00     0.070 A 
HETATM   33 CL   UNL     1      -3.437   8.481 -31.281  1.00  0.00    -0.081 Cl
ENDBRANCH  24  25
ENDBRANCH  23  24
ENDBRANCH  20  23
ENDBRANCH   9  18
BRANCH   1  34
HETATM   34  C   UNL     1      -5.117  -2.893 -34.961  1.00  0.00     0.231 C 
HETATM   35  C   UNL     1      -4.117  -3.697 -34.150  1.00  0.00     0.034 C 
ENDBRANCH   1  34
TORSDOF 5
ENDMDL
MODEL 6
REMARK VINA RESULT:      -8.6      2.833      4.703
REMARK  5 active torsions:
REMARK  status: ('A' for Active; 'I' for Inactive)
REMARK    1  A    between atoms: C_2  and  N_3 
REMARK    2  A    between atoms: C_11  and  C_12 
REMARK    3  A    between atoms: C_14  and  C_15 
REMARK    4  A    between atoms: C_15  and  O_16 
REMARK    5  A    between atoms: O_16  and  C_17 
ROOT
HETATM    1  N   UNL     1      -1.773   6.231 -30.712  1.00  0.00    -0.067 N 
HETATM    2  H   UNL     1      -1.642   5.212 -30.663  1.00  0.00     0.280 HD
HETATM    3  C   UNL     1      -3.071   6.523 -29.958  1.00  0.00     0.281 C 
HETATM    4  C   UNL     1      -4.254   6.053 -30.730  1.00  0.00     0.018 A 
HETATM    5  C   UNL     1      -4.247   5.693 -32.065  1.00  0.00    -0.023 A 
HETATM    6  C   UNL     1      -5.554   5.314 -32.507  1.00  0.00     0.073 A 
HETATM    7  C   UNL     1      -6.483   5.420 -31.497  1.00  0.00     0.088 A 
HETATM    8  N   UNL     1      -7.795   5.136 -31.666  1.00  0.00    -0.357 N 
HETATM    9  C   UNL     1      -8.148   4.257 -32.772  1.00  0.00     0.243 C 
HETATM   10  N   UNL     1      -7.328   4.578 -33.916  1.00  0.00    -0.330 N 
HETATM   11  C   UNL     1      -5.996   4.879 -33.818  1.00  0.00     0.256 C 
HETATM   12  O   UNL     1      -5.247   4.814 -34.787  1.00  0.00    -0.267 OA
HETATM   13  S   UNL     1      -5.803   5.943 -30.031  1.00  0.00    -0.074 SA
HETATM   14  C   UNL     1      -2.987   5.717 -32.872  1.00  0.00     0.068 C 
HETATM   15  C   UNL     1      -1.907   6.580 -32.198  1.00  0.00     0.240 C 
HETATM   16  H   UNL     1      -8.323   4.914 -30.825  1.00  0.00     0.162 HD
HETATM   17  H   UNL     1      -7.615   4.233 -34.819  1.00  0.00     0.165 HD
ENDROOT
BRANCH   9  18
HETATM   18  C   UNL     1      -8.060   2.786 -32.486  1.00  0.00     0.095 A 
HETATM   19  O   UNL     1      -7.731   1.971 -33.536  1.00  0.00    -0.313 OA
HETATM   20  C   UNL     1      -7.706   0.690 -33.068  1.00  0.00     0.077 A 
HETATM   21  C   UNL     1      -7.987   0.677 -31.719  1.00  0.00     0.037 A 
HETATM   22  C   UNL     1      -8.208   2.023 -31.341  1.00  0.00     0.039 A 
BRANCH  20  23
HETATM   23  C   UNL     1      -7.361  -0.376 -34.046  1.00  0.00     0.240 C 
BRANCH  23  24
HETATM   24  O   UNL     1      -5.984  -0.195 -34.407  1.00  0.00    -0.341 OA
BRANCH  24  25
HETATM   25  C   UNL     1      -5.130  -0.953 -33.645  1.00  0.00     0.112 A 
HETATM   26  C   UNL     1      -4.348  -0.411 -32.615  1.00  0.00     0.070 A 
HETATM   27 CL   UNL     1      -4.387   1.268 -32.214  1.00  0.00    -0.081 Cl
HETATM   28  C   UNL     1      -3.468  -1.224 -31.895  1.00  0.00     0.050 A 
HETATM   29  C   UNL     1      -3.349  -2.571 -32.220  1.00  0.00     0.037 A 
HETATM   30 CL   UNL     1      -2.255  -3.566 -31.341  1.00  0.00    -0.084 Cl
HETATM   31  C   UNL     1      -4.091  -3.118 -33.263  1.00  0.00     0.050 A 
HETATM   32  C   UNL     1      -4.973  -2.307 -33.979  1.00  0.00     0.070 A 
HETATM   33 CL   UNL     1      -5.859  -3.017 -35.282  1.00  0.00    -0.081 Cl
ENDBRANCH  24  25
ENDBRANCH  23  24
ENDBRANCH  20  23
ENDBRANCH   9  18
BRANCH   1  34
HETATM   34  C   UNL     1      -0.566   6.894 -30.099  1.00  0.00     0.231 C 
HETATM   35  C   UNL     1       0.642   6.787 -31.012  1.00  0.00     0.034 C 
ENDBRANCH   1  34
TORSDOF 5
ENDMDL
MODEL 7
REMARK VINA RESULT:      -8.5      5.549      9.275
REMARK  5 active torsions:
REMARK  status: ('A' for Active; 'I' for Inactive)
REMARK    1  A    between atoms: C_2  and  N_3 
REMARK    2  A    between atoms: C_11  and  C_12 
REMARK    3  A    between atoms: C_14  and  C_15 
REMARK    4  A    between atoms: C_15  and  O_16 
REMARK    5  A    between atoms: O_16  and  C_17 
ROOT
HETATM    1  N   UNL     1     -13.705   2.141 -32.604  1.00  0.00    -0.067 N 
HETATM    2  H   UNL     1     -13.264   1.600 -31.848  1.00  0.00     0.280 HD
HETATM    3  C   UNL     1     -12.706   2.138 -33.761  1.00  0.00     0.281 C 
HETATM    4  C   UNL     1     -11.531   2.999 -33.453  1.00  0.00     0.018 A 
HETATM    5  C   UNL     1     -11.465   3.927 -32.430  1.00  0.00    -0.023 A 
HETATM    6  C   UNL     1     -10.206   4.606 -32.426  1.00  0.00     0.073 A 
HETATM    7  C   UNL     1      -9.393   4.175 -33.448  1.00  0.00     0.088 A 
HETATM    8  N   UNL     1      -8.155   4.675 -33.670  1.00  0.00    -0.357 N 
HETATM    9  C   UNL     1      -7.487   5.319 -32.548  1.00  0.00     0.243 C 
HETATM   10  N   UNL     1      -8.450   6.089 -31.799  1.00  0.00    -0.330 N 
HETATM   11  C   UNL     1      -9.720   5.647 -31.540  1.00  0.00     0.256 C 
HETATM   12  O   UNL     1     -10.401   6.129 -30.642  1.00  0.00    -0.267 OA
HETATM   13  S   UNL     1     -10.110   2.957 -34.391  1.00  0.00    -0.074 SA
HETATM   14  C   UNL     1     -12.608   4.127 -31.484  1.00  0.00     0.068 C 
HETATM   15  C   UNL     1     -13.916   3.557 -32.058  1.00  0.00     0.240 C 
HETATM   16  H   UNL     1      -7.516   4.087 -34.202  1.00  0.00     0.162 HD
HETATM   17  H   UNL     1      -8.106   6.779 -31.149  1.00  0.00     0.165 HD
ENDROOT
BRANCH   9  18
HETATM   18  C   UNL     1      -6.744   4.401 -31.621  1.00  0.00     0.095 A 
HETATM   19  O   UNL     1      -5.969   3.433 -32.202  1.00  0.00    -0.313 OA
HETATM   20  C   UNL     1      -5.389   2.715 -31.198  1.00  0.00     0.077 A 
HETATM   21  C   UNL     1      -5.761   3.232 -29.976  1.00  0.00     0.037 A 
HETATM   22  C   UNL     1      -6.626   4.319 -30.246  1.00  0.00     0.039 A 
BRANCH  20  23
HETATM   23  C   UNL     1      -4.488   1.602 -31.599  1.00  0.00     0.240 C 
BRANCH  23  24
HETATM   24  O   UNL     1      -5.079   0.384 -31.123  1.00  0.00    -0.341 OA
BRANCH  24  25
HETATM   25  C   UNL     1      -5.212  -0.563 -32.109  1.00  0.00     0.112 A 
HETATM   26  C   UNL     1      -4.145  -1.363 -32.542  1.00  0.00     0.070 A 
HETATM   27 CL   UNL     1      -2.559  -1.226 -31.874  1.00  0.00    -0.081 Cl
HETATM   28  C   UNL     1      -4.329  -2.286 -33.576  1.00  0.00     0.050 A 
HETATM   29  C   UNL     1      -5.571  -2.392 -34.195  1.00  0.00     0.037 A 
HETATM   30 CL   UNL     1      -5.791  -3.519 -35.475  1.00  0.00    -0.084 Cl
HETATM   31  C   UNL     1      -6.631  -1.580 -33.802  1.00  0.00     0.050 A 
HETATM   32  C   UNL     1      -6.448  -0.662 -32.767  1.00  0.00     0.070 A 
HETATM   33 CL   UNL     1      -7.781   0.345 -32.324  1.00  0.00    -0.081 Cl
ENDBRANCH  24  25
ENDBRANCH  23  24
ENDBRANCH  20  23
ENDBRANCH   9  18
BRANCH   1  34
HETATM   34  C   UNL     1     -15.019   1.485 -32.949  1.00  0.00     0.231 C 
HETATM   35  C   UNL     1     -14.923   0.720 -34.256  1.00  0.00     0.034 C 
ENDBRANCH   1  34
TORSDOF 5
ENDMDL
MODEL 8
REMARK VINA RESULT:      -8.4      4.688      9.965
REMARK  5 active torsions:
REMARK  status: ('A' for Active; 'I' for Inactive)
REMARK    1  A    between atoms: C_2  and  N_3 
REMARK    2  A    between atoms: C_11  and  C_12 
REMARK    3  A    between atoms: C_14  and  C_15 
REMARK    4  A    between atoms: C_15  and  O_16 
REMARK    5  A    between atoms: O_16  and  C_17 
ROOT
HETATM    1  N   UNL     1      -7.755   2.254 -32.324  1.00  0.00    -0.067 N 
HETATM    2  H   UNL     1      -8.022   3.169 -31.935  1.00  0.00     0.280 HD
HETATM    3  C   UNL     1      -6.468   1.851 -31.603  1.00  0.00     0.281 C 
HETATM    4  C   UNL     1      -5.321   2.689 -32.050  1.00  0.00     0.018 A 
HETATM    5  C   UNL     1      -5.311   3.499 -33.170  1.00  0.00    -0.023 A 
HETATM    6  C   UNL     1      -4.045   4.147 -33.330  1.00  0.00     0.073 A 
HETATM    7  C   UNL     1      -3.161   3.786 -32.340  1.00  0.00     0.088 A 
HETATM    8  N   UNL     1      -1.891   4.249 -32.277  1.00  0.00    -0.357 N 
HETATM    9  C   UNL     1      -1.603   5.498 -32.969  1.00  0.00     0.243 C 
HETATM   10  N   UNL     1      -2.317   5.522 -34.224  1.00  0.00    -0.330 N 
HETATM   11  C   UNL     1      -3.601   5.067 -34.360  1.00  0.00     0.256 C 
HETATM   12  O   UNL     1      -4.304   5.394 -35.310  1.00  0.00    -0.267 OA
HETATM   13  S   UNL     1      -3.837   2.705 -31.217  1.00  0.00    -0.074 SA
HETATM   14  C   UNL     1      -6.516   3.632 -34.048  1.00  0.00     0.068 C 
HETATM   15  C   UNL     1      -7.504   2.476 -33.820  1.00  0.00     0.240 C 
HETATM   16  H   UNL     1      -1.438   4.211 -31.366  1.00  0.00     0.162 HD
HETATM   17  H   UNL     1      -2.035   6.195 -34.919  1.00  0.00     0.165 HD
ENDROOT
BRANCH   9  18
HETATM   18  C   UNL     1      -1.898   6.751 -32.197  1.00  0.00     0.095 A 
HETATM   19  O   UNL     1      -2.211   6.600 -30.873  1.00  0.00    -0.313 OA
HETATM   20  C   UNL     1      -2.442   7.843 -30.362  1.00  0.00     0.077 A 
HETATM   21  C   UNL     1      -2.252   8.795 -31.340  1.00  0.00     0.037 A 
HETATM   22  C   UNL     1      -1.896   8.096 -32.518  1.00  0.00     0.039 A 
BRANCH  20  23
HETATM   23  C   UNL     1      -2.797   7.923 -28.919  1.00  0.00     0.240 C 
BRANCH  23  24
HETATM   24  O   UNL     1      -1.897   7.059 -28.211  1.00  0.00    -0.341 OA
BRANCH  24  25
HETATM   25  C   UNL     1      -0.922   7.747 -27.533  1.00  0.00     0.112 A 
HETATM   26  C   UNL     1       0.359   7.966 -28.061  1.00  0.00     0.070 A 
HETATM   27 CL   UNL     1       0.827   7.382 -29.617  1.00  0.00    -0.081 Cl
HETATM   28  C   UNL     1       1.325   8.643 -27.311  1.00  0.00     0.050 A 
HETATM   29  C   UNL     1       1.022   9.078 -26.025  1.00  0.00     0.037 A 
HETATM   30 CL   UNL     1       2.217   9.899 -25.099  1.00  0.00    -0.084 Cl
HETATM   31  C   UNL     1      -0.233   8.838 -25.472  1.00  0.00     0.050 A 
HETATM   32  C   UNL     1      -1.198   8.166 -26.222  1.00  0.00     0.070 A 
HETATM   33 CL   UNL     1      -2.736   7.866 -25.492  1.00  0.00    -0.081 Cl
ENDBRANCH  24  25
ENDBRANCH  23  24
ENDBRANCH  20  23
ENDBRANCH   9  18
BRANCH   1  34
HETATM   34  C   UNL     1      -8.893   1.293 -32.095  1.00  0.00     0.231 C 
HETATM   35  C   UNL     1      -8.805   0.104 -33.035  1.00  0.00     0.034 C 
ENDBRANCH   1  34
TORSDOF 5
ENDMDL
MODEL 9
REMARK VINA RESULT:      -8.4      5.094      9.548
REMARK  5 active torsions:
REMARK  status: ('A' for Active; 'I' for Inactive)
REMARK    1  A    between atoms: C_2  and  N_3 
REMARK    2  A    between atoms: C_11  and  C_12 
REMARK    3  A    between atoms: C_14  and  C_15 
REMARK    4  A    between atoms: C_15  and  O_16 
REMARK    5  A    between atoms: O_16  and  C_17 
ROOT
HETATM    1  N   UNL     1     -11.300   2.583 -34.001  1.00  0.00    -0.067 N 
HETATM    2  H   UNL     1     -10.596   3.034 -34.600  1.00  0.00     0.280 HD
HETATM    3  C   UNL     1     -11.090   3.159 -32.600  1.00  0.00     0.281 C 
HETATM    4  C   UNL     1      -9.835   2.639 -31.992  1.00  0.00     0.018 A 
HETATM    5  C   UNL     1      -9.109   1.557 -32.457  1.00  0.00    -0.023 A 
HETATM    6  C   UNL     1      -7.970   1.303 -31.629  1.00  0.00     0.073 A 
HETATM    7  C   UNL     1      -7.899   2.187 -30.578  1.00  0.00     0.088 A 
HETATM    8  N   UNL     1      -6.922   2.146 -29.641  1.00  0.00    -0.357 N 
HETATM    9  C   UNL     1      -5.678   1.482 -30.006  1.00  0.00     0.243 C 
HETATM   10  N   UNL     1      -5.979   0.304 -30.785  1.00  0.00    -0.330 N 
HETATM   11  C   UNL     1      -6.954   0.274 -31.745  1.00  0.00     0.256 C 
HETATM   12  O   UNL     1      -6.976  -0.589 -32.616  1.00  0.00    -0.267 OA
HETATM   13  S   UNL     1      -9.161   3.324 -30.587  1.00  0.00    -0.074 SA
HETATM   14  C   UNL     1      -9.527   0.807 -33.683  1.00  0.00     0.068 C 
HETATM   15  C   UNL     1     -10.999   1.081 -34.032  1.00  0.00     0.240 C 
HETATM   16  H   UNL     1      -6.752   3.007 -29.125  1.00  0.00     0.162 HD
HETATM   17  H   UNL     1      -5.253  -0.386 -30.903  1.00  0.00     0.165 HD
ENDROOT
BRANCH   9  18
HETATM   18  C   UNL     1      -4.680   2.331 -30.739  1.00  0.00     0.095 A 
HETATM   19  O   UNL     1      -4.866   3.686 -30.685  1.00  0.00    -0.313 OA
HETATM   20  C   UNL     1      -3.864   4.266 -31.407  1.00  0.00     0.077 A 
HETATM   21  C   UNL     1      -3.019   3.296 -31.900  1.00  0.00     0.037 A 
HETATM   22  C   UNL     1      -3.537   2.052 -31.466  1.00  0.00     0.039 A 
BRANCH  20  23
HETATM   23  C   UNL     1      -3.861   5.751 -31.482  1.00  0.00     0.240 C 
BRANCH  23  24
HETATM   24  O   UNL     1      -4.370   6.113 -32.774  1.00  0.00    -0.341 OA
BRANCH  24  25
HETATM   25  C   UNL     1      -5.734   6.270 -32.783  1.00  0.00     0.112 A 
HETATM   26  C   UNL     1      -6.386   7.289 -32.074  1.00  0.00     0.070 A 
HETATM   27 CL   UNL     1      -5.527   8.441 -31.117  1.00  0.00    -0.081 Cl
HETATM   28  C   UNL     1      -7.781   7.379 -32.089  1.00  0.00     0.050 A 
HETATM   29  C   UNL     1      -8.526   6.438 -32.791  1.00  0.00     0.037 A 
HETATM   30 CL   UNL     1     -10.243   6.543 -32.798  1.00  0.00    -0.084 Cl
HETATM   31  C   UNL     1      -7.897   5.398 -33.472  1.00  0.00     0.050 A 
HETATM   32  C   UNL     1      -6.505   5.311 -33.460  1.00  0.00     0.070 A 
HETATM   33 CL   UNL     1      -5.762   3.993 -34.296  1.00  0.00    -0.081 Cl
ENDBRANCH  24  25
ENDBRANCH  23  24
ENDBRANCH  20  23
ENDBRANCH   9  18
BRANCH   1  34
HETATM   34  C   UNL     1     -12.665   2.881 -34.570  1.00  0.00     0.231 C 
HETATM   35  C   UNL     1     -13.532   1.636 -34.596  1.00  0.00     0.034 C 
ENDBRANCH   1  34
TORSDOF 5
ENDMDL
MODEL 10
REMARK VINA RESULT:      -8.3      4.934     10.307
REMARK  5 active torsions:
REMARK  status: ('A' for Active; 'I' for Inactive)
REMARK    1  A    between atoms: C_2  and  N_3 
REMARK    2  A    between atoms: C_11  and  C_12 
REMARK    3  A    between atoms: C_14  and  C_15 
REMARK    4  A    between atoms: C_15  and  O_16 
REMARK    5  A    between atoms: O_16  and  C_17 
ROOT
HETATM    1  N   UNL     1     -11.298   2.427 -33.821  1.00  0.00    -0.067 N 
HETATM    2  H   UNL     1     -10.639   2.894 -34.457  1.00  0.00     0.280 HD
HETATM    3  C   UNL     1     -11.082   3.068 -32.449  1.00  0.00     0.281 C 
HETATM    4  C   UNL     1      -9.781   2.645 -31.862  1.00  0.00     0.018 A 
HETATM    5  C   UNL     1      -9.007   1.589 -32.308  1.00  0.00    -0.023 A 
HETATM    6  C   UNL     1      -7.831   1.433 -31.508  1.00  0.00     0.073 A 
HETATM    7  C   UNL     1      -7.781   2.360 -30.492  1.00  0.00     0.088 A 
HETATM    8  N   UNL     1      -6.777   2.411 -29.586  1.00  0.00    -0.357 N 
HETATM    9  C   UNL     1      -5.508   1.805 -29.965  1.00  0.00     0.243 C 
HETATM   10  N   UNL     1      -5.761   0.584 -30.690  1.00  0.00    -0.330 N 
HETATM   11  C   UNL     1      -6.761   0.460 -31.617  1.00  0.00     0.256 C 
HETATM   12  O   UNL     1      -6.757  -0.436 -32.455  1.00  0.00    -0.267 OA
HETATM   13  S   UNL     1      -9.108   3.421 -30.504  1.00  0.00    -0.074 SA
HETATM   14  C   UNL     1      -9.415   0.769 -33.492  1.00  0.00     0.068 C 
HETATM   15  C   UNL     1     -10.910   0.945 -33.806  1.00  0.00     0.240 C 
HETATM   16  H   UNL     1      -6.643   3.299 -29.107  1.00  0.00     0.162 HD
HETATM   17  H   UNL     1      -5.001  -0.068 -30.805  1.00  0.00     0.165 HD
ENDROOT
BRANCH   9  18
HETATM   18  C   UNL     1      -4.583   2.681 -30.759  1.00  0.00     0.095 A 
HETATM   19  O   UNL     1      -4.663   4.029 -30.531  1.00  0.00    -0.313 OA
HETATM   20  C   UNL     1      -3.751   4.637 -31.344  1.00  0.00     0.077 A 
HETATM   21  C   UNL     1      -3.065   3.688 -32.071  1.00  0.00     0.037 A 
HETATM   22  C   UNL     1      -3.593   2.431 -31.692  1.00  0.00     0.039 A 
BRANCH  20  23
HETATM   23  C   UNL     1      -3.657   6.119 -31.261  1.00  0.00     0.240 C 
BRANCH  23  24
HETATM   24  O   UNL     1      -2.348   6.489 -31.717  1.00  0.00    -0.341 OA
BRANCH  24  25
HETATM   25  C   UNL     1      -1.561   6.998 -30.713  1.00  0.00     0.112 A 
HETATM   26  C   UNL     1      -1.880   8.174 -30.021  1.00  0.00     0.070 A 
HETATM   27 CL   UNL     1      -3.297   9.095 -30.373  1.00  0.00    -0.081 Cl
HETATM   28  C   UNL     1      -1.022   8.667 -29.033  1.00  0.00     0.050 A 
HETATM   29  C   UNL     1       0.166   8.000 -28.754  1.00  0.00     0.037 A 
HETATM   30 CL   UNL     1       1.226   8.615 -27.547  1.00  0.00    -0.084 Cl
HETATM   31  C   UNL     1       0.516   6.850 -29.457  1.00  0.00     0.050 A 
HETATM   32  C   UNL     1      -0.342   6.356 -30.440  1.00  0.00     0.070 A 
HETATM   33 CL   UNL     1       0.139   4.941 -31.307  1.00  0.00    -0.081 Cl
ENDBRANCH  24  25
ENDBRANCH  23  24
ENDBRANCH  20  23
ENDBRANCH   9  18
BRANCH   1  34
HETATM   34  C   UNL     1     -12.693   2.624 -34.357  1.00  0.00     0.231 C 
HETATM   35  C   UNL     1     -13.692   2.820 -33.231  1.00  0.00     0.034 C 
ENDBRANCH   1  34
TORSDOF 5
ENDMDL
