MODEL 1
REMARK VINA RESULT:      -8.3      0.000      0.000
REMARK  4 active torsions:
REMARK  status: ('A' for Active; 'I' for Inactive)
REMARK    1  A    between atoms: C_2  and  N_3 
REMARK       I    between atoms: N_3  and  C_4 
REMARK       I    between atoms: C_4  and  N_5 
REMARK    2  A    between atoms: N_5  and  C_6 
REMARK    3  A    between atoms: C_14  and  C_15 
REMARK       I    between atoms: C_15  and  N_16 
REMARK    4  A    between atoms: N_16  and  C_17 
ROOT
HETATM    1  C   UNL     1      -6.774   0.174 -31.367  1.00  0.00     0.031 A 
HETATM    2  C   UNL     1      -6.904  -0.076 -32.730  1.00  0.00     0.037 A 
HETATM    3  C   UNL     1      -7.925   0.570 -33.439  1.00  0.00     0.048 A 
HETATM    4  C   UNL     1      -8.811   1.471 -32.808  1.00  0.00     0.055 A 
HETATM    5  C   UNL     1      -8.642   1.732 -31.442  1.00  0.00     0.049 A 
HETATM    6 CL   UNL     1      -9.597   2.852 -30.533  1.00  0.00    -0.083 Cl
HETATM    7  C   UNL     1      -7.630   1.078 -30.730  1.00  0.00     0.027 A 
ENDROOT
BRANCH   2   8
HETATM    8  N   UNL     1      -6.081  -0.973 -33.442  1.00  0.00    -0.309 N 
HETATM    9  C   UNL     1      -4.720  -0.933 -33.560  1.00  0.00     0.325 C 
HETATM   10  N   UNL     1      -4.117  -2.009 -34.153  1.00  0.00    -0.306 N 
HETATM   11  O   UNL     1      -4.001   0.003 -33.215  1.00  0.00    -0.247 OA
HETATM   12  H   UNL     1      -3.135  -1.842 -34.342  1.00  0.00     0.171 HD
HETATM   13  H   UNL     1      -6.547  -1.573 -34.107  1.00  0.00     0.170 HD
BRANCH  10  14
HETATM   14  C   UNL     1      -4.578  -3.288 -34.386  1.00  0.00     0.072 A 
HETATM   15  C   UNL     1      -5.729  -3.805 -35.021  1.00  0.00     0.169 A 
HETATM   16  N   UNL     1      -5.767  -5.141 -35.006  1.00  0.00    -0.185 NA
HETATM   17  N   UNL     1      -4.662  -5.482 -34.327  1.00  0.00    -0.287 N 
HETATM   18  H   UNL     1      -4.477  -6.467 -34.170  1.00  0.00     0.188 HD
HETATM   19  C   UNL     1      -3.923  -4.407 -33.925  1.00  0.00     0.140 A 
ENDBRANCH  10  14
ENDBRANCH   2   8
BRANCH   4  20
HETATM   20  C   UNL     1      -9.861   2.069 -33.692  1.00  0.00     0.253 C 
HETATM   21  N   UNL     1     -11.172   1.720 -33.465  1.00  0.00    -0.352 N 
HETATM   22  H   UNL     1     -11.376   1.042 -32.741  1.00  0.00     0.163 HD
HETATM   23  O   UNL     1      -9.525   2.809 -34.611  1.00  0.00    -0.268 OA
BRANCH  21  24
HETATM   24  C   UNL     1     -12.265   2.154 -34.327  1.00  0.00     0.084 C 
HETATM   25  C   UNL     1     -13.134   0.962 -34.754  1.00  0.00     0.025 C 
HETATM   26  C   UNL     1     -13.983   0.416 -33.607  1.00  0.00     0.002 C 
HETATM   27  C   UNL     1     -14.828   1.510 -32.963  1.00  0.00     0.000 C 
HETATM   28  C   UNL     1     -13.973   2.687 -32.502  1.00  0.00     0.002 C 
HETATM   29  C   UNL     1     -13.106   3.235 -33.635  1.00  0.00     0.025 C 
ENDBRANCH  21  24
ENDBRANCH   4  20
TORSDOF 4
ENDMDL
MODEL 2
REMARK VINA RESULT:      -8.3      7.389      9.529
REMARK  4 active torsions:
REMARK  status: ('A' for Active; 'I' for Inactive)
REMARK    1  A    between atoms: C_2  and  N_3 
REMARK       I    between atoms: N_3  and  C_4 
REMARK       I    between atoms: C_4  and  N_5 
REMARK    2  A    between atoms: N_5  and  C_6 
REMARK    3  A    between atoms: C_14  and  C_15 
REMARK       I    between atoms: C_15  and  N_16 
REMARK    4  A    between atoms: N_16  and  C_17 
ROOT
HETATM    1  C   UNL     1      -1.103   5.950 -32.636  1.00  0.00     0.031 A 
HETATM    2  C   UNL     1      -1.614   5.400 -31.463  1.00  0.00     0.037 A 
HETATM    3  C   UNL     1      -2.871   4.783 -31.501  1.00  0.00     0.048 A 
HETATM    4  C   UNL     1      -3.619   4.696 -32.696  1.00  0.00     0.055 A 
HETATM    5  C   UNL     1      -3.072   5.229 -33.871  1.00  0.00     0.049 A 
HETATM    6 CL   UNL     1      -3.826   5.151 -35.425  1.00  0.00    -0.083 Cl
HETATM    7  C   UNL     1      -1.822   5.857 -33.831  1.00  0.00     0.027 A 
ENDROOT
BRANCH   2   8
HETATM    8  N   UNL     1      -0.951   5.456 -30.220  1.00  0.00    -0.309 N 
HETATM    9  C   UNL     1       0.306   5.000 -29.931  1.00  0.00     0.325 C 
HETATM   10  N   UNL     1       0.813   5.319 -28.700  1.00  0.00    -0.306 N 
HETATM   11  O   UNL     1       0.997   4.297 -30.666  1.00  0.00    -0.247 OA
HETATM   12  H   UNL     1       1.674   4.824 -28.501  1.00  0.00     0.171 HD
HETATM   13  H   UNL     1      -1.529   5.647 -29.415  1.00  0.00     0.170 HD
BRANCH  10  14
HETATM   14  C   UNL     1       0.433   6.283 -27.790  1.00  0.00     0.072 A 
HETATM   15  C   UNL     1      -0.489   6.300 -26.721  1.00  0.00     0.169 A 
HETATM   16  N   UNL     1      -0.534   7.483 -26.099  1.00  0.00    -0.185 NA
HETATM   17  N   UNL     1       0.330   8.238 -26.794  1.00  0.00    -0.287 N 
HETATM   18  H   UNL     1       0.460   9.205 -26.513  1.00  0.00     0.188 HD
HETATM   19  C   UNL     1       0.926   7.568 -27.823  1.00  0.00     0.140 A 
ENDBRANCH  10  14
ENDBRANCH   2   8
BRANCH   4  20
HETATM   20  C   UNL     1      -4.951   4.023 -32.575  1.00  0.00     0.253 C 
HETATM   21  N   UNL     1      -5.010   2.665 -32.785  1.00  0.00    -0.352 N 
HETATM   22  H   UNL     1      -4.164   2.178 -33.057  1.00  0.00     0.163 HD
HETATM   23  O   UNL     1      -5.948   4.697 -32.337  1.00  0.00    -0.268 OA
BRANCH  21  24
HETATM   24  C   UNL     1      -6.264   1.922 -32.800  1.00  0.00     0.084 C 
HETATM   25  C   UNL     1      -6.287   0.905 -33.950  1.00  0.00     0.025 C 
HETATM   26  C   UNL     1      -5.352  -0.278 -33.704  1.00  0.00     0.002 C 
HETATM   27  C   UNL     1      -5.639  -0.953 -32.367  1.00  0.00     0.000 C 
HETATM   28  C   UNL     1      -5.586   0.040 -31.210  1.00  0.00     0.002 C 
HETATM   29  C   UNL     1      -6.505   1.238 -31.448  1.00  0.00     0.025 C 
ENDBRANCH  21  24
ENDBRANCH   4  20
TORSDOF 4
ENDMDL
MODEL 3
REMARK VINA RESULT:      -8.3      4.307      6.902
REMARK  4 active torsions:
REMARK  status: ('A' for Active; 'I' for Inactive)
REMARK    1  A    between atoms: C_2  and  N_3 
REMARK       I    between atoms: N_3  and  C_4 
REMARK       I    between atoms: C_4  and  N_5 
REMARK    2  A    between atoms: N_5  and  C_6 
REMARK    3  A    between atoms: C_14  and  C_15 
REMARK       I    between atoms: C_15  and  N_16 
REMARK    4  A    between atoms: N_16  and  C_17 
ROOT
HETATM    1  C   UNL     1      -7.330   0.989 -31.886  1.00  0.00     0.031 A 
HETATM    2  C   UNL     1      -6.244   0.425 -32.550  1.00  0.00     0.037 A 
HETATM    3  C   UNL     1      -4.995   1.050 -32.449  1.00  0.00     0.048 A 
HETATM    4  C   UNL     1      -4.811   2.223 -31.683  1.00  0.00     0.055 A 
HETATM    5  C   UNL     1      -5.911   2.754 -30.997  1.00  0.00     0.049 A 
HETATM    6 CL   UNL     1      -5.845   4.144 -29.968  1.00  0.00    -0.083 Cl
HETATM    7  C   UNL     1      -7.162   2.138 -31.108  1.00  0.00     0.027 A 
ENDROOT
BRANCH   2   8
HETATM    8  N   UNL     1      -6.333  -0.730 -33.354  1.00  0.00    -0.309 N 
HETATM    9  C   UNL     1      -6.653  -0.791 -34.682  1.00  0.00     0.325 C 
HETATM   10  N   UNL     1      -6.506  -2.003 -35.300  1.00  0.00    -0.306 N 
HETATM   11  O   UNL     1      -7.098   0.139 -35.353  1.00  0.00    -0.247 OA
HETATM   12  H   UNL     1      -6.902  -2.009 -36.233  1.00  0.00     0.171 HD
HETATM   13  H   UNL     1      -6.383  -1.611 -32.865  1.00  0.00     0.170 HD
BRANCH  10  14
HETATM   14  C   UNL     1      -5.796  -3.126 -34.928  1.00  0.00     0.072 A 
HETATM   15  C   UNL     1      -6.136  -4.491 -34.795  1.00  0.00     0.169 A 
HETATM   16  N   UNL     1      -5.106  -5.240 -34.390  1.00  0.00    -0.185 NA
HETATM   17  N   UNL     1      -4.115  -4.351 -34.224  1.00  0.00    -0.287 N 
HETATM   18  H   UNL     1      -3.214  -4.689 -33.899  1.00  0.00     0.188 HD
HETATM   19  C   UNL     1      -4.482  -3.071 -34.522  1.00  0.00     0.140 A 
ENDBRANCH  10  14
ENDBRANCH   2   8
BRANCH   4  20
HETATM   20  C   UNL     1      -3.423   2.783 -31.684  1.00  0.00     0.253 C 
HETATM   21  N   UNL     1      -3.187   3.923 -32.417  1.00  0.00    -0.352 N 
HETATM   22  H   UNL     1      -3.945   4.316 -32.962  1.00  0.00     0.163 HD
HETATM   23  O   UNL     1      -2.534   2.195 -31.077  1.00  0.00    -0.268 OA
BRANCH  21  24
HETATM   24  C   UNL     1      -1.856   4.497 -32.579  1.00  0.00     0.084 C 
HETATM   25  C   UNL     1      -1.675   5.072 -33.991  1.00  0.00     0.025 C 
HETATM   26  C   UNL     1      -2.477   6.355 -34.207  1.00  0.00     0.002 C 
HETATM   27  C   UNL     1      -2.165   7.400 -33.142  1.00  0.00     0.000 C 
HETATM   28  C   UNL     1      -2.374   6.852 -31.733  1.00  0.00     0.002 C 
HETATM   29  C   UNL     1      -1.589   5.560 -31.506  1.00  0.00     0.025 C 
ENDBRANCH  21  24
ENDBRANCH   4  20
TORSDOF 4
ENDMDL
MODEL 4
REMARK VINA RESULT:      -8.3      2.046      8.099
REMARK  4 active torsions:
REMARK  status: ('A' for Active; 'I' for Inactive)
REMARK    1  A    between atoms: C_2  and  N_3 
REMARK       I    between atoms: N_3  and  C_4 
REMARK       I    between atoms: C_4  and  N_5 
REMARK    2  A    between atoms: N_5  and  C_6 
REMARK    3  A    between atoms: C_14  and  C_15 
REMARK       I    between atoms: C_15  and  N_16 
REMARK    4  A    between atoms: N_16  and  C_17 
ROOT
HETATM    1  C   UNL     1      -8.745   1.602 -31.149  1.00  0.00     0.031 A 
HETATM    2  C   UNL     1      -9.438   1.397 -32.340  1.00  0.00     0.037 A 
HETATM    3  C   UNL     1      -8.808   0.689 -33.371  1.00  0.00     0.048 A 
HETATM    4  C   UNL     1      -7.502   0.172 -33.226  1.00  0.00     0.055 A 
HETATM    5  C   UNL     1      -6.836   0.363 -32.009  1.00  0.00     0.049 A 
HETATM    6 CL   UNL     1      -5.262  -0.257 -31.645  1.00  0.00    -0.083 Cl
HETATM    7  C   UNL     1      -7.459   1.081 -30.982  1.00  0.00     0.027 A 
ENDROOT
BRANCH   2   8
HETATM    8  N   UNL     1     -10.736   1.892 -32.585  1.00  0.00    -0.309 N 
HETATM    9  C   UNL     1     -11.077   3.150 -32.995  1.00  0.00     0.325 C 
HETATM   10  N   UNL     1     -12.386   3.356 -33.340  1.00  0.00    -0.306 N 
HETATM   11  O   UNL     1     -10.318   4.117 -33.041  1.00  0.00    -0.247 OA
HETATM   12  H   UNL     1     -12.594   4.337 -33.485  1.00  0.00     0.171 HD
HETATM   13  H   UNL     1     -11.499   1.344 -32.216  1.00  0.00     0.170 HD
BRANCH  10  14
HETATM   14  C   UNL     1     -13.387   2.461 -33.659  1.00  0.00     0.072 A 
HETATM   15  C   UNL     1     -13.570   1.545 -34.717  1.00  0.00     0.169 A 
HETATM   16  N   UNL     1     -14.722   0.874 -34.622  1.00  0.00    -0.185 NA
HETATM   17  N   UNL     1     -15.298   1.388 -33.524  1.00  0.00    -0.287 N 
HETATM   18  H   UNL     1     -16.210   1.038 -33.250  1.00  0.00     0.188 HD
HETATM   19  C   UNL     1     -14.542   2.350 -32.920  1.00  0.00     0.140 A 
ENDBRANCH  10  14
ENDBRANCH   2   8
BRANCH   4  20
HETATM   20  C   UNL     1      -6.957  -0.547 -34.422  1.00  0.00     0.253 C 
HETATM   21  N   UNL     1      -6.506  -1.835 -34.250  1.00  0.00    -0.352 N 
HETATM   22  H   UNL     1      -6.516  -2.234 -33.320  1.00  0.00     0.163 HD
HETATM   23  O   UNL     1      -6.888   0.038 -35.498  1.00  0.00    -0.268 OA
BRANCH  21  24
HETATM   24  C   UNL     1      -5.858  -2.593 -35.315  1.00  0.00     0.084 C 
HETATM   25  C   UNL     1      -4.353  -2.737 -35.049  1.00  0.00     0.025 C 
HETATM   26  C   UNL     1      -4.052  -3.700 -33.900  1.00  0.00     0.002 C 
HETATM   27  C   UNL     1      -4.704  -5.060 -34.121  1.00  0.00     0.000 C 
HETATM   28  C   UNL     1      -6.207  -4.935 -34.353  1.00  0.00     0.002 C 
HETATM   29  C   UNL     1      -6.526  -3.963 -35.489  1.00  0.00     0.025 C 
ENDBRANCH  21  24
ENDBRANCH   4  20
TORSDOF 4
ENDMDL
MODEL 5
REMARK VINA RESULT:      -8.0      3.884      8.001
REMARK  4 active torsions:
REMARK  status: ('A' for Active; 'I' for Inactive)
REMARK    1  A    between atoms: C_2  and  N_3 
REMARK       I    between atoms: N_3  and  C_4 
REMARK       I    between atoms: C_4  and  N_5 
REMARK    2  A    between atoms: N_5  and  C_6 
REMARK    3  A    between atoms: C_14  and  C_15 
REMARK       I    between atoms: C_15  and  N_16 
REMARK    4  A    between atoms: N_16  and  C_17 
ROOT
HETATM    1  C   UNL     1      -6.980  -1.049 -34.278  1.00  0.00     0.031 A 
HETATM    2  C   UNL     1      -7.561   0.101 -33.750  1.00  0.00     0.037 A 
HETATM    3  C   UNL     1      -6.757   0.988 -33.023  1.00  0.00     0.048 A 
HETATM    4  C   UNL     1      -5.378   0.750 -32.826  1.00  0.00     0.055 A 
HETATM    5  C   UNL     1      -4.809  -0.397 -33.392  1.00  0.00     0.049 A 
HETATM    6 CL   UNL     1      -3.130  -0.806 -33.300  1.00  0.00    -0.083 Cl
HETATM    7  C   UNL     1      -5.613  -1.291 -34.108  1.00  0.00     0.027 A 
ENDROOT
BRANCH   2   8
HETATM    8  N   UNL     1      -8.930   0.414 -33.876  1.00  0.00    -0.309 N 
HETATM    9  C   UNL     1      -9.853   0.509 -32.872  1.00  0.00     0.325 C 
HETATM   10  N   UNL     1     -11.086   0.999 -33.208  1.00  0.00    -0.306 N 
HETATM   11  O   UNL     1      -9.680   0.154 -31.707  1.00  0.00    -0.247 OA
HETATM   12  H   UNL     1     -11.757   0.898 -32.455  1.00  0.00     0.171 HD
HETATM   13  H   UNL     1      -9.319   0.348 -34.805  1.00  0.00     0.170 HD
BRANCH  10  14
HETATM   14  C   UNL     1     -11.502   1.719 -34.308  1.00  0.00     0.072 A 
HETATM   15  C   UNL     1     -12.461   1.483 -35.317  1.00  0.00     0.169 A 
HETATM   16  N   UNL     1     -12.524   2.476 -36.210  1.00  0.00    -0.185 NA
HETATM   17  N   UNL     1     -11.577   3.332 -35.797  1.00  0.00    -0.287 N 
HETATM   18  H   UNL     1     -11.423   4.178 -36.337  1.00  0.00     0.188 HD
HETATM   19  C   UNL     1     -10.930   2.917 -34.669  1.00  0.00     0.140 A 
ENDBRANCH  10  14
ENDBRANCH   2   8
BRANCH   4  20
HETATM   20  C   UNL     1      -4.656   1.779 -32.014  1.00  0.00     0.253 C 
HETATM   21  N   UNL     1      -4.302   2.957 -32.631  1.00  0.00    -0.352 N 
HETATM   22  H   UNL     1      -4.501   3.068 -33.618  1.00  0.00     0.163 HD
HETATM   23  O   UNL     1      -4.364   1.533 -30.848  1.00  0.00    -0.268 OA
BRANCH  21  24
HETATM   24  C   UNL     1      -3.504   3.985 -31.972  1.00  0.00     0.084 C 
HETATM   25  C   UNL     1      -2.136   4.137 -32.652  1.00  0.00     0.025 C 
HETATM   26  C   UNL     1      -2.236   4.804 -34.024  1.00  0.00     0.002 C 
HETATM   27  C   UNL     1      -2.965   6.142 -33.947  1.00  0.00     0.000 C 
HETATM   28  C   UNL     1      -4.341   5.998 -33.304  1.00  0.00     0.002 C 
HETATM   29  C   UNL     1      -4.260   5.319 -31.937  1.00  0.00     0.025 C 
ENDBRANCH  21  24
ENDBRANCH   4  20
TORSDOF 4
ENDMDL
MODEL 6
REMARK VINA RESULT:      -8.0      6.992      9.727
REMARK  4 active torsions:
REMARK  status: ('A' for Active; 'I' for Inactive)
REMARK    1  A    between atoms: C_2  and  N_3 
REMARK       I    between atoms: N_3  and  C_4 
REMARK       I    between atoms: C_4  and  N_5 
REMARK    2  A    between atoms: N_5  and  C_6 
REMARK    3  A    between atoms: C_14  and  C_15 
REMARK       I    between atoms: C_15  and  N_16 
REMARK    4  A    between atoms: N_16  and  C_17 
ROOT
HETATM    1  C   UNL     1      -3.572   4.397 -33.460  1.00  0.00     0.031 A 
HETATM    2  C   UNL     1      -3.303   3.513 -32.419  1.00  0.00     0.037 A 
HETATM    3  C   UNL     1      -2.284   3.833 -31.512  1.00  0.00     0.048 A 
HETATM    4  C   UNL     1      -1.540   5.028 -31.622  1.00  0.00     0.055 A 
HETATM    5  C   UNL     1      -1.849   5.917 -32.660  1.00  0.00     0.049 A 
HETATM    6 CL   UNL     1      -1.080   7.448 -32.900  1.00  0.00    -0.083 Cl
HETATM    7  C   UNL     1      -2.858   5.593 -33.574  1.00  0.00     0.027 A 
ENDROOT
BRANCH   2   8
HETATM    8  N   UNL     1      -3.977   2.287 -32.238  1.00  0.00    -0.309 N 
HETATM    9  C   UNL     1      -5.251   2.104 -31.777  1.00  0.00     0.325 C 
HETATM   10  N   UNL     1      -5.760   0.836 -31.851  1.00  0.00    -0.306 N 
HETATM   11  O   UNL     1      -5.957   2.972 -31.267  1.00  0.00    -0.247 OA
HETATM   12  H   UNL     1      -6.640   0.747 -31.357  1.00  0.00     0.171 HD
HETATM   13  H   UNL     1      -3.402   1.458 -32.238  1.00  0.00     0.170 HD
BRANCH  10  14
HETATM   14  C   UNL     1      -5.359  -0.257 -32.592  1.00  0.00     0.072 A 
HETATM   15  C   UNL     1      -4.342  -1.222 -32.425  1.00  0.00     0.169 A 
HETATM   16  N   UNL     1      -4.314  -2.116 -33.419  1.00  0.00    -0.185 NA
HETATM   17  N   UNL     1      -5.287  -1.701 -34.245  1.00  0.00    -0.287 N 
HETATM   18  H   UNL     1      -5.451  -2.225 -35.098  1.00  0.00     0.188 HD
HETATM   19  C   UNL     1      -5.933  -0.585 -33.798  1.00  0.00     0.140 A 
ENDBRANCH  10  14
ENDBRANCH   2   8
BRANCH   4  20
HETATM   20  C   UNL     1      -0.474   5.222 -30.589  1.00  0.00     0.253 C 
HETATM   21  N   UNL     1      -0.794   5.935 -29.457  1.00  0.00    -0.352 N 
HETATM   22  H   UNL     1      -1.720   6.339 -29.382  1.00  0.00     0.163 HD
HETATM   23  O   UNL     1       0.653   4.783 -30.795  1.00  0.00    -0.268 OA
BRANCH  21  24
HETATM   24  C   UNL     1       0.188   6.278 -28.435  1.00  0.00     0.084 C 
HETATM   25  C   UNL     1       0.685   7.719 -28.613  1.00  0.00     0.025 C 
HETATM   26  C   UNL     1      -0.375   8.754 -28.232  1.00  0.00     0.002 C 
HETATM   27  C   UNL     1      -0.904   8.523 -26.821  1.00  0.00     0.000 C 
HETATM   28  C   UNL     1      -1.432   7.103 -26.640  1.00  0.00     0.002 C 
HETATM   29  C   UNL     1      -0.389   6.057 -27.031  1.00  0.00     0.025 C 
ENDBRANCH  21  24
ENDBRANCH   4  20
TORSDOF 4
ENDMDL
MODEL 7
REMARK VINA RESULT:      -7.8      6.903      9.088
REMARK  4 active torsions:
REMARK  status: ('A' for Active; 'I' for Inactive)
REMARK    1  A    between atoms: C_2  and  N_3 
REMARK       I    between atoms: N_3  and  C_4 
REMARK       I    between atoms: C_4  and  N_5 
REMARK    2  A    between atoms: N_5  and  C_6 
REMARK    3  A    between atoms: C_14  and  C_15 
REMARK       I    between atoms: C_15  and  N_16 
REMARK    4  A    between atoms: N_16  and  C_17 
ROOT
HETATM    1  C   UNL     1      -2.574   5.830 -32.520  1.00  0.00     0.031 A 
HETATM    2  C   UNL     1      -2.509   5.082 -31.348  1.00  0.00     0.037 A 
HETATM    3  C   UNL     1      -3.459   4.073 -31.141  1.00  0.00     0.048 A 
HETATM    4  C   UNL     1      -4.464   3.792 -32.094  1.00  0.00     0.055 A 
HETATM    5  C   UNL     1      -4.490   4.537 -33.280  1.00  0.00     0.049 A 
HETATM    6 CL   UNL     1      -5.611   4.281 -34.572  1.00  0.00    -0.083 Cl
HETATM    7  C   UNL     1      -3.550   5.554 -33.482  1.00  0.00     0.027 A 
ENDROOT
BRANCH   2   8
HETATM    8  N   UNL     1      -1.557   5.301 -30.332  1.00  0.00    -0.309 N 
HETATM    9  C   UNL     1      -0.202   5.139 -30.418  1.00  0.00     0.325 C 
HETATM   10  N   UNL     1       0.544   5.581 -29.359  1.00  0.00    -0.306 N 
HETATM   11  O   UNL     1       0.394   4.597 -31.347  1.00  0.00    -0.247 OA
HETATM   12  H   UNL     1       1.513   5.292 -29.426  1.00  0.00     0.171 HD
HETATM   13  H   UNL     1      -1.917   5.371 -29.391  1.00  0.00     0.170 HD
BRANCH  10  14
HETATM   14  C   UNL     1       0.231   6.451 -28.335  1.00  0.00     0.072 A 
HETATM   15  C   UNL     1      -0.297   6.273 -27.037  1.00  0.00     0.169 A 
HETATM   16  N   UNL     1      -0.444   7.428 -26.380  1.00  0.00    -0.185 NA
HETATM   17  N   UNL     1      -0.048   8.351 -27.270  1.00  0.00    -0.287 N 
HETATM   18  H   UNL     1      -0.085   9.328 -26.998  1.00  0.00     0.188 HD
HETATM   19  C   UNL     1       0.354   7.816 -28.459  1.00  0.00     0.140 A 
ENDBRANCH  10  14
ENDBRANCH   2   8
BRANCH   4  20
HETATM   20  C   UNL     1      -5.415   2.697 -31.723  1.00  0.00     0.253 C 
HETATM   21  N   UNL     1      -5.445   1.573 -32.515  1.00  0.00    -0.352 N 
HETATM   22  H   UNL     1      -4.860   1.544 -33.341  1.00  0.00     0.163 HD
HETATM   23  O   UNL     1      -6.162   2.847 -30.762  1.00  0.00    -0.268 OA
BRANCH  21  24
HETATM   24  C   UNL     1      -6.403   0.492 -32.315  1.00  0.00     0.084 C 
HETATM   25  C   UNL     1      -7.619   0.658 -33.237  1.00  0.00     0.025 C 
HETATM   26  C   UNL     1      -7.287   0.368 -34.701  1.00  0.00     0.002 C 
HETATM   27  C   UNL     1      -6.651  -1.008 -34.871  1.00  0.00     0.000 C 
HETATM   28  C   UNL     1      -5.420  -1.174 -33.984  1.00  0.00     0.002 C 
HETATM   29  C   UNL     1      -5.733  -0.873 -32.519  1.00  0.00     0.025 C 
ENDBRANCH  21  24
ENDBRANCH   4  20
TORSDOF 4
ENDMDL
MODEL 8
REMARK VINA RESULT:      -7.8     14.480     16.816
REMARK  4 active torsions:
REMARK  status: ('A' for Active; 'I' for Inactive)
REMARK    1  A    between atoms: C_2  and  N_3 
REMARK       I    between atoms: N_3  and  C_4 
REMARK       I    between atoms: C_4  and  N_5 
REMARK    2  A    between atoms: N_5  and  C_6 
REMARK    3  A    between atoms: C_14  and  C_15 
REMARK       I    between atoms: C_15  and  N_16 
REMARK    4  A    between atoms: N_16  and  C_17 
ROOT
HETATM    1  C   UNL     1      -7.387 -13.434 -37.389  1.00  0.00     0.031 A 
HETATM    2  C   UNL     1      -6.297 -13.722 -36.573  1.00  0.00     0.037 A 
HETATM    3  C   UNL     1      -5.013 -13.385 -37.021  1.00  0.00     0.048 A 
HETATM    4  C   UNL     1      -4.804 -12.753 -38.267  1.00  0.00     0.055 A 
HETATM    5  C   UNL     1      -5.918 -12.444 -39.057  1.00  0.00     0.049 A 
HETATM    6 CL   UNL     1      -5.843 -11.618 -40.575  1.00  0.00    -0.083 Cl
HETATM    7  C   UNL     1      -7.200 -12.792 -38.617  1.00  0.00     0.027 A 
ENDROOT
BRANCH   2   8
HETATM    8  N   UNL     1      -6.404 -14.368 -35.324  1.00  0.00    -0.309 N 
HETATM    9  C   UNL     1      -7.038 -13.906 -34.204  1.00  0.00     0.325 C 
HETATM   10  N   UNL     1      -7.167 -14.780 -33.159  1.00  0.00    -0.306 N 
HETATM   11  O   UNL     1      -7.464 -12.763 -34.046  1.00  0.00    -0.247 OA
HETATM   12  H   UNL     1      -7.506 -14.326 -32.319  1.00  0.00     0.171 HD
HETATM   13  H   UNL     1      -5.773 -15.140 -35.166  1.00  0.00     0.170 HD
BRANCH  10  14
HETATM   14  C   UNL     1      -7.059 -16.155 -33.113  1.00  0.00     0.072 A 
HETATM   15  C   UNL     1      -7.336 -17.182 -34.041  1.00  0.00     0.169 A 
HETATM   16  N   UNL     1      -7.081 -18.400 -33.551  1.00  0.00    -0.185 NA
HETATM   17  N   UNL     1      -6.678 -18.156 -32.295  1.00  0.00    -0.287 N 
HETATM   18  H   UNL     1      -6.436 -18.946 -31.705  1.00  0.00     0.188 HD
HETATM   19  C   UNL     1      -6.659 -16.828 -31.982  1.00  0.00     0.140 A 
ENDBRANCH  10  14
ENDBRANCH   2   8
BRANCH   4  20
HETATM   20  C   UNL     1      -3.375 -12.471 -38.614  1.00  0.00     0.253 C 
HETATM   21  N   UNL     1      -2.642 -13.478 -39.198  1.00  0.00    -0.352 N 
HETATM   22  H   UNL     1      -3.077 -14.383 -39.329  1.00  0.00     0.163 HD
HETATM   23  O   UNL     1      -2.890 -11.379 -38.335  1.00  0.00    -0.268 OA
BRANCH  21  24
HETATM   24  C   UNL     1      -1.217 -13.354 -39.481  1.00  0.00     0.084 C 
HETATM   25  C   UNL     1      -0.377 -13.950 -38.342  1.00  0.00     0.025 C 
HETATM   26  C   UNL     1      -0.445 -15.477 -38.301  1.00  0.00     0.002 C 
HETATM   27  C   UNL     1      -0.067 -16.092 -39.644  1.00  0.00     0.000 C 
HETATM   28  C   UNL     1      -0.918 -15.533 -40.781  1.00  0.00     0.002 C 
HETATM   29  C   UNL     1      -0.872 -14.007 -40.826  1.00  0.00     0.025 C 
ENDBRANCH  21  24
ENDBRANCH   4  20
TORSDOF 4
ENDMDL
MODEL 9
REMARK VINA RESULT:      -7.7      6.274      8.329
REMARK  4 active torsions:
REMARK  status: ('A' for Active; 'I' for Inactive)
REMARK    1  A    between atoms: C_2  and  N_3 
REMARK       I    between atoms: N_3  and  C_4 
REMARK       I    between atoms: C_4  and  N_5 
REMARK    2  A    between atoms: N_5  and  C_6 
REMARK    3  A    between atoms: C_14  and  C_15 
REMARK       I    between atoms: C_15  and  N_16 
REMARK    4  A    between atoms: N_16  and  C_17 
ROOT
HETATM    1  C   UNL     1      -4.415   6.288 -31.926  1.00  0.00     0.031 A 
HETATM    2  C   UNL     1      -3.735   5.204 -31.379  1.00  0.00     0.037 A 
HETATM    3  C   UNL     1      -4.410   3.984 -31.246  1.00  0.00     0.048 A 
HETATM    4  C   UNL     1      -5.751   3.828 -31.663  1.00  0.00     0.055 A 
HETATM    5  C   UNL     1      -6.405   4.924 -32.240  1.00  0.00     0.049 A 
HETATM    6 CL   UNL     1      -8.020   4.886 -32.859  1.00  0.00    -0.083 Cl
HETATM    7  C   UNL     1      -5.736   6.147 -32.362  1.00  0.00     0.027 A 
ENDROOT
BRANCH   2   8
HETATM    8  N   UNL     1      -2.404   5.268 -30.915  1.00  0.00    -0.309 N 
HETATM    9  C   UNL     1      -1.263   5.141 -31.657  1.00  0.00     0.325 C 
HETATM   10  N   UNL     1      -0.080   5.414 -31.026  1.00  0.00    -0.306 N 
HETATM   11  O   UNL     1      -1.210   4.764 -32.826  1.00  0.00    -0.247 OA
HETATM   12  H   UNL     1       0.723   5.153 -31.586  1.00  0.00     0.171 HD
HETATM   13  H   UNL     1      -2.275   5.180 -29.918  1.00  0.00     0.170 HD
BRANCH  10  14
HETATM   14  C   UNL     1       0.183   6.102 -29.859  1.00  0.00     0.072 A 
HETATM   15  C   UNL     1       0.085   7.461 -29.489  1.00  0.00     0.169 A 
HETATM   16  N   UNL     1       0.462   7.679 -28.225  1.00  0.00    -0.185 NA
HETATM   17  N   UNL     1       0.839   6.465 -27.795  1.00  0.00    -0.287 N 
HETATM   18  H   UNL     1       1.185   6.378 -26.845  1.00  0.00     0.188 HD
HETATM   19  C   UNL     1       0.701   5.491 -28.740  1.00  0.00     0.140 A 
ENDBRANCH  10  14
ENDBRANCH   2   8
BRANCH   4  20
HETATM   20  C   UNL     1      -6.341   2.470 -31.441  1.00  0.00     0.253 C 
HETATM   21  N   UNL     1      -6.607   1.693 -32.544  1.00  0.00    -0.352 N 
HETATM   22  H   UNL     1      -6.437   2.080 -33.464  1.00  0.00     0.163 HD
HETATM   23  O   UNL     1      -6.608   2.108 -30.300  1.00  0.00    -0.268 OA
BRANCH  21  24
HETATM   24  C   UNL     1      -7.279   0.402 -32.457  1.00  0.00     0.084 C 
HETATM   25  C   UNL     1      -8.333   0.255 -33.563  1.00  0.00     0.025 C 
HETATM   26  C   UNL     1      -7.708   0.067 -34.946  1.00  0.00     0.002 C 
HETATM   27  C   UNL     1      -6.725  -1.099 -34.964  1.00  0.00     0.000 C 
HETATM   28  C   UNL     1      -5.650  -0.949 -33.890  1.00  0.00     0.002 C 
HETATM   29  C   UNL     1      -6.260  -0.744 -32.504  1.00  0.00     0.025 C 
ENDBRANCH  21  24
ENDBRANCH   4  20
TORSDOF 4
ENDMDL
MODEL 10
REMARK VINA RESULT:      -7.6      7.218     10.018
REMARK  4 active torsions:
REMARK  status: ('A' for Active; 'I' for Inactive)
REMARK    1  A    between atoms: C_2  and  N_3 
REMARK       I    between atoms: N_3  and  C_4 
REMARK       I    between atoms: C_4  and  N_5 
REMARK    2  A    between atoms: N_5  and  C_6 
REMARK    3  A    between atoms: C_14  and  C_15 
REMARK       I    between atoms: C_15  and  N_16 
REMARK    4  A    between atoms: N_16  and  C_17 
ROOT
HETATM    1  C   UNL     1      -2.505   3.967 -33.399  1.00  0.00     0.031 A 
HETATM    2  C   UNL     1      -3.320   3.742 -32.292  1.00  0.00     0.037 A 
HETATM    3  C   UNL     1      -3.317   4.681 -31.253  1.00  0.00     0.048 A 
HETATM    4  C   UNL     1      -2.522   5.848 -31.308  1.00  0.00     0.055 A 
HETATM    5  C   UNL     1      -1.734   6.069 -32.445  1.00  0.00     0.049 A 
HETATM    6 CL   UNL     1      -0.754   7.472 -32.700  1.00  0.00    -0.083 Cl
HETATM    7  C   UNL     1      -1.726   5.125 -33.479  1.00  0.00     0.027 A 
ENDROOT
BRANCH   2   8
HETATM    8  N   UNL     1      -4.131   2.599 -32.137  1.00  0.00    -0.309 N 
HETATM    9  C   UNL     1      -3.821   1.450 -31.464  1.00  0.00     0.325 C 
HETATM   10  N   UNL     1      -4.830   0.540 -31.294  1.00  0.00    -0.306 N 
HETATM   11  O   UNL     1      -2.708   1.151 -31.037  1.00  0.00    -0.247 OA
HETATM   12  H   UNL     1      -4.493  -0.342 -30.927  1.00  0.00     0.171 HD
HETATM   13  H   UNL     1      -4.922   2.527 -32.759  1.00  0.00     0.170 HD
BRANCH  10  14
HETATM   14  C   UNL     1      -6.199   0.681 -31.396  1.00  0.00     0.072 A 
HETATM   15  C   UNL     1      -7.160   0.189 -32.306  1.00  0.00     0.169 A 
HETATM   16  N   UNL     1      -8.400   0.596 -32.013  1.00  0.00    -0.185 NA
HETATM   17  N   UNL     1      -8.229   1.381 -30.938  1.00  0.00    -0.287 N 
HETATM   18  H   UNL     1      -9.046   1.828 -30.533  1.00  0.00     0.188 HD
HETATM   19  C   UNL     1      -6.927   1.472 -30.538  1.00  0.00     0.140 A 
ENDBRANCH  10  14
ENDBRANCH   2   8
BRANCH   4  20
HETATM   20  C   UNL     1      -2.613   6.747 -30.115  1.00  0.00     0.253 C 
HETATM   21  N   UNL     1      -1.465   6.983 -29.395  1.00  0.00    -0.352 N 
HETATM   22  H   UNL     1      -0.613   6.509 -29.668  1.00  0.00     0.163 HD
HETATM   23  O   UNL     1      -3.702   7.209 -29.789  1.00  0.00    -0.268 OA
BRANCH  21  24
HETATM   24  C   UNL     1      -1.454   7.753 -28.156  1.00  0.00     0.084 C 
HETATM   25  C   UNL     1      -1.296   6.832 -26.939  1.00  0.00     0.025 C 
HETATM   26  C   UNL     1       0.112   6.246 -26.827  1.00  0.00     0.002 C 
HETATM   27  C   UNL     1       1.177   7.337 -26.834  1.00  0.00     0.000 C 
HETATM   28  C   UNL     1       1.052   8.241 -28.058  1.00  0.00     0.002 C 
HETATM   29  C   UNL     1      -0.355   8.822 -28.191  1.00  0.00     0.025 C 
ENDBRANCH  21  24
ENDBRANCH   4  20
TORSDOF 4
ENDMDL
