MODEL 1
REMARK VINA RESULT:     -10.2      0.000      0.000
REMARK  5 active torsions:
REMARK  status: ('A' for Active; 'I' for Inactive)
REMARK    1  A    between atoms: O_2  and  C_3 
REMARK    2  A    between atoms: C_10  and  C_11 
REMARK    3  A    between atoms: C_11  and  C_12 
REMARK       I    between atoms: C_12  and  N_13 
REMARK    4  A    between atoms: N_13  and  C_14 
REMARK    5  A    between atoms: C_16  and  C_17 
ROOT
HETATM    1  C   UNL     1      -3.515   3.843 -32.843  1.00  0.00     0.035 A 
HETATM    2  C   UNL     1      -2.554   4.011 -31.835  1.00  0.00     0.046 A 
HETATM    3  C   UNL     1      -1.675   5.111 -31.842  1.00  0.00     0.036 A 
HETATM    4  C   UNL     1      -1.775   6.057 -32.870  1.00  0.00     0.048 A 
HETATM    5 CL   UNL     1      -0.724   7.425 -32.974  1.00  0.00    -0.083 Cl
HETATM    6  C   UNL     1      -2.732   5.898 -33.873  1.00  0.00     0.027 A 
HETATM    7  C   UNL     1      -3.594   4.796 -33.859  1.00  0.00     0.031 A 
ENDROOT
BRANCH   1   8
HETATM    8  N   UNL     1      -4.387   2.737 -32.736  1.00  0.00    -0.327 N 
HETATM    9  C   UNL     1      -5.423   2.572 -31.823  1.00  0.00     0.226 C 
HETATM   10  O   UNL     1      -5.874   3.447 -31.088  1.00  0.00    -0.273 OA
HETATM   11  H   UNL     1      -4.231   1.973 -33.383  1.00  0.00     0.169 HD
BRANCH   9  12
HETATM   12  C   UNL     1      -5.928   1.146 -31.746  1.00  0.00     0.144 C 
BRANCH  12  13
HETATM   13  C   UNL     1      -4.915   0.044 -31.814  1.00  0.00    -0.021 A 
HETATM   14  C   UNL     1      -4.823  -1.116 -32.660  1.00  0.00     0.001 A 
HETATM   15  C   UNL     1      -5.572  -1.642 -33.737  1.00  0.00     0.051 A 
HETATM   16  C   UNL     1      -3.714  -1.855 -32.233  1.00  0.00     0.043 A 
HETATM   17  C   UNL     1      -5.203  -2.857 -34.342  1.00  0.00     0.069 A 
HETATM   18  C   UNL     1      -4.096  -3.559 -33.875  1.00  0.00     0.039 A 
HETATM   19  C   UNL     1      -3.332  -3.070 -32.812  1.00  0.00     0.033 A 
HETATM   20  N   UNL     1      -3.143  -1.173 -31.188  1.00  0.00    -0.365 N 
HETATM   21  H   UNL     1      -2.331  -1.488 -30.675  1.00  0.00     0.165 HD
HETATM   22  C   UNL     1      -3.847  -0.034 -30.932  1.00  0.00     0.097 A 
BRANCH  17  23
HETATM   23  O   UNL     1      -6.010  -3.243 -35.380  1.00  0.00    -0.356 OA
HETATM   24  C   UNL     1      -6.663  -4.500 -35.255  1.00  0.00     0.210 C 
ENDBRANCH  17  23
ENDBRANCH  12  13
ENDBRANCH   9  12
ENDBRANCH   1   8
BRANCH   3  25
HETATM   25  C   UNL     1      -0.699   5.247 -30.767  1.00  0.00     0.165 A 
HETATM   26  N   UNL     1      -0.720   6.204 -29.773  1.00  0.00    -0.316 N 
HETATM   27  C   UNL     1       0.373   5.954 -28.980  1.00  0.00     0.130 A 
HETATM   28  C   UNL     1      -1.687   7.277 -29.659  1.00  0.00     0.132 C 
HETATM   29  C   UNL     1       0.777   6.723 -27.771  1.00  0.00     0.081 C 
HETATM   30  N   UNL     1       1.020   4.917 -29.468  1.00  0.00    -0.134 NA
HETATM   31  C   UNL     1       0.642   8.230 -27.959  1.00  0.00     0.008 C 
HETATM   32  C   UNL     1      -0.784   8.749 -27.766  1.00  0.00     0.002 C 
HETATM   33  C   UNL     1      -1.904   7.829 -28.254  1.00  0.00     0.020 C 
HETATM   34  N   UNL     1       0.354   4.478 -30.582  1.00  0.00    -0.129 NA
ENDBRANCH   3  25
TORSDOF 5
ENDMDL
MODEL 2
REMARK VINA RESULT:     -10.2      1.276      1.945
REMARK  5 active torsions:
REMARK  status: ('A' for Active; 'I' for Inactive)
REMARK    1  A    between atoms: O_2  and  C_3 
REMARK    2  A    between atoms: C_10  and  C_11 
REMARK    3  A    between atoms: C_11  and  C_12 
REMARK       I    between atoms: C_12  and  N_13 
REMARK    4  A    between atoms: N_13  and  C_14 
REMARK    5  A    between atoms: C_16  and  C_17 
ROOT
HETATM    1  C   UNL     1      -3.649   3.653 -32.536  1.00  0.00     0.035 A 
HETATM    2  C   UNL     1      -2.657   3.906 -31.576  1.00  0.00     0.046 A 
HETATM    3  C   UNL     1      -1.732   4.954 -31.741  1.00  0.00     0.036 A 
HETATM    4  C   UNL     1      -1.817   5.764 -32.882  1.00  0.00     0.048 A 
HETATM    5 CL   UNL     1      -0.711   7.059 -33.181  1.00  0.00    -0.083 Cl
HETATM    6  C   UNL     1      -2.804   5.521 -33.837  1.00  0.00     0.027 A 
HETATM    7  C   UNL     1      -3.711   4.470 -33.665  1.00  0.00     0.031 A 
ENDROOT
BRANCH   1   8
HETATM    8  N   UNL     1      -4.564   2.611 -32.270  1.00  0.00    -0.327 N 
HETATM    9  C   UNL     1      -5.653   2.652 -31.407  1.00  0.00     0.226 C 
HETATM   10  O   UNL     1      -6.112   3.664 -30.883  1.00  0.00    -0.273 OA
HETATM   11  H   UNL     1      -4.399   1.731 -32.746  1.00  0.00     0.169 HD
BRANCH   9  12
HETATM   12  C   UNL     1      -6.212   1.281 -31.086  1.00  0.00     0.144 C 
BRANCH  12  13
HETATM   13  C   UNL     1      -6.728   0.456 -32.226  1.00  0.00    -0.021 A 
HETATM   14  C   UNL     1      -6.170  -0.682 -32.909  1.00  0.00     0.001 A 
HETATM   15  C   UNL     1      -5.005  -1.470 -32.772  1.00  0.00     0.051 A 
HETATM   16  C   UNL     1      -7.040  -1.004 -33.956  1.00  0.00     0.043 A 
HETATM   17  C   UNL     1      -4.747  -2.530 -33.659  1.00  0.00     0.069 A 
HETATM   18  C   UNL     1      -5.640  -2.806 -34.692  1.00  0.00     0.039 A 
HETATM   19  C   UNL     1      -6.802  -2.048 -34.857  1.00  0.00     0.033 A 
HETATM   20  N   UNL     1      -8.089  -0.121 -33.907  1.00  0.00    -0.365 N 
HETATM   21  H   UNL     1      -8.861  -0.113 -34.559  1.00  0.00     0.165 HD
HETATM   22  C   UNL     1      -7.918   0.752 -32.874  1.00  0.00     0.097 A 
BRANCH  17  23
HETATM   23  O   UNL     1      -3.589  -3.216 -33.404  1.00  0.00    -0.356 OA
HETATM   24  C   UNL     1      -3.562  -4.591 -33.766  1.00  0.00     0.210 C 
ENDBRANCH  17  23
ENDBRANCH  12  13
ENDBRANCH   9  12
ENDBRANCH   1   8
BRANCH   3  25
HETATM   25  C   UNL     1      -0.725   5.183 -30.711  1.00  0.00     0.165 A 
HETATM   26  N   UNL     1      -0.743   6.197 -29.776  1.00  0.00    -0.316 N 
HETATM   27  C   UNL     1       0.383   6.026 -29.009  1.00  0.00     0.130 A 
HETATM   28  C   UNL     1      -1.738   7.245 -29.690  1.00  0.00     0.132 C 
HETATM   29  C   UNL     1       0.804   6.878 -27.861  1.00  0.00     0.081 C 
HETATM   30  N   UNL     1       1.047   4.982 -29.458  1.00  0.00    -0.134 NA
HETATM   31  C   UNL     1       0.615   8.366 -28.133  1.00  0.00     0.008 C 
HETATM   32  C   UNL     1      -0.819   8.854 -27.920  1.00  0.00     0.002 C 
HETATM   33  C   UNL     1      -1.925   7.874 -28.313  1.00  0.00     0.020 C 
HETATM   34  N   UNL     1       0.358   4.458 -30.520  1.00  0.00    -0.129 NA
ENDBRANCH   3  25
TORSDOF 5
ENDMDL
MODEL 3
REMARK VINA RESULT:      -9.8      1.919      2.812
REMARK  5 active torsions:
REMARK  status: ('A' for Active; 'I' for Inactive)
REMARK    1  A    between atoms: O_2  and  C_3 
REMARK    2  A    between atoms: C_10  and  C_11 
REMARK    3  A    between atoms: C_11  and  C_12 
REMARK       I    between atoms: C_12  and  N_13 
REMARK    4  A    between atoms: N_13  and  C_14 
REMARK    5  A    between atoms: C_16  and  C_17 
ROOT
HETATM    1  C   UNL     1      -3.411   3.766 -31.598  1.00  0.00     0.035 A 
HETATM    2  C   UNL     1      -3.337   4.986 -30.909  1.00  0.00     0.046 A 
HETATM    3  C   UNL     1      -2.647   6.087 -31.450  1.00  0.00     0.036 A 
HETATM    4  C   UNL     1      -2.035   5.959 -32.704  1.00  0.00     0.048 A 
HETATM    5 CL   UNL     1      -1.146   7.249 -33.436  1.00  0.00    -0.083 Cl
HETATM    6  C   UNL     1      -2.110   4.750 -33.395  1.00  0.00     0.027 A 
HETATM    7  C   UNL     1      -2.791   3.660 -32.843  1.00  0.00     0.031 A 
ENDROOT
BRANCH   1   8
HETATM    8  N   UNL     1      -4.161   2.726 -31.005  1.00  0.00    -0.327 N 
HETATM    9  C   UNL     1      -3.796   1.389 -30.893  1.00  0.00     0.226 C 
HETATM   10  O   UNL     1      -2.678   0.932 -31.116  1.00  0.00    -0.273 OA
HETATM   11  H   UNL     1      -5.071   2.977 -30.636  1.00  0.00     0.169 HD
BRANCH   9  12
HETATM   12  C   UNL     1      -4.954   0.483 -30.529  1.00  0.00     0.144 C 
BRANCH  12  13
HETATM   13  C   UNL     1      -5.852   0.022 -31.637  1.00  0.00    -0.021 A 
HETATM   14  C   UNL     1      -5.661  -0.955 -32.676  1.00  0.00     0.001 A 
HETATM   15  C   UNL     1      -4.636  -1.860 -33.035  1.00  0.00     0.051 A 
HETATM   16  C   UNL     1      -6.796  -0.921 -33.493  1.00  0.00     0.043 A 
HETATM   17  C   UNL     1      -4.769  -2.683 -34.167  1.00  0.00     0.069 A 
HETATM   18  C   UNL     1      -5.915  -2.605 -34.953  1.00  0.00     0.039 A 
HETATM   19  C   UNL     1      -6.949  -1.723 -34.629  1.00  0.00     0.033 A 
HETATM   20  N   UNL     1      -7.651   0.017 -32.971  1.00  0.00    -0.365 N 
HETATM   21  H   UNL     1      -8.546   0.262 -33.371  1.00  0.00     0.165 HD
HETATM   22  C   UNL     1      -7.101   0.583 -31.858  1.00  0.00     0.097 A 
BRANCH  17  23
HETATM   23  O   UNL     1      -3.706  -3.518 -34.391  1.00  0.00    -0.356 OA
HETATM   24  C   UNL     1      -3.613  -4.676 -33.570  1.00  0.00     0.210 C 
ENDBRANCH  17  23
ENDBRANCH  12  13
ENDBRANCH   9  12
ENDBRANCH   1   8
BRANCH   3  25
HETATM   25  C   UNL     1      -2.606   7.338 -30.701  1.00  0.00     0.165 A 
HETATM   26  N   UNL     1      -1.618   7.717 -29.816  1.00  0.00    -0.316 N 
HETATM   27  C   UNL     1      -1.977   8.960 -29.354  1.00  0.00     0.130 A 
HETATM   28  C   UNL     1      -0.477   6.911 -29.433  1.00  0.00     0.132 C 
HETATM   29  C   UNL     1      -1.220   9.786 -28.373  1.00  0.00     0.081 C 
HETATM   30  N   UNL     1      -3.115   9.307 -29.917  1.00  0.00    -0.134 NA
HETATM   31  C   UNL     1      -0.678   8.967 -27.207  1.00  0.00     0.008 C 
HETATM   32  C   UNL     1       0.621   8.225 -27.527  1.00  0.00     0.002 C 
HETATM   33  C   UNL     1       0.748   7.679 -28.950  1.00  0.00     0.020 C 
HETATM   34  N   UNL     1      -3.508   8.297 -30.754  1.00  0.00    -0.129 NA
ENDBRANCH   3  25
TORSDOF 5
ENDMDL
MODEL 4
REMARK VINA RESULT:      -9.2      2.117      3.173
REMARK  5 active torsions:
REMARK  status: ('A' for Active; 'I' for Inactive)
REMARK    1  A    between atoms: O_2  and  C_3 
REMARK    2  A    between atoms: C_10  and  C_11 
REMARK    3  A    between atoms: C_11  and  C_12 
REMARK       I    between atoms: C_12  and  N_13 
REMARK    4  A    between atoms: N_13  and  C_14 
REMARK    5  A    between atoms: C_16  and  C_17 
ROOT
HETATM    1  C   UNL     1      -4.466   2.595 -32.364  1.00  0.00     0.035 A 
HETATM    2  C   UNL     1      -3.877   3.565 -31.539  1.00  0.00     0.046 A 
HETATM    3  C   UNL     1      -4.367   4.884 -31.500  1.00  0.00     0.036 A 
HETATM    4  C   UNL     1      -5.470   5.225 -32.294  1.00  0.00     0.048 A 
HETATM    5 CL   UNL     1      -6.126   6.824 -32.329  1.00  0.00    -0.083 Cl
HETATM    6  C   UNL     1      -6.064   4.263 -33.112  1.00  0.00     0.027 A 
HETATM    7  C   UNL     1      -5.561   2.958 -33.148  1.00  0.00     0.031 A 
ENDROOT
BRANCH   1   8
HETATM    8  N   UNL     1      -3.941   1.285 -32.309  1.00  0.00    -0.327 N 
HETATM    9  C   UNL     1      -4.173   0.331 -31.324  1.00  0.00     0.226 C 
HETATM   10  O   UNL     1      -5.027   0.404 -30.444  1.00  0.00    -0.273 OA
HETATM   11  H   UNL     1      -3.314   1.016 -33.058  1.00  0.00     0.169 HD
BRANCH   9  12
HETATM   12  C   UNL     1      -3.197  -0.827 -31.374  1.00  0.00     0.144 C 
BRANCH  12  13
HETATM   13  C   UNL     1      -3.548  -1.996 -32.244  1.00  0.00    -0.021 A 
HETATM   14  C   UNL     1      -4.581  -2.176 -33.229  1.00  0.00     0.001 A 
HETATM   15  C   UNL     1      -5.599  -1.366 -33.784  1.00  0.00     0.051 A 
HETATM   16  C   UNL     1      -4.503  -3.499 -33.676  1.00  0.00     0.043 A 
HETATM   17  C   UNL     1      -6.485  -1.886 -34.744  1.00  0.00     0.069 A 
HETATM   18  C   UNL     1      -6.371  -3.212 -35.151  1.00  0.00     0.039 A 
HETATM   19  C   UNL     1      -5.378  -4.042 -34.624  1.00  0.00     0.033 A 
HETATM   20  N   UNL     1      -3.462  -4.097 -33.013  1.00  0.00    -0.365 N 
HETATM   21  H   UNL     1      -3.187  -5.063 -33.130  1.00  0.00     0.165 HD
HETATM   22  C   UNL     1      -2.879  -3.208 -32.159  1.00  0.00     0.097 A 
BRANCH  17  23
HETATM   23  O   UNL     1      -7.414  -0.989 -35.204  1.00  0.00    -0.356 OA
HETATM   24  C   UNL     1      -7.003   0.369 -35.304  1.00  0.00     0.210 C 
ENDBRANCH  17  23
ENDBRANCH  12  13
ENDBRANCH   9  12
ENDBRANCH   1   8
BRANCH   3  25
HETATM   25  C   UNL     1      -3.727   5.855 -30.620  1.00  0.00     0.165 A 
HETATM   26  N   UNL     1      -2.437   6.328 -30.742  1.00  0.00    -0.316 N 
HETATM   27  C   UNL     1      -2.261   7.222 -29.714  1.00  0.00     0.130 A 
HETATM   28  C   UNL     1      -1.474   5.900 -31.735  1.00  0.00     0.132 C 
HETATM   29  C   UNL     1      -1.024   8.000 -29.427  1.00  0.00     0.081 C 
HETATM   30  N   UNL     1      -3.371   7.279 -29.008  1.00  0.00    -0.134 NA
HETATM   31  C   UNL     1       0.243   7.165 -29.574  1.00  0.00     0.008 C 
HETATM   32  C   UNL     1       0.718   7.018 -31.021  1.00  0.00     0.002 C 
HETATM   33  C   UNL     1      -0.381   6.905 -32.079  1.00  0.00     0.020 C 
HETATM   34  N   UNL     1      -4.283   6.426 -29.571  1.00  0.00    -0.129 NA
ENDBRANCH   3  25
TORSDOF 5
ENDMDL
MODEL 5
REMARK VINA RESULT:      -9.2      2.373      3.673
REMARK  5 active torsions:
REMARK  status: ('A' for Active; 'I' for Inactive)
REMARK    1  A    between atoms: O_2  and  C_3 
REMARK    2  A    between atoms: C_10  and  C_11 
REMARK    3  A    between atoms: C_11  and  C_12 
REMARK       I    between atoms: C_12  and  N_13 
REMARK    4  A    between atoms: N_13  and  C_14 
REMARK    5  A    between atoms: C_16  and  C_17 
ROOT
HETATM    1  C   UNL     1      -5.140   5.195 -33.473  1.00  0.00     0.035 A 
HETATM    2  C   UNL     1      -4.431   5.900 -32.490  1.00  0.00     0.046 A 
HETATM    3  C   UNL     1      -3.118   6.353 -32.722  1.00  0.00     0.036 A 
HETATM    4  C   UNL     1      -2.520   6.103 -33.963  1.00  0.00     0.048 A 
HETATM    5 CL   UNL     1      -0.906   6.600 -34.330  1.00  0.00    -0.083 Cl
HETATM    6  C   UNL     1      -3.223   5.407 -34.947  1.00  0.00     0.027 A 
HETATM    7  C   UNL     1      -4.523   4.954 -34.701  1.00  0.00     0.031 A 
ENDROOT
BRANCH   1   8
HETATM    8  N   UNL     1      -6.467   4.815 -33.175  1.00  0.00    -0.327 N 
HETATM    9  C   UNL     1      -6.904   4.102 -32.064  1.00  0.00     0.226 C 
HETATM   10  O   UNL     1      -6.235   3.855 -31.064  1.00  0.00    -0.273 OA
HETATM   11  H   UNL     1      -7.176   5.075 -33.851  1.00  0.00     0.169 HD
BRANCH   9  12
HETATM   12  C   UNL     1      -8.311   3.561 -32.218  1.00  0.00     0.144 C 
BRANCH  12  13
HETATM   13  C   UNL     1      -8.519   2.425 -33.173  1.00  0.00    -0.021 A 
HETATM   14  C   UNL     1      -7.646   1.361 -33.595  1.00  0.00     0.001 A 
HETATM   15  C   UNL     1      -6.335   0.944 -33.274  1.00  0.00     0.051 A 
HETATM   16  C   UNL     1      -8.329   0.627 -34.571  1.00  0.00     0.043 A 
HETATM   17  C   UNL     1      -5.756  -0.164 -33.918  1.00  0.00     0.069 A 
HETATM   18  C   UNL     1      -6.473  -0.857 -34.889  1.00  0.00     0.039 A 
HETATM   19  C   UNL     1      -7.772  -0.473 -35.232  1.00  0.00     0.033 A 
HETATM   20  N   UNL     1      -9.566   1.199 -34.728  1.00  0.00    -0.365 N 
HETATM   21  H   UNL     1     -10.265   0.881 -35.384  1.00  0.00     0.165 HD
HETATM   22  C   UNL     1      -9.694   2.270 -33.894  1.00  0.00     0.097 A 
BRANCH  17  23
HETATM   23  O   UNL     1      -4.485  -0.463 -33.502  1.00  0.00    -0.356 OA
HETATM   24  C   UNL     1      -4.281  -1.747 -32.925  1.00  0.00     0.210 C 
ENDBRANCH  17  23
ENDBRANCH  12  13
ENDBRANCH   9  12
ENDBRANCH   1   8
BRANCH   3  25
HETATM   25  C   UNL     1      -2.424   7.090 -31.671  1.00  0.00     0.165 A 
HETATM   26  N   UNL     1      -1.371   6.619 -30.915  1.00  0.00    -0.316 N 
HETATM   27  C   UNL     1      -1.028   7.641 -30.063  1.00  0.00     0.130 A 
HETATM   28  C   UNL     1      -0.808   5.288 -30.994  1.00  0.00     0.132 C 
HETATM   29  C   UNL     1       0.061   7.611 -29.048  1.00  0.00     0.081 C 
HETATM   30  N   UNL     1      -1.829   8.662 -30.283  1.00  0.00    -0.134 NA
HETATM   31  C   UNL     1       0.116   6.294 -28.282  1.00  0.00     0.008 C 
HETATM   32  C   UNL     1       0.838   5.175 -29.034  1.00  0.00     0.002 C 
HETATM   33  C   UNL     1       0.644   5.152 -30.551  1.00  0.00     0.020 C 
HETATM   34  N   UNL     1      -2.700   8.319 -31.283  1.00  0.00    -0.129 NA
ENDBRANCH   3  25
TORSDOF 5
ENDMDL
MODEL 6
REMARK VINA RESULT:      -9.1      1.396      2.066
REMARK  5 active torsions:
REMARK  status: ('A' for Active; 'I' for Inactive)
REMARK    1  A    between atoms: O_2  and  C_3 
REMARK    2  A    between atoms: C_10  and  C_11 
REMARK    3  A    between atoms: C_11  and  C_12 
REMARK       I    between atoms: C_12  and  N_13 
REMARK    4  A    between atoms: N_13  and  C_14 
REMARK    5  A    between atoms: C_16  and  C_17 
ROOT
HETATM    1  C   UNL     1      -2.939   4.048 -32.010  1.00  0.00     0.035 A 
HETATM    2  C   UNL     1      -2.989   4.941 -30.930  1.00  0.00     0.046 A 
HETATM    3  C   UNL     1      -2.513   6.260 -31.052  1.00  0.00     0.036 A 
HETATM    4  C   UNL     1      -1.991   6.685 -32.280  1.00  0.00     0.048 A 
HETATM    5 CL   UNL     1      -1.362   8.278 -32.517  1.00  0.00    -0.083 Cl
HETATM    6  C   UNL     1      -1.943   5.803 -33.360  1.00  0.00     0.027 A 
HETATM    7  C   UNL     1      -2.411   4.492 -33.223  1.00  0.00     0.031 A 
ENDROOT
BRANCH   1   8
HETATM    8  N   UNL     1      -3.479   2.757 -31.816  1.00  0.00    -0.327 N 
HETATM    9  C   UNL     1      -4.646   2.245 -32.373  1.00  0.00     0.226 C 
HETATM   10  O   UNL     1      -5.294   2.764 -33.278  1.00  0.00    -0.273 OA
HETATM   11  H   UNL     1      -2.971   2.143 -31.190  1.00  0.00     0.169 HD
BRANCH   9  12
HETATM   12  C   UNL     1      -5.123   0.977 -31.696  1.00  0.00     0.144 C 
BRANCH  12  13
HETATM   13  C   UNL     1      -4.318  -0.270 -31.906  1.00  0.00    -0.021 A 
HETATM   14  C   UNL     1      -4.532  -1.413 -32.754  1.00  0.00     0.001 A 
HETATM   15  C   UNL     1      -5.501  -1.792 -33.711  1.00  0.00     0.051 A 
HETATM   16  C   UNL     1      -3.505  -2.325 -32.489  1.00  0.00     0.043 A 
HETATM   17  C   UNL     1      -5.420  -3.037 -34.359  1.00  0.00     0.069 A 
HETATM   18  C   UNL     1      -4.383  -3.914 -34.054  1.00  0.00     0.039 A 
HETATM   19  C   UNL     1      -3.408  -3.573 -33.114  1.00  0.00     0.033 A 
HETATM   20  N   UNL     1      -2.690  -1.763 -31.539  1.00  0.00    -0.365 N 
HETATM   21  H   UNL     1      -1.874  -2.212 -31.147  1.00  0.00     0.165 HD
HETATM   22  C   UNL     1      -3.161  -0.532 -31.187  1.00  0.00     0.097 A 
BRANCH  17  23
HETATM   23  O   UNL     1      -6.417  -3.270 -35.270  1.00  0.00    -0.356 OA
HETATM   24  C   UNL     1      -6.758  -4.628 -35.518  1.00  0.00     0.210 C 
ENDBRANCH  17  23
ENDBRANCH  12  13
ENDBRANCH   9  12
ENDBRANCH   1   8
BRANCH   3  25
HETATM   25  C   UNL     1      -2.595   7.155 -29.903  1.00  0.00     0.165 A 
HETATM   26  N   UNL     1      -1.551   7.497 -29.069  1.00  0.00    -0.316 N 
HETATM   27  C   UNL     1      -2.074   8.361 -28.138  1.00  0.00     0.130 A 
HETATM   28  C   UNL     1      -0.201   6.980 -29.157  1.00  0.00     0.132 C 
HETATM   29  C   UNL     1      -1.330   9.007 -27.022  1.00  0.00     0.081 C 
HETATM   30  N   UNL     1      -3.356   8.524 -28.387  1.00  0.00    -0.134 NA
HETATM   31  C   UNL     1      -0.373   8.050 -26.320  1.00  0.00     0.008 C 
HETATM   32  C   UNL     1       0.958   7.866 -27.050  1.00  0.00     0.002 C 
HETATM   33  C   UNL     1       0.892   7.873 -28.578  1.00  0.00     0.020 C 
HETATM   34  N   UNL     1      -3.681   7.772 -29.484  1.00  0.00    -0.129 NA
ENDBRANCH   3  25
TORSDOF 5
ENDMDL
MODEL 7
REMARK VINA RESULT:      -9.1      5.785      9.091
REMARK  5 active torsions:
REMARK  status: ('A' for Active; 'I' for Inactive)
REMARK    1  A    between atoms: O_2  and  C_3 
REMARK    2  A    between atoms: C_10  and  C_11 
REMARK    3  A    between atoms: C_11  and  C_12 
REMARK       I    between atoms: C_12  and  N_13 
REMARK    4  A    between atoms: N_13  and  C_14 
REMARK    5  A    between atoms: C_16  and  C_17 
ROOT
HETATM    1  C   UNL     1      -9.062   0.436 -33.393  1.00  0.00     0.035 A 
HETATM    2  C   UNL     1      -9.723   1.438 -34.121  1.00  0.00     0.046 A 
HETATM    3  C   UNL     1     -11.126   1.451 -34.234  1.00  0.00     0.036 A 
HETATM    4  C   UNL     1     -11.871   0.450 -33.598  1.00  0.00     0.048 A 
HETATM    5 CL   UNL     1     -13.595   0.371 -33.701  1.00  0.00    -0.083 Cl
HETATM    6  C   UNL     1     -11.220  -0.546 -32.869  1.00  0.00     0.027 A 
HETATM    7  C   UNL     1      -9.824  -0.552 -32.771  1.00  0.00     0.031 A 
ENDROOT
BRANCH   1   8
HETATM    8  N   UNL     1      -7.656   0.523 -33.292  1.00  0.00    -0.327 N 
HETATM    9  C   UNL     1      -6.927   1.344 -32.439  1.00  0.00     0.226 C 
HETATM   10  O   UNL     1      -7.387   1.985 -31.497  1.00  0.00    -0.273 OA
HETATM   11  H   UNL     1      -7.120  -0.063 -33.921  1.00  0.00     0.169 HD
BRANCH   9  12
HETATM   12  C   UNL     1      -5.465   1.453 -32.821  1.00  0.00     0.144 C 
BRANCH  12  13
HETATM   13  C   UNL     1      -4.555   0.333 -32.418  1.00  0.00    -0.021 A 
HETATM   14  C   UNL     1      -4.425  -1.014 -32.909  1.00  0.00     0.001 A 
HETATM   15  C   UNL     1      -5.028  -1.777 -33.934  1.00  0.00     0.051 A 
HETATM   16  C   UNL     1      -3.472  -1.656 -32.111  1.00  0.00     0.043 A 
HETATM   17  C   UNL     1      -4.671  -3.123 -34.131  1.00  0.00     0.069 A 
HETATM   18  C   UNL     1      -3.723  -3.720 -33.305  1.00  0.00     0.039 A 
HETATM   19  C   UNL     1      -3.106  -2.996 -32.281  1.00  0.00     0.033 A 
HETATM   20  N   UNL     1      -3.024  -0.744 -31.189  1.00  0.00    -0.365 N 
HETATM   21  H   UNL     1      -2.340  -0.942 -30.473  1.00  0.00     0.165 HD
HETATM   22  C   UNL     1      -3.659   0.450 -31.366  1.00  0.00     0.097 A 
BRANCH  17  23
HETATM   23  O   UNL     1      -5.325  -3.739 -35.166  1.00  0.00    -0.356 OA
HETATM   24  C   UNL     1      -6.562  -4.372 -34.860  1.00  0.00     0.210 C 
ENDBRANCH  17  23
ENDBRANCH  12  13
ENDBRANCH   9  12
ENDBRANCH   1   8
BRANCH   3  25
HETATM   25  C   UNL     1     -11.768   2.518 -34.994  1.00  0.00     0.165 A 
HETATM   26  N   UNL     1     -11.967   3.812 -34.559  1.00  0.00    -0.316 N 
HETATM   27  C   UNL     1     -12.592   4.468 -35.590  1.00  0.00     0.130 A 
HETATM   28  C   UNL     1     -11.622   4.320 -33.247  1.00  0.00     0.132 C 
HETATM   29  C   UNL     1     -13.014   5.897 -35.596  1.00  0.00     0.081 C 
HETATM   30  N   UNL     1     -12.770   3.623 -36.583  1.00  0.00    -0.134 NA
HETATM   31  C   UNL     1     -13.652   6.328 -34.281  1.00  0.00     0.008 C 
HETATM   32  C   UNL     1     -12.638   6.672 -33.189  1.00  0.00     0.002 C 
HETATM   33  C   UNL     1     -11.368   5.821 -33.162  1.00  0.00     0.020 C 
HETATM   34  N   UNL     1     -12.259   2.408 -36.211  1.00  0.00    -0.129 NA
ENDBRANCH   3  25
TORSDOF 5
ENDMDL
MODEL 8
REMARK VINA RESULT:      -9.0     17.613     19.164
REMARK  5 active torsions:
REMARK  status: ('A' for Active; 'I' for Inactive)
REMARK    1  A    between atoms: O_2  and  C_3 
REMARK    2  A    between atoms: C_10  and  C_11 
REMARK    3  A    between atoms: C_11  and  C_12 
REMARK       I    between atoms: C_12  and  N_13 
REMARK    4  A    between atoms: N_13  and  C_14 
REMARK    5  A    between atoms: C_16  and  C_17 
ROOT
HETATM    1  C   UNL     1      -6.803 -13.914 -36.650  1.00  0.00     0.035 A 
HETATM    2  C   UNL     1      -5.451 -13.803 -37.008  1.00  0.00     0.046 A 
HETATM    3  C   UNL     1      -5.057 -13.087 -38.155  1.00  0.00     0.036 A 
HETATM    4  C   UNL     1      -6.036 -12.467 -38.941  1.00  0.00     0.048 A 
HETATM    5 CL   UNL     1      -5.649 -11.587 -40.377  1.00  0.00    -0.083 Cl
HETATM    6  C   UNL     1      -7.382 -12.569 -38.586  1.00  0.00     0.027 A 
HETATM    7  C   UNL     1      -7.761 -13.291 -37.449  1.00  0.00     0.031 A 
ENDROOT
BRANCH   1   8
HETATM    8  N   UNL     1      -7.107 -14.612 -35.461  1.00  0.00    -0.327 N 
HETATM    9  C   UNL     1      -7.127 -14.097 -34.169  1.00  0.00     0.226 C 
HETATM   10  O   UNL     1      -7.073 -12.907 -33.873  1.00  0.00    -0.273 OA
HETATM   11  H   UNL     1      -7.318 -15.599 -35.555  1.00  0.00     0.169 HD
BRANCH   9  12
HETATM   12  C   UNL     1      -7.144 -15.171 -33.099  1.00  0.00     0.144 C 
BRANCH  12  13
HETATM   13  C   UNL     1      -5.849 -15.497 -32.419  1.00  0.00    -0.021 A 
HETATM   14  C   UNL     1      -5.565 -16.024 -31.110  1.00  0.00     0.001 A 
HETATM   15  C   UNL     1      -6.336 -16.466 -30.012  1.00  0.00     0.051 A 
HETATM   16  C   UNL     1      -4.174 -16.050 -30.967  1.00  0.00     0.043 A 
HETATM   17  C   UNL     1      -5.714 -16.912 -28.832  1.00  0.00     0.069 A 
HETATM   18  C   UNL     1      -4.326 -16.911 -28.734  1.00  0.00     0.039 A 
HETATM   19  C   UNL     1      -3.532 -16.480 -29.800  1.00  0.00     0.033 A 
HETATM   20  N   UNL     1      -3.630 -15.581 -32.135  1.00  0.00    -0.365 N 
HETATM   21  H   UNL     1      -2.639 -15.476 -32.304  1.00  0.00     0.165 HD
HETATM   22  C   UNL     1      -4.620 -15.253 -33.014  1.00  0.00     0.097 A 
BRANCH  17  23
HETATM   23  O   UNL     1      -6.581 -17.321 -27.852  1.00  0.00    -0.356 OA
HETATM   24  C   UNL     1      -7.966 -17.313 -28.173  1.00  0.00     0.210 C 
ENDBRANCH  17  23
ENDBRANCH  12  13
ENDBRANCH   9  12
ENDBRANCH   1   8
BRANCH   3  25
HETATM   25  C   UNL     1      -3.638 -12.992 -38.481  1.00  0.00     0.165 A 
HETATM   26  N   UNL     1      -2.973 -13.755 -39.419  1.00  0.00    -0.316 N 
HETATM   27  C   UNL     1      -1.668 -13.326 -39.401  1.00  0.00     0.130 A 
HETATM   28  C   UNL     1      -3.557 -14.823 -40.202  1.00  0.00     0.132 C 
HETATM   29  C   UNL     1      -0.558 -13.850 -40.245  1.00  0.00     0.081 C 
HETATM   30  N   UNL     1      -1.549 -12.371 -38.502  1.00  0.00    -0.134 NA
HETATM   31  C   UNL     1      -0.574 -15.370 -40.361  1.00  0.00     0.008 C 
HETATM   32  C   UNL     1      -1.563 -15.897 -41.402  1.00  0.00     0.002 C 
HETATM   33  C   UNL     1      -2.875 -15.121 -41.533  1.00  0.00     0.020 C 
HETATM   34  N   UNL     1      -2.775 -12.165 -37.928  1.00  0.00    -0.129 NA
ENDBRANCH   3  25
TORSDOF 5
ENDMDL
MODEL 9
REMARK VINA RESULT:      -8.9      2.617      3.870
REMARK  5 active torsions:
REMARK  status: ('A' for Active; 'I' for Inactive)
REMARK    1  A    between atoms: O_2  and  C_3 
REMARK    2  A    between atoms: C_10  and  C_11 
REMARK    3  A    between atoms: C_11  and  C_12 
REMARK       I    between atoms: C_12  and  N_13 
REMARK    4  A    between atoms: N_13  and  C_14 
REMARK    5  A    between atoms: C_16  and  C_17 
ROOT
HETATM    1  C   UNL     1      -3.758   4.838 -31.982  1.00  0.00     0.035 A 
HETATM    2  C   UNL     1      -3.684   6.159 -31.514  1.00  0.00     0.046 A 
HETATM    3  C   UNL     1      -2.447   6.820 -31.387  1.00  0.00     0.036 A 
HETATM    4  C   UNL     1      -1.274   6.144 -31.747  1.00  0.00     0.048 A 
HETATM    5 CL   UNL     1       0.290   6.866 -31.603  1.00  0.00    -0.083 Cl
HETATM    6  C   UNL     1      -1.341   4.833 -32.218  1.00  0.00     0.027 A 
HETATM    7  C   UNL     1      -2.576   4.185 -32.331  1.00  0.00     0.031 A 
ENDROOT
BRANCH   1   8
HETATM    8  N   UNL     1      -5.041   4.266 -32.122  1.00  0.00    -0.327 N 
HETATM    9  C   UNL     1      -5.980   4.546 -33.108  1.00  0.00     0.226 C 
HETATM   10  O   UNL     1      -5.772   5.193 -34.131  1.00  0.00    -0.273 OA
HETATM   11  H   UNL     1      -5.315   3.590 -31.418  1.00  0.00     0.169 HD
BRANCH   9  12
HETATM   12  C   UNL     1      -7.367   4.033 -32.775  1.00  0.00     0.144 C 
BRANCH  12  13
HETATM   13  C   UNL     1      -7.858   2.825 -33.514  1.00  0.00    -0.021 A 
HETATM   14  C   UNL     1      -7.228   1.564 -33.806  1.00  0.00     0.001 A 
HETATM   15  C   UNL     1      -5.986   0.961 -33.502  1.00  0.00     0.051 A 
HETATM   16  C   UNL     1      -8.115   0.833 -34.603  1.00  0.00     0.043 A 
HETATM   17  C   UNL     1      -5.673  -0.321 -33.987  1.00  0.00     0.069 A 
HETATM   18  C   UNL     1      -6.586  -1.005 -34.784  1.00  0.00     0.039 A 
HETATM   19  C   UNL     1      -7.823  -0.440 -35.106  1.00  0.00     0.033 A 
HETATM   20  N   UNL     1      -9.241   1.597 -34.776  1.00  0.00    -0.365 N 
HETATM   21  H   UNL     1     -10.042   1.320 -35.326  1.00  0.00     0.165 HD
HETATM   22  C   UNL     1      -9.102   2.787 -34.125  1.00  0.00     0.097 A 
BRANCH  17  23
HETATM   23  O   UNL     1      -4.442  -0.787 -33.607  1.00  0.00    -0.356 OA
HETATM   24  C   UNL     1      -4.253  -2.197 -33.630  1.00  0.00     0.210 C 
ENDBRANCH  17  23
ENDBRANCH  12  13
ENDBRANCH   9  12
ENDBRANCH   1   8
BRANCH   3  25
HETATM   25  C   UNL     1      -2.423   8.196 -30.905  1.00  0.00     0.165 A 
HETATM   26  N   UNL     1      -2.096   8.598 -29.626  1.00  0.00    -0.316 N 
HETATM   27  C   UNL     1      -2.195   9.968 -29.621  1.00  0.00     0.130 A 
HETATM   28  C   UNL     1      -1.775   7.716 -28.524  1.00  0.00     0.132 C 
HETATM   29  C   UNL     1      -1.936  10.864 -28.460  1.00  0.00     0.081 C 
HETATM   30  N   UNL     1      -2.568  10.369 -30.818  1.00  0.00    -0.134 NA
HETATM   31  C   UNL     1      -2.518  10.325 -27.159  1.00  0.00     0.008 C 
HETATM   32  C   UNL     1      -1.643   9.265 -26.487  1.00  0.00     0.002 C 
HETATM   33  C   UNL     1      -0.901   8.314 -27.426  1.00  0.00     0.020 C 
HETATM   34  N   UNL     1      -2.712   9.266 -31.617  1.00  0.00    -0.129 NA
ENDBRANCH   3  25
TORSDOF 5
ENDMDL
MODEL 10
REMARK VINA RESULT:      -8.7     17.583     18.955
REMARK  5 active torsions:
REMARK  status: ('A' for Active; 'I' for Inactive)
REMARK    1  A    between atoms: O_2  and  C_3 
REMARK    2  A    between atoms: C_10  and  C_11 
REMARK    3  A    between atoms: C_11  and  C_12 
REMARK       I    between atoms: C_12  and  N_13 
REMARK    4  A    between atoms: N_13  and  C_14 
REMARK    5  A    between atoms: C_16  and  C_17 
ROOT
HETATM    1  C   UNL     1      -6.703 -13.816 -36.623  1.00  0.00     0.035 A 
HETATM    2  C   UNL     1      -5.353 -13.743 -37.000  1.00  0.00     0.046 A 
HETATM    3  C   UNL     1      -4.958 -13.062 -38.167  1.00  0.00     0.036 A 
HETATM    4  C   UNL     1      -5.934 -12.440 -38.956  1.00  0.00     0.048 A 
HETATM    5 CL   UNL     1      -5.546 -11.602 -40.418  1.00  0.00    -0.083 Cl
HETATM    6  C   UNL     1      -7.277 -12.505 -38.585  1.00  0.00     0.027 A 
HETATM    7  C   UNL     1      -7.657 -13.193 -37.427  1.00  0.00     0.031 A 
ENDROOT
BRANCH   1   8
HETATM    8  N   UNL     1      -7.008 -14.480 -35.415  1.00  0.00    -0.327 N 
HETATM    9  C   UNL     1      -6.959 -13.947 -34.131  1.00  0.00     0.226 C 
HETATM   10  O   UNL     1      -6.832 -12.757 -33.856  1.00  0.00    -0.273 OA
HETATM   11  H   UNL     1      -7.275 -15.455 -35.488  1.00  0.00     0.169 HD
BRANCH   9  12
HETATM   12  C   UNL     1      -7.002 -15.002 -33.045  1.00  0.00     0.144 C 
BRANCH  12  13
HETATM   13  C   UNL     1      -5.702 -15.418 -32.427  1.00  0.00    -0.021 A 
HETATM   14  C   UNL     1      -4.426 -15.735 -33.012  1.00  0.00     0.001 A 
HETATM   15  C   UNL     1      -3.889 -15.744 -34.320  1.00  0.00     0.051 A 
HETATM   16  C   UNL     1      -3.583 -16.144 -31.973  1.00  0.00     0.043 A 
HETATM   17  C   UNL     1      -2.561 -16.148 -34.547  1.00  0.00     0.069 A 
HETATM   18  C   UNL     1      -1.765 -16.555 -33.481  1.00  0.00     0.039 A 
HETATM   19  C   UNL     1      -2.262 -16.559 -32.175  1.00  0.00     0.033 A 
HETATM   20  N   UNL     1      -4.299 -16.064 -30.806  1.00  0.00    -0.365 N 
HETATM   21  H   UNL     1      -3.940 -16.316 -29.895  1.00  0.00     0.165 HD
HETATM   22  C   UNL     1      -5.564 -15.625 -31.062  1.00  0.00     0.097 A 
BRANCH  17  23
HETATM   23  O   UNL     1      -2.169 -16.098 -35.860  1.00  0.00    -0.356 OA
HETATM   24  C   UNL     1      -1.094 -15.222 -36.177  1.00  0.00     0.210 C 
ENDBRANCH  17  23
ENDBRANCH  12  13
ENDBRANCH   9  12
ENDBRANCH   1   8
BRANCH   3  25
HETATM   25  C   UNL     1      -3.542 -13.004 -38.512  1.00  0.00     0.165 A 
HETATM   26  N   UNL     1      -2.906 -13.795 -39.446  1.00  0.00    -0.316 N 
HETATM   27  C   UNL     1      -1.591 -13.396 -39.449  1.00  0.00     0.130 A 
HETATM   28  C   UNL     1      -3.523 -14.860 -40.208  1.00  0.00     0.132 C 
HETATM   29  C   UNL     1      -0.504 -13.957 -40.299  1.00  0.00     0.081 C 
HETATM   30  N   UNL     1      -1.439 -12.432 -38.566  1.00  0.00    -0.134 NA
HETATM   31  C   UNL     1      -0.556 -15.478 -40.394  1.00  0.00     0.008 C 
HETATM   32  C   UNL     1      -1.570 -15.996 -41.415  1.00  0.00     0.002 C 
HETATM   33  C   UNL     1      -2.865 -15.192 -41.542  1.00  0.00     0.020 C 
HETATM   34  N   UNL     1      -2.654 -12.189 -37.980  1.00  0.00    -0.129 NA
ENDBRANCH   3  25
TORSDOF 5
ENDMDL
