MODEL 1
REMARK VINA RESULT:      -8.6      0.000      0.000
REMARK  6 active torsions:
REMARK  status: ('A' for Active; 'I' for Inactive)
REMARK    1  A    between atoms: C_2  and  O_3 
REMARK    2  A    between atoms: O_3  and  C_4 
REMARK    3  A    between atoms: C_8  and  C_9 
REMARK    4  A    between atoms: C_9  and  N_10 
REMARK       I    between atoms: N_10  and  C_11 
REMARK       I    between atoms: C_11  and  N_12 
REMARK    5  A    between atoms: N_12  and  C_13 
REMARK    6  A    between atoms: C_14  and  C_15 
ROOT
HETATM    1  N   UNL     1      -6.273   3.341 -32.538  1.00  0.00    -0.339 N 
HETATM    2  C   UNL     1      -5.936   2.084 -32.977  1.00  0.00     0.316 C 
HETATM    3  N   UNL     1      -6.758   1.667 -33.997  1.00  0.00    -0.338 N 
HETATM    4  O   UNL     1      -5.004   1.429 -32.526  1.00  0.00    -0.247 OA
HETATM    5  H   UNL     1      -6.739   3.931 -33.210  1.00  0.00     0.164 HD
HETATM    6  H   UNL     1      -7.683   2.074 -34.015  1.00  0.00     0.164 HD
ENDROOT
BRANCH   1   7
HETATM    7  C   UNL     1      -5.474   4.015 -31.537  1.00  0.00     0.163 C 
BRANCH   7   8
HETATM    8  C   UNL     1      -4.240   4.643 -32.129  1.00  0.00    -0.035 A 
HETATM    9  C   UNL     1      -4.314   5.427 -33.284  1.00  0.00     0.028 A 
HETATM   10  C   UNL     1      -3.150   5.974 -33.796  1.00  0.00     0.120 A 
HETATM   11  N   UNL     1      -1.929   5.783 -33.254  1.00  0.00    -0.237 NA
HETATM   12  C   UNL     1      -1.867   5.010 -32.157  1.00  0.00     0.165 A 
HETATM   13  C   UNL     1      -2.982   4.443 -31.553  1.00  0.00     0.066 A 
BRANCH  12  14
HETATM   14  O   UNL     1      -0.661   4.761 -31.543  1.00  0.00    -0.324 OA
BRANCH  14  15
HETATM   15  C   UNL     1      -0.110   5.739 -30.639  1.00  0.00     0.058 C 
HETATM   16  C   UNL     1      -1.185   6.413 -29.775  1.00  0.00     0.045 C 
HETATM   17  C   UNL     1       0.799   6.760 -31.342  1.00  0.00     0.045 C 
HETATM   18  C   UNL     1       0.780   4.903 -29.698  1.00  0.00     0.045 C 
ENDBRANCH  14  15
ENDBRANCH  12  14
ENDBRANCH   7   8
ENDBRANCH   1   7
BRANCH   3  19
HETATM   19  C   UNL     1      -6.561   0.418 -34.673  1.00  0.00     0.095 A 
HETATM   20  C   UNL     1      -7.112  -0.881 -34.119  1.00  0.00     0.043 A 
HETATM   21  C   UNL     1      -7.726  -0.246 -35.344  1.00  0.00     0.037 A 
BRANCH  20  22
HETATM   22  C   UNL     1      -6.322  -2.162 -34.265  1.00  0.00    -0.052 A 
HETATM   23  C   UNL     1      -4.962  -2.227 -33.917  1.00  0.00     0.007 A 
HETATM   24  C   UNL     1      -4.231  -3.411 -34.053  1.00  0.00     0.001 A 
HETATM   25  C   UNL     1      -4.850  -4.560 -34.537  1.00  0.00     0.000 A 
HETATM   26  C   UNL     1      -6.199  -4.526 -34.877  1.00  0.00     0.001 A 
HETATM   27  C   UNL     1      -6.925  -3.340 -34.738  1.00  0.00     0.007 A 
ENDBRANCH  20  22
ENDBRANCH   3  19
TORSDOF 6
ENDMDL
MODEL 2
REMARK VINA RESULT:      -8.2      2.133      3.028
REMARK  6 active torsions:
REMARK  status: ('A' for Active; 'I' for Inactive)
REMARK    1  A    between atoms: C_2  and  O_3 
REMARK    2  A    between atoms: O_3  and  C_4 
REMARK    3  A    between atoms: C_8  and  C_9 
REMARK    4  A    between atoms: C_9  and  N_10 
REMARK       I    between atoms: N_10  and  C_11 
REMARK       I    between atoms: C_11  and  N_12 
REMARK    5  A    between atoms: N_12  and  C_13 
REMARK    6  A    between atoms: C_14  and  C_15 
ROOT
HETATM    1  N   UNL     1      -3.147   3.083 -31.240  1.00  0.00    -0.339 N 
HETATM    2  C   UNL     1      -3.828   1.990 -31.718  1.00  0.00     0.316 C 
HETATM    3  N   UNL     1      -3.207   0.814 -31.367  1.00  0.00    -0.338 N 
HETATM    4  O   UNL     1      -4.869   2.058 -32.359  1.00  0.00    -0.247 OA
HETATM    5  H   UNL     1      -2.584   2.925 -30.419  1.00  0.00     0.164 HD
HETATM    6  H   UNL     1      -2.211   0.869 -31.207  1.00  0.00     0.164 HD
ENDROOT
BRANCH   1   7
HETATM    7  C   UNL     1      -3.679   4.418 -31.409  1.00  0.00     0.163 C 
BRANCH   7   8
HETATM    8  C   UNL     1      -2.588   5.447 -31.536  1.00  0.00    -0.035 A 
HETATM    9  C   UNL     1      -1.924   5.647 -32.749  1.00  0.00     0.028 A 
HETATM   10  C   UNL     1      -0.919   6.598 -32.812  1.00  0.00     0.120 A 
HETATM   11  N   UNL     1      -0.524   7.344 -31.760  1.00  0.00    -0.237 NA
HETATM   12  C   UNL     1      -1.155   7.128 -30.593  1.00  0.00     0.165 A 
HETATM   13  C   UNL     1      -2.194   6.218 -30.438  1.00  0.00     0.066 A 
BRANCH  12  14
HETATM   14  O   UNL     1      -0.811   7.843 -29.468  1.00  0.00    -0.324 OA
BRANCH  14  15
HETATM   15  C   UNL     1      -0.060   7.199 -28.422  1.00  0.00     0.058 C 
HETATM   16  C   UNL     1       0.539   5.857 -28.866  1.00  0.00     0.045 C 
HETATM   17  C   UNL     1      -0.845   7.080 -27.106  1.00  0.00     0.045 C 
HETATM   18  C   UNL     1       1.115   8.166 -28.170  1.00  0.00     0.045 C 
ENDBRANCH  14  15
ENDBRANCH  12  14
ENDBRANCH   7   8
ENDBRANCH   1   7
BRANCH   3  19
HETATM   19  C   UNL     1      -3.766  -0.468 -31.686  1.00  0.00     0.095 A 
HETATM   20  C   UNL     1      -3.565  -1.106 -33.047  1.00  0.00     0.043 A 
HETATM   21  C   UNL     1      -2.855  -1.650 -31.831  1.00  0.00     0.037 A 
BRANCH  20  22
HETATM   22  C   UNL     1      -4.680  -1.910 -33.676  1.00  0.00    -0.052 A 
HETATM   23  C   UNL     1      -4.465  -3.216 -34.147  1.00  0.00     0.007 A 
HETATM   24  C   UNL     1      -5.495  -3.959 -34.731  1.00  0.00     0.001 A 
HETATM   25  C   UNL     1      -6.769  -3.410 -34.850  1.00  0.00     0.000 A 
HETATM   26  C   UNL     1      -7.011  -2.122 -34.380  1.00  0.00     0.001 A 
HETATM   27  C   UNL     1      -5.978  -1.386 -33.797  1.00  0.00     0.007 A 
ENDBRANCH  20  22
ENDBRANCH   3  19
TORSDOF 6
ENDMDL
MODEL 3
REMARK VINA RESULT:      -8.2      4.999      8.377
REMARK  6 active torsions:
REMARK  status: ('A' for Active; 'I' for Inactive)
REMARK    1  A    between atoms: C_2  and  O_3 
REMARK    2  A    between atoms: O_3  and  C_4 
REMARK    3  A    between atoms: C_8  and  C_9 
REMARK    4  A    between atoms: C_9  and  N_10 
REMARK       I    between atoms: N_10  and  C_11 
REMARK       I    between atoms: C_11  and  N_12 
REMARK    5  A    between atoms: N_12  and  C_13 
REMARK    6  A    between atoms: C_14  and  C_15 
ROOT
HETATM    1  N   UNL     1      -8.272   2.556 -33.862  1.00  0.00    -0.339 N 
HETATM    2  C   UNL     1      -7.883   1.424 -33.189  1.00  0.00     0.316 C 
HETATM    3  N   UNL     1      -6.905   0.739 -33.873  1.00  0.00    -0.338 N 
HETATM    4  O   UNL     1      -8.337   1.082 -32.104  1.00  0.00    -0.247 OA
HETATM    5  H   UNL     1      -7.586   2.954 -34.485  1.00  0.00     0.164 HD
HETATM    6  H   UNL     1      -6.894   0.867 -34.875  1.00  0.00     0.164 HD
ENDROOT
BRANCH   1   7
HETATM    7  C   UNL     1      -9.219   3.478 -33.274  1.00  0.00     0.163 C 
BRANCH   7   8
HETATM    8  C   UNL     1     -10.471   3.605 -34.102  1.00  0.00    -0.035 A 
HETATM    9  C   UNL     1     -10.836   4.827 -34.672  1.00  0.00     0.028 A 
HETATM   10  C   UNL     1     -12.003   4.895 -35.415  1.00  0.00     0.120 A 
HETATM   11  N   UNL     1     -12.830   3.847 -35.614  1.00  0.00    -0.237 NA
HETATM   12  C   UNL     1     -12.479   2.683 -35.042  1.00  0.00     0.165 A 
HETATM   13  C   UNL     1     -11.314   2.508 -34.304  1.00  0.00     0.066 A 
BRANCH  12  14
HETATM   14  O   UNL     1     -13.268   1.565 -35.190  1.00  0.00    -0.324 OA
BRANCH  14  15
HETATM   15  C   UNL     1     -13.909   0.991 -34.035  1.00  0.00     0.058 C 
HETATM   16  C   UNL     1     -14.085   2.004 -32.895  1.00  0.00     0.045 C 
HETATM   17  C   UNL     1     -13.240  -0.309 -33.561  1.00  0.00     0.045 C 
HETATM   18  C   UNL     1     -15.317   0.623 -34.545  1.00  0.00     0.045 C 
ENDBRANCH  14  15
ENDBRANCH  12  14
ENDBRANCH   7   8
ENDBRANCH   1   7
BRANCH   3  19
HETATM   19  C   UNL     1      -6.283  -0.437 -33.338  1.00  0.00     0.095 A 
HETATM   20  C   UNL     1      -5.027  -1.021 -33.953  1.00  0.00     0.043 A 
HETATM   21  C   UNL     1      -4.972  -0.312 -32.621  1.00  0.00     0.037 A 
BRANCH  20  22
HETATM   22  C   UNL     1      -4.835  -2.520 -34.004  1.00  0.00    -0.052 A 
HETATM   23  C   UNL     1      -5.680  -3.340 -34.770  1.00  0.00     0.007 A 
HETATM   24  C   UNL     1      -5.505  -4.726 -34.815  1.00  0.00     0.001 A 
HETATM   25  C   UNL     1      -4.470  -5.321 -34.098  1.00  0.00     0.000 A 
HETATM   26  C   UNL     1      -3.612  -4.530 -33.341  1.00  0.00     0.001 A 
HETATM   27  C   UNL     1      -3.792  -3.145 -33.301  1.00  0.00     0.007 A 
ENDBRANCH  20  22
ENDBRANCH   3  19
TORSDOF 6
ENDMDL
MODEL 4
REMARK VINA RESULT:      -8.1      1.988      2.795
REMARK  6 active torsions:
REMARK  status: ('A' for Active; 'I' for Inactive)
REMARK    1  A    between atoms: C_2  and  O_3 
REMARK    2  A    between atoms: O_3  and  C_4 
REMARK    3  A    between atoms: C_8  and  C_9 
REMARK    4  A    between atoms: C_9  and  N_10 
REMARK       I    between atoms: N_10  and  C_11 
REMARK       I    between atoms: C_11  and  N_12 
REMARK    5  A    between atoms: N_12  and  C_13 
REMARK    6  A    between atoms: C_14  and  C_15 
ROOT
HETATM    1  N   UNL     1      -6.714   3.160 -31.520  1.00  0.00    -0.339 N 
HETATM    2  C   UNL     1      -6.149   1.921 -31.343  1.00  0.00     0.316 C 
HETATM    3  N   UNL     1      -6.264   1.146 -32.473  1.00  0.00    -0.338 N 
HETATM    4  O   UNL     1      -5.595   1.563 -30.311  1.00  0.00    -0.247 OA
HETATM    5  H   UNL     1      -6.757   3.491 -32.471  1.00  0.00     0.164 HD
HETATM    6  H   UNL     1      -7.040   1.362 -33.081  1.00  0.00     0.164 HD
ENDROOT
BRANCH   1   7
HETATM    7  C   UNL     1      -6.619   4.171 -30.490  1.00  0.00     0.163 C 
BRANCH   7   8
HETATM    8  C   UNL     1      -5.673   5.279 -30.874  1.00  0.00    -0.035 A 
HETATM    9  C   UNL     1      -5.536   6.418 -30.075  1.00  0.00     0.028 A 
HETATM   10  C   UNL     1      -4.662   7.414 -30.477  1.00  0.00     0.120 A 
HETATM   11  N   UNL     1      -3.936   7.363 -31.614  1.00  0.00    -0.237 NA
HETATM   12  C   UNL     1      -4.094   6.273 -32.384  1.00  0.00     0.165 A 
HETATM   13  C   UNL     1      -4.923   5.209 -32.051  1.00  0.00     0.066 A 
BRANCH  12  14
HETATM   14  O   UNL     1      -3.395   6.143 -33.563  1.00  0.00    -0.324 OA
BRANCH  14  15
HETATM   15  C   UNL     1      -1.991   5.823 -33.522  1.00  0.00     0.058 C 
HETATM   16  C   UNL     1      -1.651   4.800 -32.429  1.00  0.00     0.045 C 
HETATM   17  C   UNL     1      -1.094   7.069 -33.456  1.00  0.00     0.045 C 
HETATM   18  C   UNL     1      -1.733   5.144 -34.883  1.00  0.00     0.045 C 
ENDBRANCH  14  15
ENDBRANCH  12  14
ENDBRANCH   7   8
ENDBRANCH   1   7
BRANCH   3  19
HETATM   19  C   UNL     1      -5.685  -0.163 -32.561  1.00  0.00     0.095 A 
HETATM   20  C   UNL     1      -5.197  -0.730 -33.880  1.00  0.00     0.043 A 
HETATM   21  C   UNL     1      -4.214  -0.300 -32.819  1.00  0.00     0.037 A 
BRANCH  20  22
HETATM   22  C   UNL     1      -5.368  -2.202 -34.180  1.00  0.00    -0.052 A 
HETATM   23  C   UNL     1      -6.588  -2.717 -34.649  1.00  0.00     0.007 A 
HETATM   24  C   UNL     1      -6.746  -4.078 -34.925  1.00  0.00     0.001 A 
HETATM   25  C   UNL     1      -5.680  -4.954 -34.743  1.00  0.00     0.000 A 
HETATM   26  C   UNL     1      -4.457  -4.467 -34.292  1.00  0.00     0.001 A 
HETATM   27  C   UNL     1      -4.305  -3.106 -34.019  1.00  0.00     0.007 A 
ENDBRANCH  20  22
ENDBRANCH   3  19
TORSDOF 6
ENDMDL
MODEL 5
REMARK VINA RESULT:      -8.0      2.299      3.260
REMARK  6 active torsions:
REMARK  status: ('A' for Active; 'I' for Inactive)
REMARK    1  A    between atoms: C_2  and  O_3 
REMARK    2  A    between atoms: O_3  and  C_4 
REMARK    3  A    between atoms: C_8  and  C_9 
REMARK    4  A    between atoms: C_9  and  N_10 
REMARK       I    between atoms: N_10  and  C_11 
REMARK       I    between atoms: C_11  and  N_12 
REMARK    5  A    between atoms: N_12  and  C_13 
REMARK    6  A    between atoms: C_14  and  C_15 
ROOT
HETATM    1  N   UNL     1      -3.791   4.046 -30.831  1.00  0.00    -0.339 N 
HETATM    2  C   UNL     1      -4.526   3.262 -31.685  1.00  0.00     0.316 C 
HETATM    3  N   UNL     1      -4.671   1.983 -31.199  1.00  0.00    -0.338 N 
HETATM    4  O   UNL     1      -5.009   3.661 -32.737  1.00  0.00    -0.247 OA
HETATM    5  H   UNL     1      -3.805   3.773 -29.861  1.00  0.00     0.164 HD
HETATM    6  H   UNL     1      -3.945   1.662 -30.575  1.00  0.00     0.164 HD
ENDROOT
BRANCH   1   7
HETATM    7  C   UNL     1      -3.601   5.456 -31.099  1.00  0.00     0.163 C 
BRANCH   7   8
HETATM    8  C   UNL     1      -2.157   5.865 -30.970  1.00  0.00    -0.035 A 
HETATM    9  C   UNL     1      -1.154   5.202 -31.683  1.00  0.00     0.028 A 
HETATM   10  C   UNL     1       0.160   5.608 -31.522  1.00  0.00     0.120 A 
HETATM   11  N   UNL     1       0.542   6.605 -30.697  1.00  0.00    -0.237 NA
HETATM   12  C   UNL     1      -0.429   7.220 -30.000  1.00  0.00     0.165 A 
HETATM   13  C   UNL     1      -1.777   6.904 -30.117  1.00  0.00     0.066 A 
BRANCH  12  14
HETATM   14  O   UNL     1      -0.126   8.245 -29.133  1.00  0.00    -0.324 OA
BRANCH  14  15
HETATM   15  C   UNL     1       0.212   7.940 -27.766  1.00  0.00     0.058 C 
HETATM   16  C   UNL     1       0.437   6.439 -27.535  1.00  0.00     0.045 C 
HETATM   17  C   UNL     1      -0.775   8.545 -26.755  1.00  0.00     0.045 C 
HETATM   18  C   UNL     1       1.568   8.646 -27.561  1.00  0.00     0.045 C 
ENDBRANCH  14  15
ENDBRANCH  12  14
ENDBRANCH   7   8
ENDBRANCH   1   7
BRANCH   3  19
HETATM   19  C   UNL     1      -5.462   0.996 -31.875  1.00  0.00     0.095 A 
HETATM   20  C   UNL     1      -5.153  -0.484 -31.762  1.00  0.00     0.043 A 
HETATM   21  C   UNL     1      -6.362   0.103 -31.074  1.00  0.00     0.037 A 
BRANCH  20  22
HETATM   22  C   UNL     1      -5.345  -1.390 -32.956  1.00  0.00    -0.052 A 
HETATM   23  C   UNL     1      -6.586  -1.490 -33.607  1.00  0.00     0.007 A 
HETATM   24  C   UNL     1      -6.765  -2.330 -34.710  1.00  0.00     0.001 A 
HETATM   25  C   UNL     1      -5.698  -3.084 -35.191  1.00  0.00     0.000 A 
HETATM   26  C   UNL     1      -4.455  -2.994 -34.572  1.00  0.00     0.001 A 
HETATM   27  C   UNL     1      -4.283  -2.153 -33.471  1.00  0.00     0.007 A 
ENDBRANCH  20  22
ENDBRANCH   3  19
TORSDOF 6
ENDMDL
MODEL 6
REMARK VINA RESULT:      -8.0      1.592      2.171
REMARK  6 active torsions:
REMARK  status: ('A' for Active; 'I' for Inactive)
REMARK    1  A    between atoms: C_2  and  O_3 
REMARK    2  A    between atoms: O_3  and  C_4 
REMARK    3  A    between atoms: C_8  and  C_9 
REMARK    4  A    between atoms: C_9  and  N_10 
REMARK       I    between atoms: N_10  and  C_11 
REMARK       I    between atoms: C_11  and  N_12 
REMARK    5  A    between atoms: N_12  and  C_13 
REMARK    6  A    between atoms: C_14  and  C_15 
ROOT
HETATM    1  N   UNL     1      -5.371   4.517 -32.518  1.00  0.00    -0.339 N 
HETATM    2  C   UNL     1      -5.753   3.472 -33.323  1.00  0.00     0.316 C 
HETATM    3  N   UNL     1      -6.014   2.338 -32.591  1.00  0.00    -0.338 N 
HETATM    4  O   UNL     1      -5.865   3.552 -34.540  1.00  0.00    -0.247 OA
HETATM    5  H   UNL     1      -5.703   4.482 -31.566  1.00  0.00     0.164 HD
HETATM    6  H   UNL     1      -5.531   2.260 -31.707  1.00  0.00     0.164 HD
ENDROOT
BRANCH   1   7
HETATM    7  C   UNL     1      -5.145   5.834 -33.072  1.00  0.00     0.163 C 
BRANCH   7   8
HETATM    8  C   UNL     1      -3.677   6.138 -33.221  1.00  0.00    -0.035 A 
HETATM    9  C   UNL     1      -2.983   5.791 -34.383  1.00  0.00     0.028 A 
HETATM   10  C   UNL     1      -1.632   6.081 -34.467  1.00  0.00     0.120 A 
HETATM   11  N   UNL     1      -0.928   6.672 -33.479  1.00  0.00    -0.237 NA
HETATM   12  C   UNL     1      -1.601   6.982 -32.358  1.00  0.00     0.165 A 
HETATM   13  C   UNL     1      -2.962   6.758 -32.191  1.00  0.00     0.066 A 
BRANCH  12  14
HETATM   14  O   UNL     1      -0.959   7.584 -31.300  1.00  0.00    -0.324 OA
BRANCH  14  15
HETATM   15  C   UNL     1      -0.743   6.839 -30.086  1.00  0.00     0.058 C 
HETATM   16  C   UNL     1      -0.381   5.371 -30.351  1.00  0.00     0.045 C 
HETATM   17  C   UNL     1      -1.897   6.983 -29.081  1.00  0.00     0.045 C 
HETATM   18  C   UNL     1       0.496   7.513 -29.461  1.00  0.00     0.045 C 
ENDBRANCH  14  15
ENDBRANCH  12  14
ENDBRANCH   7   8
ENDBRANCH   1   7
BRANCH   3  19
HETATM   19  C   UNL     1      -6.501   1.134 -33.198  1.00  0.00     0.095 A 
HETATM   20  C   UNL     1      -6.259  -0.226 -32.574  1.00  0.00     0.043 A 
HETATM   21  C   UNL     1      -7.636   0.394 -32.555  1.00  0.00     0.037 A 
BRANCH  20  22
HETATM   22  C   UNL     1      -5.998  -1.427 -33.454  1.00  0.00    -0.052 A 
HETATM   23  C   UNL     1      -7.052  -2.152 -34.035  1.00  0.00     0.007 A 
HETATM   24  C   UNL     1      -6.811  -3.264 -34.847  1.00  0.00     0.001 A 
HETATM   25  C   UNL     1      -5.504  -3.670 -35.102  1.00  0.00     0.000 A 
HETATM   26  C   UNL     1      -4.442  -2.961 -34.550  1.00  0.00     0.001 A 
HETATM   27  C   UNL     1      -4.689  -1.851 -33.739  1.00  0.00     0.007 A 
ENDBRANCH  20  22
ENDBRANCH   3  19
TORSDOF 6
ENDMDL
MODEL 7
REMARK VINA RESULT:      -7.9      1.651      2.480
REMARK  6 active torsions:
REMARK  status: ('A' for Active; 'I' for Inactive)
REMARK    1  A    between atoms: C_2  and  O_3 
REMARK    2  A    between atoms: O_3  and  C_4 
REMARK    3  A    between atoms: C_8  and  C_9 
REMARK    4  A    between atoms: C_9  and  N_10 
REMARK       I    between atoms: N_10  and  C_11 
REMARK       I    between atoms: C_11  and  N_12 
REMARK    5  A    between atoms: N_12  and  C_13 
REMARK    6  A    between atoms: C_14  and  C_15 
ROOT
HETATM    1  N   UNL     1      -7.280   3.553 -32.546  1.00  0.00    -0.339 N 
HETATM    2  C   UNL     1      -6.674   2.727 -33.461  1.00  0.00     0.316 C 
HETATM    3  N   UNL     1      -6.918   1.402 -33.186  1.00  0.00    -0.338 N 
HETATM    4  O   UNL     1      -6.017   3.128 -34.413  1.00  0.00    -0.247 OA
HETATM    5  H   UNL     1      -8.096   3.176 -32.087  1.00  0.00     0.164 HD
HETATM    6  H   UNL     1      -7.109   1.178 -32.220  1.00  0.00     0.164 HD
ENDROOT
BRANCH   1   7
HETATM    7  C   UNL     1      -7.237   4.990 -32.702  1.00  0.00     0.163 C 
BRANCH   7   8
HETATM    8  C   UNL     1      -6.047   5.597 -32.007  1.00  0.00    -0.035 A 
HETATM    9  C   UNL     1      -6.043   5.790 -30.622  1.00  0.00     0.028 A 
HETATM   10  C   UNL     1      -4.929   6.363 -30.031  1.00  0.00     0.120 A 
HETATM   11  N   UNL     1      -3.840   6.768 -30.716  1.00  0.00    -0.237 NA
HETATM   12  C   UNL     1      -3.864   6.598 -32.049  1.00  0.00     0.165 A 
HETATM   13  C   UNL     1      -4.922   6.006 -32.729  1.00  0.00     0.066 A 
BRANCH  12  14
HETATM   14  O   UNL     1      -2.796   6.987 -32.824  1.00  0.00    -0.324 OA
BRANCH  14  15
HETATM   15  C   UNL     1      -1.594   6.193 -32.823  1.00  0.00     0.058 C 
HETATM   16  C   UNL     1      -1.840   4.750 -32.360  1.00  0.00     0.045 C 
HETATM   17  C   UNL     1      -0.435   6.860 -32.064  1.00  0.00     0.045 C 
HETATM   18  C   UNL     1      -1.194   6.137 -34.312  1.00  0.00     0.045 C 
ENDBRANCH  14  15
ENDBRANCH  12  14
ENDBRANCH   7   8
ENDBRANCH   1   7
BRANCH   3  19
HETATM   19  C   UNL     1      -6.453   0.349 -34.042  1.00  0.00     0.095 A 
HETATM   20  C   UNL     1      -7.151  -0.996 -34.098  1.00  0.00     0.043 A 
HETATM   21  C   UNL     1      -7.260  -0.026 -35.249  1.00  0.00     0.037 A 
BRANCH  20  22
HETATM   22  C   UNL     1      -6.341  -2.261 -34.268  1.00  0.00    -0.052 A 
HETATM   23  C   UNL     1      -6.924  -3.444 -34.754  1.00  0.00     0.007 A 
HETATM   24  C   UNL     1      -6.176  -4.614 -34.909  1.00  0.00     0.001 A 
HETATM   25  C   UNL     1      -4.821  -4.623 -34.588  1.00  0.00     0.000 A 
HETATM   26  C   UNL     1      -4.217  -3.461 -34.116  1.00  0.00     0.001 A 
HETATM   27  C   UNL     1      -4.970  -2.295 -33.964  1.00  0.00     0.007 A 
ENDBRANCH  20  22
ENDBRANCH   3  19
TORSDOF 6
ENDMDL
MODEL 8
REMARK VINA RESULT:      -7.6      2.537     10.034
REMARK  6 active torsions:
REMARK  status: ('A' for Active; 'I' for Inactive)
REMARK    1  A    between atoms: C_2  and  O_3 
REMARK    2  A    between atoms: O_3  and  C_4 
REMARK    3  A    between atoms: C_8  and  C_9 
REMARK    4  A    between atoms: C_9  and  N_10 
REMARK       I    between atoms: N_10  and  C_11 
REMARK       I    between atoms: C_11  and  N_12 
REMARK    5  A    between atoms: N_12  and  C_13 
REMARK    6  A    between atoms: C_14  and  C_15 
ROOT
HETATM    1  N   UNL     1      -3.081   3.685 -32.047  1.00  0.00    -0.339 N 
HETATM    2  C   UNL     1      -2.888   4.853 -31.351  1.00  0.00     0.316 C 
HETATM    3  N   UNL     1      -1.577   5.002 -30.965  1.00  0.00    -0.338 N 
HETATM    4  O   UNL     1      -3.774   5.668 -31.124  1.00  0.00    -0.247 OA
HETATM    5  H   UNL     1      -2.271   3.318 -32.523  1.00  0.00     0.164 HD
HETATM    6  H   UNL     1      -1.050   4.149 -30.848  1.00  0.00     0.164 HD
ENDROOT
BRANCH   1   7
HETATM    7  C   UNL     1      -4.367   3.375 -32.633  1.00  0.00     0.163 C 
BRANCH   7   8
HETATM    8  C   UNL     1      -4.955   2.110 -32.067  1.00  0.00    -0.035 A 
HETATM    9  C   UNL     1      -5.349   2.035 -30.728  1.00  0.00     0.028 A 
HETATM   10  C   UNL     1      -5.873   0.845 -30.252  1.00  0.00     0.120 A 
HETATM   11  N   UNL     1      -6.017  -0.267 -31.003  1.00  0.00    -0.237 NA
HETATM   12  C   UNL     1      -5.615  -0.189 -32.283  1.00  0.00     0.165 A 
HETATM   13  C   UNL     1      -5.104   0.968 -32.859  1.00  0.00     0.066 A 
BRANCH  12  14
HETATM   14  O   UNL     1      -5.722  -1.278 -33.117  1.00  0.00    -0.324 OA
BRANCH  14  15
HETATM   15  C   UNL     1      -6.885  -1.416 -33.956  1.00  0.00     0.058 C 
HETATM   16  C   UNL     1      -8.160  -0.880 -33.290  1.00  0.00     0.045 C 
HETATM   17  C   UNL     1      -7.066  -2.842 -34.500  1.00  0.00     0.045 C 
HETATM   18  C   UNL     1      -6.575  -0.502 -35.160  1.00  0.00     0.045 C 
ENDBRANCH  14  15
ENDBRANCH  12  14
ENDBRANCH   7   8
ENDBRANCH   1   7
BRANCH   3  19
HETATM   19  C   UNL     1      -1.111   6.178 -30.289  1.00  0.00     0.095 A 
HETATM   20  C   UNL     1       0.317   6.296 -29.794  1.00  0.00     0.043 A 
HETATM   21  C   UNL     1      -0.150   7.094 -30.988  1.00  0.00     0.037 A 
BRANCH  20  22
HETATM   22  C   UNL     1       0.610   7.011 -28.494  1.00  0.00    -0.052 A 
HETATM   23  C   UNL     1       0.202   6.480 -27.259  1.00  0.00     0.007 A 
HETATM   24  C   UNL     1       0.470   7.142 -26.057  1.00  0.00     0.001 A 
HETATM   25  C   UNL     1       1.163   8.350 -26.067  1.00  0.00     0.000 A 
HETATM   26  C   UNL     1       1.589   8.891 -27.276  1.00  0.00     0.001 A 
HETATM   27  C   UNL     1       1.318   8.224 -28.473  1.00  0.00     0.007 A 
ENDBRANCH  20  22
ENDBRANCH   3  19
TORSDOF 6
ENDMDL
MODEL 9
REMARK VINA RESULT:      -7.6      2.875     10.072
REMARK  6 active torsions:
REMARK  status: ('A' for Active; 'I' for Inactive)
REMARK    1  A    between atoms: C_2  and  O_3 
REMARK    2  A    between atoms: O_3  and  C_4 
REMARK    3  A    between atoms: C_8  and  C_9 
REMARK    4  A    between atoms: C_9  and  N_10 
REMARK       I    between atoms: N_10  and  C_11 
REMARK       I    between atoms: C_11  and  N_12 
REMARK    5  A    between atoms: N_12  and  C_13 
REMARK    6  A    between atoms: C_14  and  C_15 
ROOT
HETATM    1  N   UNL     1      -3.047   3.532 -32.018  1.00  0.00    -0.339 N 
HETATM    2  C   UNL     1      -2.707   4.780 -31.558  1.00  0.00     0.316 C 
HETATM    3  N   UNL     1      -1.528   4.754 -30.851  1.00  0.00    -0.338 N 
HETATM    4  O   UNL     1      -3.365   5.790 -31.771  1.00  0.00    -0.247 OA
HETATM    5  H   UNL     1      -2.282   2.889 -32.154  1.00  0.00     0.164 HD
HETATM    6  H   UNL     1      -1.294   3.876 -30.411  1.00  0.00     0.164 HD
ENDROOT
BRANCH   1   7
HETATM    7  C   UNL     1      -4.201   3.347 -32.872  1.00  0.00     0.163 C 
BRANCH   7   8
HETATM    8  C   UNL     1      -4.963   2.095 -32.526  1.00  0.00    -0.035 A 
HETATM    9  C   UNL     1      -4.483   1.201 -31.565  1.00  0.00     0.028 A 
HETATM   10  C   UNL     1      -5.215   0.058 -31.291  1.00  0.00     0.120 A 
HETATM   11  N   UNL     1      -6.370  -0.261 -31.911  1.00  0.00    -0.237 NA
HETATM   12  C   UNL     1      -6.811   0.595 -32.849  1.00  0.00     0.165 A 
HETATM   13  C   UNL     1      -6.163   1.781 -33.172  1.00  0.00     0.066 A 
BRANCH  12  14
HETATM   14  O   UNL     1      -7.979   0.344 -33.532  1.00  0.00    -0.324 OA
BRANCH  14  15
HETATM   15  C   UNL     1      -9.231   0.805 -32.990  1.00  0.00     0.058 C 
HETATM   16  C   UNL     1      -9.046   1.681 -31.743  1.00  0.00     0.045 C 
HETATM   17  C   UNL     1     -10.239  -0.332 -32.760  1.00  0.00     0.045 C 
HETATM   18  C   UNL     1      -9.801   1.705 -34.105  1.00  0.00     0.045 C 
ENDBRANCH  14  15
ENDBRANCH  12  14
ENDBRANCH   7   8
ENDBRANCH   1   7
BRANCH   3  19
HETATM   19  C   UNL     1      -0.925   5.947 -30.331  1.00  0.00     0.095 A 
HETATM   20  C   UNL     1       0.403   5.913 -29.601  1.00  0.00     0.043 A 
HETATM   21  C   UNL     1       0.306   6.495 -30.991  1.00  0.00     0.037 A 
BRANCH  20  22
HETATM   22  C   UNL     1       0.644   6.835 -28.427  1.00  0.00    -0.052 A 
HETATM   23  C   UNL     1       1.233   8.099 -28.597  1.00  0.00     0.007 A 
HETATM   24  C   UNL     1       1.458   8.950 -27.511  1.00  0.00     0.001 A 
HETATM   25  C   UNL     1       1.090   8.554 -26.228  1.00  0.00     0.000 A 
HETATM   26  C   UNL     1       0.494   7.312 -26.034  1.00  0.00     0.001 A 
HETATM   27  C   UNL     1       0.271   6.466 -27.124  1.00  0.00     0.007 A 
ENDBRANCH  20  22
ENDBRANCH   3  19
TORSDOF 6
ENDMDL
MODEL 10
REMARK VINA RESULT:      -7.5      2.404      8.543
REMARK  6 active torsions:
REMARK  status: ('A' for Active; 'I' for Inactive)
REMARK    1  A    between atoms: C_2  and  O_3 
REMARK    2  A    between atoms: O_3  and  C_4 
REMARK    3  A    between atoms: C_8  and  C_9 
REMARK    4  A    between atoms: C_9  and  N_10 
REMARK       I    between atoms: N_10  and  C_11 
REMARK       I    between atoms: C_11  and  N_12 
REMARK    5  A    between atoms: N_12  and  C_13 
REMARK    6  A    between atoms: C_14  and  C_15 
ROOT
HETATM    1  N   UNL     1      -7.253   3.105 -30.273  1.00  0.00    -0.339 N 
HETATM    2  C   UNL     1      -6.489   4.026 -30.947  1.00  0.00     0.316 C 
HETATM    3  N   UNL     1      -5.145   3.809 -30.754  1.00  0.00    -0.338 N 
HETATM    4  O   UNL     1      -6.953   4.917 -31.649  1.00  0.00    -0.247 OA
HETATM    5  H   UNL     1      -6.810   2.218 -30.090  1.00  0.00     0.164 HD
HETATM    6  H   UNL     1      -4.891   3.343 -29.895  1.00  0.00     0.164 HD
ENDROOT
BRANCH   1   7
HETATM    7  C   UNL     1      -8.692   3.088 -30.418  1.00  0.00     0.163 C 
BRANCH   7   8
HETATM    8  C   UNL     1      -9.130   2.269 -31.604  1.00  0.00    -0.035 A 
HETATM    9  C   UNL     1     -10.240   2.642 -32.367  1.00  0.00     0.028 A 
HETATM   10  C   UNL     1     -10.610   1.849 -33.441  1.00  0.00     0.120 A 
HETATM   11  N   UNL     1      -9.968   0.716 -33.794  1.00  0.00    -0.237 NA
HETATM   12  C   UNL     1      -8.914   0.357 -33.040  1.00  0.00     0.165 A 
HETATM   13  C   UNL     1      -8.450   1.101 -31.963  1.00  0.00     0.066 A 
BRANCH  12  14
HETATM   14  O   UNL     1      -8.206  -0.787 -33.329  1.00  0.00    -0.324 OA
BRANCH  14  15
HETATM   15  C   UNL     1      -6.992  -0.693 -34.099  1.00  0.00     0.058 C 
HETATM   16  C   UNL     1      -5.765  -0.383 -33.231  1.00  0.00     0.045 C 
HETATM   17  C   UNL     1      -7.115   0.261 -35.298  1.00  0.00     0.045 C 
HETATM   18  C   UNL     1      -6.809  -2.117 -34.664  1.00  0.00     0.045 C 
ENDBRANCH  14  15
ENDBRANCH  12  14
ENDBRANCH   7   8
ENDBRANCH   1   7
BRANCH   3  19
HETATM   19  C   UNL     1      -4.144   4.595 -31.414  1.00  0.00     0.095 A 
HETATM   20  C   UNL     1      -2.723   4.093 -31.583  1.00  0.00     0.043 A 
HETATM   21  C   UNL     1      -3.655   4.174 -32.768  1.00  0.00     0.037 A 
BRANCH  20  22
HETATM   22  C   UNL     1      -1.563   5.057 -31.484  1.00  0.00    -0.052 A 
HETATM   23  C   UNL     1      -1.441   6.148 -32.361  1.00  0.00     0.007 A 
HETATM   24  C   UNL     1      -0.367   7.038 -32.271  1.00  0.00     0.001 A 
HETATM   25  C   UNL     1       0.606   6.859 -31.292  1.00  0.00     0.000 A 
HETATM   26  C   UNL     1       0.502   5.794 -30.403  1.00  0.00     0.001 A 
HETATM   27  C   UNL     1      -0.574   4.908 -30.498  1.00  0.00     0.007 A 
ENDBRANCH  20  22
ENDBRANCH   3  19
TORSDOF 6
ENDMDL
