MODEL 1
REMARK VINA RESULT:      -8.2      0.000      0.000
REMARK  5 active torsions:
REMARK  status: ('A' for Active; 'I' for Inactive)
REMARK    1  A    between atoms: C_6  and  N_7 
REMARK       I    between atoms: N_7  and  C_8 
REMARK    2  A    between atoms: C_8  and  C_9 
REMARK    3  A    between atoms: C_9  and  O_10 
REMARK    4  A    between atoms: O_10  and  C_11 
REMARK    5  A    between atoms: C_19  and  C_20 
ROOT
HETATM    1  C   UNL     1      -6.753  -1.469 -34.596  1.00  0.00     0.073 C 
HETATM    2  C   UNL     1      -6.625  -0.803 -33.276  1.00  0.00     0.065 A 
HETATM    3  N   UNL     1      -5.615  -1.125 -32.459  1.00  0.00    -0.177 NA
HETATM    4  N   UNL     1      -5.823  -0.367 -31.371  1.00  0.00    -0.262 N 
HETATM    5  H   UNL     1      -5.151  -0.427 -30.611  1.00  0.00     0.191 HD
HETATM    6  C   UNL     1      -6.920   0.448 -31.457  1.00  0.00     0.137 A 
HETATM    7  C   UNL     1      -7.472   0.181 -32.697  1.00  0.00     0.046 A 
ENDROOT
BRANCH   6   8
HETATM    8  N   UNL     1      -7.305   1.381 -30.515  1.00  0.00    -0.309 N 
HETATM    9  C   UNL     1      -6.965   2.705 -30.431  1.00  0.00     0.247 C 
HETATM   10  O   UNL     1      -7.628   3.440 -29.694  1.00  0.00    -0.271 OA
HETATM   11  H   UNL     1      -7.954   1.078 -29.797  1.00  0.00     0.170 HD
BRANCH   9  12
HETATM   12  C   UNL     1      -5.675   3.203 -31.082  1.00  0.00     0.278 C 
BRANCH  12  13
HETATM   13  O   UNL     1      -5.847   3.752 -32.378  1.00  0.00    -0.342 OA
BRANCH  13  14
HETATM   14  C   UNL     1      -4.692   4.117 -33.027  1.00  0.00     0.069 A 
HETATM   15  C   UNL     1      -4.886   4.785 -34.241  1.00  0.00     0.040 A 
HETATM   16  C   UNL     1      -3.791   5.195 -35.006  1.00  0.00     0.045 A 
HETATM   17  C   UNL     1      -2.504   4.940 -34.551  1.00  0.00     0.116 A 
HETATM   18  F   UNL     1      -1.453   5.333 -35.281  1.00  0.00    -0.206 F 
HETATM   19  C   UNL     1      -2.294   4.283 -33.346  1.00  0.00     0.045 A 
HETATM   20  C   UNL     1      -3.389   3.870 -32.580  1.00  0.00     0.040 A 
ENDBRANCH  13  14
ENDBRANCH  12  13
ENDBRANCH   9  12
ENDBRANCH   6   8
BRANCH   7  21
HETATM   21  C   UNL     1      -8.747   0.697 -33.150  1.00  0.00    -0.020 A 
HETATM   22  C   UNL     1      -9.940   0.011 -32.897  1.00  0.00     0.014 A 
HETATM   23  C   UNL     1     -11.148   0.501 -33.402  1.00  0.00     0.020 A 
HETATM   24  C   UNL     1     -11.163   1.676 -34.153  1.00  0.00     0.011 A 
HETATM   25 BR   UNL     1     -12.794   2.325 -34.855  1.00  0.00    -0.051 Br
HETATM   26  C   UNL     1      -9.982   2.374 -34.397  1.00  0.00     0.020 A 
HETATM   27  C   UNL     1      -8.775   1.884 -33.895  1.00  0.00     0.014 A 
ENDBRANCH   7  21
TORSDOF 5
ENDMDL
MODEL 2
REMARK VINA RESULT:      -8.0      4.699      7.451
REMARK  5 active torsions:
REMARK  status: ('A' for Active; 'I' for Inactive)
REMARK    1  A    between atoms: C_6  and  N_7 
REMARK       I    between atoms: N_7  and  C_8 
REMARK    2  A    between atoms: C_8  and  C_9 
REMARK    3  A    between atoms: C_9  and  O_10 
REMARK    4  A    between atoms: O_10  and  C_11 
REMARK    5  A    between atoms: C_19  and  C_20 
ROOT
HETATM    1  C   UNL     1      -6.720   5.266 -33.224  1.00  0.00     0.073 C 
HETATM    2  C   UNL     1      -6.337   4.003 -32.546  1.00  0.00     0.065 A 
HETATM    3  N   UNL     1      -7.260   3.059 -32.319  1.00  0.00    -0.177 NA
HETATM    4  N   UNL     1      -6.583   2.091 -31.679  1.00  0.00    -0.262 N 
HETATM    5  H   UNL     1      -7.086   1.246 -31.425  1.00  0.00     0.191 HD
HETATM    6  C   UNL     1      -5.253   2.363 -31.497  1.00  0.00     0.137 A 
HETATM    7  C   UNL     1      -5.061   3.615 -32.053  1.00  0.00     0.046 A 
ENDROOT
BRANCH   6   8
HETATM    8  N   UNL     1      -4.325   1.503 -30.946  1.00  0.00    -0.309 N 
HETATM    9  C   UNL     1      -3.483   0.629 -31.581  1.00  0.00     0.247 C 
HETATM   10  O   UNL     1      -2.533   0.158 -30.950  1.00  0.00    -0.271 OA
HETATM   11  H   UNL     1      -4.207   1.527 -29.939  1.00  0.00     0.170 HD
BRANCH   9  12
HETATM   12  C   UNL     1      -3.838   0.104 -32.973  1.00  0.00     0.278 C 
BRANCH  12  13
HETATM   13  O   UNL     1      -5.209  -0.213 -33.146  1.00  0.00    -0.342 OA
BRANCH  13  14
HETATM   14  C   UNL     1      -5.467  -1.435 -33.720  1.00  0.00     0.069 A 
HETATM   15  C   UNL     1      -4.345  -2.249 -33.902  1.00  0.00     0.040 A 
HETATM   16  C   UNL     1      -4.472  -3.510 -34.491  1.00  0.00     0.045 A 
HETATM   17  C   UNL     1      -5.725  -3.955 -34.890  1.00  0.00     0.116 A 
HETATM   18  F   UNL     1      -5.851  -5.164 -35.453  1.00  0.00    -0.206 F 
HETATM   19  C   UNL     1      -6.850  -3.162 -34.713  1.00  0.00     0.045 A 
HETATM   20  C   UNL     1      -6.724  -1.899 -34.125  1.00  0.00     0.040 A 
ENDBRANCH  13  14
ENDBRANCH  12  13
ENDBRANCH   9  12
ENDBRANCH   6   8
BRANCH   7  21
HETATM   21  C   UNL     1      -3.834   4.378 -31.940  1.00  0.00    -0.020 A 
HETATM   22  C   UNL     1      -2.720   4.083 -32.734  1.00  0.00     0.014 A 
HETATM   23  C   UNL     1      -1.529   4.793 -32.557  1.00  0.00     0.020 A 
HETATM   24  C   UNL     1      -1.457   5.799 -31.594  1.00  0.00     0.011 A 
HETATM   25 BR   UNL     1       0.161   6.745 -31.341  1.00  0.00    -0.051 Br
HETATM   26  C   UNL     1      -2.565   6.111 -30.811  1.00  0.00     0.020 A 
HETATM   27  C   UNL     1      -3.753   5.399 -30.985  1.00  0.00     0.014 A 
ENDBRANCH   7  21
TORSDOF 5
ENDMDL
MODEL 3
REMARK VINA RESULT:      -7.8      2.955      4.127
REMARK  5 active torsions:
REMARK  status: ('A' for Active; 'I' for Inactive)
REMARK    1  A    between atoms: C_6  and  N_7 
REMARK       I    between atoms: N_7  and  C_8 
REMARK    2  A    between atoms: C_8  and  C_9 
REMARK    3  A    between atoms: C_9  and  O_10 
REMARK    4  A    between atoms: O_10  and  C_11 
REMARK    5  A    between atoms: C_19  and  C_20 
ROOT
HETATM    1  C   UNL     1      -6.769  -4.342 -35.108  1.00  0.00     0.073 C 
HETATM    2  C   UNL     1      -5.656  -3.510 -34.587  1.00  0.00     0.065 A 
HETATM    3  N   UNL     1      -4.477  -4.073 -34.300  1.00  0.00    -0.177 NA
HETATM    4  N   UNL     1      -3.734  -3.054 -33.839  1.00  0.00    -0.262 N 
HETATM    5  H   UNL     1      -2.771  -3.245 -33.577  1.00  0.00     0.191 HD
HETATM    6  C   UNL     1      -4.381  -1.847 -33.832  1.00  0.00     0.137 A 
HETATM    7  C   UNL     1      -5.649  -2.115 -34.315  1.00  0.00     0.046 A 
ENDROOT
BRANCH   6   8
HETATM    8  N   UNL     1      -3.818  -0.635 -33.486  1.00  0.00    -0.309 N 
HETATM    9  C   UNL     1      -3.659  -0.088 -32.241  1.00  0.00     0.247 C 
HETATM   10  O   UNL     1      -2.883   0.863 -32.107  1.00  0.00    -0.271 OA
HETATM   11  H   UNL     1      -3.431  -0.070 -34.234  1.00  0.00     0.170 HD
BRANCH   9  12
HETATM   12  C   UNL     1      -4.575  -0.521 -31.096  1.00  0.00     0.278 C 
BRANCH  12  13
HETATM   13  O   UNL     1      -5.867   0.064 -31.127  1.00  0.00    -0.342 OA
BRANCH  13  14
HETATM   14  C   UNL     1      -5.897   1.437 -31.185  1.00  0.00     0.069 A 
HETATM   15  C   UNL     1      -5.624   2.082 -29.974  1.00  0.00     0.040 A 
HETATM   16  C   UNL     1      -5.640   3.477 -29.896  1.00  0.00     0.045 A 
HETATM   17  C   UNL     1      -5.922   4.223 -31.032  1.00  0.00     0.116 A 
HETATM   18  F   UNL     1      -5.937   5.560 -30.962  1.00  0.00    -0.206 F 
HETATM   19  C   UNL     1      -6.191   3.598 -32.243  1.00  0.00     0.045 A 
HETATM   20  C   UNL     1      -6.177   2.203 -32.322  1.00  0.00     0.040 A 
ENDBRANCH  13  14
ENDBRANCH  12  13
ENDBRANCH   9  12
ENDBRANCH   6   8
BRANCH   7  21
HETATM   21  C   UNL     1      -6.736  -1.157 -34.325  1.00  0.00    -0.020 A 
HETATM   22  C   UNL     1      -6.796  -0.136 -35.281  1.00  0.00     0.014 A 
HETATM   23  C   UNL     1      -7.822   0.812 -35.225  1.00  0.00     0.020 A 
HETATM   24  C   UNL     1      -8.788   0.735 -34.222  1.00  0.00     0.011 A 
HETATM   25 BR   UNL     1     -10.162   2.030 -34.136  1.00  0.00    -0.051 Br
HETATM   26  C   UNL     1      -8.745  -0.287 -33.276  1.00  0.00     0.020 A 
HETATM   27  C   UNL     1      -7.719  -1.232 -33.329  1.00  0.00     0.014 A 
ENDBRANCH   7  21
TORSDOF 5
ENDMDL
MODEL 4
REMARK VINA RESULT:      -7.8      4.736      7.749
REMARK  5 active torsions:
REMARK  status: ('A' for Active; 'I' for Inactive)
REMARK    1  A    between atoms: C_6  and  N_7 
REMARK       I    between atoms: N_7  and  C_8 
REMARK    2  A    between atoms: C_8  and  C_9 
REMARK    3  A    between atoms: C_9  and  O_10 
REMARK    4  A    between atoms: O_10  and  C_11 
REMARK    5  A    between atoms: C_19  and  C_20 
ROOT
HETATM    1  C   UNL     1      -5.761   3.626 -33.822  1.00  0.00     0.073 C 
HETATM    2  C   UNL     1      -7.026   3.115 -33.238  1.00  0.00     0.065 A 
HETATM    3  N   UNL     1      -7.887   3.963 -32.660  1.00  0.00    -0.177 NA
HETATM    4  N   UNL     1      -8.882   3.171 -32.229  1.00  0.00    -0.262 N 
HETATM    5  H   UNL     1      -9.676   3.609 -31.771  1.00  0.00     0.191 HD
HETATM    6  C   UNL     1      -8.708   1.844 -32.520  1.00  0.00     0.137 A 
HETATM    7  C   UNL     1      -7.494   1.775 -33.180  1.00  0.00     0.046 A 
ENDROOT
BRANCH   6   8
HETATM    8  N   UNL     1      -9.619   0.839 -32.262  1.00  0.00    -0.309 N 
HETATM    9  C   UNL     1     -10.576   0.317 -33.091  1.00  0.00     0.247 C 
HETATM   10  O   UNL     1     -11.097  -0.760 -32.788  1.00  0.00    -0.271 OA
HETATM   11  H   UNL     1      -9.570   0.386 -31.356  1.00  0.00     0.170 HD
BRANCH   9  12
HETATM   12  C   UNL     1     -11.118   1.152 -34.250  1.00  0.00     0.278 C 
BRANCH  12  13
HETATM   13  O   UNL     1     -11.654   2.407 -33.866  1.00  0.00    -0.342 OA
BRANCH  13  14
HETATM   14  C   UNL     1     -12.916   2.372 -33.323  1.00  0.00     0.069 A 
HETATM   15  C   UNL     1     -13.801   1.485 -33.945  1.00  0.00     0.040 A 
HETATM   16  C   UNL     1     -15.119   1.368 -33.497  1.00  0.00     0.045 A 
HETATM   17  C   UNL     1     -15.547   2.136 -32.423  1.00  0.00     0.116 A 
HETATM   18  F   UNL     1     -16.810   2.026 -31.990  1.00  0.00    -0.206 F 
HETATM   19  C   UNL     1     -14.681   3.018 -31.791  1.00  0.00     0.045 A 
HETATM   20  C   UNL     1     -13.362   3.138 -32.239  1.00  0.00     0.040 A 
ENDBRANCH  13  14
ENDBRANCH  12  13
ENDBRANCH   9  12
ENDBRANCH   6   8
BRANCH   7  21
HETATM   21  C   UNL     1      -6.827   0.537 -33.530  1.00  0.00    -0.020 A 
HETATM   22  C   UNL     1      -7.196  -0.191 -34.667  1.00  0.00     0.014 A 
HETATM   23  C   UNL     1      -6.577  -1.414 -34.943  1.00  0.00     0.020 A 
HETATM   24  C   UNL     1      -5.589  -1.902 -34.089  1.00  0.00     0.011 A 
HETATM   25 BR   UNL     1      -4.769  -3.567 -34.452  1.00  0.00    -0.051 Br
HETATM   26  C   UNL     1      -5.204  -1.177 -32.964  1.00  0.00     0.020 A 
HETATM   27  C   UNL     1      -5.823   0.043 -32.686  1.00  0.00     0.014 A 
ENDBRANCH   7  21
TORSDOF 5
ENDMDL
MODEL 5
REMARK VINA RESULT:      -7.7      4.706      7.911
REMARK  5 active torsions:
REMARK  status: ('A' for Active; 'I' for Inactive)
REMARK    1  A    between atoms: C_6  and  N_7 
REMARK       I    between atoms: N_7  and  C_8 
REMARK    2  A    between atoms: C_8  and  C_9 
REMARK    3  A    between atoms: C_9  and  O_10 
REMARK    4  A    between atoms: O_10  and  C_11 
REMARK    5  A    between atoms: C_19  and  C_20 
ROOT
HETATM    1  C   UNL     1      -1.113   5.593 -34.987  1.00  0.00     0.073 C 
HETATM    2  C   UNL     1      -2.464   5.408 -34.402  1.00  0.00     0.065 A 
HETATM    3  N   UNL     1      -3.512   5.171 -35.201  1.00  0.00    -0.177 NA
HETATM    4  N   UNL     1      -4.552   5.086 -34.356  1.00  0.00    -0.262 N 
HETATM    5  H   UNL     1      -5.468   4.880 -34.744  1.00  0.00     0.191 HD
HETATM    6  C   UNL     1      -4.217   5.243 -33.037  1.00  0.00     0.137 A 
HETATM    7  C   UNL     1      -2.851   5.461 -33.035  1.00  0.00     0.046 A 
ENDROOT
BRANCH   6   8
HETATM    8  N   UNL     1      -5.080   5.117 -31.967  1.00  0.00    -0.309 N 
HETATM    9  C   UNL     1      -5.402   3.995 -31.252  1.00  0.00     0.247 C 
HETATM   10  O   UNL     1      -5.964   4.129 -30.162  1.00  0.00    -0.271 OA
HETATM   11  H   UNL     1      -5.523   5.963 -31.624  1.00  0.00     0.170 HD
BRANCH   9  12
HETATM   12  C   UNL     1      -5.245   2.614 -31.890  1.00  0.00     0.278 C 
BRANCH  12  13
HETATM   13  O   UNL     1      -5.871   2.480 -33.155  1.00  0.00    -0.342 OA
BRANCH  13  14
HETATM   14  C   UNL     1      -6.101   1.190 -33.571  1.00  0.00     0.069 A 
HETATM   15  C   UNL     1      -7.067   1.059 -34.574  1.00  0.00     0.040 A 
HETATM   16  C   UNL     1      -7.405  -0.202 -35.071  1.00  0.00     0.045 A 
HETATM   17  C   UNL     1      -6.769  -1.329 -34.568  1.00  0.00     0.116 A 
HETATM   18  F   UNL     1      -7.088  -2.539 -35.044  1.00  0.00    -0.206 F 
HETATM   19  C   UNL     1      -5.804  -1.216 -33.576  1.00  0.00     0.045 A 
HETATM   20  C   UNL     1      -5.467   0.045 -33.075  1.00  0.00     0.040 A 
ENDBRANCH  13  14
ENDBRANCH  12  13
ENDBRANCH   9  12
ENDBRANCH   6   8
BRANCH   7  21
HETATM   21  C   UNL     1      -2.088   5.844 -31.865  1.00  0.00    -0.020 A 
HETATM   22  C   UNL     1      -2.174   7.135 -31.332  1.00  0.00     0.014 A 
HETATM   23  C   UNL     1      -1.377   7.495 -30.241  1.00  0.00     0.020 A 
HETATM   24  C   UNL     1      -0.503   6.563 -29.682  1.00  0.00     0.011 A 
HETATM   25 BR   UNL     1       0.590   7.057 -28.220  1.00  0.00    -0.051 Br
HETATM   26  C   UNL     1      -0.422   5.271 -30.195  1.00  0.00     0.020 A 
HETATM   27  C   UNL     1      -1.215   4.913 -31.286  1.00  0.00     0.014 A 
ENDBRANCH   7  21
TORSDOF 5
ENDMDL
MODEL 6
REMARK VINA RESULT:      -7.6      4.003      6.893
REMARK  5 active torsions:
REMARK  status: ('A' for Active; 'I' for Inactive)
REMARK    1  A    between atoms: C_6  and  N_7 
REMARK       I    between atoms: N_7  and  C_8 
REMARK    2  A    between atoms: C_8  and  C_9 
REMARK    3  A    between atoms: C_9  and  O_10 
REMARK    4  A    between atoms: O_10  and  C_11 
REMARK    5  A    between atoms: C_19  and  C_20 
ROOT
HETATM    1  C   UNL     1      -6.011   4.755 -29.007  1.00  0.00     0.073 C 
HETATM    2  C   UNL     1      -6.771   3.980 -30.020  1.00  0.00     0.065 A 
HETATM    3  N   UNL     1      -7.879   3.319 -29.663  1.00  0.00    -0.177 NA
HETATM    4  N   UNL     1      -8.281   2.723 -30.797  1.00  0.00    -0.262 N 
HETATM    5  H   UNL     1      -9.135   2.175 -30.772  1.00  0.00     0.191 HD
HETATM    6  C   UNL     1      -7.485   2.985 -31.880  1.00  0.00     0.137 A 
HETATM    7  C   UNL     1      -6.480   3.807 -31.400  1.00  0.00     0.046 A 
ENDROOT
BRANCH   6   8
HETATM    8  N   UNL     1      -7.723   2.565 -33.174  1.00  0.00    -0.309 N 
HETATM    9  C   UNL     1      -7.808   1.287 -33.658  1.00  0.00     0.247 C 
HETATM   10  O   UNL     1      -8.308   1.108 -34.772  1.00  0.00    -0.271 OA
HETATM   11  H   UNL     1      -7.895   3.280 -33.872  1.00  0.00     0.170 HD
BRANCH   9  12
HETATM   12  C   UNL     1      -7.118   0.143 -32.915  1.00  0.00     0.278 C 
BRANCH  12  13
HETATM   13  O   UNL     1      -5.816  -0.160 -33.389  1.00  0.00    -0.342 OA
BRANCH  13  14
HETATM   14  C   UNL     1      -5.635  -1.443 -33.849  1.00  0.00     0.069 A 
HETATM   15  C   UNL     1      -6.796  -2.070 -34.314  1.00  0.00     0.040 A 
HETATM   16  C   UNL     1      -6.749  -3.381 -34.794  1.00  0.00     0.045 A 
HETATM   17  C   UNL     1      -5.538  -4.060 -34.811  1.00  0.00     0.116 A 
HETATM   18  F   UNL     1      -5.489  -5.317 -35.271  1.00  0.00    -0.206 F 
HETATM   19  C   UNL     1      -4.376  -3.451 -34.357  1.00  0.00     0.045 A 
HETATM   20  C   UNL     1      -4.422  -2.140 -33.875  1.00  0.00     0.040 A 
ENDBRANCH  13  14
ENDBRANCH  12  13
ENDBRANCH   9  12
ENDBRANCH   6   8
BRANCH   7  21
HETATM   21  C   UNL     1      -5.315   4.201 -32.165  1.00  0.00    -0.020 A 
HETATM   22  C   UNL     1      -5.360   5.281 -33.054  1.00  0.00     0.014 A 
HETATM   23  C   UNL     1      -4.238   5.597 -33.825  1.00  0.00     0.020 A 
HETATM   24  C   UNL     1      -3.074   4.840 -33.703  1.00  0.00     0.011 A 
HETATM   25 BR   UNL     1      -1.564   5.255 -34.763  1.00  0.00    -0.051 Br
HETATM   26  C   UNL     1      -3.014   3.773 -32.809  1.00  0.00     0.020 A 
HETATM   27  C   UNL     1      -4.135   3.455 -32.041  1.00  0.00     0.014 A 
ENDBRANCH   7  21
TORSDOF 5
ENDMDL
MODEL 7
REMARK VINA RESULT:      -7.6     16.334     17.919
REMARK  5 active torsions:
REMARK  status: ('A' for Active; 'I' for Inactive)
REMARK    1  A    between atoms: C_6  and  N_7 
REMARK       I    between atoms: N_7  and  C_8 
REMARK    2  A    between atoms: C_8  and  C_9 
REMARK    3  A    between atoms: C_9  and  O_10 
REMARK    4  A    between atoms: O_10  and  C_11 
REMARK    5  A    between atoms: C_19  and  C_20 
ROOT
HETATM    1  C   UNL     1      -4.755 -14.827 -43.604  1.00  0.00     0.073 C 
HETATM    2  C   UNL     1      -4.161 -14.237 -42.379  1.00  0.00     0.065 A 
HETATM    3  N   UNL     1      -2.838 -14.288 -42.185  1.00  0.00    -0.177 NA
HETATM    4  N   UNL     1      -2.661 -13.697 -40.992  1.00  0.00    -0.262 N 
HETATM    5  H   UNL     1      -1.712 -13.598 -40.645  1.00  0.00     0.191 HD
HETATM    6  C   UNL     1      -3.818 -13.249 -40.412  1.00  0.00     0.137 A 
HETATM    7  C   UNL     1      -4.823 -13.593 -41.298  1.00  0.00     0.046 A 
ENDROOT
BRANCH   6   8
HETATM    8  N   UNL     1      -3.902 -12.537 -39.233  1.00  0.00    -0.309 N 
HETATM    9  C   UNL     1      -4.132 -13.002 -37.965  1.00  0.00     0.247 C 
HETATM   10  O   UNL     1      -3.888 -12.260 -37.009  1.00  0.00    -0.271 OA
HETATM   11  H   UNL     1      -3.742 -11.537 -39.279  1.00  0.00     0.170 HD
BRANCH   9  12
HETATM   12  C   UNL     1      -4.860 -14.330 -37.761  1.00  0.00     0.278 C 
BRANCH  12  13
HETATM   13  O   UNL     1      -6.234 -14.200 -37.437  1.00  0.00    -0.342 OA
BRANCH  13  14
HETATM   14  C   UNL     1      -6.572 -14.524 -36.144  1.00  0.00     0.069 A 
HETATM   15  C   UNL     1      -6.813 -15.883 -35.922  1.00  0.00     0.040 A 
HETATM   16  C   UNL     1      -7.182 -16.339 -34.654  1.00  0.00     0.045 A 
HETATM   17  C   UNL     1      -7.302 -15.433 -33.609  1.00  0.00     0.116 A 
HETATM   18  F   UNL     1      -7.654 -15.866 -32.392  1.00  0.00    -0.206 F 
HETATM   19  C   UNL     1      -7.062 -14.080 -33.811  1.00  0.00     0.045 A 
HETATM   20  C   UNL     1      -6.695 -13.622 -35.080  1.00  0.00     0.040 A 
ENDBRANCH  13  14
ENDBRANCH  12  13
ENDBRANCH   9  12
ENDBRANCH   6   8
BRANCH   7  21
HETATM   21  C   UNL     1      -6.238 -13.461 -41.016  1.00  0.00    -0.020 A 
HETATM   22  C   UNL     1      -6.826 -12.206 -40.820  1.00  0.00     0.014 A 
HETATM   23  C   UNL     1      -8.180 -12.115 -40.486  1.00  0.00     0.020 A 
HETATM   24  C   UNL     1      -8.944 -13.274 -40.355  1.00  0.00     0.011 A 
HETATM   25 BR   UNL     1     -10.771 -13.149 -39.881  1.00  0.00    -0.051 Br
HETATM   26  C   UNL     1      -8.371 -14.526 -40.564  1.00  0.00     0.020 A 
HETATM   27  C   UNL     1      -7.018 -14.618 -40.895  1.00  0.00     0.014 A 
ENDBRANCH   7  21
TORSDOF 5
ENDMDL
MODEL 8
REMARK VINA RESULT:      -7.5      4.800      7.434
REMARK  5 active torsions:
REMARK  status: ('A' for Active; 'I' for Inactive)
REMARK    1  A    between atoms: C_6  and  N_7 
REMARK       I    between atoms: N_7  and  C_8 
REMARK    2  A    between atoms: C_8  and  C_9 
REMARK    3  A    between atoms: C_9  and  O_10 
REMARK    4  A    between atoms: O_10  and  C_11 
REMARK    5  A    between atoms: C_19  and  C_20 
ROOT
HETATM    1  C   UNL     1      -5.704   0.575 -29.499  1.00  0.00     0.073 C 
HETATM    2  C   UNL     1      -6.452   1.500 -30.386  1.00  0.00     0.065 A 
HETATM    3  N   UNL     1      -6.960   2.636 -29.892  1.00  0.00    -0.177 NA
HETATM    4  N   UNL     1      -7.579   3.199 -30.943  1.00  0.00    -0.262 N 
HETATM    5  H   UNL     1      -8.025   4.101 -30.807  1.00  0.00     0.191 HD
HETATM    6  C   UNL     1      -7.477   2.480 -32.104  1.00  0.00     0.137 A 
HETATM    7  C   UNL     1      -6.745   1.355 -31.769  1.00  0.00     0.046 A 
ENDROOT
BRANCH   6   8
HETATM    8  N   UNL     1      -7.950   2.876 -33.339  1.00  0.00    -0.309 N 
HETATM    9  C   UNL     1      -9.240   2.890 -33.799  1.00  0.00     0.247 C 
HETATM   10  O   UNL     1      -9.498   3.541 -34.815  1.00  0.00    -0.271 OA
HETATM   11  H   UNL     1      -7.275   3.243 -34.001  1.00  0.00     0.170 HD
BRANCH   9  12
HETATM   12  C   UNL     1     -10.280   1.958 -33.178  1.00  0.00     0.278 C 
BRANCH  12  13
HETATM   13  O   UNL     1     -11.124   1.314 -34.118  1.00  0.00    -0.342 OA
BRANCH  13  14
HETATM   14  C   UNL     1     -12.468   1.358 -33.837  1.00  0.00     0.069 A 
HETATM   15  C   UNL     1     -12.901   2.530 -33.208  1.00  0.00     0.040 A 
HETATM   16  C   UNL     1     -14.243   2.691 -32.855  1.00  0.00     0.045 A 
HETATM   17  C   UNL     1     -15.151   1.680 -33.138  1.00  0.00     0.116 A 
HETATM   18  F   UNL     1     -16.438   1.832 -32.803  1.00  0.00    -0.206 F 
HETATM   19  C   UNL     1     -14.740   0.513 -33.767  1.00  0.00     0.045 A 
HETATM   20  C   UNL     1     -13.397   0.349 -34.119  1.00  0.00     0.040 A 
ENDBRANCH  13  14
ENDBRANCH  12  13
ENDBRANCH   9  12
ENDBRANCH   6   8
BRANCH   7  21
HETATM   21  C   UNL     1      -6.533   0.227 -32.654  1.00  0.00    -0.020 A 
HETATM   22  C   UNL     1      -7.609  -0.508 -33.165  1.00  0.00     0.014 A 
HETATM   23  C   UNL     1      -7.370  -1.630 -33.964  1.00  0.00     0.020 A 
HETATM   24  C   UNL     1      -6.061  -2.011 -34.255  1.00  0.00     0.011 A 
HETATM   25 BR   UNL     1      -5.740  -3.542 -35.318  1.00  0.00    -0.051 Br
HETATM   26  C   UNL     1      -4.984  -1.276 -33.764  1.00  0.00     0.020 A 
HETATM   27  C   UNL     1      -5.222  -0.158 -32.964  1.00  0.00     0.014 A 
ENDBRANCH   7  21
TORSDOF 5
ENDMDL
MODEL 9
REMARK VINA RESULT:      -7.5      3.926      6.398
REMARK  5 active torsions:
REMARK  status: ('A' for Active; 'I' for Inactive)
REMARK    1  A    between atoms: C_6  and  N_7 
REMARK       I    between atoms: N_7  and  C_8 
REMARK    2  A    between atoms: C_8  and  C_9 
REMARK    3  A    between atoms: C_9  and  O_10 
REMARK    4  A    between atoms: O_10  and  C_11 
REMARK    5  A    between atoms: C_19  and  C_20 
ROOT
HETATM    1  C   UNL     1     -10.447   4.500 -35.223  1.00  0.00     0.073 C 
HETATM    2  C   UNL     1     -10.227   3.484 -34.165  1.00  0.00     0.065 A 
HETATM    3  N   UNL     1     -11.232   2.685 -33.784  1.00  0.00    -0.177 NA
HETATM    4  N   UNL     1     -10.695   1.928 -32.814  1.00  0.00    -0.262 N 
HETATM    5  H   UNL     1     -11.279   1.216 -32.385  1.00  0.00     0.191 HD
HETATM    6  C   UNL     1      -9.375   2.192 -32.562  1.00  0.00     0.137 A 
HETATM    7  C   UNL     1      -9.039   3.214 -33.433  1.00  0.00     0.046 A 
ENDROOT
BRANCH   6   8
HETATM    8  N   UNL     1      -8.571   1.502 -31.678  1.00  0.00    -0.309 N 
HETATM    9  C   UNL     1      -7.612   0.561 -31.946  1.00  0.00     0.247 C 
HETATM   10  O   UNL     1      -6.805   0.269 -31.058  1.00  0.00    -0.271 OA
HETATM   11  H   UNL     1      -8.659   1.728 -30.693  1.00  0.00     0.170 HD
BRANCH   9  12
HETATM   12  C   UNL     1      -7.675  -0.242 -33.245  1.00  0.00     0.278 C 
BRANCH  12  13
HETATM   13  O   UNL     1      -6.441  -0.329 -33.938  1.00  0.00    -0.342 OA
BRANCH  13  14
HETATM   14  C   UNL     1      -5.971  -1.602 -34.156  1.00  0.00     0.069 A 
HETATM   15  C   UNL     1      -6.927  -2.512 -34.619  1.00  0.00     0.040 A 
HETATM   16  C   UNL     1      -6.578  -3.843 -34.863  1.00  0.00     0.045 A 
HETATM   17  C   UNL     1      -5.271  -4.258 -34.649  1.00  0.00     0.116 A 
HETATM   18  F   UNL     1      -4.933  -5.532 -34.884  1.00  0.00    -0.206 F 
HETATM   19  C   UNL     1      -4.308  -3.367 -34.195  1.00  0.00     0.045 A 
HETATM   20  C   UNL     1      -4.656  -2.035 -33.948  1.00  0.00     0.040 A 
ENDBRANCH  13  14
ENDBRANCH  12  13
ENDBRANCH   9  12
ENDBRANCH   6   8
BRANCH   7  21
HETATM   21  C   UNL     1      -7.779   3.929 -33.403  1.00  0.00    -0.020 A 
HETATM   22  C   UNL     1      -6.633   3.408 -34.013  1.00  0.00     0.014 A 
HETATM   23  C   UNL     1      -5.416   4.090 -33.912  1.00  0.00     0.020 A 
HETATM   24  C   UNL     1      -5.350   5.291 -33.208  1.00  0.00     0.011 A 
HETATM   25 BR   UNL     1      -3.699   6.201 -33.053  1.00  0.00    -0.051 Br
HETATM   26  C   UNL     1      -6.488   5.826 -32.610  1.00  0.00     0.020 A 
HETATM   27  C   UNL     1      -7.703   5.144 -32.708  1.00  0.00     0.014 A 
ENDBRANCH   7  21
TORSDOF 5
ENDMDL
MODEL 10
REMARK VINA RESULT:      -7.4      2.491      3.172
REMARK  5 active torsions:
REMARK  status: ('A' for Active; 'I' for Inactive)
REMARK    1  A    between atoms: C_6  and  N_7 
REMARK       I    between atoms: N_7  and  C_8 
REMARK    2  A    between atoms: C_8  and  C_9 
REMARK    3  A    between atoms: C_9  and  O_10 
REMARK    4  A    between atoms: O_10  and  C_11 
REMARK    5  A    between atoms: C_19  and  C_20 
ROOT
HETATM    1  C   UNL     1      -4.330  -2.112 -33.942  1.00  0.00     0.073 C 
HETATM    2  C   UNL     1      -4.206  -1.212 -32.768  1.00  0.00     0.065 A 
HETATM    3  N   UNL     1      -3.153  -1.323 -31.948  1.00  0.00    -0.177 NA
HETATM    4  N   UNL     1      -3.377  -0.395 -31.005  1.00  0.00    -0.262 N 
HETATM    5  H   UNL     1      -2.680  -0.278 -30.275  1.00  0.00     0.191 HD
HETATM    6  C   UNL     1      -4.526   0.327 -31.190  1.00  0.00     0.137 A 
HETATM    7  C   UNL     1      -5.096  -0.191 -32.339  1.00  0.00     0.046 A 
ENDROOT
BRANCH   6   8
HETATM    8  N   UNL     1      -4.942   1.390 -30.414  1.00  0.00    -0.309 N 
HETATM    9  C   UNL     1      -4.780   2.731 -30.640  1.00  0.00     0.247 C 
HETATM   10  O   UNL     1      -5.463   3.527 -29.990  1.00  0.00    -0.271 OA
HETATM   11  H   UNL     1      -5.470   1.177 -29.575  1.00  0.00     0.170 HD
BRANCH   9  12
HETATM   12  C   UNL     1      -3.638   3.221 -31.531  1.00  0.00     0.278 C 
BRANCH  12  13
HETATM   13  O   UNL     1      -3.704   4.599 -31.860  1.00  0.00    -0.342 OA
BRANCH  13  14
HETATM   14  C   UNL     1      -2.592   5.340 -31.537  1.00  0.00     0.069 A 
HETATM   15  C   UNL     1      -1.382   4.824 -32.013  1.00  0.00     0.040 A 
HETATM   16  C   UNL     1      -0.177   5.476 -31.738  1.00  0.00     0.045 A 
HETATM   17  C   UNL     1      -0.188   6.647 -30.992  1.00  0.00     0.116 A 
HETATM   18  F   UNL     1       0.965   7.276 -30.728  1.00  0.00    -0.206 F 
HETATM   19  C   UNL     1      -1.380   7.175 -30.516  1.00  0.00     0.045 A 
HETATM   20  C   UNL     1      -2.586   6.523 -30.788  1.00  0.00     0.040 A 
ENDBRANCH  13  14
ENDBRANCH  12  13
ENDBRANCH   9  12
ENDBRANCH   6   8
BRANCH   7  21
HETATM   21  C   UNL     1      -6.416   0.160 -32.824  1.00  0.00    -0.020 A 
HETATM   22  C   UNL     1      -6.600   0.703 -34.101  1.00  0.00     0.014 A 
HETATM   23  C   UNL     1      -7.878   1.092 -34.516  1.00  0.00     0.020 A 
HETATM   24  C   UNL     1      -8.966   0.932 -33.658  1.00  0.00     0.011 A 
HETATM   25 BR   UNL     1     -10.689   1.479 -34.213  1.00  0.00    -0.051 Br
HETATM   26  C   UNL     1      -8.794   0.379 -32.392  1.00  0.00     0.020 A 
HETATM   27  C   UNL     1      -7.518  -0.007 -31.976  1.00  0.00     0.014 A 
ENDBRANCH   7  21
TORSDOF 5
ENDMDL
