MODEL 1
REMARK VINA RESULT:      -9.4      0.000      0.000
REMARK  9 active torsions:
REMARK  status: ('A' for Active; 'I' for Inactive)
REMARK    1  A    between atoms: C_2  and  C_3 
REMARK    2  A    between atoms: C_8  and  O_9 
REMARK    3  A    between atoms: C_10  and  C_11 
REMARK    4  A    between atoms: C_11  and  N_12 
REMARK       I    between atoms: N_12  and  C_13 
REMARK    5  A    between atoms: N_12  and  C_23 
REMARK       I    between atoms: C_13  and  N_14 
REMARK    6  A    between atoms: N_14  and  C_15 
REMARK    7  A    between atoms: C_23  and  C_24 
REMARK    8  A    between atoms: C_24  and  C_25 
REMARK    9  A    between atoms: C_25  and  N_26 
ROOT
HETATM    1  N   UNL     1      -6.198   2.805 -32.574  1.00  0.00    -0.330 N 
HETATM    2  C   UNL     1      -6.201   1.402 -32.521  1.00  0.00     0.323 C 
HETATM    3  N   UNL     1      -5.418   0.816 -33.495  1.00  0.00    -0.309 N 
HETATM    4  O   UNL     1      -6.902   0.797 -31.720  1.00  0.00    -0.247 OA
HETATM    5  H   UNL     1      -5.079   1.433 -34.207  1.00  0.00     0.170 HD
ENDROOT
BRANCH   1   6
HETATM    6  C   UNL     1      -7.332   3.501 -31.945  1.00  0.00     0.170 C 
BRANCH   6   7
HETATM    7  C   UNL     1      -8.524   3.588 -32.860  1.00  0.00     0.013 A 
HETATM    8  C   UNL     1      -8.664   4.555 -33.834  1.00  0.00     0.170 A 
HETATM    9  N   UNL     1      -9.662   4.640 -34.730  1.00  0.00    -0.224 NA
HETATM   10  C   UNL     1     -10.625   3.699 -34.673  1.00  0.00     0.070 A 
HETATM   11  C   UNL     1     -10.620   2.679 -33.702  1.00  0.00    -0.006 A 
HETATM   12  C   UNL     1     -11.666   3.714 -35.593  1.00  0.00     0.033 A 
HETATM   13  C   UNL     1     -11.649   1.720 -33.665  1.00  0.00     0.021 A 
HETATM   14  C   UNL     1      -9.555   2.647 -32.793  1.00  0.00     0.027 A 
HETATM   15  C   UNL     1     -12.689   1.750 -34.599  1.00  0.00    -0.058 A 
HETATM   16  C   UNL     1     -12.686   2.757 -35.568  1.00  0.00     0.009 A 
BRANCH   8  17
HETATM   17  O   UNL     1      -7.774   5.570 -33.981  1.00  0.00    -0.344 OA
HETATM   18  H   UNL     1      -6.989   5.093 -33.643  1.00  0.00     0.219 HD
ENDBRANCH   8  17
BRANCH  15  19
HETATM   19  C   UNL     1     -13.794   0.724 -34.554  1.00  0.00     0.034 C 
HETATM   20  C   UNL     1     -13.495  -0.397 -33.569  1.00  0.00     0.010 C 
ENDBRANCH  15  19
ENDBRANCH   6   7
ENDBRANCH   1   6
BRANCH   1  21
HETATM   21  C   UNL     1      -5.019   3.590 -32.938  1.00  0.00     0.129 C 
BRANCH  21  22
HETATM   22  C   UNL     1      -4.286   4.168 -31.728  1.00  0.00     0.048 C 
BRANCH  22  23
HETATM   23  C   UNL     1      -2.779   3.928 -31.764  1.00  0.00     0.236 C 
BRANCH  23  24
HETATM   24  N   UNL     1      -2.000   5.066 -32.391  1.00  0.00    -0.067 N 
HETATM   25  H   UNL     1      -1.044   5.081 -32.015  1.00  0.00     0.280 HD
HETATM   26  C   UNL     1      -1.878   4.850 -33.908  1.00  0.00     0.261 C 
HETATM   27  C   UNL     1      -1.138   6.024 -34.554  1.00  0.00     0.195 C 
HETATM   28  O   UNL     1      -1.805   7.258 -34.275  1.00  0.00    -0.388 OA
HETATM   29  C   UNL     1      -1.844   7.529 -32.872  1.00  0.00     0.195 C 
HETATM   30  C   UNL     1      -2.622   6.442 -32.122  1.00  0.00     0.261 C 
ENDBRANCH  23  24
ENDBRANCH  22  23
ENDBRANCH  21  22
ENDBRANCH   1  21
BRANCH   3  31
HETATM   31  C   UNL     1      -5.343  -0.556 -33.819  1.00  0.00     0.036 A 
HETATM   32  C   UNL     1      -6.434  -1.102 -34.512  1.00  0.00     0.031 A 
HETATM   33  C   UNL     1      -6.474  -2.464 -34.823  1.00  0.00     0.026 A 
HETATM   34  C   UNL     1      -5.418  -3.288 -34.449  1.00  0.00     0.034 A 
HETATM   35 CL   UNL     1      -5.475  -4.967 -34.810  1.00  0.00    -0.084 Cl
HETATM   36  C   UNL     1      -4.320  -2.756 -33.778  1.00  0.00     0.026 A 
HETATM   37  C   UNL     1      -4.282  -1.391 -33.469  1.00  0.00     0.031 A 
ENDBRANCH   3  31
TORSDOF 9
ENDMDL
MODEL 2
REMARK VINA RESULT:      -9.3      2.570      6.610
REMARK  9 active torsions:
REMARK  status: ('A' for Active; 'I' for Inactive)
REMARK    1  A    between atoms: C_2  and  C_3 
REMARK    2  A    between atoms: C_8  and  O_9 
REMARK    3  A    between atoms: C_10  and  C_11 
REMARK    4  A    between atoms: C_11  and  N_12 
REMARK       I    between atoms: N_12  and  C_13 
REMARK    5  A    between atoms: N_12  and  C_23 
REMARK       I    between atoms: C_13  and  N_14 
REMARK    6  A    between atoms: N_14  and  C_15 
REMARK    7  A    between atoms: C_23  and  C_24 
REMARK    8  A    between atoms: C_24  and  C_25 
REMARK    9  A    between atoms: C_25  and  N_26 
ROOT
HETATM    1  N   UNL     1      -5.603   2.049 -31.994  1.00  0.00    -0.330 N 
HETATM    2  C   UNL     1      -6.729   1.991 -32.830  1.00  0.00     0.323 C 
HETATM    3  N   UNL     1      -7.909   1.784 -32.145  1.00  0.00    -0.309 N 
HETATM    4  O   UNL     1      -6.621   2.049 -34.049  1.00  0.00    -0.247 OA
HETATM    5  H   UNL     1      -7.811   1.542 -31.179  1.00  0.00     0.170 HD
ENDROOT
BRANCH   1   6
HETATM    6  C   UNL     1      -4.295   1.772 -32.612  1.00  0.00     0.170 C 
BRANCH   6   7
HETATM    7  C   UNL     1      -3.954   0.306 -32.589  1.00  0.00     0.013 A 
HETATM    8  C   UNL     1      -3.064  -0.252 -31.694  1.00  0.00     0.170 A 
HETATM    9  N   UNL     1      -2.777  -1.559 -31.572  1.00  0.00    -0.224 NA
HETATM   10  C   UNL     1      -3.408  -2.411 -32.404  1.00  0.00     0.070 A 
HETATM   11  C   UNL     1      -4.312  -1.966 -33.388  1.00  0.00    -0.006 A 
HETATM   12  C   UNL     1      -3.178  -3.777 -32.305  1.00  0.00     0.033 A 
HETATM   13  C   UNL     1      -4.944  -2.883 -34.247  1.00  0.00     0.021 A 
HETATM   14  C   UNL     1      -4.567  -0.590 -33.469  1.00  0.00     0.027 A 
HETATM   15  C   UNL     1      -4.702  -4.255 -34.133  1.00  0.00    -0.058 A 
HETATM   16  C   UNL     1      -3.813  -4.695 -33.149  1.00  0.00     0.009 A 
BRANCH   8  17
HETATM   17  O   UNL     1      -2.348   0.500 -30.820  1.00  0.00    -0.344 OA
HETATM   18  H   UNL     1      -1.497   0.027 -30.922  1.00  0.00     0.219 HD
ENDBRANCH   8  17
BRANCH  15  19
HETATM   19  C   UNL     1      -5.376  -5.236 -35.059  1.00  0.00     0.034 C 
HETATM   20  C   UNL     1      -6.660  -4.675 -35.651  1.00  0.00     0.010 C 
ENDBRANCH  15  19
ENDBRANCH   6   7
ENDBRANCH   1   6
BRANCH   1  21
HETATM   21  C   UNL     1      -5.625   2.647 -30.660  1.00  0.00     0.129 C 
BRANCH  21  22
HETATM   22  C   UNL     1      -4.746   3.892 -30.546  1.00  0.00     0.048 C 
BRANCH  22  23
HETATM   23  C   UNL     1      -5.154   5.008 -31.504  1.00  0.00     0.236 C 
BRANCH  23  24
HETATM   24  N   UNL     1      -4.035   5.459 -32.420  1.00  0.00    -0.067 N 
HETATM   25  H   UNL     1      -3.888   6.471 -32.317  1.00  0.00     0.280 HD
HETATM   26  C   UNL     1      -2.717   4.775 -32.020  1.00  0.00     0.261 C 
HETATM   27  C   UNL     1      -1.594   5.186 -32.976  1.00  0.00     0.195 C 
HETATM   28  O   UNL     1      -1.936   4.865 -34.326  1.00  0.00    -0.388 OA
HETATM   29  C   UNL     1      -3.105   5.567 -34.754  1.00  0.00     0.195 C 
HETATM   30  C   UNL     1      -4.321   5.184 -33.902  1.00  0.00     0.261 C 
ENDBRANCH  23  24
ENDBRANCH  22  23
ENDBRANCH  21  22
ENDBRANCH   1  21
BRANCH   3  31
HETATM   31  C   UNL     1      -9.179   1.508 -32.696  1.00  0.00     0.036 A 
HETATM   32  C   UNL     1      -9.917   2.606 -33.163  1.00  0.00     0.031 A 
HETATM   33  C   UNL     1     -11.209   2.435 -33.670  1.00  0.00     0.026 A 
HETATM   34  C   UNL     1     -11.767   1.162 -33.720  1.00  0.00     0.034 A 
HETATM   35 CL   UNL     1     -13.362   0.953 -34.323  1.00  0.00    -0.084 Cl
HETATM   36  C   UNL     1     -11.038   0.062 -33.279  1.00  0.00     0.026 A 
HETATM   37  C   UNL     1      -9.744   0.235 -32.773  1.00  0.00     0.031 A 
ENDBRANCH   3  31
TORSDOF 9
ENDMDL
MODEL 3
REMARK VINA RESULT:      -9.1      2.035      7.840
REMARK  9 active torsions:
REMARK  status: ('A' for Active; 'I' for Inactive)
REMARK    1  A    between atoms: C_2  and  C_3 
REMARK    2  A    between atoms: C_8  and  O_9 
REMARK    3  A    between atoms: C_10  and  C_11 
REMARK    4  A    between atoms: C_11  and  N_12 
REMARK       I    between atoms: N_12  and  C_13 
REMARK    5  A    between atoms: N_12  and  C_23 
REMARK       I    between atoms: C_13  and  N_14 
REMARK    6  A    between atoms: N_14  and  C_15 
REMARK    7  A    between atoms: C_23  and  C_24 
REMARK    8  A    between atoms: C_24  and  C_25 
REMARK    9  A    between atoms: C_25  and  N_26 
ROOT
HETATM    1  N   UNL     1      -5.781   2.861 -32.632  1.00  0.00    -0.330 N 
HETATM    2  C   UNL     1      -6.045   1.752 -33.450  1.00  0.00     0.323 C 
HETATM    3  N   UNL     1      -5.638   0.555 -32.897  1.00  0.00    -0.309 N 
HETATM    4  O   UNL     1      -6.525   1.887 -34.569  1.00  0.00    -0.247 OA
HETATM    5  H   UNL     1      -5.071   0.629 -32.076  1.00  0.00     0.170 HD
ENDROOT
BRANCH   1   6
HETATM    6  C   UNL     1      -5.709   4.177 -33.289  1.00  0.00     0.170 C 
BRANCH   6   7
HETATM    7  C   UNL     1      -4.336   4.785 -33.194  1.00  0.00     0.013 A 
HETATM    8  C   UNL     1      -3.680   5.352 -34.268  1.00  0.00     0.170 A 
HETATM    9  N   UNL     1      -2.492   5.978 -34.232  1.00  0.00    -0.224 NA
HETATM   10  C   UNL     1      -1.871   6.058 -33.038  1.00  0.00     0.070 A 
HETATM   11  C   UNL     1      -2.415   5.487 -31.871  1.00  0.00    -0.006 A 
HETATM   12  C   UNL     1      -0.655   6.721 -32.930  1.00  0.00     0.033 A 
HETATM   13  C   UNL     1      -1.734   5.579 -30.644  1.00  0.00     0.021 A 
HETATM   14  C   UNL     1      -3.656   4.843 -31.975  1.00  0.00     0.027 A 
HETATM   15  C   UNL     1      -0.511   6.251 -30.553  1.00  0.00    -0.058 A 
HETATM   16  C   UNL     1       0.022   6.825 -31.709  1.00  0.00     0.009 A 
BRANCH   8  17
HETATM   17  O   UNL     1      -4.188   5.319 -35.527  1.00  0.00    -0.344 OA
HETATM   18  H   UNL     1      -4.389   6.275 -35.602  1.00  0.00     0.219 HD
ENDBRANCH   8  17
BRANCH  15  19
HETATM   19  C   UNL     1       0.220   6.343 -29.237  1.00  0.00     0.034 C 
HETATM   20  C   UNL     1       0.665   7.765 -28.927  1.00  0.00     0.010 C 
ENDBRANCH  15  19
ENDBRANCH   6   7
ENDBRANCH   1   6
BRANCH   1  21
HETATM   21  C   UNL     1      -5.874   2.821 -31.172  1.00  0.00     0.129 C 
BRANCH  21  22
HETATM   22  C   UNL     1      -7.160   2.166 -30.672  1.00  0.00     0.048 C 
BRANCH  22  23
HETATM   23  C   UNL     1      -8.398   3.040 -30.865  1.00  0.00     0.236 C 
BRANCH  23  24
HETATM   24  N   UNL     1      -9.423   2.438 -31.804  1.00  0.00    -0.067 N 
HETATM   25  H   UNL     1     -10.365   2.558 -31.412  1.00  0.00     0.280 HD
HETATM   26  C   UNL     1      -9.404   3.178 -33.151  1.00  0.00     0.261 C 
HETATM   27  C   UNL     1     -10.400   2.540 -34.122  1.00  0.00     0.195 C 
HETATM   28  O   UNL     1     -10.108   1.153 -34.308  1.00  0.00    -0.388 OA
HETATM   29  C   UNL     1     -10.216   0.424 -33.083  1.00  0.00     0.195 C 
HETATM   30  C   UNL     1      -9.211   0.938 -32.046  1.00  0.00     0.261 C 
ENDBRANCH  23  24
ENDBRANCH  22  23
ENDBRANCH  21  22
ENDBRANCH   1  21
BRANCH   3  31
HETATM   31  C   UNL     1      -5.602  -0.708 -33.527  1.00  0.00     0.036 A 
HETATM   32  C   UNL     1      -6.836  -1.265 -33.896  1.00  0.00     0.031 A 
HETATM   33  C   UNL     1      -6.902  -2.538 -34.471  1.00  0.00     0.026 A 
HETATM   34  C   UNL     1      -5.731  -3.257 -34.688  1.00  0.00     0.034 A 
HETATM   35 CL   UNL     1      -5.811  -4.831 -35.376  1.00  0.00    -0.084 Cl
HETATM   36  C   UNL     1      -4.499  -2.708 -34.346  1.00  0.00     0.026 A 
HETATM   37  C   UNL     1      -4.435  -1.433 -33.771  1.00  0.00     0.031 A 
ENDBRANCH   3  31
TORSDOF 9
ENDMDL
MODEL 4
REMARK VINA RESULT:      -8.8      3.217      7.024
REMARK  9 active torsions:
REMARK  status: ('A' for Active; 'I' for Inactive)
REMARK    1  A    between atoms: C_2  and  C_3 
REMARK    2  A    between atoms: C_8  and  O_9 
REMARK    3  A    between atoms: C_10  and  C_11 
REMARK    4  A    between atoms: C_11  and  N_12 
REMARK       I    between atoms: N_12  and  C_13 
REMARK    5  A    between atoms: N_12  and  C_23 
REMARK       I    between atoms: C_13  and  N_14 
REMARK    6  A    between atoms: N_14  and  C_15 
REMARK    7  A    between atoms: C_23  and  C_24 
REMARK    8  A    between atoms: C_24  and  C_25 
REMARK    9  A    between atoms: C_25  and  N_26 
ROOT
HETATM    1  N   UNL     1      -6.165   2.402 -31.939  1.00  0.00    -0.330 N 
HETATM    2  C   UNL     1      -7.330   2.453 -32.720  1.00  0.00     0.323 C 
HETATM    3  N   UNL     1      -8.473   2.126 -32.020  1.00  0.00    -0.309 N 
HETATM    4  O   UNL     1      -7.281   2.697 -33.919  1.00  0.00    -0.247 OA
HETATM    5  H   UNL     1      -8.326   1.743 -31.107  1.00  0.00     0.170 HD
ENDROOT
BRANCH   1   6
HETATM    6  C   UNL     1      -4.887   2.243 -32.652  1.00  0.00     0.170 C 
BRANCH   6   7
HETATM    7  C   UNL     1      -4.354   0.839 -32.557  1.00  0.00     0.013 A 
HETATM    8  C   UNL     1      -3.377   0.457 -31.659  1.00  0.00     0.170 A 
HETATM    9  N   UNL     1      -2.916  -0.792 -31.473  1.00  0.00    -0.224 NA
HETATM   10  C   UNL     1      -3.448  -1.767 -32.236  1.00  0.00     0.070 A 
HETATM   11  C   UNL     1      -4.425  -1.504 -33.216  1.00  0.00    -0.006 A 
HETATM   12  C   UNL     1      -3.036  -3.083 -32.068  1.00  0.00     0.033 A 
HETATM   13  C   UNL     1      -4.949  -2.546 -34.003  1.00  0.00     0.021 A 
HETATM   14  C   UNL     1      -4.861  -0.181 -33.366  1.00  0.00     0.027 A 
HETATM   15  C   UNL     1      -4.523  -3.865 -33.820  1.00  0.00    -0.058 A 
HETATM   16  C   UNL     1      -3.562  -4.125 -32.840  1.00  0.00     0.009 A 
BRANCH   8  17
HETATM   17  O   UNL     1      -2.748   1.347 -30.851  1.00  0.00    -0.344 OA
HETATM   18  H   UNL     1      -3.330   2.112 -31.037  1.00  0.00     0.219 HD
ENDBRANCH   8  17
BRANCH  15  19
HETATM   19  C   UNL     1      -5.083  -4.979 -34.668  1.00  0.00     0.034 C 
HETATM   20  C   UNL     1      -6.401  -4.595 -35.322  1.00  0.00     0.010 C 
ENDBRANCH  15  19
ENDBRANCH   6   7
ENDBRANCH   1   6
BRANCH   1  21
HETATM   21  C   UNL     1      -6.128   2.791 -30.529  1.00  0.00     0.129 C 
BRANCH  21  22
HETATM   22  C   UNL     1      -6.584   4.231 -30.292  1.00  0.00     0.048 C 
BRANCH  22  23
HETATM   23  C   UNL     1      -5.475   5.258 -30.505  1.00  0.00     0.236 C 
BRANCH  23  24
HETATM   24  N   UNL     1      -4.731   5.618 -29.236  1.00  0.00    -0.067 N 
HETATM   25  H   UNL     1      -4.120   4.839 -28.959  1.00  0.00     0.280 HD
HETATM   26  C   UNL     1      -3.822   6.833 -29.481  1.00  0.00     0.261 C 
HETATM   27  C   UNL     1      -3.109   7.233 -28.187  1.00  0.00     0.195 C 
HETATM   28  O   UNL     1      -4.056   7.516 -27.154  1.00  0.00    -0.388 OA
HETATM   29  C   UNL     1      -4.849   6.369 -26.839  1.00  0.00     0.195 C 
HETATM   30  C   UNL     1      -5.664   5.912 -28.054  1.00  0.00     0.261 C 
ENDBRANCH  23  24
ENDBRANCH  22  23
ENDBRANCH  21  22
ENDBRANCH   1  21
BRANCH   3  31
HETATM   31  C   UNL     1      -9.766   1.917 -32.546  1.00  0.00     0.036 A 
HETATM   32  C   UNL     1     -10.113   0.595 -32.862  1.00  0.00     0.031 A 
HETATM   33  C   UNL     1     -11.350   0.300 -33.443  1.00  0.00     0.026 A 
HETATM   34  C   UNL     1     -12.251   1.327 -33.705  1.00  0.00     0.034 A 
HETATM   35 CL   UNL     1     -13.763   0.970 -34.439  1.00  0.00    -0.084 Cl
HETATM   36  C   UNL     1     -11.927   2.641 -33.379  1.00  0.00     0.026 A 
HETATM   37  C   UNL     1     -10.689   2.933 -32.796  1.00  0.00     0.031 A 
ENDBRANCH   3  31
TORSDOF 9
ENDMDL
MODEL 5
REMARK VINA RESULT:      -8.8      2.733      8.104
REMARK  9 active torsions:
REMARK  status: ('A' for Active; 'I' for Inactive)
REMARK    1  A    between atoms: C_2  and  C_3 
REMARK    2  A    between atoms: C_8  and  O_9 
REMARK    3  A    between atoms: C_10  and  C_11 
REMARK    4  A    between atoms: C_11  and  N_12 
REMARK       I    between atoms: N_12  and  C_13 
REMARK    5  A    between atoms: N_12  and  C_23 
REMARK       I    between atoms: C_13  and  N_14 
REMARK    6  A    between atoms: N_14  and  C_15 
REMARK    7  A    between atoms: C_23  and  C_24 
REMARK    8  A    between atoms: C_24  and  C_25 
REMARK    9  A    between atoms: C_25  and  N_26 
ROOT
HETATM    1  N   UNL     1      -6.701   2.669 -32.482  1.00  0.00    -0.330 N 
HETATM    2  C   UNL     1      -7.958   2.778 -33.097  1.00  0.00     0.323 C 
HETATM    3  N   UNL     1      -8.990   2.291 -32.321  1.00  0.00    -0.309 N 
HETATM    4  O   UNL     1      -8.073   3.201 -34.241  1.00  0.00    -0.247 OA
HETATM    5  H   UNL     1      -8.714   1.783 -31.503  1.00  0.00     0.170 HD
ENDROOT
BRANCH   1   6
HETATM    6  C   UNL     1      -5.521   2.684 -33.364  1.00  0.00     0.170 C 
BRANCH   6   7
HETATM    7  C   UNL     1      -4.694   3.929 -33.185  1.00  0.00     0.013 A 
HETATM    8  C   UNL     1      -5.119   5.184 -33.571  1.00  0.00     0.170 A 
HETATM    9  N   UNL     1      -4.463   6.340 -33.369  1.00  0.00    -0.224 NA
HETATM   10  C   UNL     1      -3.275   6.274 -32.738  1.00  0.00     0.070 A 
HETATM   11  C   UNL     1      -2.711   5.051 -32.326  1.00  0.00    -0.006 A 
HETATM   12  C   UNL     1      -2.564   7.438 -32.471  1.00  0.00     0.033 A 
HETATM   13  C   UNL     1      -1.462   5.018 -31.680  1.00  0.00     0.021 A 
HETATM   14  C   UNL     1      -3.441   3.879 -32.569  1.00  0.00     0.027 A 
HETATM   15  C   UNL     1      -0.760   6.200 -31.419  1.00  0.00    -0.058 A 
HETATM   16  C   UNL     1      -1.326   7.413 -31.819  1.00  0.00     0.009 A 
BRANCH   8  17
HETATM   17  O   UNL     1      -6.287   5.382 -34.235  1.00  0.00    -0.344 OA
HETATM   18  H   UNL     1      -6.859   5.478 -33.446  1.00  0.00     0.219 HD
ENDBRANCH   8  17
BRANCH  15  19
HETATM   19  C   UNL     1       0.581   6.162 -30.731  1.00  0.00     0.034 C 
HETATM   20  C   UNL     1       0.794   4.867 -29.961  1.00  0.00     0.010 C 
ENDBRANCH  15  19
ENDBRANCH   6   7
ENDBRANCH   1   6
BRANCH   1  21
HETATM   21  C   UNL     1      -6.494   2.843 -31.045  1.00  0.00     0.129 C 
BRANCH  21  22
HETATM   22  C   UNL     1      -5.773   1.662 -30.396  1.00  0.00     0.048 C 
BRANCH  22  23
HETATM   23  C   UNL     1      -6.475   0.326 -30.628  1.00  0.00     0.236 C 
BRANCH  23  24
HETATM   24  N   UNL     1      -5.645  -0.664 -31.419  1.00  0.00    -0.067 N 
HETATM   25  H   UNL     1      -5.699  -1.591 -30.980  1.00  0.00     0.280 HD
HETATM   26  C   UNL     1      -6.210  -0.811 -32.841  1.00  0.00     0.261 C 
HETATM   27  C   UNL     1      -5.343  -1.769 -33.661  1.00  0.00     0.195 C 
HETATM   28  O   UNL     1      -3.989  -1.314 -33.705  1.00  0.00    -0.388 OA
HETATM   29  C   UNL     1      -3.408  -1.263 -32.400  1.00  0.00     0.195 C 
HETATM   30  C   UNL     1      -4.162  -0.278 -31.500  1.00  0.00     0.261 C 
ENDBRANCH  23  24
ENDBRANCH  22  23
ENDBRANCH  21  22
ENDBRANCH   1  21
BRANCH   3  31
HETATM   31  C   UNL     1     -10.333   2.098 -32.710  1.00  0.00     0.036 A 
HETATM   32  C   UNL     1     -10.670   0.832 -33.211  1.00  0.00     0.031 A 
HETATM   33  C   UNL     1     -11.962   0.567 -33.676  1.00  0.00     0.026 A 
HETATM   34  C   UNL     1     -12.927   1.568 -33.635  1.00  0.00     0.034 A 
HETATM   35 CL   UNL     1     -14.510   1.252 -34.226  1.00  0.00    -0.084 Cl
HETATM   36  C   UNL     1     -12.612   2.823 -33.122  1.00  0.00     0.026 A 
HETATM   37  C   UNL     1     -11.319   3.085 -32.656  1.00  0.00     0.031 A 
ENDBRANCH   3  31
TORSDOF 9
ENDMDL
MODEL 6
REMARK VINA RESULT:      -8.8      1.599      2.044
REMARK  9 active torsions:
REMARK  status: ('A' for Active; 'I' for Inactive)
REMARK    1  A    between atoms: C_2  and  C_3 
REMARK    2  A    between atoms: C_8  and  O_9 
REMARK    3  A    between atoms: C_10  and  C_11 
REMARK    4  A    between atoms: C_11  and  N_12 
REMARK       I    between atoms: N_12  and  C_13 
REMARK    5  A    between atoms: N_12  and  C_23 
REMARK       I    between atoms: C_13  and  N_14 
REMARK    6  A    between atoms: N_14  and  C_15 
REMARK    7  A    between atoms: C_23  and  C_24 
REMARK    8  A    between atoms: C_24  and  C_25 
REMARK    9  A    between atoms: C_25  and  N_26 
ROOT
HETATM    1  N   UNL     1      -5.704   1.726 -31.050  1.00  0.00    -0.330 N 
HETATM    2  C   UNL     1      -5.824   0.382 -31.438  1.00  0.00     0.323 C 
HETATM    3  N   UNL     1      -5.276   0.120 -32.678  1.00  0.00    -0.309 N 
HETATM    4  O   UNL     1      -6.427  -0.429 -30.747  1.00  0.00    -0.247 OA
HETATM    5  H   UNL     1      -5.012   0.924 -33.212  1.00  0.00     0.170 HD
ENDROOT
BRANCH   1   6
HETATM    6  C   UNL     1      -6.647   2.214 -30.030  1.00  0.00     0.170 C 
BRANCH   6   7
HETATM    7  C   UNL     1      -7.932   2.712 -30.634  1.00  0.00     0.013 A 
HETATM    8  C   UNL     1      -8.431   3.981 -30.417  1.00  0.00     0.170 A 
HETATM    9  N   UNL     1      -9.527   4.510 -30.987  1.00  0.00    -0.224 NA
HETATM   10  C   UNL     1     -10.213   3.732 -31.847  1.00  0.00     0.070 A 
HETATM   11  C   UNL     1      -9.831   2.406 -32.127  1.00  0.00    -0.006 A 
HETATM   12  C   UNL     1     -11.336   4.233 -32.493  1.00  0.00     0.033 A 
HETATM   13  C   UNL     1     -10.578   1.618 -33.021  1.00  0.00     0.021 A 
HETATM   14  C   UNL     1      -8.681   1.909 -31.498  1.00  0.00     0.027 A 
HETATM   15  C   UNL     1     -11.706   2.139 -33.663  1.00  0.00    -0.058 A 
HETATM   16  C   UNL     1     -12.077   3.458 -33.392  1.00  0.00     0.009 A 
BRANCH   8  17
HETATM   17  O   UNL     1      -7.845   4.853 -29.557  1.00  0.00    -0.344 OA
HETATM   18  H   UNL     1      -8.590   5.487 -29.502  1.00  0.00     0.219 HD
ENDBRANCH   8  17
BRANCH  15  19
HETATM   19  C   UNL     1     -12.509   1.291 -34.618  1.00  0.00     0.034 C 
HETATM   20  C   UNL     1     -13.343   0.245 -33.893  1.00  0.00     0.010 C 
ENDBRANCH  15  19
ENDBRANCH   6   7
ENDBRANCH   1   6
BRANCH   1  21
HETATM   21  C   UNL     1      -4.541   2.552 -31.370  1.00  0.00     0.129 C 
BRANCH  21  22
HETATM   22  C   UNL     1      -4.901   3.820 -32.144  1.00  0.00     0.048 C 
BRANCH  22  23
HETATM   23  C   UNL     1      -3.990   5.003 -31.822  1.00  0.00     0.236 C 
BRANCH  23  24
HETATM   24  N   UNL     1      -3.289   5.575 -33.037  1.00  0.00    -0.067 N 
HETATM   25  H   UNL     1      -3.981   5.803 -33.761  1.00  0.00     0.280 HD
HETATM   26  C   UNL     1      -2.580   6.889 -32.669  1.00  0.00     0.261 C 
HETATM   27  C   UNL     1      -1.826   7.443 -33.880  1.00  0.00     0.195 C 
HETATM   28  O   UNL     1      -0.884   6.486 -34.371  1.00  0.00    -0.388 OA
HETATM   29  C   UNL     1      -1.531   5.290 -34.812  1.00  0.00     0.195 C 
HETATM   30  C   UNL     1      -2.273   4.607 -33.658  1.00  0.00     0.261 C 
ENDBRANCH  23  24
ENDBRANCH  22  23
ENDBRANCH  21  22
ENDBRANCH   1  21
BRANCH   3  31
HETATM   31  C   UNL     1      -5.381  -1.075 -33.422  1.00  0.00     0.036 A 
HETATM   32  C   UNL     1      -6.635  -1.362 -33.983  1.00  0.00     0.031 A 
HETATM   33  C   UNL     1      -6.848  -2.551 -34.686  1.00  0.00     0.026 A 
HETATM   34  C   UNL     1      -5.805  -3.458 -34.838  1.00  0.00     0.034 A 
HETATM   35 CL   UNL     1      -6.070  -4.931 -35.683  1.00  0.00    -0.084 Cl
HETATM   36  C   UNL     1      -4.551  -3.178 -34.303  1.00  0.00     0.026 A 
HETATM   37  C   UNL     1      -4.339  -1.985 -33.601  1.00  0.00     0.031 A 
ENDBRANCH   3  31
TORSDOF 9
ENDMDL
MODEL 7
REMARK VINA RESULT:      -8.7      2.859      6.609
REMARK  9 active torsions:
REMARK  status: ('A' for Active; 'I' for Inactive)
REMARK    1  A    between atoms: C_2  and  C_3 
REMARK    2  A    between atoms: C_8  and  O_9 
REMARK    3  A    between atoms: C_10  and  C_11 
REMARK    4  A    between atoms: C_11  and  N_12 
REMARK       I    between atoms: N_12  and  C_13 
REMARK    5  A    between atoms: N_12  and  C_23 
REMARK       I    between atoms: C_13  and  N_14 
REMARK    6  A    between atoms: N_14  and  C_15 
REMARK    7  A    between atoms: C_23  and  C_24 
REMARK    8  A    between atoms: C_24  and  C_25 
REMARK    9  A    between atoms: C_25  and  N_26 
ROOT
HETATM    1  N   UNL     1      -7.705   2.652 -32.457  1.00  0.00    -0.330 N 
HETATM    2  C   UNL     1      -8.881   2.568 -33.219  1.00  0.00     0.323 C 
HETATM    3  N   UNL     1      -9.946   2.035 -32.523  1.00  0.00    -0.309 N 
HETATM    4  O   UNL     1      -8.896   2.880 -34.403  1.00  0.00    -0.247 OA
HETATM    5  H   UNL     1      -9.723   1.630 -31.635  1.00  0.00     0.170 HD
ENDROOT
BRANCH   1   6
HETATM    6  C   UNL     1      -6.433   2.727 -33.196  1.00  0.00     0.170 C 
BRANCH   6   7
HETATM    7  C   UNL     1      -5.629   1.461 -33.072  1.00  0.00     0.013 A 
HETATM    8  C   UNL     1      -4.566   1.319 -32.202  1.00  0.00     0.170 A 
HETATM    9  N   UNL     1      -3.860   0.195 -31.990  1.00  0.00    -0.224 NA
HETATM   10  C   UNL     1      -4.213  -0.899 -32.693  1.00  0.00     0.070 A 
HETATM   11  C   UNL     1      -5.255  -0.878 -33.640  1.00  0.00    -0.006 A 
HETATM   12  C   UNL     1      -3.542  -2.099 -32.494  1.00  0.00     0.033 A 
HETATM   13  C   UNL     1      -5.588  -2.036 -34.365  1.00  0.00     0.021 A 
HETATM   14  C   UNL     1      -5.951   0.325 -33.820  1.00  0.00     0.027 A 
HETATM   15  C   UNL     1      -4.903  -3.236 -34.151  1.00  0.00    -0.058 A 
HETATM   16  C   UNL     1      -3.877  -3.258 -33.204  1.00  0.00     0.009 A 
BRANCH   8  17
HETATM   17  O   UNL     1      -4.099   2.351 -31.454  1.00  0.00    -0.344 OA
HETATM   18  H   UNL     1      -4.909   2.491 -30.922  1.00  0.00     0.219 HD
ENDBRANCH   8  17
BRANCH  15  19
HETATM   19  C   UNL     1      -5.258  -4.475 -34.934  1.00  0.00     0.034 C 
HETATM   20  C   UNL     1      -6.733  -4.514 -35.309  1.00  0.00     0.010 C 
ENDBRANCH  15  19
ENDBRANCH   6   7
ENDBRANCH   1   6
BRANCH   1  21
HETATM   21  C   UNL     1      -7.696   2.967 -31.029  1.00  0.00     0.129 C 
BRANCH  21  22
HETATM   22  C   UNL     1      -7.201   4.381 -30.730  1.00  0.00     0.048 C 
BRANCH  22  23
HETATM   23  C   UNL     1      -6.134   4.430 -29.638  1.00  0.00     0.236 C 
BRANCH  23  24
HETATM   24  N   UNL     1      -4.882   5.177 -30.049  1.00  0.00    -0.067 N 
HETATM   25  H   UNL     1      -4.077   4.540 -30.032  1.00  0.00     0.280 HD
HETATM   26  C   UNL     1      -5.019   5.685 -31.493  1.00  0.00     0.261 C 
HETATM   27  C   UNL     1      -3.778   6.487 -31.894  1.00  0.00     0.195 C 
HETATM   28  O   UNL     1      -3.570   7.579 -30.996  1.00  0.00    -0.388 OA
HETATM   29  C   UNL     1      -3.342   7.126 -29.660  1.00  0.00     0.195 C 
HETATM   30  C   UNL     1      -4.555   6.357 -29.124  1.00  0.00     0.261 C 
ENDBRANCH  23  24
ENDBRANCH  22  23
ENDBRANCH  21  22
ENDBRANCH   1  21
BRANCH   3  31
HETATM   31  C   UNL     1     -11.204   1.660 -33.043  1.00  0.00     0.036 A 
HETATM   32  C   UNL     1     -12.170   2.672 -33.152  1.00  0.00     0.031 A 
HETATM   33  C   UNL     1     -13.462   2.383 -33.600  1.00  0.00     0.026 A 
HETATM   34  C   UNL     1     -13.793   1.078 -33.949  1.00  0.00     0.034 A 
HETATM   35 CL   UNL     1     -15.387   0.715 -34.480  1.00  0.00    -0.084 Cl
HETATM   36  C   UNL     1     -12.840   0.067 -33.865  1.00  0.00     0.026 A 
HETATM   37  C   UNL     1     -11.546   0.360 -33.417  1.00  0.00     0.031 A 
ENDBRANCH   3  31
TORSDOF 9
ENDMDL
MODEL 8
REMARK VINA RESULT:      -8.6      3.247      7.057
REMARK  9 active torsions:
REMARK  status: ('A' for Active; 'I' for Inactive)
REMARK    1  A    between atoms: C_2  and  C_3 
REMARK    2  A    between atoms: C_8  and  O_9 
REMARK    3  A    between atoms: C_10  and  C_11 
REMARK    4  A    between atoms: C_11  and  N_12 
REMARK       I    between atoms: N_12  and  C_13 
REMARK    5  A    between atoms: N_12  and  C_23 
REMARK       I    between atoms: C_13  and  N_14 
REMARK    6  A    between atoms: N_14  and  C_15 
REMARK    7  A    between atoms: C_23  and  C_24 
REMARK    8  A    between atoms: C_24  and  C_25 
REMARK    9  A    between atoms: C_25  and  N_26 
ROOT
HETATM    1  N   UNL     1      -5.491   1.958 -31.820  1.00  0.00    -0.330 N 
HETATM    2  C   UNL     1      -6.607   2.029 -32.668  1.00  0.00     0.323 C 
HETATM    3  N   UNL     1      -7.803   1.802 -32.018  1.00  0.00    -0.309 N 
HETATM    4  O   UNL     1      -6.480   2.203 -33.874  1.00  0.00    -0.247 OA
HETATM    5  H   UNL     1      -7.727   1.463 -31.080  1.00  0.00     0.170 HD
ENDROOT
BRANCH   1   6
HETATM    6  C   UNL     1      -4.187   1.692 -32.450  1.00  0.00     0.170 C 
BRANCH   6   7
HETATM    7  C   UNL     1      -3.871   0.222 -32.504  1.00  0.00     0.013 A 
HETATM    8  C   UNL     1      -2.973  -0.394 -31.655  1.00  0.00     0.170 A 
HETATM    9  N   UNL     1      -2.706  -1.710 -31.601  1.00  0.00    -0.224 NA
HETATM   10  C   UNL     1      -3.369  -2.510 -32.459  1.00  0.00     0.070 A 
HETATM   11  C   UNL     1      -4.285  -2.004 -33.402  1.00  0.00    -0.006 A 
HETATM   12  C   UNL     1      -3.161  -3.883 -32.430  1.00  0.00     0.033 A 
HETATM   13  C   UNL     1      -4.950  -2.868 -34.291  1.00  0.00     0.021 A 
HETATM   14  C   UNL     1      -4.517  -0.622 -33.412  1.00  0.00     0.027 A 
HETATM   15  C   UNL     1      -4.729  -4.248 -34.247  1.00  0.00    -0.058 A 
HETATM   16  C   UNL     1      -3.829  -4.749 -33.304  1.00  0.00     0.009 A 
BRANCH   8  17
HETATM   17  O   UNL     1      -2.226   0.304 -30.761  1.00  0.00    -0.344 OA
HETATM   18  H   UNL     1      -1.394  -0.197 -30.882  1.00  0.00     0.219 HD
ENDBRANCH   8  17
BRANCH  15  19
HETATM   19  C   UNL     1      -5.440  -5.172 -35.204  1.00  0.00     0.034 C 
HETATM   20  C   UNL     1      -6.772  -4.602 -35.668  1.00  0.00     0.010 C 
ENDBRANCH  15  19
ENDBRANCH   6   7
ENDBRANCH   1   6
BRANCH   1  21
HETATM   21  C   UNL     1      -5.508   2.422 -30.433  1.00  0.00     0.129 C 
BRANCH  21  22
HETATM   22  C   UNL     1      -5.120   3.893 -30.288  1.00  0.00     0.048 C 
BRANCH  22  23
HETATM   23  C   UNL     1      -6.069   4.682 -29.388  1.00  0.00     0.236 C 
BRANCH  23  24
HETATM   24  N   UNL     1      -6.834   5.766 -30.119  1.00  0.00    -0.067 N 
HETATM   25  H   UNL     1      -7.813   5.770 -29.808  1.00  0.00     0.280 HD
HETATM   26  C   UNL     1      -6.252   7.147 -29.774  1.00  0.00     0.261 C 
HETATM   27  C   UNL     1      -6.987   8.242 -30.551  1.00  0.00     0.195 C 
HETATM   28  O   UNL     1      -6.910   8.003 -31.959  1.00  0.00    -0.388 OA
HETATM   29  C   UNL     1      -7.533   6.767 -32.317  1.00  0.00     0.195 C 
HETATM   30  C   UNL     1      -6.834   5.581 -31.642  1.00  0.00     0.261 C 
ENDBRANCH  23  24
ENDBRANCH  22  23
ENDBRANCH  21  22
ENDBRANCH   1  21
BRANCH   3  31
HETATM   31  C   UNL     1      -9.075   1.634 -32.606  1.00  0.00     0.036 A 
HETATM   32  C   UNL     1      -9.755   2.800 -32.987  1.00  0.00     0.031 A 
HETATM   33  C   UNL     1     -11.045   2.733 -33.523  1.00  0.00     0.026 A 
HETATM   34  C   UNL     1     -11.660   1.497 -33.687  1.00  0.00     0.034 A 
HETATM   35 CL   UNL     1     -13.253   1.413 -34.324  1.00  0.00    -0.084 Cl
HETATM   36  C   UNL     1     -10.989   0.330 -33.331  1.00  0.00     0.026 A 
HETATM   37  C   UNL     1      -9.697   0.399 -32.796  1.00  0.00     0.031 A 
ENDBRANCH   3  31
TORSDOF 9
ENDMDL
MODEL 9
REMARK VINA RESULT:      -8.6      3.423      7.818
REMARK  9 active torsions:
REMARK  status: ('A' for Active; 'I' for Inactive)
REMARK    1  A    between atoms: C_2  and  C_3 
REMARK    2  A    between atoms: C_8  and  O_9 
REMARK    3  A    between atoms: C_10  and  C_11 
REMARK    4  A    between atoms: C_11  and  N_12 
REMARK       I    between atoms: N_12  and  C_13 
REMARK    5  A    between atoms: N_12  and  C_23 
REMARK       I    between atoms: C_13  and  N_14 
REMARK    6  A    between atoms: N_14  and  C_15 
REMARK    7  A    between atoms: C_23  and  C_24 
REMARK    8  A    between atoms: C_24  and  C_25 
REMARK    9  A    between atoms: C_25  and  N_26 
ROOT
HETATM    1  N   UNL     1      -6.061   4.552 -32.315  1.00  0.00    -0.330 N 
HETATM    2  C   UNL     1      -6.003   3.478 -33.216  1.00  0.00     0.323 C 
HETATM    3  N   UNL     1      -6.017   2.244 -32.598  1.00  0.00    -0.309 N 
HETATM    4  O   UNL     1      -5.879   3.662 -34.421  1.00  0.00    -0.247 OA
HETATM    5  H   UNL     1      -5.904   2.258 -31.603  1.00  0.00     0.170 HD
ENDROOT
BRANCH   1   6
HETATM    6  C   UNL     1      -5.567   5.855 -32.794  1.00  0.00     0.170 C 
BRANCH   6   7
HETATM    7  C   UNL     1      -4.079   5.998 -32.617  1.00  0.00     0.013 A 
HETATM    8  C   UNL     1      -3.192   6.060 -33.673  1.00  0.00     0.170 A 
HETATM    9  N   UNL     1      -1.867   6.265 -33.584  1.00  0.00    -0.224 NA
HETATM   10  C   UNL     1      -1.346   6.417 -32.350  1.00  0.00     0.070 A 
HETATM   11  C   UNL     1      -2.138   6.339 -31.188  1.00  0.00    -0.006 A 
HETATM   12  C   UNL     1       0.012   6.665 -32.195  1.00  0.00     0.033 A 
HETATM   13  C   UNL     1      -1.558   6.491 -29.915  1.00  0.00     0.021 A 
HETATM   14  C   UNL     1      -3.512   6.119 -31.346  1.00  0.00     0.027 A 
HETATM   15  C   UNL     1      -0.189   6.740 -29.777  1.00  0.00    -0.058 A 
HETATM   16  C   UNL     1       0.592   6.829 -30.932  1.00  0.00     0.009 A 
BRANCH   8  17
HETATM   17  O   UNL     1      -3.587   5.898 -34.962  1.00  0.00    -0.344 OA
HETATM   18  H   UNL     1      -3.218   6.737 -35.307  1.00  0.00     0.219 HD
ENDBRANCH   8  17
BRANCH  15  19
HETATM   19  C   UNL     1       0.431   6.898 -28.411  1.00  0.00     0.034 C 
HETATM   20  C   UNL     1       1.145   8.233 -28.257  1.00  0.00     0.010 C 
ENDBRANCH  15  19
ENDBRANCH   6   7
ENDBRANCH   1   6
BRANCH   1  21
HETATM   21  C   UNL     1      -6.839   4.520 -31.077  1.00  0.00     0.129 C 
BRANCH  21  22
HETATM   22  C   UNL     1      -7.285   5.906 -30.613  1.00  0.00     0.048 C 
BRANCH  22  23
HETATM   23  C   UNL     1      -7.657   5.956 -29.133  1.00  0.00     0.236 C 
BRANCH  23  24
HETATM   24  N   UNL     1      -6.685   6.756 -28.291  1.00  0.00    -0.067 N 
HETATM   25  H   UNL     1      -7.191   7.235 -27.537  1.00  0.00     0.280 HD
HETATM   26  C   UNL     1      -5.669   5.817 -27.620  1.00  0.00     0.261 C 
HETATM   27  C   UNL     1      -4.652   6.625 -26.811  1.00  0.00     0.195 C 
HETATM   28  O   UNL     1      -3.982   7.574 -27.645  1.00  0.00    -0.388 OA
HETATM   29  C   UNL     1      -4.895   8.521 -28.203  1.00  0.00     0.195 C 
HETATM   30  C   UNL     1      -5.933   7.826 -29.093  1.00  0.00     0.261 C 
ENDBRANCH  23  24
ENDBRANCH  22  23
ENDBRANCH  21  22
ENDBRANCH   1  21
BRANCH   3  31
HETATM   31  C   UNL     1      -5.799   0.985 -33.198  1.00  0.00     0.036 A 
HETATM   32  C   UNL     1      -6.806   0.510 -34.051  1.00  0.00     0.031 A 
HETATM   33  C   UNL     1      -6.704  -0.753 -34.644  1.00  0.00     0.026 A 
HETATM   34  C   UNL     1      -5.589  -1.544 -34.391  1.00  0.00     0.034 A 
HETATM   35 CL   UNL     1      -5.471  -3.105 -35.101  1.00  0.00    -0.084 Cl
HETATM   36  C   UNL     1      -4.573  -1.077 -33.562  1.00  0.00     0.026 A 
HETATM   37  C   UNL     1      -4.676   0.188 -32.972  1.00  0.00     0.031 A 
ENDBRANCH   3  31
TORSDOF 9
ENDMDL
MODEL 10
REMARK VINA RESULT:      -8.5      1.912      2.810
REMARK  9 active torsions:
REMARK  status: ('A' for Active; 'I' for Inactive)
REMARK    1  A    between atoms: C_2  and  C_3 
REMARK    2  A    between atoms: C_8  and  O_9 
REMARK    3  A    between atoms: C_10  and  C_11 
REMARK    4  A    between atoms: C_11  and  N_12 
REMARK       I    between atoms: N_12  and  C_13 
REMARK    5  A    between atoms: N_12  and  C_23 
REMARK       I    between atoms: C_13  and  N_14 
REMARK    6  A    between atoms: N_14  and  C_15 
REMARK    7  A    between atoms: C_23  and  C_24 
REMARK    8  A    between atoms: C_24  and  C_25 
REMARK    9  A    between atoms: C_25  and  N_26 
ROOT
HETATM    1  N   UNL     1      -6.201   2.443 -31.917  1.00  0.00    -0.330 N 
HETATM    2  C   UNL     1      -6.257   1.050 -32.078  1.00  0.00     0.323 C 
HETATM    3  N   UNL     1      -5.556   0.597 -33.177  1.00  0.00    -0.309 N 
HETATM    4  O   UNL     1      -6.934   0.350 -31.335  1.00  0.00    -0.247 OA
HETATM    5  H   UNL     1      -5.235   1.306 -33.806  1.00  0.00     0.170 HD
ENDROOT
BRANCH   1   6
HETATM    6  C   UNL     1      -7.268   3.068 -31.118  1.00  0.00     0.170 C 
BRANCH   6   7
HETATM    7  C   UNL     1      -8.498   3.353 -31.937  1.00  0.00     0.013 A 
HETATM    8  C   UNL     1      -9.644   2.586 -31.877  1.00  0.00     0.170 A 
HETATM    9  N   UNL     1     -10.798   2.832 -32.522  1.00  0.00    -0.224 NA
HETATM   10  C   UNL     1     -10.845   3.924 -33.309  1.00  0.00     0.070 A 
HETATM   11  C   UNL     1      -9.732   4.770 -33.486  1.00  0.00    -0.006 A 
HETATM   12  C   UNL     1     -12.019   4.250 -33.976  1.00  0.00     0.033 A 
HETATM   13  C   UNL     1      -9.814   5.896 -34.325  1.00  0.00     0.021 A 
HETATM   14  C   UNL     1      -8.557   4.458 -32.790  1.00  0.00     0.027 A 
HETATM   15  C   UNL     1     -11.005   6.209 -34.989  1.00  0.00    -0.058 A 
HETATM   16  C   UNL     1     -12.110   5.375 -34.803  1.00  0.00     0.009 A 
BRANCH   8  17
HETATM   17  O   UNL     1      -9.718   1.449 -31.140  1.00  0.00    -0.344 OA
HETATM   18  H   UNL     1     -10.656   1.538 -30.873  1.00  0.00     0.219 HD
ENDBRANCH   8  17
BRANCH  15  19
HETATM   19  C   UNL     1     -11.089   7.414 -35.892  1.00  0.00     0.034 C 
HETATM   20  C   UNL     1     -12.527   7.839 -36.148  1.00  0.00     0.010 C 
ENDBRANCH  15  19
ENDBRANCH   6   7
ENDBRANCH   1   6
BRANCH   1  21
HETATM   21  C   UNL     1      -5.015   3.238 -32.231  1.00  0.00     0.129 C 
BRANCH  21  22
HETATM   22  C   UNL     1      -5.161   4.050 -33.518  1.00  0.00     0.048 C 
BRANCH  22  23
HETATM   23  C   UNL     1      -4.879   5.538 -33.328  1.00  0.00     0.236 C 
BRANCH  23  24
HETATM   24  N   UNL     1      -3.407   5.861 -33.176  1.00  0.00    -0.067 N 
HETATM   25  H   UNL     1      -2.960   5.164 -32.568  1.00  0.00     0.280 HD
HETATM   26  C   UNL     1      -2.704   5.778 -34.541  1.00  0.00     0.261 C 
HETATM   27  C   UNL     1      -1.227   6.155 -34.402  1.00  0.00     0.195 C 
HETATM   28  O   UNL     1      -1.090   7.465 -33.846  1.00  0.00    -0.388 OA
HETATM   29  C   UNL     1      -1.650   7.542 -32.534  1.00  0.00     0.195 C 
HETATM   30  C   UNL     1      -3.153   7.242 -32.558  1.00  0.00     0.261 C 
ENDBRANCH  23  24
ENDBRANCH  22  23
ENDBRANCH  21  22
ENDBRANCH   1  21
BRANCH   3  31
HETATM   31  C   UNL     1      -5.556  -0.710 -33.710  1.00  0.00     0.036 A 
HETATM   32  C   UNL     1      -6.761  -1.167 -34.266  1.00  0.00     0.031 A 
HETATM   33  C   UNL     1      -6.870  -2.469 -34.764  1.00  0.00     0.026 A 
HETATM   34  C   UNL     1      -5.771  -3.319 -34.715  1.00  0.00     0.034 A 
HETATM   35 CL   UNL     1      -5.910  -4.927 -35.307  1.00  0.00    -0.084 Cl
HETATM   36  C   UNL     1      -4.564  -2.873 -34.185  1.00  0.00     0.026 A 
HETATM   37  C   UNL     1      -4.456  -1.569 -33.688  1.00  0.00     0.031 A 
ENDBRANCH   3  31
TORSDOF 9
ENDMDL
