MODEL 1
REMARK VINA RESULT:      -9.6      0.000      0.000
REMARK  6 active torsions:
REMARK  status: ('A' for Active; 'I' for Inactive)
REMARK    1  A    between atoms: N_6  and  C_7 
REMARK    2  A    between atoms: C_8  and  N_9 
REMARK    3  A    between atoms: C_10  and  N_11 
REMARK       I    between atoms: N_11  and  C_12 
REMARK    4  A    between atoms: C_12  and  C_13 
REMARK    5  A    between atoms: C_14  and  C_15 
REMARK    6  A    between atoms: C_17  and  C_18 
ROOT
HETATM    1  N   UNL     1      -4.376   5.190 -31.304  1.00  0.00    -0.300 N 
HETATM    2  C   UNL     1      -4.794   5.514 -32.585  1.00  0.00     0.247 C 
HETATM    3  O   UNL     1      -4.751   6.634 -33.076  1.00  0.00    -0.268 OA
HETATM    4  H   UNL     1      -4.230   4.212 -31.103  1.00  0.00     0.171 HD
ENDROOT
BRANCH   1   5
HETATM    5  C   UNL     1      -4.405   5.998 -30.192  1.00  0.00     0.179 C 
HETATM    6  N   UNL     1      -3.206   6.344 -29.636  1.00  0.00    -0.331 N 
HETATM    7  H   UNL     1      -3.302   6.808 -28.735  1.00  0.00     0.168 HD
HETATM    8  S   UNL     1      -5.771   6.512 -29.372  1.00  0.00    -0.040 SA
BRANCH   6   9
HETATM    9  C   UNL     1      -1.881   6.387 -30.126  1.00  0.00     0.061 A 
HETATM   10  C   UNL     1      -0.926   7.066 -29.309  1.00  0.00     0.057 A 
HETATM   11  C   UNL     1       0.360   7.260 -29.838  1.00  0.00     0.031 A 
HETATM   12  C   UNL     1       0.710   6.770 -31.098  1.00  0.00     0.002 A 
HETATM   13  C   UNL     1      -0.228   6.098 -31.871  1.00  0.00     0.002 A 
HETATM   14  C   UNL     1      -1.525   5.919 -31.395  1.00  0.00     0.032 A 
BRANCH  10  15
HETATM   15  N   UNL     1      -1.294   7.521 -28.027  1.00  0.00    -0.376 N 
HETATM   16  C   UNL     1      -1.307   8.970 -27.737  1.00  0.00     0.150 C 
HETATM   17  C   UNL     1       0.006   9.470 -27.091  1.00  0.00     0.254 C 
HETATM   18  N   UNL     1       0.409   8.592 -25.909  1.00  0.00    -0.072 N 
HETATM   19  C   UNL     1       1.685   9.056 -25.272  1.00  0.00     0.269 C 
HETATM   20  H   UNL     1      -0.338   8.672 -25.206  1.00  0.00     0.279 HD
HETATM   21  C   UNL     1       0.485   7.123 -26.320  1.00  0.00     0.254 C 
HETATM   22  C   UNL     1      -0.863   6.660 -26.902  1.00  0.00     0.150 C 
ENDBRANCH  10  15
ENDBRANCH   6   9
ENDBRANCH   1   5
BRANCH   2  23
HETATM   23  C   UNL     1      -5.121   4.321 -33.409  1.00  0.00     0.077 C 
HETATM   24  C   UNL     1      -5.800   3.326 -32.821  1.00  0.00     0.042 C 
BRANCH  24  25
HETATM   25  C   UNL     1      -6.127   2.125 -33.506  1.00  0.00     0.076 A 
HETATM   26  O   UNL     1      -5.475   0.920 -33.347  1.00  0.00    -0.310 OA
HETATM   27  C   UNL     1      -6.105  -0.021 -34.113  1.00  0.00     0.086 A 
HETATM   28  C   UNL     1      -7.134   0.569 -34.811  1.00  0.00     0.041 A 
HETATM   29  C   UNL     1      -7.156   1.925 -34.416  1.00  0.00     0.040 A 
BRANCH  27  30
HETATM   30  C   UNL     1      -5.599  -1.390 -34.028  1.00  0.00     0.001 A 
HETATM   31  C   UNL     1      -6.097  -2.403 -34.858  1.00  0.00     0.038 A 
HETATM   32  C   UNL     1      -5.568  -3.695 -34.795  1.00  0.00     0.036 A 
HETATM   33 CL   UNL     1      -6.191  -4.920 -35.834  1.00  0.00    -0.084 Cl
HETATM   34  C   UNL     1      -4.541  -4.002 -33.909  1.00  0.00     0.047 A 
HETATM   35  C   UNL     1      -4.046  -3.003 -33.078  1.00  0.00     0.036 A 
HETATM   36 CL   UNL     1      -2.777  -3.364 -31.973  1.00  0.00    -0.084 Cl
HETATM   37  C   UNL     1      -4.565  -1.708 -33.134  1.00  0.00     0.038 A 
ENDBRANCH  27  30
ENDBRANCH  24  25
ENDBRANCH   2  23
TORSDOF 6
ENDMDL
MODEL 2
REMARK VINA RESULT:      -9.5      0.533      1.641
REMARK  6 active torsions:
REMARK  status: ('A' for Active; 'I' for Inactive)
REMARK    1  A    between atoms: N_6  and  C_7 
REMARK    2  A    between atoms: C_8  and  N_9 
REMARK    3  A    between atoms: C_10  and  N_11 
REMARK       I    between atoms: N_11  and  C_12 
REMARK    4  A    between atoms: C_12  and  C_13 
REMARK    5  A    between atoms: C_14  and  C_15 
REMARK    6  A    between atoms: C_17  and  C_18 
ROOT
HETATM    1  N   UNL     1      -4.502   5.193 -30.427  1.00  0.00    -0.300 N 
HETATM    2  C   UNL     1      -5.177   5.126 -31.635  1.00  0.00     0.247 C 
HETATM    3  O   UNL     1      -5.378   6.075 -32.382  1.00  0.00    -0.268 OA
HETATM    4  H   UNL     1      -4.189   4.321 -30.029  1.00  0.00     0.171 HD
ENDROOT
BRANCH   1   5
HETATM    5  C   UNL     1      -4.450   6.261 -29.563  1.00  0.00     0.179 C 
HETATM    6  N   UNL     1      -3.216   6.753 -29.248  1.00  0.00    -0.331 N 
HETATM    7  H   UNL     1      -3.238   7.435 -28.491  1.00  0.00     0.168 HD
HETATM    8  S   UNL     1      -5.745   6.953 -28.759  1.00  0.00    -0.040 SA
BRANCH   6   9
HETATM    9  C   UNL     1      -1.950   6.684 -29.872  1.00  0.00     0.061 A 
HETATM   10  C   UNL     1      -0.833   7.105 -29.089  1.00  0.00     0.057 A 
HETATM   11  C   UNL     1       0.413   7.196 -29.728  1.00  0.00     0.031 A 
HETATM   12  C   UNL     1       0.568   6.845 -31.071  1.00  0.00     0.002 A 
HETATM   13  C   UNL     1      -0.527   6.422 -31.814  1.00  0.00     0.002 A 
HETATM   14  C   UNL     1      -1.787   6.355 -31.222  1.00  0.00     0.032 A 
BRANCH  10  15
HETATM   15  N   UNL     1      -1.009   7.422 -27.726  1.00  0.00    -0.376 N 
HETATM   16  C   UNL     1      -1.176   8.832 -27.314  1.00  0.00     0.150 C 
HETATM   17  C   UNL     1       0.150   9.495 -26.877  1.00  0.00     0.254 C 
HETATM   18  N   UNL     1       0.897   8.627 -25.869  1.00  0.00    -0.072 N 
HETATM   19  C   UNL     1       2.190   9.251 -25.437  1.00  0.00     0.269 C 
HETATM   20  H   UNL     1       0.296   8.546 -25.037  1.00  0.00     0.279 HD
HETATM   21  C   UNL     1       1.104   7.215 -26.412  1.00  0.00     0.254 C 
HETATM   22  C   UNL     1      -0.249   6.577 -26.777  1.00  0.00     0.150 C 
ENDBRANCH  10  15
ENDBRANCH   6   9
ENDBRANCH   1   5
BRANCH   2  23
HETATM   23  C   UNL     1      -5.473   3.733 -32.061  1.00  0.00     0.077 C 
HETATM   24  C   UNL     1      -5.992   3.553 -33.283  1.00  0.00     0.042 C 
BRANCH  24  25
HETATM   25  C   UNL     1      -6.351   2.268 -33.772  1.00  0.00     0.076 A 
HETATM   26  O   UNL     1      -5.584   1.129 -33.645  1.00  0.00    -0.310 OA
HETATM   27  C   UNL     1      -6.277   0.075 -34.174  1.00  0.00     0.086 A 
HETATM   28  C   UNL     1      -7.471   0.525 -34.691  1.00  0.00     0.041 A 
HETATM   29  C   UNL     1      -7.523   1.911 -34.424  1.00  0.00     0.040 A 
BRANCH  27  30
HETATM   30  C   UNL     1      -5.654  -1.243 -34.074  1.00  0.00     0.001 A 
HETATM   31  C   UNL     1      -4.624  -1.495 -33.157  1.00  0.00     0.038 A 
HETATM   32  C   UNL     1      -4.073  -2.773 -33.043  1.00  0.00     0.036 A 
HETATM   33 CL   UNL     1      -2.817  -3.059 -31.901  1.00  0.00    -0.084 Cl
HETATM   34  C   UNL     1      -4.531  -3.820 -33.837  1.00  0.00     0.047 A 
HETATM   35  C   UNL     1      -5.548  -3.576 -34.754  1.00  0.00     0.036 A 
HETATM   36 CL   UNL     1      -6.127  -4.857 -35.747  1.00  0.00    -0.084 Cl
HETATM   37  C   UNL     1      -6.109  -2.303 -34.874  1.00  0.00     0.038 A 
ENDBRANCH  27  30
ENDBRANCH  24  25
ENDBRANCH   2  23
TORSDOF 6
ENDMDL
MODEL 3
REMARK VINA RESULT:      -9.4      1.847      2.687
REMARK  6 active torsions:
REMARK  status: ('A' for Active; 'I' for Inactive)
REMARK    1  A    between atoms: N_6  and  C_7 
REMARK    2  A    between atoms: C_8  and  N_9 
REMARK    3  A    between atoms: C_10  and  N_11 
REMARK       I    between atoms: N_11  and  C_12 
REMARK    4  A    between atoms: C_12  and  C_13 
REMARK    5  A    between atoms: C_14  and  C_15 
REMARK    6  A    between atoms: C_17  and  C_18 
ROOT
HETATM    1  N   UNL     1      -3.051   5.654 -31.718  1.00  0.00    -0.300 N 
HETATM    2  C   UNL     1      -2.264   4.519 -31.598  1.00  0.00     0.247 C 
HETATM    3  O   UNL     1      -1.219   4.452 -30.965  1.00  0.00    -0.268 OA
HETATM    4  H   UNL     1      -3.994   5.524 -32.051  1.00  0.00     0.171 HD
ENDROOT
BRANCH   1   5
HETATM    5  C   UNL     1      -2.627   6.962 -31.712  1.00  0.00     0.179 C 
HETATM    6  N   UNL     1      -2.991   7.734 -30.646  1.00  0.00    -0.331 N 
HETATM    7  H   UNL     1      -2.781   8.722 -30.778  1.00  0.00     0.168 HD
HETATM    8  S   UNL     1      -1.803   7.746 -32.940  1.00  0.00    -0.040 SA
BRANCH   6   9
HETATM    9  C   UNL     1      -3.402   7.442 -29.326  1.00  0.00     0.061 A 
HETATM   10  C   UNL     1      -2.387   7.486 -28.323  1.00  0.00     0.057 A 
HETATM   11  C   UNL     1      -2.728   7.052 -27.033  1.00  0.00     0.031 A 
HETATM   12  C   UNL     1      -4.025   6.632 -26.726  1.00  0.00     0.002 A 
HETATM   13  C   UNL     1      -5.004   6.612 -27.711  1.00  0.00     0.002 A 
HETATM   14  C   UNL     1      -4.692   7.001 -29.012  1.00  0.00     0.032 A 
BRANCH  10  15
HETATM   15  N   UNL     1      -1.094   7.945 -28.649  1.00  0.00    -0.376 N 
HETATM   16  C   UNL     1       0.028   6.987 -28.727  1.00  0.00     0.150 C 
HETATM   17  C   UNL     1       0.837   6.895 -27.412  1.00  0.00     0.254 C 
HETATM   18  N   UNL     1       1.222   8.280 -26.901  1.00  0.00    -0.072 N 
HETATM   19  C   UNL     1       2.002   8.212 -25.622  1.00  0.00     0.269 C 
HETATM   20  H   UNL     1       1.829   8.706 -27.614  1.00  0.00     0.279 HD
HETATM   21  C   UNL     1      -0.009   9.174 -26.766  1.00  0.00     0.254 C 
HETATM   22  C   UNL     1      -0.743   9.281 -28.115  1.00  0.00     0.150 C 
ENDBRANCH  10  15
ENDBRANCH   6   9
ENDBRANCH   1   5
BRANCH   2  23
HETATM   23  C   UNL     1      -2.912   3.301 -32.152  1.00  0.00     0.077 C 
HETATM   24  C   UNL     1      -4.232   3.348 -32.379  1.00  0.00     0.042 C 
BRANCH  24  25
HETATM   25  C   UNL     1      -4.957   2.227 -32.866  1.00  0.00     0.076 A 
HETATM   26  O   UNL     1      -4.458   0.945 -32.970  1.00  0.00    -0.310 OA
HETATM   27  C   UNL     1      -5.457   0.123 -33.413  1.00  0.00     0.086 A 
HETATM   28  C   UNL     1      -6.592   0.866 -33.648  1.00  0.00     0.041 A 
HETATM   29  C   UNL     1      -6.279   2.195 -33.289  1.00  0.00     0.040 A 
BRANCH  27  30
HETATM   30  C   UNL     1      -5.142  -1.300 -33.526  1.00  0.00     0.001 A 
HETATM   31  C   UNL     1      -5.790  -2.118 -34.461  1.00  0.00     0.038 A 
HETATM   32  C   UNL     1      -5.442  -3.465 -34.586  1.00  0.00     0.036 A 
HETATM   33 CL   UNL     1      -6.246  -4.446 -35.750  1.00  0.00    -0.084 Cl
HETATM   34  C   UNL     1      -4.449  -4.022 -33.786  1.00  0.00     0.047 A 
HETATM   35  C   UNL     1      -3.807  -3.217 -32.852  1.00  0.00     0.036 A 
HETATM   36 CL   UNL     1      -2.577  -3.889 -31.851  1.00  0.00    -0.084 Cl
HETATM   37  C   UNL     1      -4.144  -1.869 -32.719  1.00  0.00     0.038 A 
ENDBRANCH  27  30
ENDBRANCH  24  25
ENDBRANCH   2  23
TORSDOF 6
ENDMDL
MODEL 4
REMARK VINA RESULT:      -9.1      5.343     10.741
REMARK  6 active torsions:
REMARK  status: ('A' for Active; 'I' for Inactive)
REMARK    1  A    between atoms: N_6  and  C_7 
REMARK    2  A    between atoms: C_8  and  N_9 
REMARK    3  A    between atoms: C_10  and  N_11 
REMARK       I    between atoms: N_11  and  C_12 
REMARK    4  A    between atoms: C_12  and  C_13 
REMARK    5  A    between atoms: C_14  and  C_15 
REMARK    6  A    between atoms: C_17  and  C_18 
ROOT
HETATM    1  N   UNL     1      -4.667   1.603 -32.665  1.00  0.00    -0.300 N 
HETATM    2  C   UNL     1      -3.589   1.639 -31.795  1.00  0.00     0.247 C 
HETATM    3  O   UNL     1      -2.968   0.660 -31.404  1.00  0.00    -0.268 OA
HETATM    4  H   UNL     1      -4.934   2.473 -33.101  1.00  0.00     0.171 HD
ENDROOT
BRANCH   1   5
HETATM    5  C   UNL     1      -5.595   0.598 -32.795  1.00  0.00     0.179 C 
HETATM    6  N   UNL     1      -6.711   0.667 -32.011  1.00  0.00    -0.331 N 
HETATM    7  H   UNL     1      -7.276  -0.180 -32.042  1.00  0.00     0.168 HD
HETATM    8  S   UNL     1      -5.445  -0.778 -33.738  1.00  0.00    -0.040 SA
BRANCH   6   9
HETATM    9  C   UNL     1      -7.360   1.723 -31.332  1.00  0.00     0.061 A 
HETATM   10  C   UNL     1      -8.456   2.335 -32.014  1.00  0.00     0.057 A 
HETATM   11  C   UNL     1      -9.021   3.483 -31.438  1.00  0.00     0.031 A 
HETATM   12  C   UNL     1      -8.561   3.986 -30.219  1.00  0.00     0.002 A 
HETATM   13  C   UNL     1      -7.505   3.368 -29.562  1.00  0.00     0.002 A 
HETATM   14  C   UNL     1      -6.894   2.248 -30.122  1.00  0.00     0.032 A 
BRANCH  10  15
HETATM   15  N   UNL     1      -8.924   1.788 -33.226  1.00  0.00    -0.376 N 
HETATM   16  C   UNL     1      -8.946   2.619 -34.448  1.00  0.00     0.150 C 
HETATM   17  C   UNL     1     -10.315   3.293 -34.697  1.00  0.00     0.254 C 
HETATM   18  N   UNL     1     -11.455   2.284 -34.599  1.00  0.00    -0.072 N 
HETATM   19  C   UNL     1     -12.792   2.920 -34.830  1.00  0.00     0.269 C 
HETATM   20  H   UNL     1     -11.306   1.589 -35.343  1.00  0.00     0.279 HD
HETATM   21  C   UNL     1     -11.408   1.534 -33.269  1.00  0.00     0.254 C 
HETATM   22  C   UNL     1     -10.049   0.833 -33.097  1.00  0.00     0.150 C 
ENDBRANCH  10  15
ENDBRANCH   6   9
ENDBRANCH   1   5
BRANCH   2  23
HETATM   23  C   UNL     1      -3.106   3.019 -31.524  1.00  0.00     0.077 C 
HETATM   24  C   UNL     1      -2.594   3.712 -32.551  1.00  0.00     0.042 C 
BRANCH  24  25
HETATM   25  C   UNL     1      -2.066   5.021 -32.392  1.00  0.00     0.076 A 
HETATM   26  O   UNL     1      -1.992   5.706 -31.197  1.00  0.00    -0.310 OA
HETATM   27  C   UNL     1      -1.367   6.903 -31.419  1.00  0.00     0.086 A 
HETATM   28  C   UNL     1      -1.078   7.028 -32.759  1.00  0.00     0.041 A 
HETATM   29  C   UNL     1      -1.508   5.830 -33.372  1.00  0.00     0.040 A 
BRANCH  27  30
HETATM   30  C   UNL     1      -1.132   7.752 -30.253  1.00  0.00     0.001 A 
HETATM   31  C   UNL     1      -2.007   8.796 -29.923  1.00  0.00     0.038 A 
HETATM   32  C   UNL     1      -1.791   9.567 -28.778  1.00  0.00     0.036 A 
HETATM   33 CL   UNL     1      -2.886  10.837 -28.389  1.00  0.00    -0.084 Cl
HETATM   34  C   UNL     1      -0.705   9.317 -27.945  1.00  0.00     0.047 A 
HETATM   35  C   UNL     1       0.171   8.287 -28.270  1.00  0.00     0.036 A 
HETATM   36 CL   UNL     1       1.522   7.964 -27.253  1.00  0.00    -0.084 Cl
HETATM   37  C   UNL     1      -0.036   7.508 -29.410  1.00  0.00     0.038 A 
ENDBRANCH  27  30
ENDBRANCH  24  25
ENDBRANCH   2  23
TORSDOF 6
ENDMDL
MODEL 5
REMARK VINA RESULT:      -9.1      2.255      2.979
REMARK  6 active torsions:
REMARK  status: ('A' for Active; 'I' for Inactive)
REMARK    1  A    between atoms: N_6  and  C_7 
REMARK    2  A    between atoms: C_8  and  N_9 
REMARK    3  A    between atoms: C_10  and  N_11 
REMARK       I    between atoms: N_11  and  C_12 
REMARK    4  A    between atoms: C_12  and  C_13 
REMARK    5  A    between atoms: C_14  and  C_15 
REMARK    6  A    between atoms: C_17  and  C_18 
ROOT
HETATM    1  N   UNL     1      -4.802   7.712 -30.985  1.00  0.00    -0.300 N 
HETATM    2  C   UNL     1      -5.546   6.876 -30.168  1.00  0.00     0.247 C 
HETATM    3  O   UNL     1      -6.281   7.248 -29.263  1.00  0.00    -0.268 OA
HETATM    4  H   UNL     1      -4.437   7.314 -31.837  1.00  0.00     0.171 HD
ENDROOT
BRANCH   1   5
HETATM    5  C   UNL     1      -4.261   8.931 -30.652  1.00  0.00     0.179 C 
HETATM    6  N   UNL     1      -2.930   8.965 -30.348  1.00  0.00    -0.331 N 
HETATM    7  H   UNL     1      -2.630   9.859 -29.963  1.00  0.00     0.168 HD
HETATM    8  S   UNL     1      -5.095  10.370 -30.464  1.00  0.00    -0.040 SA
BRANCH   6   9
HETATM    9  C   UNL     1      -1.842   8.113 -30.642  1.00  0.00     0.061 A 
HETATM   10  C   UNL     1      -0.948   7.833 -29.564  1.00  0.00     0.057 A 
HETATM   11  C   UNL     1       0.224   7.119 -29.860  1.00  0.00     0.031 A 
HETATM   12  C   UNL     1       0.488   6.658 -31.151  1.00  0.00     0.002 A 
HETATM   13  C   UNL     1      -0.401   6.926 -32.184  1.00  0.00     0.002 A 
HETATM   14  C   UNL     1      -1.557   7.664 -31.936  1.00  0.00     0.032 A 
BRANCH  10  15
HETATM   15  N   UNL     1      -1.254   8.280 -28.262  1.00  0.00    -0.376 N 
HETATM   16  C   UNL     1      -0.798   9.614 -27.817  1.00  0.00     0.150 C 
HETATM   17  C   UNL     1       0.542   9.570 -27.047  1.00  0.00     0.254 C 
HETATM   18  N   UNL     1       0.514   8.512 -25.948  1.00  0.00    -0.072 N 
HETATM   19  C   UNL     1       1.808   8.449 -25.193  1.00  0.00     0.269 C 
HETATM   20  H   UNL     1      -0.222   8.788 -25.283  1.00  0.00     0.279 HD
HETATM   21  C   UNL     1       0.121   7.148 -26.511  1.00  0.00     0.254 C 
HETATM   22  C   UNL     1      -1.245   7.233 -27.215  1.00  0.00     0.150 C 
ENDBRANCH  10  15
ENDBRANCH   6   9
ENDBRANCH   1   5
BRANCH   2  23
HETATM   23  C   UNL     1      -5.536   5.460 -30.621  1.00  0.00     0.077 C 
HETATM   24  C   UNL     1      -4.350   4.912 -30.923  1.00  0.00     0.042 C 
BRANCH  24  25
HETATM   25  C   UNL     1      -4.232   3.581 -31.405  1.00  0.00     0.076 A 
HETATM   26  O   UNL     1      -5.286   2.784 -31.798  1.00  0.00    -0.310 OA
HETATM   27  C   UNL     1      -4.787   1.599 -32.264  1.00  0.00     0.086 A 
HETATM   28  C   UNL     1      -3.417   1.595 -32.132  1.00  0.00     0.041 A 
HETATM   29  C   UNL     1      -3.065   2.855 -31.601  1.00  0.00     0.040 A 
BRANCH  27  30
HETATM   30  C   UNL     1      -5.752   0.637 -32.793  1.00  0.00     0.001 A 
HETATM   31  C   UNL     1      -7.128   0.795 -32.584  1.00  0.00     0.038 A 
HETATM   32  C   UNL     1      -8.038  -0.109 -33.137  1.00  0.00     0.036 A 
HETATM   33 CL   UNL     1      -9.725   0.114 -32.874  1.00  0.00    -0.084 Cl
HETATM   34  C   UNL     1      -7.599  -1.183 -33.904  1.00  0.00     0.047 A 
HETATM   35  C   UNL     1      -6.234  -1.349 -34.111  1.00  0.00     0.036 A 
HETATM   36 CL   UNL     1      -5.669  -2.674 -35.055  1.00  0.00    -0.084 Cl
HETATM   37  C   UNL     1      -5.315  -0.451 -33.565  1.00  0.00     0.038 A 
ENDBRANCH  27  30
ENDBRANCH  24  25
ENDBRANCH   2  23
TORSDOF 6
ENDMDL
MODEL 6
REMARK VINA RESULT:      -8.9      6.374      8.747
REMARK  6 active torsions:
REMARK  status: ('A' for Active; 'I' for Inactive)
REMARK    1  A    between atoms: N_6  and  C_7 
REMARK    2  A    between atoms: C_8  and  N_9 
REMARK    3  A    between atoms: C_10  and  N_11 
REMARK       I    between atoms: N_11  and  C_12 
REMARK    4  A    between atoms: C_12  and  C_13 
REMARK    5  A    between atoms: C_14  and  C_15 
REMARK    6  A    between atoms: C_17  and  C_18 
ROOT
HETATM    1  N   UNL     1     -12.865   1.978 -33.641  1.00  0.00    -0.300 N 
HETATM    2  C   UNL     1     -12.618   0.622 -33.499  1.00  0.00     0.247 C 
HETATM    3  O   UNL     1     -13.471  -0.255 -33.523  1.00  0.00    -0.268 OA
HETATM    4  H   UNL     1     -12.075   2.569 -33.850  1.00  0.00     0.171 HD
ENDROOT
BRANCH   1   5
HETATM    5  C   UNL     1     -13.996   2.660 -33.259  1.00  0.00     0.179 C 
HETATM    6  N   UNL     1     -13.922   4.023 -33.213  1.00  0.00    -0.331 N 
HETATM    7  H   UNL     1     -14.735   4.454 -32.776  1.00  0.00     0.168 HD
HETATM    8  S   UNL     1     -15.432   1.984 -32.725  1.00  0.00    -0.040 SA
BRANCH   6   9
HETATM    9  C   UNL     1     -13.070   4.973 -33.819  1.00  0.00     0.061 A 
HETATM   10  C   UNL     1     -12.176   5.669 -32.949  1.00  0.00     0.057 A 
HETATM   11  C   UNL     1     -11.429   6.725 -33.494  1.00  0.00     0.031 A 
HETATM   12  C   UNL     1     -11.519   7.058 -34.847  1.00  0.00     0.002 A 
HETATM   13  C   UNL     1     -12.383   6.359 -35.682  1.00  0.00     0.002 A 
HETATM   14  C   UNL     1     -13.168   5.329 -35.168  1.00  0.00     0.032 A 
BRANCH  10  15
HETATM   15  N   UNL     1     -12.077   5.292 -31.594  1.00  0.00    -0.376 N 
HETATM   16  C   UNL     1     -12.251   6.306 -30.534  1.00  0.00     0.150 C 
HETATM   17  C   UNL     1     -10.913   6.904 -30.042  1.00  0.00     0.254 C 
HETATM   18  N   UNL     1      -9.907   5.806 -29.707  1.00  0.00    -0.072 N 
HETATM   19  C   UNL     1      -8.599   6.365 -29.234  1.00  0.00     0.269 C 
HETATM   20  H   UNL     1     -10.308   5.255 -28.936  1.00  0.00     0.279 HD
HETATM   21  C   UNL     1      -9.722   4.856 -30.889  1.00  0.00     0.254 C 
HETATM   22  C   UNL     1     -11.073   4.244 -31.300  1.00  0.00     0.150 C 
ENDBRANCH  10  15
ENDBRANCH   6   9
ENDBRANCH   1   5
BRANCH   2  23
HETATM   23  C   UNL     1     -11.169   0.290 -33.516  1.00  0.00     0.077 C 
HETATM   24  C   UNL     1     -10.302   1.298 -33.690  1.00  0.00     0.042 C 
BRANCH  24  25
HETATM   25  C   UNL     1      -8.899   1.085 -33.764  1.00  0.00     0.076 A 
HETATM   26  O   UNL     1      -8.276  -0.139 -33.644  1.00  0.00    -0.310 OA
HETATM   27  C   UNL     1      -6.933   0.035 -33.835  1.00  0.00     0.086 A 
HETATM   28  C   UNL     1      -6.667   1.371 -34.028  1.00  0.00     0.041 A 
HETATM   29  C   UNL     1      -7.913   2.034 -33.997  1.00  0.00     0.040 A 
BRANCH  27  30
HETATM   30  C   UNL     1      -6.100  -1.166 -33.813  1.00  0.00     0.001 A 
HETATM   31  C   UNL     1      -6.390  -2.269 -34.627  1.00  0.00     0.038 A 
HETATM   32  C   UNL     1      -5.556  -3.390 -34.627  1.00  0.00     0.036 A 
HETATM   33 CL   UNL     1      -5.929  -4.727 -35.645  1.00  0.00    -0.084 Cl
HETATM   34  C   UNL     1      -4.424  -3.436 -33.819  1.00  0.00     0.047 A 
HETATM   35  C   UNL     1      -4.134  -2.347 -33.004  1.00  0.00     0.036 A 
HETATM   36 CL   UNL     1      -2.740  -2.386 -31.995  1.00  0.00    -0.084 Cl
HETATM   37  C   UNL     1      -4.959  -1.221 -32.997  1.00  0.00     0.038 A 
ENDBRANCH  27  30
ENDBRANCH  24  25
ENDBRANCH   2  23
TORSDOF 6
ENDMDL
MODEL 7
REMARK VINA RESULT:      -8.9      4.016      5.217
REMARK  6 active torsions:
REMARK  status: ('A' for Active; 'I' for Inactive)
REMARK    1  A    between atoms: N_6  and  C_7 
REMARK    2  A    between atoms: C_8  and  N_9 
REMARK    3  A    between atoms: C_10  and  N_11 
REMARK       I    between atoms: N_11  and  C_12 
REMARK    4  A    between atoms: C_12  and  C_13 
REMARK    5  A    between atoms: C_14  and  C_15 
REMARK    6  A    between atoms: C_17  and  C_18 
ROOT
HETATM    1  N   UNL     1      -3.328   4.829 -32.180  1.00  0.00    -0.300 N 
HETATM    2  C   UNL     1      -3.281   3.560 -31.625  1.00  0.00     0.247 C 
HETATM    3  O   UNL     1      -2.264   2.998 -31.241  1.00  0.00    -0.268 OA
HETATM    4  H   UNL     1      -4.231   5.275 -32.228  1.00  0.00     0.171 HD
ENDROOT
BRANCH   1   5
HETATM    5  C   UNL     1      -2.353   5.444 -32.929  1.00  0.00     0.179 C 
HETATM    6  N   UNL     1      -1.378   6.122 -32.254  1.00  0.00    -0.331 N 
HETATM    7  H   UNL     1      -0.782   6.679 -32.865  1.00  0.00     0.168 HD
HETATM    8  S   UNL     1      -2.299   5.548 -34.599  1.00  0.00    -0.040 SA
BRANCH   6   9
HETATM    9  C   UNL     1      -0.885   6.059 -30.932  1.00  0.00     0.061 A 
HETATM   10  C   UNL     1      -1.440   6.992 -30.004  1.00  0.00     0.057 A 
HETATM   11  C   UNL     1      -0.863   7.060 -28.726  1.00  0.00     0.031 A 
HETATM   12  C   UNL     1       0.187   6.217 -28.356  1.00  0.00     0.002 A 
HETATM   13  C   UNL     1       0.703   5.304 -29.267  1.00  0.00     0.002 A 
HETATM   14  C   UNL     1       0.181   5.234 -30.557  1.00  0.00     0.032 A 
BRANCH  10  15
HETATM   15  N   UNL     1      -2.522   7.809 -30.391  1.00  0.00    -0.376 N 
HETATM   16  C   UNL     1      -2.305   9.252 -30.630  1.00  0.00     0.150 C 
HETATM   17  C   UNL     1      -2.618  10.124 -29.392  1.00  0.00     0.254 C 
HETATM   18  N   UNL     1      -3.983   9.779 -28.803  1.00  0.00    -0.072 N 
HETATM   19  C   UNL     1      -4.302  10.611 -27.597  1.00  0.00     0.269 C 
HETATM   20  H   UNL     1      -4.685   9.993 -29.524  1.00  0.00     0.279 HD
HETATM   21  C   UNL     1      -4.087   8.285 -28.504  1.00  0.00     0.254 C 
HETATM   22  C   UNL     1      -3.826   7.464 -29.779  1.00  0.00     0.150 C 
ENDBRANCH  10  15
ENDBRANCH   6   9
ENDBRANCH   1   5
BRANCH   2  23
HETATM   23  C   UNL     1      -4.628   2.998 -31.342  1.00  0.00     0.077 C 
HETATM   24  C   UNL     1      -5.225   2.293 -32.313  1.00  0.00     0.042 C 
BRANCH  24  25
HETATM   25  C   UNL     1      -6.529   1.750 -32.163  1.00  0.00     0.076 A 
HETATM   26  O   UNL     1      -7.635   2.131 -32.893  1.00  0.00    -0.310 OA
HETATM   27  C   UNL     1      -8.693   1.348 -32.521  1.00  0.00     0.086 A 
HETATM   28  C   UNL     1      -8.300   0.492 -31.518  1.00  0.00     0.041 A 
HETATM   29  C   UNL     1      -6.926   0.737 -31.300  1.00  0.00     0.040 A 
BRANCH  27  30
HETATM   30  C   UNL     1      -9.952   1.554 -33.235  1.00  0.00     0.001 A 
HETATM   31  C   UNL     1     -10.150   2.674 -34.055  1.00  0.00     0.038 A 
HETATM   32  C   UNL     1     -11.342   2.830 -34.766  1.00  0.00     0.036 A 
HETATM   33 CL   UNL     1     -11.555   4.209 -35.774  1.00  0.00    -0.084 Cl
HETATM   34  C   UNL     1     -12.356   1.882 -34.675  1.00  0.00     0.047 A 
HETATM   35  C   UNL     1     -12.169   0.772 -33.858  1.00  0.00     0.036 A 
HETATM   36 CL   UNL     1     -13.412  -0.411 -33.730  1.00  0.00    -0.084 Cl
HETATM   37  C   UNL     1     -10.980   0.603 -33.145  1.00  0.00     0.038 A 
ENDBRANCH  27  30
ENDBRANCH  24  25
ENDBRANCH   2  23
TORSDOF 6
ENDMDL
MODEL 8
REMARK VINA RESULT:      -8.9      1.786      2.664
REMARK  6 active torsions:
REMARK  status: ('A' for Active; 'I' for Inactive)
REMARK    1  A    between atoms: N_6  and  C_7 
REMARK    2  A    between atoms: C_8  and  N_9 
REMARK    3  A    between atoms: C_10  and  N_11 
REMARK       I    between atoms: N_11  and  C_12 
REMARK    4  A    between atoms: C_12  and  C_13 
REMARK    5  A    between atoms: C_14  and  C_15 
REMARK    6  A    between atoms: C_17  and  C_18 
ROOT
HETATM    1  N   UNL     1      -5.086   7.726 -30.957  1.00  0.00    -0.300 N 
HETATM    2  C   UNL     1      -4.936   6.651 -30.094  1.00  0.00     0.247 C 
HETATM    3  O   UNL     1      -4.771   6.738 -28.885  1.00  0.00    -0.268 OA
HETATM    4  H   UNL     1      -5.456   7.528 -31.874  1.00  0.00     0.171 HD
ENDROOT
BRANCH   1   5
HETATM    5  C   UNL     1      -4.536   8.978 -30.825  1.00  0.00     0.179 C 
HETATM    6  N   UNL     1      -3.176   9.058 -30.716  1.00  0.00    -0.331 N 
HETATM    7  H   UNL     1      -2.849   9.990 -30.467  1.00  0.00     0.168 HD
HETATM    8  S   UNL     1      -5.371  10.420 -30.667  1.00  0.00    -0.040 SA
BRANCH   6   9
HETATM    9  C   UNL     1      -2.118   8.193 -31.073  1.00  0.00     0.061 A 
HETATM   10  C   UNL     1      -1.233   7.807 -30.021  1.00  0.00     0.057 A 
HETATM   11  C   UNL     1      -0.086   7.077 -30.370  1.00  0.00     0.031 A 
HETATM   12  C   UNL     1       0.161   6.700 -31.692  1.00  0.00     0.002 A 
HETATM   13  C   UNL     1      -0.719   7.071 -32.700  1.00  0.00     0.002 A 
HETATM   14  C   UNL     1      -1.849   7.828 -32.396  1.00  0.00     0.032 A 
BRANCH  10  15
HETATM   15  N   UNL     1      -1.522   8.171 -28.690  1.00  0.00    -0.376 N 
HETATM   16  C   UNL     1      -1.031   9.458 -28.155  1.00  0.00     0.150 C 
HETATM   17  C   UNL     1       0.310   9.326 -27.398  1.00  0.00     0.254 C 
HETATM   18  N   UNL     1       0.258   8.196 -26.374  1.00  0.00    -0.072 N 
HETATM   19  C   UNL     1       1.553   8.048 -25.632  1.00  0.00     0.269 C 
HETATM   20  H   UNL     1      -0.468   8.444 -25.688  1.00  0.00     0.279 HD
HETATM   21  C   UNL     1      -0.171   6.885 -27.028  1.00  0.00     0.254 C 
HETATM   22  C   UNL     1      -1.538   7.053 -27.717  1.00  0.00     0.150 C 
ENDBRANCH  10  15
ENDBRANCH   6   9
ENDBRANCH   1   5
BRANCH   2  23
HETATM   23  C   UNL     1      -5.198   5.341 -30.746  1.00  0.00     0.077 C 
HETATM   24  C   UNL     1      -5.809   5.351 -31.939  1.00  0.00     0.042 C 
BRANCH  24  25
HETATM   25  C   UNL     1      -6.144   4.155 -32.628  1.00  0.00     0.076 A 
HETATM   26  O   UNL     1      -5.418   2.983 -32.581  1.00  0.00    -0.310 OA
HETATM   27  C   UNL     1      -6.077   2.032 -33.311  1.00  0.00     0.086 A 
HETATM   28  C   UNL     1      -7.202   2.587 -33.877  1.00  0.00     0.041 A 
HETATM   29  C   UNL     1      -7.252   3.927 -33.433  1.00  0.00     0.040 A 
BRANCH  27  30
HETATM   30  C   UNL     1      -5.495   0.692 -33.329  1.00  0.00     0.001 A 
HETATM   31  C   UNL     1      -4.304   0.404 -32.648  1.00  0.00     0.038 A 
HETATM   32  C   UNL     1      -3.789  -0.894 -32.638  1.00  0.00     0.036 A 
HETATM   33 CL   UNL     1      -2.330  -1.222 -31.785  1.00  0.00    -0.084 Cl
HETATM   34  C   UNL     1      -4.443  -1.926 -33.303  1.00  0.00     0.047 A 
HETATM   35  C   UNL     1      -5.622  -1.647 -33.986  1.00  0.00     0.036 A 
HETATM   36 CL   UNL     1      -6.445  -2.910 -34.817  1.00  0.00    -0.084 Cl
HETATM   37  C   UNL     1      -6.148  -0.354 -34.001  1.00  0.00     0.038 A 
ENDBRANCH  27  30
ENDBRANCH  24  25
ENDBRANCH   2  23
TORSDOF 6
ENDMDL
MODEL 9
REMARK VINA RESULT:      -8.5      7.025     12.318
REMARK  6 active torsions:
REMARK  status: ('A' for Active; 'I' for Inactive)
REMARK    1  A    between atoms: N_6  and  C_7 
REMARK    2  A    between atoms: C_8  and  N_9 
REMARK    3  A    between atoms: C_10  and  N_11 
REMARK       I    between atoms: N_11  and  C_12 
REMARK    4  A    between atoms: C_12  and  C_13 
REMARK    5  A    between atoms: C_14  and  C_15 
REMARK    6  A    between atoms: C_17  and  C_18 
ROOT
HETATM    1  N   UNL     1      -3.299   7.113 -25.622  1.00  0.00    -0.300 N 
HETATM    2  C   UNL     1      -3.701   8.230 -24.907  1.00  0.00     0.247 C 
HETATM    3  O   UNL     1      -4.835   8.688 -24.899  1.00  0.00    -0.268 OA
HETATM    4  H   UNL     1      -2.420   6.693 -25.361  1.00  0.00     0.171 HD
ENDROOT
BRANCH   1   5
HETATM    5  C   UNL     1      -3.802   6.671 -26.823  1.00  0.00     0.179 C 
HETATM    6  N   UNL     1      -3.077   6.946 -27.947  1.00  0.00    -0.331 N 
HETATM    7  H   UNL     1      -3.577   6.731 -28.808  1.00  0.00     0.168 HD
HETATM    8  S   UNL     1      -5.282   5.926 -27.066  1.00  0.00    -0.040 SA
BRANCH   6   9
HETATM    9  C   UNL     1      -1.720   7.265 -28.177  1.00  0.00     0.061 A 
HETATM   10  C   UNL     1      -1.304   7.314 -29.542  1.00  0.00     0.057 A 
HETATM   11  C   UNL     1       0.067   7.474 -29.799  1.00  0.00     0.031 A 
HETATM   12  C   UNL     1       0.989   7.625 -28.760  1.00  0.00     0.002 A 
HETATM   13  C   UNL     1       0.563   7.590 -27.439  1.00  0.00     0.002 A 
HETATM   14  C   UNL     1      -0.785   7.396 -27.145  1.00  0.00     0.032 A 
BRANCH  10  15
HETATM   15  N   UNL     1      -2.258   7.193 -30.573  1.00  0.00    -0.376 N 
HETATM   16  C   UNL     1      -2.747   5.856 -30.969  1.00  0.00     0.150 C 
HETATM   17  C   UNL     1      -1.976   5.259 -32.168  1.00  0.00     0.254 C 
HETATM   18  N   UNL     1      -1.877   6.260 -33.316  1.00  0.00    -0.072 N 
HETATM   19  C   UNL     1      -1.125   5.702 -34.487  1.00  0.00     0.269 C 
HETATM   20  H   UNL     1      -2.837   6.458 -33.626  1.00  0.00     0.279 HD
HETATM   21  C   UNL     1      -1.278   7.581 -32.837  1.00  0.00     0.254 C 
HETATM   22  C   UNL     1      -2.116   8.162 -31.684  1.00  0.00     0.150 C 
ENDBRANCH  10  15
ENDBRANCH   6   9
ENDBRANCH   1   5
BRANCH   2  23
HETATM   23  C   UNL     1      -2.661   8.723 -23.966  1.00  0.00     0.077 C 
HETATM   24  C   UNL     1      -1.676   9.481 -24.469  1.00  0.00     0.042 C 
BRANCH  24  25
HETATM   25  C   UNL     1      -0.610   9.968 -23.666  1.00  0.00     0.076 A 
HETATM   26  O   UNL     1       0.661   9.435 -23.628  1.00  0.00    -0.310 OA
HETATM   27  C   UNL     1       1.431  10.202 -22.798  1.00  0.00     0.086 A 
HETATM   28  C   UNL     1       0.660  11.203 -22.252  1.00  0.00     0.041 A 
HETATM   29  C   UNL     1      -0.629  11.063 -22.813  1.00  0.00     0.040 A 
BRANCH  27  30
HETATM   30  C   UNL     1       2.841   9.835 -22.676  1.00  0.00     0.001 A 
HETATM   31  C   UNL     1       3.859  10.768 -22.913  1.00  0.00     0.038 A 
HETATM   32  C   UNL     1       5.200  10.412 -22.746  1.00  0.00     0.036 A 
HETATM   33 CL   UNL     1       6.432  11.580 -23.032  1.00  0.00    -0.084 Cl
HETATM   34  C   UNL     1       5.551   9.127 -22.345  1.00  0.00     0.047 A 
HETATM   35  C   UNL     1       4.546   8.194 -22.115  1.00  0.00     0.036 A 
HETATM   36 CL   UNL     1       4.960   6.598 -21.620  1.00  0.00    -0.084 Cl
HETATM   37  C   UNL     1       3.202   8.539 -22.275  1.00  0.00     0.038 A 
ENDBRANCH  27  30
ENDBRANCH  24  25
ENDBRANCH   2  23
TORSDOF 6
ENDMDL
MODEL 10
REMARK VINA RESULT:      -8.5      3.495      4.929
REMARK  6 active torsions:
REMARK  status: ('A' for Active; 'I' for Inactive)
REMARK    1  A    between atoms: N_6  and  C_7 
REMARK    2  A    between atoms: C_8  and  N_9 
REMARK    3  A    between atoms: C_10  and  N_11 
REMARK       I    between atoms: N_11  and  C_12 
REMARK    4  A    between atoms: C_12  and  C_13 
REMARK    5  A    between atoms: C_14  and  C_15 
REMARK    6  A    between atoms: C_17  and  C_18 
ROOT
HETATM    1  N   UNL     1      -3.650   5.446 -31.822  1.00  0.00    -0.300 N 
HETATM    2  C   UNL     1      -3.148   4.157 -31.902  1.00  0.00     0.247 C 
HETATM    3  O   UNL     1      -2.049   3.804 -31.495  1.00  0.00    -0.268 OA
HETATM    4  H   UNL     1      -4.643   5.560 -31.962  1.00  0.00     0.171 HD
ENDROOT
BRANCH   1   5
HETATM    5  C   UNL     1      -2.935   6.619 -31.857  1.00  0.00     0.179 C 
HETATM    6  N   UNL     1      -3.066   7.467 -30.794  1.00  0.00    -0.331 N 
HETATM    7  H   UNL     1      -2.637   8.377 -30.953  1.00  0.00     0.168 HD
HETATM    8  S   UNL     1      -2.002   7.176 -33.131  1.00  0.00    -0.040 SA
BRANCH   6   9
HETATM    9  C   UNL     1      -3.479   7.292 -29.455  1.00  0.00     0.061 A 
HETATM   10  C   UNL     1      -2.470   7.442 -28.456  1.00  0.00     0.057 A 
HETATM   11  C   UNL     1      -2.811   7.124 -27.132  1.00  0.00     0.031 A 
HETATM   12  C   UNL     1      -4.104   6.718 -26.793  1.00  0.00     0.002 A 
HETATM   13  C   UNL     1      -5.078   6.593 -27.776  1.00  0.00     0.002 A 
HETATM   14  C   UNL     1      -4.765   6.864 -29.106  1.00  0.00     0.032 A 
BRANCH  10  15
HETATM   15  N   UNL     1      -1.181   7.886 -28.819  1.00  0.00    -0.376 N 
HETATM   16  C   UNL     1      -0.072   6.915 -28.927  1.00  0.00     0.150 C 
HETATM   17  C   UNL     1       0.771   6.813 -27.636  1.00  0.00     0.254 C 
HETATM   18  N   UNL     1       1.187   8.193 -27.136  1.00  0.00    -0.072 N 
HETATM   19  C   UNL     1       2.002   8.116 -25.880  1.00  0.00     0.269 C 
HETATM   20  H   UNL     1       1.779   8.612 -27.867  1.00  0.00     0.279 HD
HETATM   21  C   UNL     1      -0.029   9.102 -26.967  1.00  0.00     0.254 C 
HETATM   22  C   UNL     1      -0.800   9.217 -28.294  1.00  0.00     0.150 C 
ENDBRANCH  10  15
ENDBRANCH   6   9
ENDBRANCH   1   5
BRANCH   2  23
HETATM   23  C   UNL     1      -4.159   3.165 -32.354  1.00  0.00     0.077 C 
HETATM   24  C   UNL     1      -5.342   3.152 -31.723  1.00  0.00     0.042 C 
BRANCH  24  25
HETATM   25  C   UNL     1      -6.362   2.217 -32.047  1.00  0.00     0.076 A 
HETATM   26  O   UNL     1      -7.615   2.545 -32.522  1.00  0.00    -0.310 OA
HETATM   27  C   UNL     1      -8.298   1.390 -32.784  1.00  0.00     0.086 A 
HETATM   28  C   UNL     1      -7.520   0.309 -32.436  1.00  0.00     0.041 A 
HETATM   29  C   UNL     1      -6.290   0.833 -31.983  1.00  0.00     0.040 A 
BRANCH  27  30
HETATM   30  C   UNL     1      -9.633   1.527 -33.362  1.00  0.00     0.001 A 
HETATM   31  C   UNL     1      -9.975   2.632 -34.153  1.00  0.00     0.038 A 
HETATM   32  C   UNL     1     -11.241   2.723 -34.736  1.00  0.00     0.036 A 
HETATM   33 CL   UNL     1     -11.632   4.086 -35.712  1.00  0.00    -0.084 Cl
HETATM   34  C   UNL     1     -12.188   1.722 -34.542  1.00  0.00     0.047 A 
HETATM   35  C   UNL     1     -11.858   0.625 -33.754  1.00  0.00     0.036 A 
HETATM   36 CL   UNL     1     -13.017  -0.622 -33.500  1.00  0.00    -0.084 Cl
HETATM   37  C   UNL     1     -10.595   0.522 -33.168  1.00  0.00     0.038 A 
ENDBRANCH  27  30
ENDBRANCH  24  25
ENDBRANCH   2  23
TORSDOF 6
ENDMDL
