MODEL 1
REMARK VINA RESULT:      -9.6      0.000      0.000
REMARK  4 active torsions:
REMARK  status: ('A' for Active; 'I' for Inactive)
REMARK    1  A    between atoms: C_3  and  C_4 
REMARK    2  A    between atoms: C_14  and  N_15 
REMARK       I    between atoms: N_15  and  C_16 
REMARK    3  A    between atoms: C_16  and  C_17 
REMARK    4  A    between atoms: C_19  and  N_20 
ROOT
HETATM    1  N   UNL     1      -5.353   0.913 -32.684  1.00  0.00    -0.322 N 
HETATM    2  C   UNL     1      -5.440   1.231 -31.347  1.00  0.00     0.256 C 
HETATM    3  O   UNL     1      -5.796   0.522 -30.417  1.00  0.00    -0.267 OA
HETATM    4  H   UNL     1      -5.083   1.662 -33.315  1.00  0.00     0.169 HD
ENDROOT
BRANCH   1   5
HETATM    5  C   UNL     1      -5.472  -0.376 -33.268  1.00  0.00     0.049 A 
HETATM    6  C   UNL     1      -6.650  -0.714 -33.974  1.00  0.00     0.037 A 
HETATM    7  C   UNL     1      -6.711  -1.929 -34.677  1.00  0.00     0.017 A 
HETATM    8  C   UNL     1      -5.644  -2.824 -34.649  1.00  0.00     0.001 A 
HETATM    9  C   UNL     1      -4.506  -2.514 -33.913  1.00  0.00     0.002 A 
HETATM   10  C   UNL     1      -4.419  -1.298 -33.228  1.00  0.00     0.030 A 
BRANCH   6  11
HETATM   11  C   UNL     1      -7.858   0.114 -33.948  1.00  0.00     0.141 A 
HETATM   12  N   UNL     1      -7.987   1.345 -34.404  1.00  0.00    -0.228 NA
HETATM   13  C   UNL     1      -9.302   1.686 -34.205  1.00  0.00     0.086 A 
HETATM   14  C   UNL     1     -10.005   0.636 -33.626  1.00  0.00     0.062 A 
HETATM   15  C   UNL     1      -9.975   2.880 -34.501  1.00  0.00     0.034 A 
HETATM   16  N   UNL     1      -9.073  -0.358 -33.501  1.00  0.00    -0.338 N 
HETATM   17  C   UNL     1     -11.362   0.703 -33.307  1.00  0.00     0.032 A 
HETATM   18  H   UNL     1      -9.237  -1.293 -33.155  1.00  0.00     0.167 HD
HETATM   19  C   UNL     1     -12.016   1.904 -33.604  1.00  0.00     0.002 A 
HETATM   20  C   UNL     1     -11.339   2.975 -34.193  1.00  0.00     0.002 A 
ENDBRANCH   6  11
ENDBRANCH   1   5
BRANCH   2  21
HETATM   21  C   UNL     1      -5.080   2.632 -31.061  1.00  0.00     0.034 A 
HETATM   22  C   UNL     1      -4.093   3.248 -31.840  1.00  0.00     0.047 A 
HETATM   23  C   UNL     1      -3.719   4.581 -31.609  1.00  0.00     0.046 A 
HETATM   24  C   UNL     1      -4.378   5.252 -30.562  1.00  0.00     0.030 A 
HETATM   25  C   UNL     1      -5.361   4.629 -29.780  1.00  0.00     0.003 A 
HETATM   26  C   UNL     1      -5.717   3.309 -30.026  1.00  0.00     0.017 A 
BRANCH  23  27
HETATM   27  N   UNL     1      -2.705   5.220 -32.398  1.00  0.00    -0.252 N 
HETATM   28  C   UNL     1      -1.370   5.276 -32.057  1.00  0.00     0.231 C 
HETATM   29  O   UNL     1      -0.778   4.727 -31.138  1.00  0.00    -0.273 OA
HETATM   30  C   UNL     1      -0.654   6.168 -33.025  1.00  0.00     0.113 C 
HETATM   31  C   UNL     1      -1.611   6.283 -34.180  1.00  0.00     0.113 C 
HETATM   32  C   UNL     1      -2.926   5.851 -33.604  1.00  0.00     0.231 C 
HETATM   33  O   UNL     1      -3.977   6.057 -34.196  1.00  0.00    -0.273 OA
ENDBRANCH  23  27
ENDBRANCH   2  21
TORSDOF 4
ENDMDL
MODEL 2
REMARK VINA RESULT:      -9.4      2.395      5.097
REMARK  4 active torsions:
REMARK  status: ('A' for Active; 'I' for Inactive)
REMARK    1  A    between atoms: C_3  and  C_4 
REMARK    2  A    between atoms: C_14  and  N_15 
REMARK       I    between atoms: N_15  and  C_16 
REMARK    3  A    between atoms: C_16  and  C_17 
REMARK    4  A    between atoms: C_19  and  N_20 
ROOT
HETATM    1  N   UNL     1      -5.842   4.293 -32.126  1.00  0.00    -0.322 N 
HETATM    2  C   UNL     1      -5.480   4.864 -33.326  1.00  0.00     0.256 C 
HETATM    3  O   UNL     1      -6.185   5.121 -34.291  1.00  0.00    -0.267 OA
HETATM    4  H   UNL     1      -5.095   4.112 -31.463  1.00  0.00     0.169 HD
ENDROOT
BRANCH   1   5
HETATM    5  C   UNL     1      -7.160   4.048 -31.657  1.00  0.00     0.049 A 
HETATM    6  C   UNL     1      -7.654   2.723 -31.629  1.00  0.00     0.037 A 
HETATM    7  C   UNL     1      -8.897   2.460 -31.028  1.00  0.00     0.017 A 
HETATM    8  C   UNL     1      -9.668   3.493 -30.503  1.00  0.00     0.001 A 
HETATM    9  C   UNL     1      -9.206   4.803 -30.576  1.00  0.00     0.002 A 
HETATM   10  C   UNL     1      -7.960   5.079 -31.148  1.00  0.00     0.030 A 
BRANCH   6  11
HETATM   11  C   UNL     1      -6.962   1.603 -32.271  1.00  0.00     0.141 A 
HETATM   12  N   UNL     1      -5.680   1.304 -32.179  1.00  0.00    -0.228 NA
HETATM   13  C   UNL     1      -5.508   0.152 -32.907  1.00  0.00     0.086 A 
HETATM   14  C   UNL     1      -6.713  -0.277 -33.450  1.00  0.00     0.062 A 
HETATM   15  C   UNL     1      -4.345  -0.593 -33.147  1.00  0.00     0.034 A 
HETATM   16  N   UNL     1      -7.623   0.644 -33.007  1.00  0.00    -0.338 N 
HETATM   17  C   UNL     1      -6.836  -1.420 -34.241  1.00  0.00     0.032 A 
HETATM   18  H   UNL     1      -8.620   0.628 -33.171  1.00  0.00     0.167 HD
HETATM   19  C   UNL     1      -5.664  -2.148 -34.475  1.00  0.00     0.002 A 
HETATM   20  C   UNL     1      -4.439  -1.747 -33.937  1.00  0.00     0.002 A 
ENDBRANCH   6  11
ENDBRANCH   1   5
BRANCH   2  21
HETATM   21  C   UNL     1      -4.037   5.149 -33.419  1.00  0.00     0.034 A 
HETATM   22  C   UNL     1      -3.357   5.570 -32.269  1.00  0.00     0.047 A 
HETATM   23  C   UNL     1      -1.982   5.850 -32.306  1.00  0.00     0.046 A 
HETATM   24  C   UNL     1      -1.335   5.690 -33.546  1.00  0.00     0.030 A 
HETATM   25  C   UNL     1      -2.022   5.274 -34.696  1.00  0.00     0.003 A 
HETATM   26  C   UNL     1      -3.383   5.002 -34.638  1.00  0.00     0.017 A 
BRANCH  23  27
HETATM   27  N   UNL     1      -1.276   6.287 -31.136  1.00  0.00    -0.252 N 
HETATM   28  C   UNL     1      -0.479   5.475 -30.356  1.00  0.00     0.231 C 
HETATM   29  O   UNL     1      -0.125   4.319 -30.544  1.00  0.00    -0.273 OA
HETATM   30  C   UNL     1      -0.054   6.233 -29.135  1.00  0.00     0.113 C 
HETATM   31  C   UNL     1      -0.336   7.667 -29.489  1.00  0.00     0.113 C 
HETATM   32  C   UNL     1      -1.288   7.575 -30.644  1.00  0.00     0.231 C 
HETATM   33  O   UNL     1      -1.919   8.551 -31.027  1.00  0.00    -0.273 OA
ENDBRANCH  23  27
ENDBRANCH   2  21
TORSDOF 4
ENDMDL
MODEL 3
REMARK VINA RESULT:      -9.2      3.165      7.201
REMARK  4 active torsions:
REMARK  status: ('A' for Active; 'I' for Inactive)
REMARK    1  A    between atoms: C_3  and  C_4 
REMARK    2  A    between atoms: C_14  and  N_15 
REMARK       I    between atoms: N_15  and  C_16 
REMARK    3  A    between atoms: C_16  and  C_17 
REMARK    4  A    between atoms: C_19  and  N_20 
ROOT
HETATM    1  N   UNL     1      -3.669   3.556 -32.926  1.00  0.00    -0.322 N 
HETATM    2  C   UNL     1      -3.396   2.686 -31.894  1.00  0.00     0.256 C 
HETATM    3  O   UNL     1      -2.451   2.696 -31.119  1.00  0.00    -0.267 OA
HETATM    4  H   UNL     1      -4.485   3.349 -33.495  1.00  0.00     0.169 HD
ENDROOT
BRANCH   1   5
HETATM    5  C   UNL     1      -3.013   4.784 -33.207  1.00  0.00     0.049 A 
HETATM    6  C   UNL     1      -3.324   5.931 -32.440  1.00  0.00     0.037 A 
HETATM    7  C   UNL     1      -2.572   7.105 -32.615  1.00  0.00     0.017 A 
HETATM    8  C   UNL     1      -1.557   7.167 -33.565  1.00  0.00     0.001 A 
HETATM    9  C   UNL     1      -1.284   6.056 -34.355  1.00  0.00     0.002 A 
HETATM   10  C   UNL     1      -2.006   4.871 -34.177  1.00  0.00     0.030 A 
BRANCH   6  11
HETATM   11  C   UNL     1      -4.456   5.984 -31.513  1.00  0.00     0.141 A 
HETATM   12  N   UNL     1      -5.731   6.118 -31.823  1.00  0.00    -0.228 NA
HETATM   13  C   UNL     1      -6.417   6.067 -30.634  1.00  0.00     0.086 A 
HETATM   14  C   UNL     1      -5.547   5.884 -29.567  1.00  0.00     0.062 A 
HETATM   15  C   UNL     1      -7.793   6.165 -30.387  1.00  0.00     0.034 A 
HETATM   16  N   UNL     1      -4.313   5.805 -30.154  1.00  0.00    -0.338 N 
HETATM   17  C   UNL     1      -5.967   5.800 -28.239  1.00  0.00     0.032 A 
HETATM   18  H   UNL     1      -3.436   5.629 -29.684  1.00  0.00     0.167 HD
HETATM   19  C   UNL     1      -7.343   5.905 -28.009  1.00  0.00     0.002 A 
HETATM   20  C   UNL     1      -8.244   6.082 -29.063  1.00  0.00     0.002 A 
ENDBRANCH   6  11
ENDBRANCH   1   5
BRANCH   2  21
HETATM   21  C   UNL     1      -4.387   1.601 -31.776  1.00  0.00     0.034 A 
HETATM   22  C   UNL     1      -4.283   0.496 -32.629  1.00  0.00     0.047 A 
HETATM   23  C   UNL     1      -5.200  -0.564 -32.553  1.00  0.00     0.046 A 
HETATM   24  C   UNL     1      -6.218  -0.454 -31.587  1.00  0.00     0.030 A 
HETATM   25  C   UNL     1      -6.321   0.659 -30.737  1.00  0.00     0.003 A 
HETATM   26  C   UNL     1      -5.403   1.696 -30.830  1.00  0.00     0.017 A 
BRANCH  23  27
HETATM   27  N   UNL     1      -5.107  -1.698 -33.426  1.00  0.00    -0.252 N 
HETATM   28  C   UNL     1      -4.156  -2.691 -33.318  1.00  0.00     0.231 C 
HETATM   29  O   UNL     1      -3.320  -2.876 -32.444  1.00  0.00    -0.273 OA
HETATM   30  C   UNL     1      -4.266  -3.606 -34.500  1.00  0.00     0.113 C 
HETATM   31  C   UNL     1      -5.621  -3.289 -35.072  1.00  0.00     0.113 C 
HETATM   32  C   UNL     1      -5.961  -1.955 -34.479  1.00  0.00     0.231 C 
HETATM   33  O   UNL     1      -6.882  -1.280 -34.919  1.00  0.00    -0.273 OA
ENDBRANCH  23  27
ENDBRANCH   2  21
TORSDOF 4
ENDMDL
MODEL 4
REMARK VINA RESULT:      -9.1      1.975      4.978
REMARK  4 active torsions:
REMARK  status: ('A' for Active; 'I' for Inactive)
REMARK    1  A    between atoms: C_3  and  C_4 
REMARK    2  A    between atoms: C_14  and  N_15 
REMARK       I    between atoms: N_15  and  C_16 
REMARK    3  A    between atoms: C_16  and  C_17 
REMARK    4  A    between atoms: C_19  and  N_20 
ROOT
HETATM    1  N   UNL     1      -7.288   4.372 -33.843  1.00  0.00    -0.322 N 
HETATM    2  C   UNL     1      -6.439   4.947 -32.922  1.00  0.00     0.256 C 
HETATM    3  O   UNL     1      -6.691   5.327 -31.789  1.00  0.00    -0.267 OA
HETATM    4  H   UNL     1      -6.899   4.170 -34.759  1.00  0.00     0.169 HD
ENDROOT
BRANCH   1   5
HETATM    5  C   UNL     1      -8.612   3.911 -33.617  1.00  0.00     0.049 A 
HETATM    6  C   UNL     1      -8.833   2.542 -33.336  1.00  0.00     0.037 A 
HETATM    7  C   UNL     1     -10.118   2.111 -32.965  1.00  0.00     0.017 A 
HETATM    8  C   UNL     1     -11.184   3.005 -32.915  1.00  0.00     0.001 A 
HETATM    9  C   UNL     1     -10.977   4.341 -33.239  1.00  0.00     0.002 A 
HETATM   10  C   UNL     1      -9.700   4.792 -33.587  1.00  0.00     0.030 A 
BRANCH   6  11
HETATM   11  C   UNL     1      -7.795   1.521 -33.490  1.00  0.00     0.141 A 
HETATM   12  N   UNL     1      -6.609   1.503 -32.913  1.00  0.00    -0.228 NA
HETATM   13  C   UNL     1      -6.010   0.334 -33.318  1.00  0.00     0.086 A 
HETATM   14  C   UNL     1      -6.851  -0.391 -34.152  1.00  0.00     0.062 A 
HETATM   15  C   UNL     1      -4.743  -0.180 -33.007  1.00  0.00     0.034 A 
HETATM   16  N   UNL     1      -7.987   0.369 -34.221  1.00  0.00    -0.338 N 
HETATM   17  C   UNL     1      -6.502  -1.619 -34.717  1.00  0.00     0.032 A 
HETATM   18  H   UNL     1      -8.839   0.131 -34.710  1.00  0.00     0.167 HD
HETATM   19  C   UNL     1      -5.231  -2.114 -34.401  1.00  0.00     0.002 A 
HETATM   20  C   UNL     1      -4.366  -1.412 -33.559  1.00  0.00     0.002 A 
ENDBRANCH   6  11
ENDBRANCH   1   5
BRANCH   2  21
HETATM   21  C   UNL     1      -5.071   5.137 -33.437  1.00  0.00     0.034 A 
HETATM   22  C   UNL     1      -4.065   5.537 -32.550  1.00  0.00     0.047 A 
HETATM   23  C   UNL     1      -2.747   5.728 -32.991  1.00  0.00     0.046 A 
HETATM   24  C   UNL     1      -2.497   5.501 -34.358  1.00  0.00     0.030 A 
HETATM   25  C   UNL     1      -3.510   5.105 -35.245  1.00  0.00     0.003 A 
HETATM   26  C   UNL     1      -4.808   4.922 -34.787  1.00  0.00     0.017 A 
BRANCH  23  27
HETATM   27  N   UNL     1      -1.709   6.143 -32.092  1.00  0.00    -0.252 N 
HETATM   28  C   UNL     1      -1.222   7.431 -32.003  1.00  0.00     0.231 C 
HETATM   29  O   UNL     1      -1.623   8.453 -32.542  1.00  0.00    -0.273 OA
HETATM   30  C   UNL     1      -0.036   7.444 -31.088  1.00  0.00     0.113 C 
HETATM   31  C   UNL     1      -0.142   6.139 -30.347  1.00  0.00     0.113 C 
HETATM   32  C   UNL     1      -1.070   5.318 -31.190  1.00  0.00     0.231 C 
HETATM   33  O   UNL     1      -1.186   4.112 -31.018  1.00  0.00    -0.273 OA
ENDBRANCH  23  27
ENDBRANCH   2  21
TORSDOF 4
ENDMDL
MODEL 5
REMARK VINA RESULT:      -9.0      1.644      2.216
REMARK  4 active torsions:
REMARK  status: ('A' for Active; 'I' for Inactive)
REMARK    1  A    between atoms: C_3  and  C_4 
REMARK    2  A    between atoms: C_14  and  N_15 
REMARK       I    between atoms: N_15  and  C_16 
REMARK    3  A    between atoms: C_16  and  C_17 
REMARK    4  A    between atoms: C_19  and  N_20 
ROOT
HETATM    1  N   UNL     1      -5.053   1.263 -33.264  1.00  0.00    -0.322 N 
HETATM    2  C   UNL     1      -4.193   1.754 -32.306  1.00  0.00     0.256 C 
HETATM    3  O   UNL     1      -3.610   1.144 -31.422  1.00  0.00    -0.267 OA
HETATM    4  H   UNL     1      -5.481   1.943 -33.885  1.00  0.00     0.169 HD
ENDROOT
BRANCH   1   5
HETATM    5  C   UNL     1      -5.311  -0.100 -33.566  1.00  0.00     0.049 A 
HETATM    6  C   UNL     1      -6.599  -0.484 -34.007  1.00  0.00     0.037 A 
HETATM    7  C   UNL     1      -6.816  -1.801 -34.448  1.00  0.00     0.017 A 
HETATM    8  C   UNL     1      -5.791  -2.743 -34.412  1.00  0.00     0.001 A 
HETATM    9  C   UNL     1      -4.538  -2.379 -33.932  1.00  0.00     0.002 A 
HETATM   10  C   UNL     1      -4.299  -1.067 -33.512  1.00  0.00     0.030 A 
BRANCH   6  11
HETATM   11  C   UNL     1      -7.757   0.412 -33.955  1.00  0.00     0.141 A 
HETATM   12  N   UNL     1      -7.781   1.695 -34.259  1.00  0.00    -0.228 NA
HETATM   13  C   UNL     1      -9.087   2.094 -34.104  1.00  0.00     0.086 A 
HETATM   14  C   UNL     1      -9.888   1.030 -33.710  1.00  0.00     0.062 A 
HETATM   15  C   UNL     1      -9.667   3.357 -34.290  1.00  0.00     0.034 A 
HETATM   16  N   UNL     1      -9.026  -0.031 -33.652  1.00  0.00    -0.338 N 
HETATM   17  C   UNL     1     -11.259   1.146 -33.475  1.00  0.00     0.032 A 
HETATM   18  H   UNL     1      -9.268  -0.989 -33.439  1.00  0.00     0.167 HD
HETATM   19  C   UNL     1     -11.820   2.415 -33.660  1.00  0.00     0.002 A 
HETATM   20  C   UNL     1     -11.042   3.503 -34.063  1.00  0.00     0.002 A 
ENDBRANCH   6  11
ENDBRANCH   1   5
BRANCH   2  21
HETATM   21  C   UNL     1      -4.016   3.215 -32.382  1.00  0.00     0.034 A 
HETATM   22  C   UNL     1      -3.054   3.822 -31.567  1.00  0.00     0.047 A 
HETATM   23  C   UNL     1      -2.846   5.210 -31.606  1.00  0.00     0.046 A 
HETATM   24  C   UNL     1      -3.651   5.947 -32.495  1.00  0.00     0.030 A 
HETATM   25  C   UNL     1      -4.618   5.334 -33.306  1.00  0.00     0.003 A 
HETATM   26  C   UNL     1      -4.807   3.960 -33.252  1.00  0.00     0.017 A 
BRANCH  23  27
HETATM   27  N   UNL     1      -1.867   5.844 -30.771  1.00  0.00    -0.252 N 
HETATM   28  C   UNL     1      -2.155   6.788 -29.808  1.00  0.00     0.231 C 
HETATM   29  O   UNL     1      -3.241   7.174 -29.397  1.00  0.00    -0.273 OA
HETATM   30  C   UNL     1      -0.873   7.344 -29.267  1.00  0.00     0.113 C 
HETATM   31  C   UNL     1       0.163   6.346 -29.708  1.00  0.00     0.113 C 
HETATM   32  C   UNL     1      -0.512   5.586 -30.810  1.00  0.00     0.231 C 
HETATM   33  O   UNL     1       0.123   4.862 -31.565  1.00  0.00    -0.273 OA
ENDBRANCH  23  27
ENDBRANCH   2  21
TORSDOF 4
ENDMDL
MODEL 6
REMARK VINA RESULT:      -8.9      2.082      7.133
REMARK  4 active torsions:
REMARK  status: ('A' for Active; 'I' for Inactive)
REMARK    1  A    between atoms: C_3  and  C_4 
REMARK    2  A    between atoms: C_14  and  N_15 
REMARK       I    between atoms: N_15  and  C_16 
REMARK    3  A    between atoms: C_16  and  C_17 
REMARK    4  A    between atoms: C_19  and  N_20 
ROOT
HETATM    1  N   UNL     1      -3.544   3.554 -33.133  1.00  0.00    -0.322 N 
HETATM    2  C   UNL     1      -3.378   2.661 -32.097  1.00  0.00     0.256 C 
HETATM    3  O   UNL     1      -2.540   2.673 -31.208  1.00  0.00    -0.267 OA
HETATM    4  H   UNL     1      -4.274   3.342 -33.807  1.00  0.00     0.169 HD
ENDROOT
BRANCH   1   5
HETATM    5  C   UNL     1      -2.895   4.807 -33.296  1.00  0.00     0.049 A 
HETATM    6  C   UNL     1      -3.227   5.880 -32.437  1.00  0.00     0.037 A 
HETATM    7  C   UNL     1      -2.483   7.071 -32.497  1.00  0.00     0.017 A 
HETATM    8  C   UNL     1      -1.455   7.223 -33.423  1.00  0.00     0.001 A 
HETATM    9  C   UNL     1      -1.160   6.187 -34.302  1.00  0.00     0.002 A 
HETATM   10  C   UNL     1      -1.875   4.986 -34.239  1.00  0.00     0.030 A 
BRANCH   6  11
HETATM   11  C   UNL     1      -4.373   5.843 -31.526  1.00  0.00     0.141 A 
HETATM   12  N   UNL     1      -5.650   5.812 -31.857  1.00  0.00    -0.228 NA
HETATM   13  C   UNL     1      -6.345   5.737 -30.675  1.00  0.00     0.086 A 
HETATM   14  C   UNL     1      -5.477   5.707 -29.590  1.00  0.00     0.062 A 
HETATM   15  C   UNL     1      -7.728   5.685 -30.448  1.00  0.00     0.034 A 
HETATM   16  N   UNL     1      -4.233   5.746 -30.159  1.00  0.00    -0.338 N 
HETATM   17  C   UNL     1      -5.907   5.636 -28.264  1.00  0.00     0.032 A 
HETATM   18  H   UNL     1      -3.350   5.696 -29.671  1.00  0.00     0.167 HD
HETATM   19  C   UNL     1      -7.290   5.590 -28.056  1.00  0.00     0.002 A 
HETATM   20  C   UNL     1      -8.188   5.611 -29.126  1.00  0.00     0.002 A 
ENDBRANCH   6  11
ENDBRANCH   1   5
BRANCH   2  21
HETATM   21  C   UNL     1      -4.342   1.547 -32.135  1.00  0.00     0.034 A 
HETATM   22  C   UNL     1      -5.655   1.804 -32.549  1.00  0.00     0.047 A 
HETATM   23  C   UNL     1      -6.608   0.775 -32.606  1.00  0.00     0.046 A 
HETATM   24  C   UNL     1      -6.179  -0.510 -32.224  1.00  0.00     0.030 A 
HETATM   25  C   UNL     1      -4.863  -0.761 -31.803  1.00  0.00     0.003 A 
HETATM   26  C   UNL     1      -3.936   0.271 -31.755  1.00  0.00     0.017 A 
BRANCH  23  27
HETATM   27  N   UNL     1      -7.957   1.027 -33.023  1.00  0.00    -0.252 N 
HETATM   28  C   UNL     1      -8.932   1.584 -32.221  1.00  0.00     0.231 C 
HETATM   29  O   UNL     1      -8.837   2.064 -31.100  1.00  0.00    -0.273 OA
HETATM   30  C   UNL     1     -10.246   1.531 -32.939  1.00  0.00     0.113 C 
HETATM   31  C   UNL     1      -9.861   1.276 -34.370  1.00  0.00     0.113 C 
HETATM   32  C   UNL     1      -8.456   0.761 -34.281  1.00  0.00     0.231 C 
HETATM   33  O   UNL     1      -7.916   0.219 -35.236  1.00  0.00    -0.273 OA
ENDBRANCH  23  27
ENDBRANCH   2  21
TORSDOF 4
ENDMDL
MODEL 7
REMARK VINA RESULT:      -8.9      1.612      2.073
REMARK  4 active torsions:
REMARK  status: ('A' for Active; 'I' for Inactive)
REMARK    1  A    between atoms: C_3  and  C_4 
REMARK    2  A    between atoms: C_14  and  N_15 
REMARK       I    between atoms: N_15  and  C_16 
REMARK    3  A    between atoms: C_16  and  C_17 
REMARK    4  A    between atoms: C_19  and  N_20 
ROOT
HETATM    1  N   UNL     1      -5.651   1.814 -33.113  1.00  0.00    -0.322 N 
HETATM    2  C   UNL     1      -5.260   2.317 -31.891  1.00  0.00     0.256 C 
HETATM    3  O   UNL     1      -5.164   1.732 -30.822  1.00  0.00    -0.267 OA
HETATM    4  H   UNL     1      -5.717   2.477 -33.879  1.00  0.00     0.169 HD
ENDROOT
BRANCH   1   5
HETATM    5  C   UNL     1      -5.847   0.450 -33.454  1.00  0.00     0.049 A 
HETATM    6  C   UNL     1      -7.138   0.004 -33.824  1.00  0.00     0.037 A 
HETATM    7  C   UNL     1      -7.306  -1.306 -34.305  1.00  0.00     0.017 A 
HETATM    8  C   UNL     1      -6.227  -2.183 -34.378  1.00  0.00     0.001 A 
HETATM    9  C   UNL     1      -4.968  -1.761 -33.967  1.00  0.00     0.002 A 
HETATM   10  C   UNL     1      -4.779  -0.453 -33.509  1.00  0.00     0.030 A 
BRANCH   6  11
HETATM   11  C   UNL     1      -8.340   0.823 -33.657  1.00  0.00     0.141 A 
HETATM   12  N   UNL     1      -8.644   1.587 -32.625  1.00  0.00    -0.228 NA
HETATM   13  C   UNL     1      -9.836   2.191 -32.941  1.00  0.00     0.086 A 
HETATM   14  C   UNL     1     -10.272   1.803 -34.201  1.00  0.00     0.062 A 
HETATM   15  C   UNL     1     -10.609   3.095 -32.197  1.00  0.00     0.034 A 
HETATM   16  N   UNL     1      -9.290   0.959 -34.646  1.00  0.00    -0.338 N 
HETATM   17  C   UNL     1     -11.457   2.259 -34.779  1.00  0.00     0.032 A 
HETATM   18  H   UNL     1      -9.248   0.514 -35.552  1.00  0.00     0.167 HD
HETATM   19  C   UNL     1     -12.219   3.155 -34.021  1.00  0.00     0.002 A 
HETATM   20  C   UNL     1     -11.804   3.571 -32.753  1.00  0.00     0.002 A 
ENDBRANCH   6  11
ENDBRANCH   1   5
BRANCH   2  21
HETATM   21  C   UNL     1      -4.965   3.760 -31.927  1.00  0.00     0.034 A 
HETATM   22  C   UNL     1      -3.681   4.197 -31.581  1.00  0.00     0.047 A 
HETATM   23  C   UNL     1      -3.351   5.561 -31.604  1.00  0.00     0.046 A 
HETATM   24  C   UNL     1      -4.370   6.453 -31.985  1.00  0.00     0.030 A 
HETATM   25  C   UNL     1      -5.658   6.012 -32.325  1.00  0.00     0.003 A 
HETATM   26  C   UNL     1      -5.963   4.658 -32.296  1.00  0.00     0.017 A 
BRANCH  23  27
HETATM   27  N   UNL     1      -2.040   6.019 -31.246  1.00  0.00    -0.252 N 
HETATM   28  C   UNL     1      -0.916   5.864 -32.031  1.00  0.00     0.231 C 
HETATM   29  O   UNL     1      -0.820   5.444 -33.176  1.00  0.00    -0.273 OA
HETATM   30  C   UNL     1       0.288   6.308 -31.258  1.00  0.00     0.113 C 
HETATM   31  C   UNL     1      -0.292   7.109 -30.124  1.00  0.00     0.113 C 
HETATM   32  C   UNL     1      -1.729   6.685 -30.079  1.00  0.00     0.231 C 
HETATM   33  O   UNL     1      -2.440   6.952 -29.119  1.00  0.00    -0.273 OA
ENDBRANCH  23  27
ENDBRANCH   2  21
TORSDOF 4
ENDMDL
MODEL 8
REMARK VINA RESULT:      -8.8      3.647      8.666
REMARK  4 active torsions:
REMARK  status: ('A' for Active; 'I' for Inactive)
REMARK    1  A    between atoms: C_3  and  C_4 
REMARK    2  A    between atoms: C_14  and  N_15 
REMARK       I    between atoms: N_15  and  C_16 
REMARK    3  A    between atoms: C_16  and  C_17 
REMARK    4  A    between atoms: C_19  and  N_20 
ROOT
HETATM    1  N   UNL     1      -2.630   6.669 -28.070  1.00  0.00    -0.322 N 
HETATM    2  C   UNL     1      -3.738   7.454 -28.306  1.00  0.00     0.256 C 
HETATM    3  O   UNL     1      -3.838   8.670 -28.236  1.00  0.00    -0.267 OA
HETATM    4  H   UNL     1      -2.761   5.664 -28.130  1.00  0.00     0.169 HD
ENDROOT
BRANCH   1   5
HETATM    5  C   UNL     1      -1.294   7.109 -27.879  1.00  0.00     0.049 A 
HETATM    6  C   UNL     1      -0.424   7.198 -28.991  1.00  0.00     0.037 A 
HETATM    7  C   UNL     1       0.848   7.774 -28.830  1.00  0.00     0.017 A 
HETATM    8  C   UNL     1       1.279   8.214 -27.582  1.00  0.00     0.001 A 
HETATM    9  C   UNL     1       0.444   8.080 -26.479  1.00  0.00     0.002 A 
HETATM   10  C   UNL     1      -0.834   7.533 -26.626  1.00  0.00     0.030 A 
BRANCH   6  11
HETATM   11  C   UNL     1      -0.755   6.644 -30.306  1.00  0.00     0.141 A 
HETATM   12  N   UNL     1      -1.375   5.507 -30.554  1.00  0.00    -0.228 NA
HETATM   13  C   UNL     1      -1.502   5.437 -31.920  1.00  0.00     0.086 A 
HETATM   14  C   UNL     1      -0.960   6.562 -32.527  1.00  0.00     0.062 A 
HETATM   15  C   UNL     1      -2.077   4.437 -32.718  1.00  0.00     0.034 A 
HETATM   16  N   UNL     1      -0.520   7.325 -31.480  1.00  0.00    -0.338 N 
HETATM   17  C   UNL     1      -0.945   6.758 -33.909  1.00  0.00     0.032 A 
HETATM   18  H   UNL     1      -0.105   8.244 -31.541  1.00  0.00     0.167 HD
HETATM   19  C   UNL     1      -1.519   5.748 -34.691  1.00  0.00     0.002 A 
HETATM   20  C   UNL     1      -2.079   4.608 -34.109  1.00  0.00     0.002 A 
ENDBRANCH   6  11
ENDBRANCH   1   5
BRANCH   2  21
HETATM   21  C   UNL     1      -4.939   6.671 -28.648  1.00  0.00     0.034 A 
HETATM   22  C   UNL     1      -4.917   5.869 -29.795  1.00  0.00     0.047 A 
HETATM   23  C   UNL     1      -6.035   5.103 -30.161  1.00  0.00     0.046 A 
HETATM   24  C   UNL     1      -7.163   5.187 -29.324  1.00  0.00     0.030 A 
HETATM   25  C   UNL     1      -7.182   5.997 -28.178  1.00  0.00     0.003 A 
HETATM   26  C   UNL     1      -6.065   6.747 -27.835  1.00  0.00     0.017 A 
BRANCH  23  27
HETATM   27  N   UNL     1      -6.026   4.282 -31.337  1.00  0.00    -0.252 N 
HETATM   28  C   UNL     1      -5.785   2.923 -31.340  1.00  0.00     0.231 C 
HETATM   29  O   UNL     1      -5.657   2.154 -30.398  1.00  0.00    -0.273 OA
HETATM   30  C   UNL     1      -5.686   2.447 -32.757  1.00  0.00     0.113 C 
HETATM   31  C   UNL     1      -6.298   3.566 -33.555  1.00  0.00     0.113 C 
HETATM   32  C   UNL     1      -6.271   4.735 -32.617  1.00  0.00     0.231 C 
HETATM   33  O   UNL     1      -6.464   5.875 -33.017  1.00  0.00    -0.273 OA
ENDBRANCH  23  27
ENDBRANCH   2  21
TORSDOF 4
ENDMDL
MODEL 9
REMARK VINA RESULT:      -8.7      2.062      4.799
REMARK  4 active torsions:
REMARK  status: ('A' for Active; 'I' for Inactive)
REMARK    1  A    between atoms: C_3  and  C_4 
REMARK    2  A    between atoms: C_14  and  N_15 
REMARK       I    between atoms: N_15  and  C_16 
REMARK    3  A    between atoms: C_16  and  C_17 
REMARK    4  A    between atoms: C_19  and  N_20 
ROOT
HETATM    1  N   UNL     1      -6.973   2.743 -32.908  1.00  0.00    -0.322 N 
HETATM    2  C   UNL     1      -6.366   3.886 -33.379  1.00  0.00     0.256 C 
HETATM    3  O   UNL     1      -6.772   4.671 -34.224  1.00  0.00    -0.267 OA
HETATM    4  H   UNL     1      -6.449   2.191 -32.236  1.00  0.00     0.169 HD
ENDROOT
BRANCH   1   5
HETATM    5  C   UNL     1      -8.304   2.315 -33.157  1.00  0.00     0.049 A 
HETATM    6  C   UNL     1      -8.570   0.938 -33.344  1.00  0.00     0.037 A 
HETATM    7  C   UNL     1      -9.901   0.497 -33.440  1.00  0.00     0.017 A 
HETATM    8  C   UNL     1     -10.957   1.403 -33.401  1.00  0.00     0.001 A 
HETATM    9  C   UNL     1     -10.694   2.762 -33.268  1.00  0.00     0.002 A 
HETATM   10  C   UNL     1      -9.377   3.215 -33.145  1.00  0.00     0.030 A 
BRANCH   6  11
HETATM   11  C   UNL     1      -7.512  -0.058 -33.521  1.00  0.00     0.141 A 
HETATM   12  N   UNL     1      -6.336  -0.083 -32.924  1.00  0.00    -0.228 NA
HETATM   13  C   UNL     1      -5.711  -1.223 -33.368  1.00  0.00     0.086 A 
HETATM   14  C   UNL     1      -6.524  -1.924 -34.249  1.00  0.00     0.062 A 
HETATM   15  C   UNL     1      -4.441  -1.730 -33.056  1.00  0.00     0.034 A 
HETATM   16  N   UNL     1      -7.671  -1.180 -34.306  1.00  0.00    -0.338 N 
HETATM   17  C   UNL     1      -6.144  -3.120 -34.860  1.00  0.00     0.032 A 
HETATM   18  H   UNL     1      -8.510  -1.410 -34.820  1.00  0.00     0.167 HD
HETATM   19  C   UNL     1      -4.872  -3.609 -34.541  1.00  0.00     0.002 A 
HETATM   20  C   UNL     1      -4.034  -2.930 -33.653  1.00  0.00     0.002 A 
ENDBRANCH   6  11
ENDBRANCH   1   5
BRANCH   2  21
HETATM   21  C   UNL     1      -5.042   4.127 -32.779  1.00  0.00     0.034 A 
HETATM   22  C   UNL     1      -4.692   5.433 -32.415  1.00  0.00     0.047 A 
HETATM   23  C   UNL     1      -3.444   5.712 -31.837  1.00  0.00     0.046 A 
HETATM   24  C   UNL     1      -2.575   4.622 -31.648  1.00  0.00     0.030 A 
HETATM   25  C   UNL     1      -2.927   3.315 -32.020  1.00  0.00     0.003 A 
HETATM   26  C   UNL     1      -4.167   3.061 -32.591  1.00  0.00     0.017 A 
BRANCH  23  27
HETATM   27  N   UNL     1      -3.073   7.047 -31.466  1.00  0.00    -0.252 N 
HETATM   28  C   UNL     1      -2.321   7.896 -32.252  1.00  0.00     0.231 C 
HETATM   29  O   UNL     1      -1.938   7.753 -33.405  1.00  0.00    -0.273 OA
HETATM   30  C   UNL     1      -1.992   9.128 -31.466  1.00  0.00     0.113 C 
HETATM   31  C   UNL     1      -2.962   9.089 -30.317  1.00  0.00     0.113 C 
HETATM   32  C   UNL     1      -3.428   7.665 -30.284  1.00  0.00     0.231 C 
HETATM   33  O   UNL     1      -4.035   7.216 -29.321  1.00  0.00    -0.273 OA
ENDBRANCH  23  27
ENDBRANCH   2  21
TORSDOF 4
ENDMDL
MODEL 10
REMARK VINA RESULT:      -8.7      1.814      4.655
REMARK  4 active torsions:
REMARK  status: ('A' for Active; 'I' for Inactive)
REMARK    1  A    between atoms: C_3  and  C_4 
REMARK    2  A    between atoms: C_14  and  N_15 
REMARK       I    between atoms: N_15  and  C_16 
REMARK    3  A    between atoms: C_16  and  C_17 
REMARK    4  A    between atoms: C_19  and  N_20 
ROOT
HETATM    1  N   UNL     1      -8.337   3.761 -32.586  1.00  0.00    -0.322 N 
HETATM    2  C   UNL     1      -7.354   4.609 -33.048  1.00  0.00     0.256 C 
HETATM    3  O   UNL     1      -7.146   4.981 -34.193  1.00  0.00    -0.267 OA
HETATM    4  H   UNL     1      -8.314   3.530 -31.597  1.00  0.00     0.169 HD
ENDROOT
BRANCH   1   5
HETATM    5  C   UNL     1      -9.457   3.274 -33.310  1.00  0.00     0.049 A 
HETATM    6  C   UNL     1      -9.488   1.919 -33.717  1.00  0.00     0.037 A 
HETATM    7  C   UNL     1     -10.656   1.398 -34.299  1.00  0.00     0.017 A 
HETATM    8  C   UNL     1     -11.765   2.210 -34.523  1.00  0.00     0.001 A 
HETATM    9  C   UNL     1     -11.717   3.553 -34.169  1.00  0.00     0.002 A 
HETATM   10  C   UNL     1     -10.572   4.082 -33.566  1.00  0.00     0.030 A 
BRANCH   6  11
HETATM   11  C   UNL     1      -8.322   1.037 -33.631  1.00  0.00     0.141 A 
HETATM   12  N   UNL     1      -7.429   0.994 -32.662  1.00  0.00    -0.228 NA
HETATM   13  C   UNL     1      -6.558  -0.015 -32.996  1.00  0.00     0.086 A 
HETATM   14  C   UNL     1      -6.931  -0.617 -34.191  1.00  0.00     0.062 A 
HETATM   15  C   UNL     1      -5.422  -0.480 -32.319  1.00  0.00     0.034 A 
HETATM   16  N   UNL     1      -8.069   0.049 -34.557  1.00  0.00    -0.338 N 
HETATM   17  C   UNL     1      -6.224  -1.670 -34.774  1.00  0.00     0.032 A 
HETATM   18  H   UNL     1      -8.646  -0.150 -35.362  1.00  0.00     0.167 HD
HETATM   19  C   UNL     1      -5.090  -2.118 -34.088  1.00  0.00     0.002 A 
HETATM   20  C   UNL     1      -4.694  -1.538 -32.880  1.00  0.00     0.002 A 
ENDBRANCH   6  11
ENDBRANCH   1   5
BRANCH   2  21
HETATM   21  C   UNL     1      -6.442   5.070 -31.985  1.00  0.00     0.034 A 
HETATM   22  C   UNL     1      -5.115   5.369 -32.317  1.00  0.00     0.047 A 
HETATM   23  C   UNL     1      -4.210   5.814 -31.341  1.00  0.00     0.046 A 
HETATM   24  C   UNL     1      -4.703   5.938 -30.028  1.00  0.00     0.030 A 
HETATM   25  C   UNL     1      -6.032   5.631 -29.700  1.00  0.00     0.003 A 
HETATM   26  C   UNL     1      -6.911   5.192 -30.681  1.00  0.00     0.017 A 
BRANCH  23  27
HETATM   27  N   UNL     1      -2.847   6.118 -31.668  1.00  0.00    -0.252 N 
HETATM   28  C   UNL     1      -2.383   7.376 -31.992  1.00  0.00     0.231 C 
HETATM   29  O   UNL     1      -2.963   8.453 -31.953  1.00  0.00    -0.273 OA
HETATM   30  C   UNL     1      -0.957   7.273 -32.439  1.00  0.00     0.113 C 
HETATM   31  C   UNL     1      -0.527   5.916 -31.952  1.00  0.00     0.113 C 
HETATM   32  C   UNL     1      -1.818   5.200 -31.690  1.00  0.00     0.231 C 
HETATM   33  O   UNL     1      -1.849   3.989 -31.519  1.00  0.00    -0.273 OA
ENDBRANCH  23  27
ENDBRANCH   2  21
TORSDOF 4
ENDMDL
